MODEL 1
REMARK VINA RESULT:     -13.7      0.000      0.000
REMARK SMILES O=C(OCCOC(=O)[C@@H](Cc1ccccc1)N1C(=O)/C(=C/c2ccc3ncccc3c2)SC1=S)c1ccc(-c2c3nc(c(-c4ccccc4)c4ccc([nH]4)c(-c4ccccc4)c4nc(c(-c5ccccc5)c5ccc2[nH]5)C=C4)C=C3)cc1
REMARK SMILES IDX 4 1 3 2 2 3 1 4 35 5 36 6 82 7 37 8 81 9 38 10 39 11 40 12
REMARK SMILES IDX 75 13 41 14 80 15 74 16 76 17 42 18 79 19 73 20 72 21 43 23
REMARK SMILES IDX 65 24 50 25 64 26 51 27 54 28 63 29 77 30 52 31 53 32 62 34
REMARK SMILES IDX 78 35 55 36 44 37 45 38 49 39 46 40 48 41 47 42 66 43 67 44
REMARK SMILES IDX 71 45 68 46 70 47 69 48 56 49 57 50 61 51 58 52 60 53 59 54
REMARK SMILES IDX 5 55 6 56 7 57 8 58 9 59 10 60 11 61 12 62 16 63 13 64 15 65
REMARK SMILES IDX 14 66 17 67 18 68 33 69 19 70 20 71 32 72 34 73 21 74 22 75
REMARK SMILES IDX 23 76 31 77 24 78 30 79 25 80 29 81 26 82 28 83 27 84
REMARK H PARENT 76 22 54 33
REMARK Flexibility Score: inf
ROOT
ATOM      1  C   UNL A   1      36.546  21.991  24.502  1.00  0.00     0.275 C 
ENDROOT
BRANCH   1   2
ATOM      2  O   UNL A   1      37.456  21.798  25.586  1.00  0.00    -0.458 OA
BRANCH   2   3
ATOM      3  C   UNL A   1      38.529  20.996  25.592  1.00  0.00     0.338 C 
ATOM      4  O   UNL A   1      38.428  19.867  25.112  1.00  0.00    -0.246 OA
BRANCH   3   5
ATOM      5  C   UNL A   1      39.879  21.340  26.131  1.00  0.00     0.060 A 
ATOM      6  C   UNL A   1      41.472  20.392  26.131  1.00  0.00     0.016 A 
ATOM      7  C   UNL A   1      39.915  23.100  26.557  1.00  0.00     0.016 A 
ATOM      8  C   UNL A   1      43.030  21.236  26.607  1.00  0.00     0.010 A 
ATOM      9  C   UNL A   1      41.493  23.939  26.841  1.00  0.00     0.010 A 
ATOM     10  C   UNL A   1      43.054  23.024  26.983  1.00  0.00    -0.014 A 
BRANCH  10  11
ATOM     11  C   UNL A   1      44.304  23.647  27.586  1.00  0.00     0.031 A 
ATOM     12  C   UNL A   1      45.362  24.368  26.765  1.00  0.00     0.074 A 
ATOM     13  C   UNL A   1      44.393  23.769  28.923  1.00  0.00     0.049 A 
ATOM     14  N   UNL A   1      45.994  25.484  27.055  1.00  0.00    -0.248 NA
ATOM     15  C   UNL A   1      45.739  23.835  25.451  1.00  0.00     0.031 C 
ATOM     16  C   UNL A   1      43.539  23.085  29.881  1.00  0.00     0.029 A 
ATOM     17  N   UNL A   1      45.214  24.540  29.710  1.00  0.00    -0.354 N 
ATOM     18  C   UNL A   1      46.653  25.866  25.888  1.00  0.00     0.074 A 
ATOM     19  C   UNL A   1      46.400  24.845  24.903  1.00  0.00     0.031 C 
ATOM     20  C   UNL A   1      43.798  23.529  31.115  1.00  0.00     0.029 A 
ATOM     21  C   UNL A   1      44.912  24.466  31.050  1.00  0.00     0.049 A 
ATOM     22  H   UNL A   1      45.946  25.091  29.350  1.00  0.00     0.167 HD
ATOM     23  C   UNL A   1      47.444  26.938  25.656  1.00  0.00     0.031 A 
ATOM     24  C   UNL A   1      45.483  25.064  32.114  1.00  0.00     0.031 A 
ATOM     25  C   UNL A   1      48.038  27.720  26.704  1.00  0.00     0.049 A 
ATOM     26  C   UNL A   1      46.579  26.064  31.861  1.00  0.00     0.074 A 
ATOM     27  C   UNL A   1      48.998  28.711  26.609  1.00  0.00     0.029 A 
ATOM     28  N   UNL A   1      47.820  27.493  28.053  1.00  0.00    -0.354 N 
ATOM     29  N   UNL A   1      46.977  26.583  30.722  1.00  0.00    -0.248 NA
ATOM     30  C   UNL A   1      47.302  26.564  33.036  1.00  0.00     0.031 C 
ATOM     31  C   UNL A   1      49.438  29.007  27.905  1.00  0.00     0.029 A 
ATOM     32  C   UNL A   1      48.695  28.256  28.803  1.00  0.00     0.049 A 
ATOM     33  H   UNL A   1      47.143  26.881  28.422  1.00  0.00     0.167 HD
ATOM     34  C   UNL A   1      47.993  27.473  31.050  1.00  0.00     0.074 A 
ATOM     35  C   UNL A   1      48.101  27.469  32.494  1.00  0.00     0.031 C 
ATOM     36  C   UNL A   1      48.786  28.214  30.236  1.00  0.00     0.031 A 
BRANCH  23  37
ATOM     37  C   UNL A   1      47.799  27.250  24.229  1.00  0.00    -0.014 A 
ATOM     38  C   UNL A   1      48.925  26.648  23.642  1.00  0.00     0.009 A 
ATOM     39  C   UNL A   1      47.001  28.100  23.450  1.00  0.00     0.009 A 
ATOM     40  C   UNL A   1      49.249  26.897  22.305  1.00  0.00     0.001 A 
ATOM     41  C   UNL A   1      47.326  28.344  22.112  1.00  0.00     0.001 A 
ATOM     42  C   UNL A   1      48.448  27.745  21.541  1.00  0.00     0.000 A 
ENDBRANCH  23  37
BRANCH  24  43
ATOM     43  C   UNL A   1      45.096  24.664  33.502  1.00  0.00    -0.014 A 
ATOM     44  C   UNL A   1      45.653  23.545  34.137  1.00  0.00     0.009 A 
ATOM     45  C   UNL A   1      44.097  25.383  34.185  1.00  0.00     0.009 A 
ATOM     46  C   UNL A   1      45.178  23.130  35.386  1.00  0.00     0.001 A 
ATOM     47  C   UNL A   1      43.694  25.024  35.470  1.00  0.00     0.001 A 
ATOM     48  C   UNL A   1      44.221  23.884  36.063  1.00  0.00     0.000 A 
ENDBRANCH  24  43
BRANCH  36  49
ATOM     49  C   UNL A   1      49.827  29.059  30.911  1.00  0.00    -0.014 A 
ATOM     50  C   UNL A   1      51.098  28.540  31.208  1.00  0.00     0.009 A 
ATOM     51  C   UNL A   1      49.525  30.379  31.274  1.00  0.00     0.009 A 
ATOM     52  C   UNL A   1      52.024  29.308  31.916  1.00  0.00     0.001 A 
ATOM     53  C   UNL A   1      50.466  31.156  31.949  1.00  0.00     0.001 A 
ATOM     54  C   UNL A   1      51.707  30.615  32.284  1.00  0.00     0.000 A 
ENDBRANCH  36  49
ENDBRANCH  10  11
ENDBRANCH   3   5
ENDBRANCH   2   3
ENDBRANCH   1   2
BRANCH   1  55
ATOM     55  C   UNL A   1      35.915  23.382  24.568  1.00  0.00     0.274 C 
BRANCH  55  56
ATOM     56  O   UNL A   1      34.972  23.381  25.649  1.00  0.00    -0.461 OA
BRANCH  56  57
ATOM     57  C   UNL A   1      34.059  22.406  25.859  1.00  0.00     0.329 C 
ATOM     58  O   UNL A   1      34.096  21.636  26.807  1.00  0.00    -0.250 OA
BRANCH  57  59
ATOM     59  C   UNL A   1      32.994  22.349  24.691  1.00  0.00     0.206 C 
BRANCH  59  60
ATOM     60  C   UNL A   1      32.279  20.798  23.939  1.00  0.00     0.073 C 
BRANCH  60  61
ATOM     61  C   UNL A   1      32.562  18.671  24.081  1.00  0.00    -0.045 A 
ATOM     62  C   UNL A   1      32.476  17.736  25.240  1.00  0.00     0.004 A 
ATOM     63  C   UNL A   1      33.128  17.697  23.043  1.00  0.00     0.004 A 
ATOM     64  C   UNL A   1      33.347  16.637  25.503  1.00  0.00     0.000 A 
ATOM     65  C   UNL A   1      34.007  16.614  23.274  1.00  0.00     0.000 A 
ATOM     66  C   UNL A   1      34.221  16.175  24.551  1.00  0.00     0.000 A 
ENDBRANCH  60  61
ENDBRANCH  59  60
BRANCH  59  67
ATOM     67  N   UNL A   1      32.115  23.571  24.648  1.00  0.00    -0.278 N 
ATOM     68  C   UNL A   1      32.366  24.568  23.724  1.00  0.00     0.267 C 
ATOM     69  C   UNL A   1      31.053  23.821  25.503  1.00  0.00     0.149 C 
ATOM     70  O   UNL A   1      33.248  24.590  22.877  1.00  0.00    -0.268 OA
ATOM     71  C   UNL A   1      31.440  25.712  23.894  1.00  0.00     0.081 C 
ATOM     72  S   UNL A   1      30.347  25.413  25.163  1.00  0.00    -0.054 SA
ATOM     73  S   UNL A   1      30.465  22.872  26.744  1.00  0.00    -0.052 S 
ATOM     74  C   UNL A   1      31.643  26.808  23.154  1.00  0.00     0.029 C 
BRANCH  74  75
ATOM     75  C   UNL A   1      31.088  28.148  23.318  1.00  0.00    -0.024 A 
ATOM     76  C   UNL A   1      31.362  28.972  24.402  1.00  0.00     0.010 A 
ATOM     77  C   UNL A   1      30.115  28.533  22.389  1.00  0.00     0.018 A 
ATOM     78  C   UNL A   1      30.647  30.170  24.557  1.00  0.00     0.029 A 
ATOM     79  C   UNL A   1      29.387  29.715  22.565  1.00  0.00     0.001 A 
ATOM     80  C   UNL A   1      29.654  30.559  23.662  1.00  0.00     0.070 A 
ATOM     81  C   UNL A   1      28.361  30.066  21.683  1.00  0.00     0.012 A 
ATOM     82  N   UNL A   1      28.963  31.696  23.867  1.00  0.00    -0.256 NA
ATOM     83  C   UNL A   1      27.632  31.225  21.906  1.00  0.00     0.021 A 
ATOM     84  C   UNL A   1      27.975  32.003  22.995  1.00  0.00     0.112 A 
ENDBRANCH  74  75
ENDBRANCH  59  67
ENDBRANCH  57  59
ENDBRANCH  56  57
ENDBRANCH  55  56
ENDBRANCH   1  55
TORSDOF 15
ENDMDL
MODEL 2
REMARK VINA RESULT:     -13.6      5.103      7.418
REMARK SMILES O=C(OCCOC(=O)[C@@H](Cc1ccccc1)N1C(=O)/C(=C/c2ccc3ncccc3c2)SC1=S)c1ccc(-c2c3nc(c(-c4ccccc4)c4ccc([nH]4)c(-c4ccccc4)c4nc(c(-c5ccccc5)c5ccc2[nH]5)C=C4)C=C3)cc1
REMARK SMILES IDX 4 1 3 2 2 3 1 4 35 5 36 6 82 7 37 8 81 9 38 10 39 11 40 12
REMARK SMILES IDX 75 13 41 14 80 15 74 16 76 17 42 18 79 19 73 20 72 21 43 23
REMARK SMILES IDX 65 24 50 25 64 26 51 27 54 28 63 29 77 30 52 31 53 32 62 34
REMARK SMILES IDX 78 35 55 36 44 37 45 38 49 39 46 40 48 41 47 42 66 43 67 44
REMARK SMILES IDX 71 45 68 46 70 47 69 48 56 49 57 50 61 51 58 52 60 53 59 54
REMARK SMILES IDX 5 55 6 56 7 57 8 58 9 59 10 60 11 61 12 62 16 63 13 64 15 65
REMARK SMILES IDX 14 66 17 67 18 68 33 69 19 70 20 71 32 72 34 73 21 74 22 75
REMARK SMILES IDX 23 76 31 77 24 78 30 79 25 80 29 81 26 82 28 83 27 84
REMARK H PARENT 76 22 54 33
REMARK Flexibility Score: inf
ROOT
ATOM      1  C   UNL A   1      40.772  20.429  25.973  1.00  0.00     0.275 C 
ENDROOT
BRANCH   1   2
ATOM      2  O   UNL A   1      42.113  20.814  26.282  1.00  0.00    -0.458 OA
BRANCH   2   3
ATOM      3  C   UNL A   1      42.785  21.849  25.760  1.00  0.00     0.338 C 
ATOM      4  O   UNL A   1      43.496  21.657  24.774  1.00  0.00    -0.246 OA
BRANCH   3   5
ATOM      5  C   UNL A   1      42.756  23.256  26.260  1.00  0.00     0.060 A 
ATOM      6  C   UNL A   1      42.983  24.871  25.378  1.00  0.00     0.016 A 
ATOM      7  C   UNL A   1      42.090  23.273  27.945  1.00  0.00     0.016 A 
ATOM      8  C   UNL A   1      42.579  26.439  26.240  1.00  0.00     0.010 A 
ATOM      9  C   UNL A   1      41.531  24.823  28.691  1.00  0.00     0.010 A 
ATOM     10  C   UNL A   1      41.859  26.433  27.919  1.00  0.00    -0.014 A 
BRANCH  10  11
ATOM     11  C   UNL A   1      41.743  27.738  28.691  1.00  0.00     0.031 A 
ATOM     12  C   UNL A   1      40.550  28.675  28.580  1.00  0.00     0.074 A 
ATOM     13  C   UNL A   1      42.616  27.991  29.683  1.00  0.00     0.049 A 
ATOM     14  N   UNL A   1      39.932  29.322  29.545  1.00  0.00    -0.248 NA
ATOM     15  C   UNL A   1      39.927  28.894  27.270  1.00  0.00     0.031 C 
ATOM     16  C   UNL A   1      43.862  27.272  29.899  1.00  0.00     0.029 A 
ATOM     17  N   UNL A   1      42.574  28.891  30.719  1.00  0.00    -0.354 N 
ATOM     18  C   UNL A   1      38.762  29.824  28.980  1.00  0.00     0.074 A 
ATOM     19  C   UNL A   1      38.773  29.466  27.585  1.00  0.00     0.031 C 
ATOM     20  C   UNL A   1      44.424  27.676  31.042  1.00  0.00     0.029 A 
ATOM     21  C   UNL A   1      43.624  28.759  31.599  1.00  0.00     0.049 A 
ATOM     22  H   UNL A   1      41.864  29.564  30.822  1.00  0.00     0.167 HD
ATOM     23  C   UNL A   1      37.781  30.565  29.546  1.00  0.00     0.031 A 
ATOM     24  C   UNL A   1      43.927  29.448  32.717  1.00  0.00     0.031 A 
ATOM     25  C   UNL A   1      37.944  31.272  30.785  1.00  0.00     0.049 A 
ATOM     26  C   UNL A   1      42.949  30.490  33.192  1.00  0.00     0.074 A 
ATOM     27  C   UNL A   1      37.100  32.197  31.372  1.00  0.00     0.029 A 
ATOM     28  N   UNL A   1      39.095  31.226  31.553  1.00  0.00    -0.354 N 
ATOM     29  N   UNL A   1      41.732  30.736  32.768  1.00  0.00    -0.248 NA
ATOM     30  C   UNL A   1      43.384  31.345  34.303  1.00  0.00     0.031 C 
ATOM     31  C   UNL A   1      37.791  32.791  32.437  1.00  0.00     0.029 A 
ATOM     32  C   UNL A   1      39.027  32.177  32.555  1.00  0.00     0.049 A 
ATOM     33  H   UNL A   1      39.849  30.610  31.408  1.00  0.00     0.167 HD
ATOM     34  C   UNL A   1      41.257  31.770  33.564  1.00  0.00     0.074 A 
ATOM     35  C   UNL A   1      42.292  32.057  34.536  1.00  0.00     0.031 C 
ATOM     36  C   UNL A   1      40.083  32.446  33.492  1.00  0.00     0.031 A 
BRANCH  23  37
ATOM     37  C   UNL A   1      36.501  30.734  28.777  1.00  0.00    -0.014 A 
ATOM     38  C   UNL A   1      35.717  29.608  28.470  1.00  0.00     0.009 A 
ATOM     39  C   UNL A   1      36.046  32.003  28.391  1.00  0.00     0.009 A 
ATOM     40  C   UNL A   1      34.505  29.751  27.787  1.00  0.00     0.001 A 
ATOM     41  C   UNL A   1      34.832  32.142  27.712  1.00  0.00     0.001 A 
ATOM     42  C   UNL A   1      34.064  31.018  27.409  1.00  0.00     0.000 A 
ENDBRANCH  23  37
BRANCH  24  43
ATOM     43  C   UNL A   1      45.242  29.243  33.398  1.00  0.00    -0.014 A 
ATOM     44  C   UNL A   1      46.406  29.903  32.982  1.00  0.00     0.009 A 
ATOM     45  C   UNL A   1      45.348  28.314  34.450  1.00  0.00     0.009 A 
ATOM     46  C   UNL A   1      47.641  29.594  33.562  1.00  0.00     0.001 A 
ATOM     47  C   UNL A   1      46.563  28.079  35.092  1.00  0.00     0.001 A 
ATOM     48  C   UNL A   1      47.715  28.705  34.634  1.00  0.00     0.000 A 
ENDBRANCH  24  43
BRANCH  36  49
ATOM     49  C   UNL A   1      39.888  33.549  34.491  1.00  0.00    -0.014 A 
ATOM     50  C   UNL A   1      40.355  34.849  34.232  1.00  0.00     0.009 A 
ATOM     51  C   UNL A   1      39.252  33.281  35.711  1.00  0.00     0.009 A 
ATOM     52  C   UNL A   1      40.246  35.842  35.206  1.00  0.00     0.001 A 
ATOM     53  C   UNL A   1      39.112  34.286  36.668  1.00  0.00     0.001 A 
ATOM     54  C   UNL A   1      39.624  35.560  36.422  1.00  0.00     0.000 A 
ENDBRANCH  36  49
ENDBRANCH  10  11
ENDBRANCH   3   5
ENDBRANCH   2   3
ENDBRANCH   1   2
BRANCH   1  55
ATOM     55  C   UNL A   1      39.774  21.412  26.585  1.00  0.00     0.274 C 
BRANCH  55  56
ATOM     56  O   UNL A   1      38.854  21.796  25.553  1.00  0.00    -0.461 OA
BRANCH  56  57
ATOM     57  C   UNL A   1      37.821  22.649  25.735  1.00  0.00     0.329 C 
ATOM     58  O   UNL A   1      37.921  23.717  26.321  1.00  0.00    -0.250 OA
BRANCH  57  59
ATOM     59  C   UNL A   1      36.472  22.055  25.162  1.00  0.00     0.206 C 
BRANCH  59  60
ATOM     60  C   UNL A   1      35.964  20.260  25.202  1.00  0.00     0.073 C 
BRANCH  60  61
ATOM     61  C   UNL A   1      34.332  19.040  24.515  1.00  0.00    -0.045 A 
ATOM     62  C   UNL A   1      34.285  17.628  24.037  1.00  0.00     0.004 A 
ATOM     63  C   UNL A   1      32.897  19.447  24.169  1.00  0.00     0.004 A 
ATOM     64  C   UNL A   1      33.508  17.133  22.948  1.00  0.00     0.000 A 
ATOM     65  C   UNL A   1      32.113  18.987  23.086  1.00  0.00     0.000 A 
ATOM     66  C   UNL A   1      32.512  17.887  22.379  1.00  0.00     0.000 A 
ENDBRANCH  60  61
ENDBRANCH  59  60
BRANCH  59  67
ATOM     67  N   UNL A   1      35.351  23.060  25.164  1.00  0.00    -0.278 N 
ATOM     68  C   UNL A   1      35.193  23.917  24.091  1.00  0.00     0.267 C 
ATOM     69  C   UNL A   1      34.441  23.241  26.195  1.00  0.00     0.149 C 
ATOM     70  O   UNL A   1      35.870  23.966  23.075  1.00  0.00    -0.268 OA
ATOM     71  C   UNL A   1      34.084  24.874  24.319  1.00  0.00     0.081 C 
ATOM     72  S   UNL A   1      33.347  24.587  25.825  1.00  0.00    -0.054 SA
ATOM     73  S   UNL A   1      34.328  22.418  27.643  1.00  0.00    -0.052 S 
ATOM     74  C   UNL A   1      33.892  25.848  23.423  1.00  0.00     0.029 C 
BRANCH  74  75
ATOM     75  C   UNL A   1      33.094  27.064  23.538  1.00  0.00    -0.024 A 
ATOM     76  C   UNL A   1      33.448  28.151  24.328  1.00  0.00     0.010 A 
ATOM     77  C   UNL A   1      31.837  27.040  22.923  1.00  0.00     0.018 A 
ATOM     78  C   UNL A   1      32.533  29.200  24.509  1.00  0.00     0.029 A 
ATOM     79  C   UNL A   1      30.920  28.077  23.132  1.00  0.00     0.001 A 
ATOM     80  C   UNL A   1      31.266  29.184  23.932  1.00  0.00     0.070 A 
ATOM     81  C   UNL A   1      29.635  28.021  22.583  1.00  0.00     0.012 A 
ATOM     82  N   UNL A   1      30.402  30.191  24.163  1.00  0.00    -0.256 NA
ATOM     83  C   UNL A   1      28.736  29.046  22.839  1.00  0.00     0.021 A 
ATOM     84  C   UNL A   1      29.166  30.102  23.618  1.00  0.00     0.112 A 
ENDBRANCH  74  75
ENDBRANCH  59  67
ENDBRANCH  57  59
ENDBRANCH  56  57
ENDBRANCH  55  56
ENDBRANCH   1  55
TORSDOF 15
ENDMDL
MODEL 3
REMARK VINA RESULT:     -13.4      5.677      7.916
REMARK SMILES O=C(OCCOC(=O)[C@@H](Cc1ccccc1)N1C(=O)/C(=C/c2ccc3ncccc3c2)SC1=S)c1ccc(-c2c3nc(c(-c4ccccc4)c4ccc([nH]4)c(-c4ccccc4)c4nc(c(-c5ccccc5)c5ccc2[nH]5)C=C4)C=C3)cc1
REMARK SMILES IDX 4 1 3 2 2 3 1 4 35 5 36 6 82 7 37 8 81 9 38 10 39 11 40 12
REMARK SMILES IDX 75 13 41 14 80 15 74 16 76 17 42 18 79 19 73 20 72 21 43 23
REMARK SMILES IDX 65 24 50 25 64 26 51 27 54 28 63 29 77 30 52 31 53 32 62 34
REMARK SMILES IDX 78 35 55 36 44 37 45 38 49 39 46 40 48 41 47 42 66 43 67 44
REMARK SMILES IDX 71 45 68 46 70 47 69 48 56 49 57 50 61 51 58 52 60 53 59 54
REMARK SMILES IDX 5 55 6 56 7 57 8 58 9 59 10 60 11 61 12 62 16 63 13 64 15 65
REMARK SMILES IDX 14 66 17 67 18 68 33 69 19 70 20 71 32 72 34 73 21 74 22 75
REMARK SMILES IDX 23 76 31 77 24 78 30 79 25 80 29 81 26 82 28 83 27 84
REMARK H PARENT 76 22 54 33
REMARK Flexibility Score: inf
ROOT
ATOM      1  C   UNL A   1      38.253  21.265  25.390  1.00  0.00     0.275 C 
ENDROOT
BRANCH   1   2
ATOM      2  O   UNL A   1      38.693  22.582  25.723  1.00  0.00    -0.458 OA
BRANCH   2   3
ATOM      3  C   UNL A   1      39.897  22.923  26.202  1.00  0.00     0.338 C 
ATOM      4  O   UNL A   1      40.822  22.118  26.107  1.00  0.00    -0.246 OA
BRANCH   3   5
ATOM      5  C   UNL A   1      40.246  24.220  26.855  1.00  0.00     0.060 A 
ATOM      6  C   UNL A   1      41.225  25.671  26.243  1.00  0.00     0.016 A 
ATOM      7  C   UNL A   1      39.253  24.414  28.357  1.00  0.00     0.016 A 
ATOM      8  C   UNL A   1      41.207  27.242  27.190  1.00  0.00     0.010 A 
ATOM      9  C   UNL A   1      39.114  26.031  29.159  1.00  0.00     0.010 A 
ATOM     10  C   UNL A   1      40.157  27.435  28.673  1.00  0.00    -0.014 A 
BRANCH  10  11
ATOM     11  C   UNL A   1      40.328  28.659  29.560  1.00  0.00     0.031 A 
ATOM     12  C   UNL A   1      39.409  29.869  29.506  1.00  0.00     0.074 A 
ATOM     13  C   UNL A   1      41.189  28.602  30.593  1.00  0.00     0.049 A 
ATOM     14  N   UNL A   1      38.923  30.566  30.510  1.00  0.00    -0.248 NA
ATOM     15  C   UNL A   1      38.922  30.344  28.206  1.00  0.00     0.031 C 
ATOM     16  C   UNL A   1      42.209  27.581  30.773  1.00  0.00     0.029 A 
ATOM     17  N   UNL A   1      41.320  29.395  31.707  1.00  0.00    -0.354 N 
ATOM     18  C   UNL A   1      37.940  31.389  29.965  1.00  0.00     0.074 A 
ATOM     19  C   UNL A   1      37.930  31.157  28.543  1.00  0.00     0.031 C 
ATOM     20  C   UNL A   1      42.797  27.736  31.963  1.00  0.00     0.029 A 
ATOM     21  C   UNL A   1      42.262  28.933  32.597  1.00  0.00     0.049 A 
ATOM     22  H   UNL A   1      40.792  30.213  31.854  1.00  0.00     0.167 HD
ATOM     23  C   UNL A   1      37.145  32.300  30.572  1.00  0.00     0.031 A 
ATOM     24  C   UNL A   1      42.671  29.430  33.781  1.00  0.00     0.031 A 
ATOM     25  C   UNL A   1      37.418  32.839  31.875  1.00  0.00     0.049 A 
ATOM     26  C   UNL A   1      41.957  30.638  34.326  1.00  0.00     0.074 A 
ATOM     27  C   UNL A   1      36.800  33.893  32.524  1.00  0.00     0.029 A 
ATOM     28  N   UNL A   1      38.485  32.444  32.665  1.00  0.00    -0.354 N 
ATOM     29  N   UNL A   1      40.859  31.214  33.895  1.00  0.00    -0.248 NA
ATOM     30  C   UNL A   1      42.535  31.263  35.522  1.00  0.00     0.031 C 
ATOM     31  C   UNL A   1      37.563  34.205  33.656  1.00  0.00     0.029 A 
ATOM     32  C   UNL A   1      38.604  33.295  33.748  1.00  0.00     0.049 A 
ATOM     33  H   UNL A   1      39.070  31.674  32.482  1.00  0.00     0.167 HD
ATOM     34  C   UNL A   1      40.615  32.264  34.772  1.00  0.00     0.074 A 
ATOM     35  C   UNL A   1      41.641  32.202  35.792  1.00  0.00     0.031 C 
ATOM     36  C   UNL A   1      39.647  33.213  34.733  1.00  0.00     0.031 A 
BRANCH  23  37
ATOM     37  C   UNL A   1      35.985  32.846  29.789  1.00  0.00    -0.014 A 
ATOM     38  C   UNL A   1      36.096  34.097  29.156  1.00  0.00     0.009 A 
ATOM     39  C   UNL A   1      34.799  32.114  29.638  1.00  0.00     0.009 A 
ATOM     40  C   UNL A   1      35.039  34.604  28.393  1.00  0.00     0.001 A 
ATOM     41  C   UNL A   1      33.746  32.622  28.872  1.00  0.00     0.001 A 
ATOM     42  C   UNL A   1      33.866  33.865  28.252  1.00  0.00     0.000 A 
ENDBRANCH  23  37
BRANCH  24  43
ATOM     43  C   UNL A   1      43.861  28.848  34.473  1.00  0.00    -0.014 A 
ATOM     44  C   UNL A   1      45.171  29.230  34.151  1.00  0.00     0.009 A 
ATOM     45  C   UNL A   1      43.686  27.836  35.437  1.00  0.00     0.009 A 
ATOM     46  C   UNL A   1      46.263  28.576  34.731  1.00  0.00     0.001 A 
ATOM     47  C   UNL A   1      44.774  27.254  36.085  1.00  0.00     0.001 A 
ATOM     48  C   UNL A   1      46.065  27.611  35.717  1.00  0.00     0.000 A 
ENDBRANCH  24  43
BRANCH  36  49
ATOM     49  C   UNL A   1      39.682  34.244  35.824  1.00  0.00    -0.014 A 
ATOM     50  C   UNL A   1      39.044  34.015  37.054  1.00  0.00     0.009 A 
ATOM     51  C   UNL A   1      40.338  35.463  35.610  1.00  0.00     0.009 A 
ATOM     52  C   UNL A   1      39.008  35.017  38.025  1.00  0.00     0.001 A 
ATOM     53  C   UNL A   1      40.332  36.449  36.597  1.00  0.00     0.001 A 
ATOM     54  C   UNL A   1      39.653  36.232  37.795  1.00  0.00     0.000 A 
ENDBRANCH  36  49
ENDBRANCH  10  11
ENDBRANCH   3   5
ENDBRANCH   2   3
ENDBRANCH   1   2
BRANCH   1  55
ATOM     55  C   UNL A   1      36.734  21.153  25.522  1.00  0.00     0.274 C 
BRANCH  55  56
ATOM     56  O   UNL A   1      36.153  21.710  24.335  1.00  0.00    -0.461 OA
BRANCH  56  57
ATOM     57  C   UNL A   1      35.393  22.828  24.314  1.00  0.00     0.329 C 
ATOM     58  O   UNL A   1      35.803  23.933  24.638  1.00  0.00    -0.250 OA
BRANCH  57  59
ATOM     59  C   UNL A   1      33.903  22.507  23.892  1.00  0.00     0.206 C 
BRANCH  59  60
ATOM     60  C   UNL A   1      33.113  20.817  23.873  1.00  0.00     0.073 C 
BRANCH  60  61
ATOM     61  C   UNL A   1      33.519  18.849  24.639  1.00  0.00    -0.045 A 
ATOM     62  C   UNL A   1      34.428  17.768  24.159  1.00  0.00     0.004 A 
ATOM     63  C   UNL A   1      32.785  18.063  25.731  1.00  0.00     0.004 A 
ATOM     64  C   UNL A   1      34.141  16.371  24.143  1.00  0.00     0.000 A 
ATOM     65  C   UNL A   1      32.471  16.685  25.730  1.00  0.00     0.000 A 
ATOM     66  C   UNL A   1      33.063  15.855  24.819  1.00  0.00     0.000 A 
ENDBRANCH  60  61
ENDBRANCH  59  60
BRANCH  59  67
ATOM     67  N   UNL A   1      32.974  23.669  24.119  1.00  0.00    -0.278 N 
ATOM     68  C   UNL A   1      32.810  24.624  23.134  1.00  0.00     0.267 C 
ATOM     69  C   UNL A   1      32.259  23.904  25.284  1.00  0.00     0.149 C 
ATOM     70  O   UNL A   1      33.338  24.650  22.032  1.00  0.00    -0.268 OA
ATOM     71  C   UNL A   1      31.917  25.719  23.580  1.00  0.00     0.081 C 
ATOM     72  S   UNL A   1      31.360  25.428  25.161  1.00  0.00    -0.054 SA
ATOM     73  S   UNL A   1      32.214  22.995  26.684  1.00  0.00    -0.052 S 
ATOM     74  C   UNL A   1      31.764  26.780  22.780  1.00  0.00     0.029 C 
BRANCH  74  75
ATOM     75  C   UNL A   1      31.201  28.091  23.083  1.00  0.00    -0.024 A 
ATOM     76  C   UNL A   1      31.431  28.778  24.269  1.00  0.00     0.010 A 
ATOM     77  C   UNL A   1      30.262  28.587  22.172  1.00  0.00     0.018 A 
ATOM     78  C   UNL A   1      30.709  29.950  24.540  1.00  0.00     0.029 A 
ATOM     79  C   UNL A   1      29.525  29.741  22.462  1.00  0.00     0.001 A 
ATOM     80  C   UNL A   1      29.748  30.446  23.662  1.00  0.00     0.070 A 
ATOM     81  C   UNL A   1      28.531  30.198  21.591  1.00  0.00     0.012 A 
ATOM     82  N   UNL A   1      29.047  31.552  23.977  1.00  0.00    -0.256 NA
ATOM     83  C   UNL A   1      27.792  31.323  21.925  1.00  0.00     0.021 A 
ATOM     84  C   UNL A   1      28.092  31.964  23.112  1.00  0.00     0.112 A 
ENDBRANCH  74  75
ENDBRANCH  59  67
ENDBRANCH  57  59
ENDBRANCH  56  57
ENDBRANCH  55  56
ENDBRANCH   1  55
TORSDOF 15
ENDMDL
