MODEL 1
REMARK VINA RESULT:      -9.3      0.000      0.000
REMARK SMILES COC(=O)C1=C(C)N(c2ccc(Br)cc2)C(=O)/C1=C\c1ccc(C(=O)OCCOC(=O)c2ccc(-c3c4nc(c(-c5ccccc5)c5ccc([nH]5)c(-c5ccccc5)c5nc(c(-c6ccccc6)c6ccc3[nH]6)C=C5)C=C4)cc2)cc1
REMARK SMILES IDX 27 1 26 2 24 3 25 4 23 5 20 6 21 7 81 8 22 9 80 10 19 11
REMARK SMILES IDX 5 12 6 13 18 14 7 15 8 16 16 17 17 18 3 19 4 20 2 21 1 22
REMARK SMILES IDX 9 23 10 24 15 25 11 26 14 27 12 28 13 29 28 30 29 31 30 32
REMARK SMILES IDX 31 33 32 34 33 35 79 36 34 37 78 38 35 39 36 40 37 41 72 42
REMARK SMILES IDX 38 43 77 44 71 45 73 46 39 47 76 48 70 49 69 50 40 52 62 53
REMARK SMILES IDX 47 54 61 55 48 56 51 57 60 58 74 59 49 60 50 61 59 63 75 64
REMARK SMILES IDX 52 65 41 66 42 67 46 68 43 69 45 70 44 71 63 72 64 73 68 74
REMARK SMILES IDX 65 75 67 76 66 77 53 78 54 79 58 80 55 81 57 82 56 83
REMARK H PARENT 73 51 51 62
REMARK Flexibility Score: inf
ROOT
ATOM      1  C   UNL A   1      32.971  37.197  30.325  1.00  0.00     0.275 C 
ENDROOT
BRANCH   1   2
ATOM      2  O   UNL A   1      32.218  36.718  31.460  1.00  0.00    -0.458 OA
BRANCH   2   3
ATOM      3  C   UNL A   1      32.925  36.563  32.606  1.00  0.00     0.338 C 
ATOM      4  O   UNL A   1      32.807  37.232  33.621  1.00  0.00    -0.246 OA
BRANCH   3   5
ATOM      5  C   UNL A   1      33.840  35.400  32.522  1.00  0.00     0.060 A 
ATOM      6  C   UNL A   1      35.551  33.188  32.639  1.00  0.00    -0.025 A 
ATOM      7  C   UNL A   1      34.201  33.030  32.938  1.00  0.00     0.009 A 
ATOM      8  C   UNL A   1      36.036  34.440  32.235  1.00  0.00     0.009 A 
ATOM      9  C   UNL A   1      33.364  34.140  32.910  1.00  0.00     0.016 A 
ATOM     10  C   UNL A   1      35.181  35.546  32.164  1.00  0.00     0.016 A 
BRANCH   6  11
ATOM     11  C   UNL A   1      36.457  32.067  32.873  1.00  0.00     0.023 C 
ATOM     12  C   UNL A   1      38.098  30.847  34.329  1.00  0.00     0.092 C 
ATOM     13  C   UNL A   1      38.637  31.102  35.542  1.00  0.00     0.039 C 
ATOM     14  C   UNL A   1      37.173  31.917  34.000  1.00  0.00     0.057 C 
ATOM     15  C   UNL A   1      39.600  30.219  36.267  1.00  0.00     0.066 C 
ATOM     16  N   UNL A   1      38.089  32.269  36.082  1.00  0.00    -0.280 N 
ATOM     17  C   UNL A   1      37.150  32.838  35.190  1.00  0.00     0.263 C 
ATOM     18  O   UNL A   1      36.488  33.849  35.319  1.00  0.00    -0.268 OA
BRANCH  12  19
ATOM     19  C   UNL A   1      38.339  29.674  33.468  1.00  0.00     0.340 C 
ATOM     20  O   UNL A   1      37.550  28.751  33.338  1.00  0.00    -0.246 OA
BRANCH  19  21
ATOM     21  O   UNL A   1      39.577  29.736  32.918  1.00  0.00    -0.465 OA
ATOM     22  C   UNL A   1      40.341  28.539  33.068  1.00  0.00     0.282 C 
ENDBRANCH  19  21
ENDBRANCH  12  19
BRANCH  16  23
ATOM     23  C   UNL A   1      38.328  32.870  37.346  1.00  0.00     0.049 A 
ATOM     24  C   UNL A   1      37.550  32.495  38.453  1.00  0.00     0.028 A 
ATOM     25  C   UNL A   1      39.318  33.844  37.523  1.00  0.00     0.028 A 
ATOM     26  C   UNL A   1      37.793  33.035  39.719  1.00  0.00     0.018 A 
ATOM     27  C   UNL A   1      39.554  34.399  38.786  1.00  0.00     0.018 A 
ATOM     28  C   UNL A   1      38.799  33.981  39.880  1.00  0.00     0.018 A 
ATOM     29  Br  UNL A   1      39.142  34.703  41.592  1.00  0.00    -0.051 Br
ENDBRANCH  16  23
ENDBRANCH   6  11
ENDBRANCH   3   5
ENDBRANCH   2   3
ENDBRANCH   1   2
BRANCH   1  30
ATOM     30  C   UNL A   1      32.764  36.320  29.088  1.00  0.00     0.275 C 
BRANCH  30  31
ATOM     31  O   UNL A   1      33.923  35.507  28.817  1.00  0.00    -0.458 OA
BRANCH  31  32
ATOM     32  C   UNL A   1      33.665  34.187  28.696  1.00  0.00     0.338 C 
ATOM     33  O   UNL A   1      32.572  33.652  28.607  1.00  0.00    -0.246 OA
BRANCH  32  34
ATOM     34  C   UNL A   1      34.903  33.403  28.579  1.00  0.00     0.060 A 
ATOM     35  C   UNL A   1      34.945  32.191  29.251  1.00  0.00     0.016 A 
ATOM     36  C   UNL A   1      36.081  33.975  28.111  1.00  0.00     0.016 A 
ATOM     37  C   UNL A   1      36.162  31.653  29.649  1.00  0.00     0.010 A 
ATOM     38  C   UNL A   1      37.305  33.340  28.373  1.00  0.00     0.010 A 
ATOM     39  C   UNL A   1      37.371  32.215  29.217  1.00  0.00    -0.014 A 
BRANCH  39  40
ATOM     40  C   UNL A   1      38.674  31.660  29.706  1.00  0.00     0.031 A 
ATOM     41  C   UNL A   1      39.196  30.337  29.184  1.00  0.00     0.074 A 
ATOM     42  C   UNL A   1      39.426  32.353  30.590  1.00  0.00     0.049 A 
ATOM     43  N   UNL A   1      40.235  29.641  29.581  1.00  0.00    -0.248 NA
ATOM     44  C   UNL A   1      38.447  29.703  28.087  1.00  0.00     0.031 C 
ATOM     45  C   UNL A   1      39.086  33.659  31.162  1.00  0.00     0.029 A 
ATOM     46  N   UNL A   1      40.647  32.063  31.152  1.00  0.00    -0.354 N 
ATOM     47  C   UNL A   1      40.219  28.465  28.837  1.00  0.00     0.074 A 
ATOM     48  C   UNL A   1      39.062  28.534  27.972  1.00  0.00     0.031 C 
ATOM     49  C   UNL A   1      40.092  34.080  31.940  1.00  0.00     0.029 A 
ATOM     50  C   UNL A   1      41.100  33.032  32.016  1.00  0.00     0.049 A 
ATOM     51  H   UNL A   1      41.150  31.239  30.956  1.00  0.00     0.167 HD
ATOM     52  C   UNL A   1      41.084  27.423  28.868  1.00  0.00     0.031 A 
ATOM     53  C   UNL A   1      42.177  33.066  32.823  1.00  0.00     0.031 A 
ATOM     54  C   UNL A   1      42.269  27.373  29.685  1.00  0.00     0.049 A 
ATOM     55  C   UNL A   1      43.106  31.887  32.854  1.00  0.00     0.074 A 
ATOM     56  C   UNL A   1      43.226  26.373  29.755  1.00  0.00     0.029 A 
ATOM     57  N   UNL A   1      42.668  28.368  30.562  1.00  0.00    -0.354 N 
ATOM     58  N   UNL A   1      43.058  30.777  32.160  1.00  0.00    -0.248 NA
ATOM     59  C   UNL A   1      44.240  31.969  33.785  1.00  0.00     0.031 C 
ATOM     60  C   UNL A   1      44.171  26.737  30.719  1.00  0.00     0.029 A 
ATOM     61  C   UNL A   1      43.844  27.995  31.195  1.00  0.00     0.049 A 
ATOM     62  H   UNL A   1      42.189  29.214  30.714  1.00  0.00     0.167 HD
ATOM     63  C   UNL A   1      44.165  30.038  32.555  1.00  0.00     0.074 A 
ATOM     64  C   UNL A   1      44.883  30.841  33.522  1.00  0.00     0.031 C 
ATOM     65  C   UNL A   1      44.550  28.800  32.157  1.00  0.00     0.031 A 
BRANCH  52  66
ATOM     66  C   UNL A   1      40.768  26.217  28.021  1.00  0.00    -0.014 A 
ATOM     67  C   UNL A   1      41.428  25.965  26.807  1.00  0.00     0.009 A 
ATOM     68  C   UNL A   1      39.830  25.279  28.484  1.00  0.00     0.009 A 
ATOM     69  C   UNL A   1      41.131  24.819  26.065  1.00  0.00     0.001 A 
ATOM     70  C   UNL A   1      39.559  24.118  27.757  1.00  0.00     0.001 A 
ATOM     71  C   UNL A   1      40.204  23.893  26.543  1.00  0.00     0.000 A 
ENDBRANCH  52  66
BRANCH  53  72
ATOM     72  C   UNL A   1      42.405  34.232  33.723  1.00  0.00    -0.014 A 
ATOM     73  C   UNL A   1      41.960  34.217  35.052  1.00  0.00     0.009 A 
ATOM     74  C   UNL A   1      43.046  35.385  33.238  1.00  0.00     0.009 A 
ATOM     75  C   UNL A   1      42.118  35.343  35.866  1.00  0.00     0.001 A 
ATOM     76  C   UNL A   1      43.241  36.492  34.065  1.00  0.00     0.001 A 
ATOM     77  C   UNL A   1      42.763  36.476  35.374  1.00  0.00     0.000 A 
ENDBRANCH  53  72
BRANCH  65  78
ATOM     78  C   UNL A   1      45.835  28.270  32.732  1.00  0.00    -0.014 A 
ATOM     79  C   UNL A   1      45.855  27.519  33.918  1.00  0.00     0.009 A 
ATOM     80  C   UNL A   1      47.046  28.535  32.076  1.00  0.00     0.009 A 
ATOM     81  C   UNL A   1      47.068  27.095  34.464  1.00  0.00     0.001 A 
ATOM     82  C   UNL A   1      48.254  28.077  32.604  1.00  0.00     0.001 A 
ATOM     83  C   UNL A   1      48.266  27.372  33.806  1.00  0.00     0.000 A 
ENDBRANCH  65  78
ENDBRANCH  39  40
ENDBRANCH  32  34
ENDBRANCH  31  32
ENDBRANCH  30  31
ENDBRANCH   1  30
TORSDOF 15
ENDMDL
MODEL 2
REMARK VINA RESULT:      -9.0      7.307     13.389
REMARK SMILES COC(=O)C1=C(C)N(c2ccc(Br)cc2)C(=O)/C1=C\c1ccc(C(=O)OCCOC(=O)c2ccc(-c3c4nc(c(-c5ccccc5)c5ccc([nH]5)c(-c5ccccc5)c5nc(c(-c6ccccc6)c6ccc3[nH]6)C=C5)C=C4)cc2)cc1
REMARK SMILES IDX 27 1 26 2 24 3 25 4 23 5 20 6 21 7 81 8 22 9 80 10 19 11
REMARK SMILES IDX 5 12 6 13 18 14 7 15 8 16 16 17 17 18 3 19 4 20 2 21 1 22
REMARK SMILES IDX 9 23 10 24 15 25 11 26 14 27 12 28 13 29 28 30 29 31 30 32
REMARK SMILES IDX 31 33 32 34 33 35 79 36 34 37 78 38 35 39 36 40 37 41 72 42
REMARK SMILES IDX 38 43 77 44 71 45 73 46 39 47 76 48 70 49 69 50 40 52 62 53
REMARK SMILES IDX 47 54 61 55 48 56 51 57 60 58 74 59 49 60 50 61 59 63 75 64
REMARK SMILES IDX 52 65 41 66 42 67 46 68 43 69 45 70 44 71 63 72 64 73 68 74
REMARK SMILES IDX 65 75 67 76 66 77 53 78 54 79 58 80 55 81 57 82 56 83
REMARK H PARENT 73 51 51 62
REMARK Flexibility Score: inf
ROOT
ATOM      1  C   UNL A   1      41.956  19.778  27.297  1.00  0.00     0.275 C 
ENDROOT
BRANCH   1   2
ATOM      2  O   UNL A   1      41.761  21.111  26.778  1.00  0.00    -0.458 OA
BRANCH   2   3
ATOM      3  C   UNL A   1      40.915  21.896  27.488  1.00  0.00     0.338 C 
ATOM      4  O   UNL A   1      41.071  22.263  28.643  1.00  0.00    -0.246 OA
BRANCH   3   5
ATOM      5  C   UNL A   1      39.771  22.344  26.659  1.00  0.00     0.060 A 
ATOM      6  C   UNL A   1      37.453  23.160  25.319  1.00  0.00    -0.025 A 
ATOM      7  C   UNL A   1      38.012  23.984  26.292  1.00  0.00     0.009 A 
ATOM      8  C   UNL A   1      38.080  21.951  24.982  1.00  0.00     0.009 A 
ATOM      9  C   UNL A   1      39.144  23.557  26.977  1.00  0.00     0.016 A 
ATOM     10  C   UNL A   1      39.245  21.546  25.642  1.00  0.00     0.016 A 
BRANCH   6  11
ATOM     11  C   UNL A   1      36.154  23.520  24.757  1.00  0.00     0.023 C 
ATOM     12  C   UNL A   1      33.833  22.893  24.036  1.00  0.00     0.092 C 
ATOM     13  C   UNL A   1      33.152  21.726  23.999  1.00  0.00     0.039 C 
ATOM     14  C   UNL A   1      35.153  22.640  24.584  1.00  0.00     0.057 C 
ATOM     15  C   UNL A   1      31.737  21.561  23.547  1.00  0.00     0.066 C 
ATOM     16  N   UNL A   1      33.924  20.695  24.542  1.00  0.00    -0.280 N 
ATOM     17  C   UNL A   1      35.188  21.180  24.950  1.00  0.00     0.263 C 
ATOM     18  O   UNL A   1      36.114  20.575  25.453  1.00  0.00    -0.268 OA
BRANCH  12  19
ATOM     19  C   UNL A   1      33.348  24.229  23.643  1.00  0.00     0.340 C 
ATOM     20  O   UNL A   1      33.035  25.102  24.438  1.00  0.00    -0.246 OA
BRANCH  19  21
ATOM     21  O   UNL A   1      33.227  24.311  22.294  1.00  0.00    -0.465 OA
ATOM     22  C   UNL A   1      33.250  25.647  21.788  1.00  0.00     0.282 C 
ENDBRANCH  19  21
ENDBRANCH  12  19
BRANCH  16  23
ATOM     23  C   UNL A   1      33.582  19.332  24.747  1.00  0.00     0.049 A 
ATOM     24  C   UNL A   1      34.013  18.361  23.829  1.00  0.00     0.028 A 
ATOM     25  C   UNL A   1      32.811  18.922  25.841  1.00  0.00     0.028 A 
ATOM     26  C   UNL A   1      33.732  17.007  24.029  1.00  0.00     0.018 A 
ATOM     27  C   UNL A   1      32.514  17.569  26.036  1.00  0.00     0.018 A 
ATOM     28  C   UNL A   1      32.988  16.617  25.136  1.00  0.00     0.018 A 
ATOM     29  Br  UNL A   1      32.618  14.785  25.419  1.00  0.00    -0.051 Br
ENDBRANCH  16  23
ENDBRANCH   6  11
ENDBRANCH   3   5
ENDBRANCH   2   3
ENDBRANCH   1   2
BRANCH   1  30
ATOM     30  C   UNL A   1      42.455  18.811  26.221  1.00  0.00     0.275 C 
BRANCH  30  31
ATOM     31  O   UNL A   1      42.790  19.504  25.002  1.00  0.00    -0.458 OA
BRANCH  31  32
ATOM     32  C   UNL A   1      44.101  19.467  24.679  1.00  0.00     0.338 C 
ATOM     33  O   UNL A   1      44.743  18.499  24.303  1.00  0.00    -0.246 OA
BRANCH  32  34
ATOM     34  C   UNL A   1      44.709  20.803  24.734  1.00  0.00     0.060 A 
ATOM     35  C   UNL A   1      45.466  21.104  25.856  1.00  0.00     0.016 A 
ATOM     36  C   UNL A   1      44.289  21.826  23.890  1.00  0.00     0.016 A 
ATOM     37  C   UNL A   1      45.624  22.423  26.261  1.00  0.00     0.010 A 
ATOM     38  C   UNL A   1      44.594  23.156  24.216  1.00  0.00     0.010 A 
ATOM     39  C   UNL A   1      45.193  23.480  25.449  1.00  0.00    -0.014 A 
BRANCH  39  40
ATOM     40  C   UNL A   1      45.315  24.894  25.929  1.00  0.00     0.031 A 
ATOM     41  C   UNL A   1      46.628  25.640  25.813  1.00  0.00     0.074 A 
ATOM     42  C   UNL A   1      44.241  25.542  26.434  1.00  0.00     0.049 A 
ATOM     43  N   UNL A   1      46.956  26.819  26.286  1.00  0.00    -0.248 NA
ATOM     44  C   UNL A   1      47.721  24.971  25.088  1.00  0.00     0.031 C 
ATOM     45  C   UNL A   1      42.895  24.980  26.580  1.00  0.00     0.029 A 
ATOM     46  N   UNL A   1      44.107  26.827  26.906  1.00  0.00    -0.354 N 
ATOM     47  C   UNL A   1      48.302  26.996  25.980  1.00  0.00     0.074 A 
ATOM     48  C   UNL A   1      48.735  25.801  25.290  1.00  0.00     0.031 C 
ATOM     49  C   UNL A   1      42.066  25.924  27.046  1.00  0.00     0.029 A 
ATOM     50  C   UNL A   1      42.836  27.125  27.339  1.00  0.00     0.049 A 
ATOM     51  H   UNL A   1      44.850  27.472  26.932  1.00  0.00     0.167 HD
ATOM     52  C   UNL A   1      49.107  28.054  26.247  1.00  0.00     0.031 A 
ATOM     53  C   UNL A   1      42.342  28.218  27.950  1.00  0.00     0.031 A 
ATOM     54  C   UNL A   1      48.668  29.270  26.882  1.00  0.00     0.049 A 
ATOM     55  C   UNL A   1      43.262  29.365  28.253  1.00  0.00     0.074 A 
ATOM     56  C   UNL A   1      49.405  30.410  27.160  1.00  0.00     0.029 A 
ATOM     57  N   UNL A   1      47.378  29.511  27.325  1.00  0.00    -0.354 N 
ATOM     58  N   UNL A   1      44.535  29.501  27.977  1.00  0.00    -0.248 NA
ATOM     59  C   UNL A   1      42.671  30.511  28.958  1.00  0.00     0.031 C 
ATOM     60  C   UNL A   1      48.574  31.318  27.825  1.00  0.00     0.029 A 
ATOM     61  C   UNL A   1      47.303  30.772  27.895  1.00  0.00     0.049 A 
ATOM     62  H   UNL A   1      46.626  28.881  27.247  1.00  0.00     0.167 HD
ATOM     63  C   UNL A   1      44.892  30.755  28.454  1.00  0.00     0.074 A 
ATOM     64  C   UNL A   1      43.694  31.352  29.005  1.00  0.00     0.031 C 
ATOM     65  C   UNL A   1      46.107  31.357  28.442  1.00  0.00     0.031 A 
BRANCH  52  66
ATOM     66  C   UNL A   1      50.567  27.938  25.891  1.00  0.00    -0.014 A 
ATOM     67  C   UNL A   1      51.064  28.341  24.642  1.00  0.00     0.009 A 
ATOM     68  C   UNL A   1      51.474  27.471  26.858  1.00  0.00     0.009 A 
ATOM     69  C   UNL A   1      52.429  28.249  24.360  1.00  0.00     0.001 A 
ATOM     70  C   UNL A   1      52.842  27.411  26.586  1.00  0.00     0.001 A 
ATOM     71  C   UNL A   1      53.318  27.792  25.333  1.00  0.00     0.000 A 
ENDBRANCH  52  66
BRANCH  53  72
ATOM     72  C   UNL A   1      40.915  28.259  28.378  1.00  0.00    -0.014 A 
ATOM     73  C   UNL A   1      39.942  28.889  27.589  1.00  0.00     0.009 A 
ATOM     74  C   UNL A   1      40.528  27.692  29.604  1.00  0.00     0.009 A 
ATOM     75  C   UNL A   1      38.620  28.981  28.034  1.00  0.00     0.001 A 
ATOM     76  C   UNL A   1      39.199  27.748  30.026  1.00  0.00     0.001 A 
ATOM     77  C   UNL A   1      38.249  28.406  29.248  1.00  0.00     0.000 A 
ENDBRANCH  53  72
BRANCH  65  78
ATOM     78  C   UNL A   1      46.179  32.753  28.997  1.00  0.00    -0.014 A 
ATOM     79  C   UNL A   1      45.893  33.876  28.204  1.00  0.00     0.009 A 
ATOM     80  C   UNL A   1      46.548  32.945  30.337  1.00  0.00     0.009 A 
ATOM     81  C   UNL A   1      46.032  35.163  28.727  1.00  0.00     0.001 A 
ATOM     82  C   UNL A   1      46.648  34.231  30.868  1.00  0.00     0.001 A 
ATOM     83  C   UNL A   1      46.406  35.340  30.058  1.00  0.00     0.000 A 
ENDBRANCH  65  78
ENDBRANCH  39  40
ENDBRANCH  32  34
ENDBRANCH  31  32
ENDBRANCH  30  31
ENDBRANCH   1  30
TORSDOF 15
ENDMDL
MODEL 3
REMARK VINA RESULT:      -9.0      7.470     13.371
REMARK SMILES COC(=O)C1=C(C)N(c2ccc(Br)cc2)C(=O)/C1=C\c1ccc(C(=O)OCCOC(=O)c2ccc(-c3c4nc(c(-c5ccccc5)c5ccc([nH]5)c(-c5ccccc5)c5nc(c(-c6ccccc6)c6ccc3[nH]6)C=C5)C=C4)cc2)cc1
REMARK SMILES IDX 27 1 26 2 24 3 25 4 23 5 20 6 21 7 81 8 22 9 80 10 19 11
REMARK SMILES IDX 5 12 6 13 18 14 7 15 8 16 16 17 17 18 3 19 4 20 2 21 1 22
REMARK SMILES IDX 9 23 10 24 15 25 11 26 14 27 12 28 13 29 28 30 29 31 30 32
REMARK SMILES IDX 31 33 32 34 33 35 79 36 34 37 78 38 35 39 36 40 37 41 72 42
REMARK SMILES IDX 38 43 77 44 71 45 73 46 39 47 76 48 70 49 69 50 40 52 62 53
REMARK SMILES IDX 47 54 61 55 48 56 51 57 60 58 74 59 49 60 50 61 59 63 75 64
REMARK SMILES IDX 52 65 41 66 42 67 46 68 43 69 45 70 44 71 63 72 64 73 68 74
REMARK SMILES IDX 65 75 67 76 66 77 53 78 54 79 58 80 55 81 57 82 56 83
REMARK H PARENT 73 51 51 62
REMARK Flexibility Score: inf
ROOT
ATOM      1  C   UNL A   1      42.272  20.364  27.285  1.00  0.00     0.275 C 
ENDROOT
BRANCH   1   2
ATOM      2  O   UNL A   1      41.967  21.658  26.723  1.00  0.00    -0.458 OA
BRANCH   2   3
ATOM      3  C   UNL A   1      41.257  22.490  27.524  1.00  0.00     0.338 C 
ATOM      4  O   UNL A   1      41.662  23.029  28.543  1.00  0.00    -0.246 OA
BRANCH   3   5
ATOM      5  C   UNL A   1      39.906  22.747  26.971  1.00  0.00     0.060 A 
ATOM      6  C   UNL A   1      37.477  23.265  25.680  1.00  0.00    -0.025 A 
ATOM      7  C   UNL A   1      38.155  22.078  25.420  1.00  0.00     0.009 A 
ATOM      8  C   UNL A   1      37.989  24.171  26.620  1.00  0.00     0.009 A 
ATOM      9  C   UNL A   1      39.377  21.842  26.039  1.00  0.00     0.016 A 
ATOM     10  C   UNL A   1      39.197  23.910  27.276  1.00  0.00     0.016 A 
BRANCH   6  11
ATOM     11  C   UNL A   1      36.307  23.596  24.872  1.00  0.00     0.023 C 
ATOM     12  C   UNL A   1      34.138  22.939  23.791  1.00  0.00     0.092 C 
ATOM     13  C   UNL A   1      33.452  21.778  23.710  1.00  0.00     0.039 C 
ATOM     14  C   UNL A   1      35.335  22.714  24.582  1.00  0.00     0.057 C 
ATOM     15  C   UNL A   1      32.136  21.594  23.025  1.00  0.00     0.066 C 
ATOM     16  N   UNL A   1      34.093  20.781  24.449  1.00  0.00    -0.280 N 
ATOM     17  C   UNL A   1      35.274  21.283  25.043  1.00  0.00     0.263 C 
ATOM     18  O   UNL A   1      36.084  20.706  25.743  1.00  0.00    -0.268 OA
BRANCH  12  19
ATOM     19  C   UNL A   1      33.758  24.249  23.229  1.00  0.00     0.340 C 
ATOM     20  O   UNL A   1      34.025  24.607  22.093  1.00  0.00    -0.246 OA
BRANCH  19  21
ATOM     21  O   UNL A   1      33.152  25.011  24.174  1.00  0.00    -0.465 OA
ATOM     22  C   UNL A   1      32.589  26.224  23.670  1.00  0.00     0.282 C 
ENDBRANCH  19  21
ENDBRANCH  12  19
BRANCH  16  23
ATOM     23  C   UNL A   1      33.693  19.438  24.680  1.00  0.00     0.049 A 
ATOM     24  C   UNL A   1      34.093  18.430  23.787  1.00  0.00     0.028 A 
ATOM     25  C   UNL A   1      32.895  19.085  25.774  1.00  0.00     0.028 A 
ATOM     26  C   UNL A   1      33.754  17.094  24.014  1.00  0.00     0.018 A 
ATOM     27  C   UNL A   1      32.540  17.749  25.995  1.00  0.00     0.018 A 
ATOM     28  C   UNL A   1      32.983  16.759  25.121  1.00  0.00     0.018 A 
ATOM     29  Br  UNL A   1      32.534  14.951  25.439  1.00  0.00    -0.051 Br
ENDBRANCH  16  23
ENDBRANCH   6  11
ENDBRANCH   3   5
ENDBRANCH   2   3
ENDBRANCH   1   2
BRANCH   1  30
ATOM     30  C   UNL A   1      42.532  19.315  26.201  1.00  0.00     0.275 C 
BRANCH  30  31
ATOM     31  O   UNL A   1      42.910  19.929  24.952  1.00  0.00    -0.458 OA
BRANCH  31  32
ATOM     32  C   UNL A   1      44.219  19.809  24.643  1.00  0.00     0.338 C 
ATOM     33  O   UNL A   1      44.798  18.810  24.247  1.00  0.00    -0.246 OA
BRANCH  32  34
ATOM     34  C   UNL A   1      44.918  21.098  24.743  1.00  0.00     0.060 A 
ATOM     35  C   UNL A   1      45.631  21.339  25.907  1.00  0.00     0.016 A 
ATOM     36  C   UNL A   1      44.620  22.152  23.885  1.00  0.00     0.016 A 
ATOM     37  C   UNL A   1      45.860  22.642  26.331  1.00  0.00     0.010 A 
ATOM     38  C   UNL A   1      45.001  23.456  24.238  1.00  0.00     0.010 A 
ATOM     39  C   UNL A   1      45.552  23.731  25.504  1.00  0.00    -0.014 A 
BRANCH  39  40
ATOM     40  C   UNL A   1      45.748  25.130  26.002  1.00  0.00     0.031 A 
ATOM     41  C   UNL A   1      44.592  25.909  26.594  1.00  0.00     0.074 A 
ATOM     42  C   UNL A   1      46.972  25.703  25.973  1.00  0.00     0.049 A 
ATOM     43  N   UNL A   1      44.542  27.169  26.959  1.00  0.00    -0.248 NA
ATOM     44  C   UNL A   1      43.321  25.190  26.783  1.00  0.00     0.031 C 
ATOM     45  C   UNL A   1      48.198  25.076  25.471  1.00  0.00     0.029 A 
ATOM     46  N   UNL A   1      47.392  26.944  26.391  1.00  0.00    -0.354 N 
ATOM     47  C   UNL A   1      43.227  27.405  27.349  1.00  0.00     0.074 A 
ATOM     48  C   UNL A   1      42.507  26.163  27.167  1.00  0.00     0.031 C 
ATOM     49  C   UNL A   1      49.233  25.904  25.663  1.00  0.00     0.029 A 
ATOM     50  C   UNL A   1      48.736  27.165  26.196  1.00  0.00     0.049 A 
ATOM     51  H   UNL A   1      46.789  27.612  26.791  1.00  0.00     0.167 HD
ATOM     52  C   UNL A   1      42.666  28.547  27.816  1.00  0.00     0.031 A 
ATOM     53  C   UNL A   1      49.488  28.267  26.376  1.00  0.00     0.031 A 
ATOM     54  C   UNL A   1      43.390  29.770  28.054  1.00  0.00     0.049 A 
ATOM     55  C   UNL A   1      48.836  29.525  26.873  1.00  0.00     0.074 A 
ATOM     56  C   UNL A   1      42.912  30.968  28.561  1.00  0.00     0.029 A 
ATOM     57  N   UNL A   1      44.742  29.949  27.816  1.00  0.00    -0.354 N 
ATOM     58  N   UNL A   1      47.588  29.732  27.212  1.00  0.00    -0.248 NA
ATOM     59  C   UNL A   1      49.702  30.704  27.008  1.00  0.00     0.031 C 
ATOM     60  C   UNL A   1      43.964  31.889  28.574  1.00  0.00     0.029 A 
ATOM     61  C   UNL A   1      45.112  31.244  28.144  1.00  0.00     0.049 A 
ATOM     62  H   UNL A   1      45.351  29.259  27.466  1.00  0.00     0.167 HD
ATOM     63  C   UNL A   1      47.523  31.057  27.622  1.00  0.00     0.074 A 
ATOM     64  C   UNL A   1      48.864  31.593  27.520  1.00  0.00     0.031 C 
ATOM     65  C   UNL A   1      46.447  31.769  28.039  1.00  0.00     0.031 A 
BRANCH  52  66
ATOM     66  C   UNL A   1      41.180  28.553  28.068  1.00  0.00    -0.014 A 
ATOM     67  C   UNL A   1      40.635  28.216  29.317  1.00  0.00     0.009 A 
ATOM     68  C   UNL A   1      40.312  28.969  27.044  1.00  0.00     0.009 A 
ATOM     69  C   UNL A   1      39.254  28.265  29.523  1.00  0.00     0.001 A 
ATOM     70  C   UNL A   1      38.936  29.048  27.261  1.00  0.00     0.001 A 
ATOM     71  C   UNL A   1      38.406  28.688  28.499  1.00  0.00     0.000 A 
ENDBRANCH  52  66
BRANCH  53  72
ATOM     72  C   UNL A   1      50.935  28.255  26.021  1.00  0.00    -0.014 A 
ATOM     73  C   UNL A   1      51.362  28.543  24.717  1.00  0.00     0.009 A 
ATOM     74  C   UNL A   1      51.898  27.920  26.988  1.00  0.00     0.009 A 
ATOM     75  C   UNL A   1      52.716  28.461  24.380  1.00  0.00     0.001 A 
ATOM     76  C   UNL A   1      53.254  27.880  26.660  1.00  0.00     0.001 A 
ATOM     77  C   UNL A   1      53.661  28.136  25.352  1.00  0.00     0.000 A 
ENDBRANCH  53  72
BRANCH  65  78
ATOM     78  C   UNL A   1      46.697  33.189  28.466  1.00  0.00    -0.014 A 
ATOM     79  C   UNL A   1      46.846  34.224  27.529  1.00  0.00     0.009 A 
ATOM     80  C   UNL A   1      46.790  33.493  29.833  1.00  0.00     0.009 A 
ATOM     81  C   UNL A   1      47.142  35.522  27.952  1.00  0.00     0.001 A 
ATOM     82  C   UNL A   1      47.047  34.798  30.254  1.00  0.00     0.001 A 
ATOM     83  C   UNL A   1      47.240  35.808  29.312  1.00  0.00     0.000 A 
ENDBRANCH  65  78
ENDBRANCH  39  40
ENDBRANCH  32  34
ENDBRANCH  31  32
ENDBRANCH  30  31
ENDBRANCH   1  30
TORSDOF 15
ENDMDL
