MODEL 1
REMARK VINA RESULT:      -8.5      0.000      0.000
REMARK SMILES CC(C)c1cc(OCC(=O)OCCOC(=O)c2ccc(-c3c4nc(c(-c5ccccc5)c5ccc([nH]5)c(-c5ccccc5)c5nc(c(-c6ccccc6)c6ccc3[nH]6)C=C5)C=C4)cc2)nc(Nc2ccc(F)cc2F)n1
REMARK SMILES IDX 12 1 11 2 9 3 10 4 8 5 7 6 6 7 4 8 5 9 76 10 66 11 65 12
REMARK SMILES IDX 2 13 1 14 3 15 67 16 68 18 69 19 74 20 70 21 73 22 75 23
REMARK SMILES IDX 71 24 72 25 13 26 14 27 15 28 16 29 17 30 18 31 64 32 19 33
REMARK SMILES IDX 63 34 20 35 21 36 22 37 57 38 23 39 62 40 56 41 58 42 24 43
REMARK SMILES IDX 61 44 55 45 54 46 25 48 47 49 32 50 46 51 33 52 36 53 45 54
REMARK SMILES IDX 59 55 34 56 35 57 44 59 60 60 37 61 26 62 27 63 31 64 28 65
REMARK SMILES IDX 30 66 29 67 48 68 49 69 53 70 50 71 52 72 51 73 38 74 39 75
REMARK SMILES IDX 43 76 40 77 42 78 41 79
REMARK H PARENT 67 17 58 47 36 58
REMARK Flexibility Score: inf
ROOT
ATOM      1  C   UNL A   1      33.668  36.365  31.502  1.00  0.00     0.274 C 
ENDROOT
BRANCH   1   2
ATOM      2  O   UNL A   1      33.671  35.467  32.631  1.00  0.00    -0.460 OA
BRANCH   2   3
ATOM      3  C   UNL A   1      34.893  35.141  33.125  1.00  0.00     0.344 C 
ATOM      4  O   UNL A   1      35.953  35.618  32.729  1.00  0.00    -0.248 OA
BRANCH   3   5
ATOM      5  C   UNL A   1      34.847  34.113  34.253  1.00  0.00     0.353 C 
BRANCH   5   6
ATOM      6  O   UNL A   1      35.420  32.840  34.032  1.00  0.00    -0.466 OA
BRANCH   6   7
ATOM      7  C   UNL A   1      36.728  32.637  34.367  1.00  0.00     0.218 A 
ATOM      8  C   UNL A   1      38.710  32.971  35.579  1.00  0.00     0.052 A 
ATOM      9  C   UNL A   1      37.444  33.410  35.262  1.00  0.00     0.092 A 
ATOM     10  N   UNL A   1      39.211  31.877  35.002  1.00  0.00    -0.217 NA
ATOM     11  C   UNL A   1      38.478  31.194  34.118  1.00  0.00     0.230 A 
ATOM     12  N   UNL A   1      37.243  31.549  33.762  1.00  0.00    -0.177 NA
BRANCH   8  13
ATOM     13  C   UNL A   1      39.654  33.608  36.567  1.00  0.00     0.032 C 
ATOM     14  C   UNL A   1      39.055  34.806  37.283  1.00  0.00     0.014 C 
ATOM     15  C   UNL A   1      40.266  32.610  37.547  1.00  0.00     0.014 C 
ENDBRANCH   8  13
BRANCH  11  16
ATOM     16  N   UNL A   1      39.099  30.124  33.473  1.00  0.00    -0.322 N 
ATOM     17  H   UNL A   1      38.612  29.665  32.750  1.00  0.00     0.170 HD
BRANCH  16  18
ATOM     18  C   UNL A   1      40.385  29.669  33.807  1.00  0.00     0.077 A 
ATOM     19  C   UNL A   1      41.151  30.367  34.748  1.00  0.00     0.032 A 
ATOM     20  C   UNL A   1      40.833  28.395  33.399  1.00  0.00     0.149 A 
ATOM     21  C   UNL A   1      42.308  29.790  35.282  1.00  0.00     0.041 A 
ATOM     22  C   UNL A   1      41.985  27.819  33.916  1.00  0.00     0.080 A 
ATOM     23  F   UNL A   1      40.132  27.695  32.492  1.00  0.00    -0.205 F 
ATOM     24  C   UNL A   1      42.706  28.520  34.867  1.00  0.00     0.126 A 
ATOM     25  F   UNL A   1      43.796  27.963  35.410  1.00  0.00    -0.207 F 
ENDBRANCH  16  18
ENDBRANCH  11  16
ENDBRANCH   6   7
ENDBRANCH   5   6
ENDBRANCH   3   5
ENDBRANCH   2   3
ENDBRANCH   1   2
BRANCH   1  26
ATOM     26  C   UNL A   1      32.714  35.927  30.387  1.00  0.00     0.275 C 
BRANCH  26  27
ATOM     27  O   UNL A   1      33.399  35.735  29.132  1.00  0.00    -0.458 OA
BRANCH  27  28
ATOM     28  C   UNL A   1      33.375  34.453  28.712  1.00  0.00     0.338 C 
ATOM     29  O   UNL A   1      32.465  33.916  28.105  1.00  0.00    -0.246 OA
BRANCH  28  30
ATOM     30  C   UNL A   1      34.606  33.714  29.025  1.00  0.00     0.060 A 
ATOM     31  C   UNL A   1      34.674  32.927  30.179  1.00  0.00     0.016 A 
ATOM     32  C   UNL A   1      35.764  34.003  28.299  1.00  0.00     0.016 A 
ATOM     33  C   UNL A   1      35.911  32.443  30.616  1.00  0.00     0.010 A 
ATOM     34  C   UNL A   1      36.995  33.489  28.719  1.00  0.00     0.010 A 
ATOM     35  C   UNL A   1      37.080  32.715  29.888  1.00  0.00    -0.014 A 
BRANCH  35  36
ATOM     36  C   UNL A   1      38.374  32.106  30.286  1.00  0.00     0.031 A 
ATOM     37  C   UNL A   1      39.363  32.822  31.158  1.00  0.00     0.074 A 
ATOM     38  C   UNL A   1      38.667  30.880  29.817  1.00  0.00     0.049 A 
ATOM     39  N   UNL A   1      40.571  32.462  31.518  1.00  0.00    -0.248 NA
ATOM     40  C   UNL A   1      38.939  34.112  31.705  1.00  0.00     0.031 C 
ATOM     41  C   UNL A   1      37.786  30.068  28.977  1.00  0.00     0.029 A 
ATOM     42  N   UNL A   1      39.792  30.117  29.970  1.00  0.00    -0.354 N 
ATOM     43  C   UNL A   1      41.048  33.488  32.327  1.00  0.00     0.074 A 
ATOM     44  C   UNL A   1      40.006  34.490  32.396  1.00  0.00     0.031 C 
ATOM     45  C   UNL A   1      38.409  28.918  28.681  1.00  0.00     0.029 A 
ATOM     46  C   UNL A   1      39.743  28.936  29.275  1.00  0.00     0.049 A 
ATOM     47  H   UNL A   1      40.561  30.388  30.523  1.00  0.00     0.167 HD
ATOM     48  C   UNL A   1      42.244  33.585  32.956  1.00  0.00     0.031 A 
ATOM     49  C   UNL A   1      40.677  27.985  29.105  1.00  0.00     0.031 A 
ATOM     50  C   UNL A   1      43.284  32.594  32.883  1.00  0.00     0.049 A 
ATOM     51  C   UNL A   1      42.018  28.142  29.752  1.00  0.00     0.074 A 
ATOM     52  C   UNL A   1      44.522  32.592  33.502  1.00  0.00     0.029 A 
ATOM     53  N   UNL A   1      43.205  31.429  32.140  1.00  0.00    -0.354 N 
ATOM     54  N   UNL A   1      42.456  29.115  30.511  1.00  0.00    -0.248 NA
ATOM     55  C   UNL A   1      42.993  27.070  29.513  1.00  0.00     0.031 C 
ATOM     56  C   UNL A   1      45.208  31.437  33.105  1.00  0.00     0.029 A 
ATOM     57  C   UNL A   1      44.381  30.708  32.266  1.00  0.00     0.049 A 
ATOM     58  H   UNL A   1      42.429  31.153  31.601  1.00  0.00     0.167 HD
ATOM     59  C   UNL A   1      43.756  28.772  30.851  1.00  0.00     0.074 A 
ATOM     60  C   UNL A   1      44.031  27.495  30.221  1.00  0.00     0.031 C 
ATOM     61  C   UNL A   1      44.642  29.452  31.617  1.00  0.00     0.031 A 
BRANCH  48  62
ATOM     62  C   UNL A   1      42.507  34.823  33.767  1.00  0.00    -0.014 A 
ATOM     63  C   UNL A   1      42.966  36.001  33.160  1.00  0.00     0.009 A 
ATOM     64  C   UNL A   1      42.238  34.826  35.144  1.00  0.00     0.009 A 
ATOM     65  C   UNL A   1      43.166  37.156  33.921  1.00  0.00     0.001 A 
ATOM     66  C   UNL A   1      42.424  35.985  35.900  1.00  0.00     0.001 A 
ATOM     67  C   UNL A   1      42.893  37.148  35.289  1.00  0.00     0.000 A 
ENDBRANCH  48  62
BRANCH  49  68
ATOM     68  C   UNL A   1      40.359  26.818  28.252  1.00  0.00    -0.014 A 
ATOM     69  C   UNL A   1      39.561  25.777  28.743  1.00  0.00     0.009 A 
ATOM     70  C   UNL A   1      40.793  26.783  26.917  1.00  0.00     0.009 A 
ATOM     71  C   UNL A   1      39.201  24.718  27.908  1.00  0.00     0.001 A 
ATOM     72  C   UNL A   1      40.416  25.733  26.081  1.00  0.00     0.001 A 
ATOM     73  C   UNL A   1      39.622  24.700  26.578  1.00  0.00     0.000 A 
ENDBRANCH  49  68
BRANCH  61  74
ATOM     74  C   UNL A   1      45.983  28.817  31.820  1.00  0.00    -0.014 A 
ATOM     75  C   UNL A   1      46.205  27.934  32.887  1.00  0.00     0.009 A 
ATOM     76  C   UNL A   1      47.030  29.094  30.927  1.00  0.00     0.009 A 
ATOM     77  C   UNL A   1      47.462  27.358  33.072  1.00  0.00     0.001 A 
ATOM     78  C   UNL A   1      48.281  28.504  31.107  1.00  0.00     0.001 A 
ATOM     79  C   UNL A   1      48.498  27.643  32.182  1.00  0.00     0.000 A 
ENDBRANCH  61  74
ENDBRANCH  35  36
ENDBRANCH  28  30
ENDBRANCH  27  28
ENDBRANCH  26  27
ENDBRANCH   1  26
TORSDOF 16
ENDMDL
MODEL 2
REMARK VINA RESULT:      -8.2      6.504     11.631
REMARK SMILES CC(C)c1cc(OCC(=O)OCCOC(=O)c2ccc(-c3c4nc(c(-c5ccccc5)c5ccc([nH]5)c(-c5ccccc5)c5nc(c(-c6ccccc6)c6ccc3[nH]6)C=C5)C=C4)cc2)nc(Nc2ccc(F)cc2F)n1
REMARK SMILES IDX 12 1 11 2 9 3 10 4 8 5 7 6 6 7 4 8 5 9 76 10 66 11 65 12
REMARK SMILES IDX 2 13 1 14 3 15 67 16 68 18 69 19 74 20 70 21 73 22 75 23
REMARK SMILES IDX 71 24 72 25 13 26 14 27 15 28 16 29 17 30 18 31 64 32 19 33
REMARK SMILES IDX 63 34 20 35 21 36 22 37 57 38 23 39 62 40 56 41 58 42 24 43
REMARK SMILES IDX 61 44 55 45 54 46 25 48 47 49 32 50 46 51 33 52 36 53 45 54
REMARK SMILES IDX 59 55 34 56 35 57 44 59 60 60 37 61 26 62 27 63 31 64 28 65
REMARK SMILES IDX 30 66 29 67 48 68 49 69 53 70 50 71 52 72 51 73 38 74 39 75
REMARK SMILES IDX 43 76 40 77 42 78 41 79
REMARK H PARENT 67 17 58 47 36 58
REMARK Flexibility Score: inf
ROOT
ATOM      1  C   UNL A   1      37.983  20.476  25.436  1.00  0.00     0.274 C 
ENDROOT
BRANCH   1   2
ATOM      2  O   UNL A   1      38.218  21.820  24.966  1.00  0.00    -0.460 OA
BRANCH   2   3
ATOM      3  C   UNL A   1      37.712  22.815  25.739  1.00  0.00     0.344 C 
ATOM      4  O   UNL A   1      38.388  23.686  26.282  1.00  0.00    -0.248 OA
BRANCH   3   5
ATOM      5  C   UNL A   1      36.192  22.775  25.879  1.00  0.00     0.353 C 
BRANCH   5   6
ATOM      6  O   UNL A   1      35.475  23.991  25.813  1.00  0.00    -0.466 OA
BRANCH   6   7
ATOM      7  C   UNL A   1      34.111  23.957  25.879  1.00  0.00     0.218 A 
ATOM      8  C   UNL A   1      31.942  24.850  25.925  1.00  0.00     0.052 A 
ATOM      9  C   UNL A   1      33.299  25.067  26.015  1.00  0.00     0.092 A 
ATOM     10  N   UNL A   1      31.463  23.616  25.760  1.00  0.00    -0.217 NA
ATOM     11  C   UNL A   1      32.303  22.581  25.671  1.00  0.00     0.230 A 
ATOM     12  N   UNL A   1      33.629  22.707  25.743  1.00  0.00    -0.177 NA
BRANCH   8  13
ATOM     13  C   UNL A   1      30.864  25.904  25.982  1.00  0.00     0.032 C 
ATOM     14  C   UNL A   1      31.361  27.244  26.495  1.00  0.00     0.014 C 
ATOM     15  C   UNL A   1      30.092  26.049  24.673  1.00  0.00     0.014 C 
ENDBRANCH   8  13
BRANCH  11  16
ATOM     16  N   UNL A   1      31.735  21.308  25.607  1.00  0.00    -0.322 N 
ATOM     17  H   UNL A   1      30.876  21.154  26.063  1.00  0.00     0.170 HD
BRANCH  16  18
ATOM     18  C   UNL A   1      32.330  20.236  24.922  1.00  0.00     0.077 A 
ATOM     19  C   UNL A   1      32.804  19.128  25.635  1.00  0.00     0.032 A 
ATOM     20  C   UNL A   1      32.246  20.136  23.517  1.00  0.00     0.149 A 
ATOM     21  C   UNL A   1      33.151  17.953  24.961  1.00  0.00     0.041 A 
ATOM     22  C   UNL A   1      32.598  18.976  22.839  1.00  0.00     0.080 A 
ATOM     23  F   UNL A   1      31.804  21.178  22.795  1.00  0.00    -0.205 F 
ATOM     24  C   UNL A   1      33.035  17.887  23.574  1.00  0.00     0.126 A 
ATOM     25  F   UNL A   1      33.338  16.746  22.942  1.00  0.00    -0.207 F 
ENDBRANCH  16  18
ENDBRANCH  11  16
ENDBRANCH   6   7
ENDBRANCH   5   6
ENDBRANCH   3   5
ENDBRANCH   2   3
ENDBRANCH   1   2
BRANCH   1  26
ATOM     26  C   UNL A   1      39.128  19.514  25.104  1.00  0.00     0.275 C 
BRANCH  26  27
ATOM     27  O   UNL A   1      40.040  19.354  26.209  1.00  0.00    -0.458 OA
BRANCH  27  28
ATOM     28  C   UNL A   1      41.261  19.874  25.962  1.00  0.00     0.338 C 
ATOM     29  O   UNL A   1      42.149  19.339  25.323  1.00  0.00    -0.246 OA
BRANCH  28  30
ATOM     30  C   UNL A   1      41.445  21.222  26.519  1.00  0.00     0.060 A 
ATOM     31  C   UNL A   1      41.904  22.259  25.701  1.00  0.00     0.016 A 
ATOM     32  C   UNL A   1      41.393  21.386  27.906  1.00  0.00     0.016 A 
ATOM     33  C   UNL A   1      42.330  23.459  26.278  1.00  0.00     0.010 A 
ATOM     34  C   UNL A   1      41.787  22.600  28.477  1.00  0.00     0.010 A 
ATOM     35  C   UNL A   1      42.270  23.642  27.669  1.00  0.00    -0.014 A 
BRANCH  35  36
ATOM     36  C   UNL A   1      42.611  24.955  28.271  1.00  0.00     0.031 A 
ATOM     37  C   UNL A   1      41.587  26.032  28.481  1.00  0.00     0.074 A 
ATOM     38  C   UNL A   1      43.893  25.182  28.609  1.00  0.00     0.049 A 
ATOM     39  N   UNL A   1      41.744  27.260  28.910  1.00  0.00    -0.248 NA
ATOM     40  C   UNL A   1      40.199  25.682  28.175  1.00  0.00     0.031 C 
ATOM     41  C   UNL A   1      44.982  24.215  28.475  1.00  0.00     0.029 A 
ATOM     42  N   UNL A   1      44.491  26.303  29.117  1.00  0.00    -0.354 N 
ATOM     43  C   UNL A   1      40.474  27.826  28.916  1.00  0.00     0.074 A 
ATOM     44  C   UNL A   1      39.558  26.813  28.438  1.00  0.00     0.031 C 
ATOM     45  C   UNL A   1      46.123  24.788  28.887  1.00  0.00     0.029 A 
ATOM     46  C   UNL A   1      45.847  26.170  29.269  1.00  0.00     0.049 A 
ATOM     47  H   UNL A   1      43.998  27.123  29.351  1.00  0.00     0.167 HD
ATOM     48  C   UNL A   1      40.104  29.076  29.288  1.00  0.00     0.031 A 
ATOM     49  C   UNL A   1      46.774  27.068  29.643  1.00  0.00     0.031 A 
ATOM     50  C   UNL A   1      41.013  30.086  29.758  1.00  0.00     0.049 A 
ATOM     51  C   UNL A   1      46.356  28.464  29.986  1.00  0.00     0.074 A 
ATOM     52  C   UNL A   1      40.732  31.375  30.179  1.00  0.00     0.029 A 
ATOM     53  N   UNL A   1      42.384  29.920  29.863  1.00  0.00    -0.354 N 
ATOM     54  N   UNL A   1      45.155  28.986  29.986  1.00  0.00    -0.248 NA
ATOM     55  C   UNL A   1      47.424  29.394  30.374  1.00  0.00     0.031 C 
ATOM     56  C   UNL A   1      41.941  32.001  30.508  1.00  0.00     0.029 A 
ATOM     57  C   UNL A   1      42.967  31.089  30.321  1.00  0.00     0.049 A 
ATOM     58  H   UNL A   1      42.872  29.094  29.644  1.00  0.00     0.167 HD
ATOM     59  C   UNL A   1      45.317  30.305  30.383  1.00  0.00     0.074 A 
ATOM     60  C   UNL A   1      46.734  30.499  30.623  1.00  0.00     0.031 C 
ATOM     61  C   UNL A   1      44.377  31.268  30.536  1.00  0.00     0.031 A 
BRANCH  48  62
ATOM     62  C   UNL A   1      38.648  29.432  29.183  1.00  0.00    -0.014 A 
ATOM     63  C   UNL A   1      37.784  29.271  30.276  1.00  0.00     0.009 A 
ATOM     64  C   UNL A   1      38.149  29.989  27.995  1.00  0.00     0.009 A 
ATOM     65  C   UNL A   1      36.441  29.646  30.176  1.00  0.00     0.001 A 
ATOM     66  C   UNL A   1      36.810  30.376  27.903  1.00  0.00     0.001 A 
ATOM     67  C   UNL A   1      35.956  30.200  28.991  1.00  0.00     0.000 A 
ENDBRANCH  48  62
BRANCH  49  68
ATOM     68  C   UNL A   1      48.195  26.654  29.676  1.00  0.00    -0.014 A 
ATOM     69  C   UNL A   1      48.742  26.087  30.834  1.00  0.00     0.009 A 
ATOM     70  C   UNL A   1      48.985  26.756  28.520  1.00  0.00     0.009 A 
ATOM     71  C   UNL A   1      50.060  25.627  30.833  1.00  0.00     0.001 A 
ATOM     72  C   UNL A   1      50.295  26.280  28.517  1.00  0.00     0.001 A 
ATOM     73  C   UNL A   1      50.832  25.717  29.674  1.00  0.00     0.000 A 
ENDBRANCH  49  68
BRANCH  61  74
ATOM     74  C   UNL A   1      44.858  32.611  30.994  1.00  0.00    -0.014 A 
ATOM     75  C   UNL A   1      44.983  32.899  32.362  1.00  0.00     0.009 A 
ATOM     76  C   UNL A   1      45.203  33.590  30.051  1.00  0.00     0.009 A 
ATOM     77  C   UNL A   1      45.420  34.157  32.777  1.00  0.00     0.001 A 
ATOM     78  C   UNL A   1      45.654  34.841  30.469  1.00  0.00     0.001 A 
ATOM     79  C   UNL A   1      45.756  35.126  31.831  1.00  0.00     0.000 A 
ENDBRANCH  61  74
ENDBRANCH  35  36
ENDBRANCH  28  30
ENDBRANCH  27  28
ENDBRANCH  26  27
ENDBRANCH   1  26
TORSDOF 16
ENDMDL
MODEL 3
REMARK VINA RESULT:      -8.2      6.989     12.439
REMARK SMILES CC(C)c1cc(OCC(=O)OCCOC(=O)c2ccc(-c3c4nc(c(-c5ccccc5)c5ccc([nH]5)c(-c5ccccc5)c5nc(c(-c6ccccc6)c6ccc3[nH]6)C=C5)C=C4)cc2)nc(Nc2ccc(F)cc2F)n1
REMARK SMILES IDX 12 1 11 2 9 3 10 4 8 5 7 6 6 7 4 8 5 9 76 10 66 11 65 12
REMARK SMILES IDX 2 13 1 14 3 15 67 16 68 18 69 19 74 20 70 21 73 22 75 23
REMARK SMILES IDX 71 24 72 25 13 26 14 27 15 28 16 29 17 30 18 31 64 32 19 33
REMARK SMILES IDX 63 34 20 35 21 36 22 37 57 38 23 39 62 40 56 41 58 42 24 43
REMARK SMILES IDX 61 44 55 45 54 46 25 48 47 49 32 50 46 51 33 52 36 53 45 54
REMARK SMILES IDX 59 55 34 56 35 57 44 59 60 60 37 61 26 62 27 63 31 64 28 65
REMARK SMILES IDX 30 66 29 67 48 68 49 69 53 70 50 71 52 72 51 73 38 74 39 75
REMARK SMILES IDX 43 76 40 77 42 78 41 79
REMARK H PARENT 67 17 58 47 36 58
REMARK Flexibility Score: inf
ROOT
ATOM      1  C   UNL A   1      38.917  20.789  25.378  1.00  0.00     0.274 C 
ENDROOT
BRANCH   1   2
ATOM      2  O   UNL A   1      38.598  21.889  26.256  1.00  0.00    -0.460 OA
BRANCH   2   3
ATOM      3  C   UNL A   1      37.742  22.817  25.757  1.00  0.00     0.344 C 
ATOM      4  O   UNL A   1      37.961  24.026  25.738  1.00  0.00    -0.248 OA
BRANCH   3   5
ATOM      5  C   UNL A   1      36.453  22.225  25.192  1.00  0.00     0.353 C 
BRANCH   5   6
ATOM      6  O   UNL A   1      35.634  21.450  26.044  1.00  0.00    -0.466 OA
BRANCH   6   7
ATOM      7  C   UNL A   1      34.521  20.852  25.524  1.00  0.00     0.218 A 
ATOM      8  C   UNL A   1      33.240  19.089  24.656  1.00  0.00     0.052 A 
ATOM      9  C   UNL A   1      34.481  19.571  25.007  1.00  0.00     0.092 A 
ATOM     10  N   UNL A   1      32.155  19.856  24.778  1.00  0.00    -0.217 NA
ATOM     11  C   UNL A   1      32.269  21.100  25.254  1.00  0.00     0.230 A 
ATOM     12  N   UNL A   1      33.432  21.639  25.621  1.00  0.00    -0.177 NA
BRANCH   8  13
ATOM     13  C   UNL A   1      32.936  17.709  24.127  1.00  0.00     0.032 C 
ATOM     14  C   UNL A   1      33.984  17.193  23.157  1.00  0.00     0.014 C 
ATOM     15  C   UNL A   1      32.633  16.694  25.227  1.00  0.00     0.014 C 
ENDBRANCH   8  13
BRANCH  11  16
ATOM     16  N   UNL A   1      31.115  21.884  25.257  1.00  0.00    -0.322 N 
ATOM     17  H   UNL A   1      30.254  21.451  25.459  1.00  0.00     0.170 HD
BRANCH  16  18
ATOM     18  C   UNL A   1      31.123  23.261  24.984  1.00  0.00     0.077 A 
ATOM     19  C   UNL A   1      30.810  23.721  23.700  1.00  0.00     0.032 A 
ATOM     20  C   UNL A   1      31.202  24.208  26.028  1.00  0.00     0.149 A 
ATOM     21  C   UNL A   1      30.556  25.080  23.481  1.00  0.00     0.041 A 
ATOM     22  C   UNL A   1      30.961  25.559  25.818  1.00  0.00     0.080 A 
ATOM     23  F   UNL A   1      31.508  23.809  27.274  1.00  0.00    -0.205 F 
ATOM     24  C   UNL A   1      30.625  25.980  24.543  1.00  0.00     0.126 A 
ATOM     25  F   UNL A   1      30.346  27.272  24.329  1.00  0.00    -0.207 F 
ENDBRANCH  16  18
ENDBRANCH  11  16
ENDBRANCH   6   7
ENDBRANCH   5   6
ENDBRANCH   3   5
ENDBRANCH   2   3
ENDBRANCH   1   2
BRANCH   1  26
ATOM     26  C   UNL A   1      39.611  19.628  26.096  1.00  0.00     0.275 C 
BRANCH  26  27
ATOM     27  O   UNL A   1      40.809  19.206  25.411  1.00  0.00    -0.458 OA
BRANCH  27  28
ATOM     28  C   UNL A   1      41.903  19.239  26.201  1.00  0.00     0.338 C 
ATOM     29  O   UNL A   1      42.481  18.271  26.662  1.00  0.00    -0.246 OA
BRANCH  28  30
ATOM     30  C   UNL A   1      42.400  20.599  26.453  1.00  0.00     0.060 A 
ATOM     31  C   UNL A   1      42.434  21.099  27.758  1.00  0.00     0.016 A 
ATOM     32  C   UNL A   1      42.597  21.453  25.364  1.00  0.00     0.016 A 
ATOM     33  C   UNL A   1      42.649  22.464  27.973  1.00  0.00     0.010 A 
ATOM     34  C   UNL A   1      42.847  22.811  25.583  1.00  0.00     0.010 A 
ATOM     35  C   UNL A   1      42.863  23.330  26.888  1.00  0.00    -0.014 A 
BRANCH  35  36
ATOM     36  C   UNL A   1      43.207  24.755  27.119  1.00  0.00     0.031 A 
ATOM     37  C   UNL A   1      44.593  25.290  26.909  1.00  0.00     0.074 A 
ATOM     38  C   UNL A   1      42.238  25.577  27.559  1.00  0.00     0.049 A 
ATOM     39  N   UNL A   1      45.072  26.485  27.153  1.00  0.00    -0.248 NA
ATOM     40  C   UNL A   1      45.573  24.361  26.344  1.00  0.00     0.031 C 
ATOM     41  C   UNL A   1      40.845  25.190  27.785  1.00  0.00     0.029 A 
ATOM     42  N   UNL A   1      42.286  26.900  27.906  1.00  0.00    -0.354 N 
ATOM     43  C   UNL A   1      46.410  26.443  26.776  1.00  0.00     0.074 A 
ATOM     44  C   UNL A   1      46.672  25.103  26.297  1.00  0.00     0.031 C 
ATOM     45  C   UNL A   1      40.169  26.254  28.242  1.00  0.00     0.029 A 
ATOM     46  C   UNL A   1      41.091  27.378  28.379  1.00  0.00     0.049 A 
ATOM     47  H   UNL A   1      43.097  27.453  27.825  1.00  0.00     0.167 HD
ATOM     48  C   UNL A   1      47.336  27.432  26.822  1.00  0.00     0.031 A 
ATOM     49  C   UNL A   1      40.775  28.577  28.896  1.00  0.00     0.031 A 
ATOM     50  C   UNL A   1      47.079  28.763  27.303  1.00  0.00     0.049 A 
ATOM     51  C   UNL A   1      41.828  29.637  29.002  1.00  0.00     0.074 A 
ATOM     52  C   UNL A   1      47.946  29.841  27.369  1.00  0.00     0.029 A 
ATOM     53  N   UNL A   1      45.863  29.195  27.805  1.00  0.00    -0.354 N 
ATOM     54  N   UNL A   1      43.087  29.584  28.645  1.00  0.00    -0.248 NA
ATOM     55  C   UNL A   1      41.415  30.918  29.589  1.00  0.00     0.031 C 
ATOM     56  C   UNL A   1      47.260  30.919  27.944  1.00  0.00     0.029 A 
ATOM     57  C   UNL A   1      45.960  30.517  28.204  1.00  0.00     0.049 A 
ATOM     58  H   UNL A   1      45.050  28.644  27.869  1.00  0.00     0.167 HD
ATOM     59  C   UNL A   1      43.618  30.827  28.953  1.00  0.00     0.074 A 
ATOM     60  C   UNL A   1      42.541  31.616  29.519  1.00  0.00     0.031 C 
ATOM     61  C   UNL A   1      44.884  31.277  28.780  1.00  0.00     0.031 A 
BRANCH  48  62
ATOM     62  C   UNL A   1      48.727  27.107  26.357  1.00  0.00    -0.014 A 
ATOM     63  C   UNL A   1      49.690  26.612  27.249  1.00  0.00     0.009 A 
ATOM     64  C   UNL A   1      49.061  27.244  25.001  1.00  0.00     0.009 A 
ATOM     65  C   UNL A   1      50.967  26.276  26.794  1.00  0.00     0.001 A 
ATOM     66  C   UNL A   1      50.333  26.892  24.546  1.00  0.00     0.001 A 
ATOM     67  C   UNL A   1      51.287  26.413  25.443  1.00  0.00     0.000 A 
ENDBRANCH  48  62
BRANCH  49  68
ATOM     68  C   UNL A   1      39.394  28.805  29.377  1.00  0.00    -0.014 A 
ATOM     69  C   UNL A   1      39.053  28.538  30.709  1.00  0.00     0.009 A 
ATOM     70  C   UNL A   1      38.434  29.363  28.519  1.00  0.00     0.009 A 
ATOM     71  C   UNL A   1      37.770  28.828  31.175  1.00  0.00     0.001 A 
ATOM     72  C   UNL A   1      37.158  29.668  28.992  1.00  0.00     0.001 A 
ATOM     73  C   UNL A   1      36.827  29.399  30.319  1.00  0.00     0.000 A 
ENDBRANCH  49  68
BRANCH  61  74
ATOM     74  C   UNL A   1      45.161  32.687  29.202  1.00  0.00    -0.014 A 
ATOM     75  C   UNL A   1      45.619  32.971  30.498  1.00  0.00     0.009 A 
ATOM     76  C   UNL A   1      44.978  33.738  28.291  1.00  0.00     0.009 A 
ATOM     77  C   UNL A   1      45.863  34.290  30.882  1.00  0.00     0.001 A 
ATOM     78  C   UNL A   1      45.238  35.054  28.675  1.00  0.00     0.001 A 
ATOM     79  C   UNL A   1      45.673  35.329  29.971  1.00  0.00     0.000 A 
ENDBRANCH  61  74
ENDBRANCH  35  36
ENDBRANCH  28  30
ENDBRANCH  27  28
ENDBRANCH  26  27
ENDBRANCH   1  26
TORSDOF 16
ENDMDL
