MODEL 1
REMARK VINA RESULT:     -12.3      0.000      0.000
REMARK SMILES Cc1ccc(N2C(=O)C[C@H](Sc3ccccc3C(=O)OCCOC(=O)c3ccc(-c4c5nc(c(-c6ccccc6)c6ccc([nH]6)c(-c6ccccc6)c6nc(c(-c7ccccc7)c7ccc4[nH]7)C=C6)C=C5)cc3)C2=O)cc1
REMARK SMILES IDX 21 1 20 2 18 3 19 4 17 5 12 6 13 7 14 8 16 9 15 10 11 11
REMARK SMILES IDX 10 12 6 13 7 14 74 15 8 16 9 17 75 18 5 19 1 20 2 21 3 22
REMARK SMILES IDX 77 23 4 24 76 25 22 26 23 27 24 28 25 29 26 30 27 31 73 32
REMARK SMILES IDX 28 33 72 34 29 35 30 36 31 37 66 38 32 39 71 40 65 41 67 42
REMARK SMILES IDX 33 43 70 44 64 45 63 46 34 48 56 49 41 50 55 51 42 52 45 53
REMARK SMILES IDX 54 54 68 55 43 56 44 57 53 59 69 60 46 61 35 62 36 63 40 64
REMARK SMILES IDX 37 65 39 66 38 67 57 68 58 69 62 70 59 71 61 72 60 73 47 74
REMARK SMILES IDX 48 75 52 76 49 77 51 78 50 79
REMARK H PARENT 67 47 45 58
REMARK Flexibility Score: inf
ROOT
ATOM      1  C   UNL A   1      33.523  29.323  26.391  1.00  0.00     0.275 C 
ENDROOT
BRANCH   1   2
ATOM      2  O   UNL A   1      33.202  27.926  26.178  1.00  0.00    -0.458 OA
BRANCH   2   3
ATOM      3  C   UNL A   1      33.075  27.547  24.876  1.00  0.00     0.339 C 
ATOM      4  O   UNL A   1      33.996  27.272  24.119  1.00  0.00    -0.246 OA
BRANCH   3   5
ATOM      5  C   UNL A   1      31.730  27.838  24.341  1.00  0.00     0.073 A 
ATOM      6  C   UNL A   1      30.536  27.106  24.565  1.00  0.00     0.023 A 
ATOM      7  C   UNL A   1      29.455  27.359  23.697  1.00  0.00     0.016 A 
ATOM      8  C   UNL A   1      29.564  28.256  22.627  1.00  0.00     0.001 A 
ATOM      9  C   UNL A   1      31.808  28.773  23.286  1.00  0.00     0.017 A 
ATOM     10  C   UNL A   1      30.741  28.962  22.419  1.00  0.00     0.001 A 
BRANCH   6  11
ATOM     11  S   UNL A   1      30.394  25.566  25.482  1.00  0.00    -0.111 SA
BRANCH  11  12
ATOM     12  C   UNL A   1      31.019  24.139  24.500  1.00  0.00     0.151 C 
ATOM     13  N   UNL A   1      33.281  23.623  24.443  1.00  0.00    -0.250 N 
ATOM     14  C   UNL A   1      33.048  24.171  23.212  1.00  0.00     0.235 C 
ATOM     15  C   UNL A   1      32.127  23.380  25.162  1.00  0.00     0.247 C 
ATOM     16  O   UNL A   1      33.837  24.323  22.287  1.00  0.00    -0.274 OA
ATOM     17  C   UNL A   1      31.580  24.495  23.117  1.00  0.00     0.126 C 
ATOM     18  O   UNL A   1      31.965  22.620  26.080  1.00  0.00    -0.273 OA
BRANCH  13  19
ATOM     19  C   UNL A   1      34.496  23.060  24.835  1.00  0.00     0.052 A 
ATOM     20  C   UNL A   1      38.414  21.439  25.450  1.00  0.00     0.044 C 
ATOM     21  C   UNL A   1      37.030  21.984  25.272  1.00  0.00    -0.051 A 
ATOM     22  C   UNL A   1      36.777  23.334  25.554  1.00  0.00     0.005 A 
ATOM     23  C   UNL A   1      35.991  21.169  24.806  1.00  0.00     0.005 A 
ATOM     24  C   UNL A   1      35.508  23.870  25.349  1.00  0.00     0.027 A 
ATOM     25  C   UNL A   1      34.729  21.708  24.573  1.00  0.00     0.027 A 
ENDBRANCH  13  19
ENDBRANCH  11  12
ENDBRANCH   6  11
ENDBRANCH   3   5
ENDBRANCH   2   3
ENDBRANCH   1   2
BRANCH   1  26
ATOM     26  C   UNL A   1      34.502  29.545  27.568  1.00  0.00     0.275 C 
BRANCH  26  27
ATOM     27  O   UNL A   1      35.905  29.291  27.346  1.00  0.00    -0.458 OA
BRANCH  27  28
ATOM     28  C   UNL A   1      36.738  30.274  27.722  1.00  0.00     0.338 C 
ATOM     29  O   UNL A   1      36.386  31.412  28.010  1.00  0.00    -0.246 OA
BRANCH  28  30
ATOM     30  C   UNL A   1      38.034  29.694  28.114  1.00  0.00     0.060 A 
ATOM     31  C   UNL A   1      38.071  28.905  29.266  1.00  0.00     0.016 A 
ATOM     32  C   UNL A   1      39.035  29.607  27.151  1.00  0.00     0.016 A 
ATOM     33  C   UNL A   1      38.951  27.853  29.367  1.00  0.00     0.010 A 
ATOM     34  C   UNL A   1      39.918  28.569  27.230  1.00  0.00     0.010 A 
ATOM     35  C   UNL A   1      39.857  27.703  28.329  1.00  0.00    -0.014 A 
BRANCH  35  36
ATOM     36  C   UNL A   1      41.038  26.904  28.514  1.00  0.00     0.031 A 
ATOM     37  C   UNL A   1      40.948  25.450  28.350  1.00  0.00     0.074 A 
ATOM     38  C   UNL A   1      42.095  27.701  28.785  1.00  0.00     0.049 A 
ATOM     39  N   UNL A   1      41.647  24.599  29.015  1.00  0.00    -0.248 NA
ATOM     40  C   UNL A   1      39.950  24.809  27.482  1.00  0.00     0.031 C 
ATOM     41  C   UNL A   1      43.516  27.441  28.798  1.00  0.00     0.029 A 
ATOM     42  N   UNL A   1      41.990  29.006  29.319  1.00  0.00    -0.354 N 
ATOM     43  C   UNL A   1      41.507  23.397  28.351  1.00  0.00     0.074 A 
ATOM     44  C   UNL A   1      40.307  23.522  27.561  1.00  0.00     0.031 C 
ATOM     45  C   UNL A   1      44.098  28.367  29.591  1.00  0.00     0.029 A 
ATOM     46  C   UNL A   1      43.025  29.137  30.230  1.00  0.00     0.049 A 
ATOM     47  H   UNL A   1      41.317  29.686  29.090  1.00  0.00     0.167 HD
ATOM     48  C   UNL A   1      42.575  22.552  28.298  1.00  0.00     0.031 A 
ATOM     49  C   UNL A   1      42.763  29.186  31.570  1.00  0.00     0.031 A 
ATOM     50  C   UNL A   1      43.697  23.130  29.031  1.00  0.00     0.049 A 
ATOM     51  C   UNL A   1      43.393  27.993  32.237  1.00  0.00     0.074 A 
ATOM     52  C   UNL A   1      44.724  23.952  28.590  1.00  0.00     0.029 A 
ATOM     53  N   UNL A   1      43.612  23.301  30.408  1.00  0.00    -0.354 N 
ATOM     54  N   UNL A   1      43.418  26.798  31.714  1.00  0.00    -0.248 NA
ATOM     55  C   UNL A   1      44.051  28.081  33.533  1.00  0.00     0.031 C 
ATOM     56  C   UNL A   1      45.190  24.696  29.701  1.00  0.00     0.029 A 
ATOM     57  C   UNL A   1      44.452  24.322  30.811  1.00  0.00     0.049 A 
ATOM     58  H   UNL A   1      43.038  22.771  31.007  1.00  0.00     0.167 HD
ATOM     59  C   UNL A   1      44.173  25.995  32.523  1.00  0.00     0.074 A 
ATOM     60  C   UNL A   1      44.509  26.827  33.668  1.00  0.00     0.031 C 
ATOM     61  C   UNL A   1      44.518  24.717  32.205  1.00  0.00     0.031 A 
BRANCH  48  62
ATOM     62  C   UNL A   1      42.738  21.492  27.235  1.00  0.00    -0.014 A 
ATOM     63  C   UNL A   1      41.991  20.303  27.341  1.00  0.00     0.009 A 
ATOM     64  C   UNL A   1      43.624  21.574  26.148  1.00  0.00     0.009 A 
ATOM     65  C   UNL A   1      42.173  19.223  26.470  1.00  0.00     0.001 A 
ATOM     66  C   UNL A   1      43.826  20.487  25.280  1.00  0.00     0.001 A 
ATOM     67  C   UNL A   1      43.107  19.308  25.448  1.00  0.00     0.000 A 
ENDBRANCH  48  62
BRANCH  49  68
ATOM     68  C   UNL A   1      41.439  29.734  32.024  1.00  0.00    -0.014 A 
ATOM     69  C   UNL A   1      40.408  28.858  32.425  1.00  0.00     0.009 A 
ATOM     70  C   UNL A   1      41.243  31.108  32.242  1.00  0.00     0.009 A 
ATOM     71  C   UNL A   1      39.251  29.334  33.059  1.00  0.00     0.001 A 
ATOM     72  C   UNL A   1      40.080  31.584  32.867  1.00  0.00     0.001 A 
ATOM     73  C   UNL A   1      39.090  30.697  33.284  1.00  0.00     0.000 A 
ENDBRANCH  49  68
BRANCH  61  74
ATOM     74  C   UNL A   1      45.069  23.737  33.191  1.00  0.00    -0.014 A 
ATOM     75  C   UNL A   1      46.363  23.838  33.717  1.00  0.00     0.009 A 
ATOM     76  C   UNL A   1      44.211  22.769  33.749  1.00  0.00     0.009 A 
ATOM     77  C   UNL A   1      46.802  22.965  34.713  1.00  0.00     0.001 A 
ATOM     78  C   UNL A   1      44.627  21.933  34.781  1.00  0.00     0.001 A 
ATOM     79  C   UNL A   1      45.931  22.019  35.250  1.00  0.00     0.000 A 
ENDBRANCH  61  74
ENDBRANCH  35  36
ENDBRANCH  28  30
ENDBRANCH  27  28
ENDBRANCH  26  27
ENDBRANCH   1  26
TORSDOF 14
ENDMDL
MODEL 2
REMARK VINA RESULT:     -12.2      3.639      9.199
REMARK SMILES Cc1ccc(N2C(=O)C[C@H](Sc3ccccc3C(=O)OCCOC(=O)c3ccc(-c4c5nc(c(-c6ccccc6)c6ccc([nH]6)c(-c6ccccc6)c6nc(c(-c7ccccc7)c7ccc4[nH]7)C=C6)C=C5)cc3)C2=O)cc1
REMARK SMILES IDX 21 1 20 2 18 3 19 4 17 5 12 6 13 7 14 8 16 9 15 10 11 11
REMARK SMILES IDX 10 12 6 13 7 14 74 15 8 16 9 17 75 18 5 19 1 20 2 21 3 22
REMARK SMILES IDX 77 23 4 24 76 25 22 26 23 27 24 28 25 29 26 30 27 31 73 32
REMARK SMILES IDX 28 33 72 34 29 35 30 36 31 37 66 38 32 39 71 40 65 41 67 42
REMARK SMILES IDX 33 43 70 44 64 45 63 46 34 48 56 49 41 50 55 51 42 52 45 53
REMARK SMILES IDX 54 54 68 55 43 56 44 57 53 59 69 60 46 61 35 62 36 63 40 64
REMARK SMILES IDX 37 65 39 66 38 67 57 68 58 69 62 70 59 71 61 72 60 73 47 74
REMARK SMILES IDX 48 75 52 76 49 77 51 78 50 79
REMARK H PARENT 67 47 45 58
REMARK Flexibility Score: inf
ROOT
ATOM      1  C   UNL A   1      37.020  23.596  25.031  1.00  0.00     0.275 C 
ENDROOT
BRANCH   1   2
ATOM      2  O   UNL A   1      36.245  22.383  24.859  1.00  0.00    -0.458 OA
BRANCH   2   3
ATOM      3  C   UNL A   1      34.927  22.479  25.194  1.00  0.00     0.339 C 
ATOM      4  O   UNL A   1      34.472  23.128  26.125  1.00  0.00    -0.246 OA
BRANCH   3   5
ATOM      5  C   UNL A   1      34.112  21.435  24.542  1.00  0.00     0.073 A 
ATOM      6  C   UNL A   1      33.167  21.606  23.498  1.00  0.00     0.023 A 
ATOM      7  C   UNL A   1      32.269  20.545  23.264  1.00  0.00     0.016 A 
ATOM      8  C   UNL A   1      32.271  19.391  24.057  1.00  0.00     0.001 A 
ATOM      9  C   UNL A   1      34.130  20.245  25.301  1.00  0.00     0.017 A 
ATOM     10  C   UNL A   1      33.199  19.240  25.077  1.00  0.00     0.001 A 
BRANCH   6  11
ATOM     11  S   UNL A   1      32.653  23.173  22.781  1.00  0.00    -0.111 SA
BRANCH  11  12
ATOM     12  C   UNL A   1      31.364  23.992  23.810  1.00  0.00     0.151 C 
ATOM     13  N   UNL A   1      31.944  25.452  25.518  1.00  0.00    -0.250 N 
ATOM     14  C   UNL A   1      31.542  24.326  26.183  1.00  0.00     0.235 C 
ATOM     15  C   UNL A   1      31.677  25.413  24.164  1.00  0.00     0.247 C 
ATOM     16  O   UNL A   1      31.472  24.144  27.393  1.00  0.00    -0.274 OA
ATOM     17  C   UNL A   1      31.084  23.320  25.161  1.00  0.00     0.126 C 
ATOM     18  O   UNL A   1      31.583  26.332  23.395  1.00  0.00    -0.273 OA
BRANCH  13  19
ATOM     19  C   UNL A   1      32.290  26.651  26.141  1.00  0.00     0.052 A 
ATOM     20  C   UNL A   1      33.261  30.598  27.496  1.00  0.00     0.044 C 
ATOM     21  C   UNL A   1      32.942  29.201  27.059  1.00  0.00    -0.051 A 
ATOM     22  C   UNL A   1      31.625  28.729  27.161  1.00  0.00     0.005 A 
ATOM     23  C   UNL A   1      33.936  28.370  26.530  1.00  0.00     0.005 A 
ATOM     24  C   UNL A   1      31.301  27.449  26.716  1.00  0.00     0.027 A 
ATOM     25  C   UNL A   1      33.608  27.101  26.056  1.00  0.00     0.027 A 
ENDBRANCH  13  19
ENDBRANCH  11  12
ENDBRANCH   6  11
ENDBRANCH   3   5
ENDBRANCH   2   3
ENDBRANCH   1   2
BRANCH   1  26
ATOM     26  C   UNL A   1      38.108  23.467  26.123  1.00  0.00     0.275 C 
BRANCH  26  27
ATOM     27  O   UNL A   1      38.429  24.633  26.909  1.00  0.00    -0.458 OA
BRANCH  27  28
ATOM     28  C   UNL A   1      39.440  24.485  27.779  1.00  0.00     0.338 C 
ATOM     29  O   UNL A   1      40.191  23.518  27.816  1.00  0.00    -0.246 OA
BRANCH  28  30
ATOM     30  C   UNL A   1      39.754  25.788  28.390  1.00  0.00     0.060 A 
ATOM     31  C   UNL A   1      40.320  26.770  27.574  1.00  0.00     0.016 A 
ATOM     32  C   UNL A   1      39.126  26.124  29.586  1.00  0.00     0.016 A 
ATOM     33  C   UNL A   1      40.061  28.102  27.795  1.00  0.00     0.010 A 
ATOM     34  C   UNL A   1      38.855  27.440  29.826  1.00  0.00     0.010 A 
ATOM     35  C   UNL A   1      39.317  28.407  28.924  1.00  0.00    -0.014 A 
BRANCH  35  36
ATOM     36  C   UNL A   1      39.322  29.746  29.449  1.00  0.00     0.031 A 
ATOM     37  C   UNL A   1      38.322  30.704  28.969  1.00  0.00     0.074 A 
ATOM     38  C   UNL A   1      40.291  29.870  30.384  1.00  0.00     0.049 A 
ATOM     39  N   UNL A   1      38.527  31.968  28.847  1.00  0.00    -0.248 NA
ATOM     40  C   UNL A   1      37.007  30.290  28.461  1.00  0.00     0.031 C 
ATOM     41  C   UNL A   1      40.547  30.892  31.372  1.00  0.00     0.029 A 
ATOM     42  N   UNL A   1      41.431  29.038  30.462  1.00  0.00    -0.354 N 
ATOM     43  C   UNL A   1      37.279  32.537  28.688  1.00  0.00     0.074 A 
ATOM     44  C   UNL A   1      36.415  31.471  28.246  1.00  0.00     0.031 C 
ATOM     45  C   UNL A   1      41.856  30.827  31.702  1.00  0.00     0.029 A 
ATOM     46  C   UNL A   1      42.491  29.862  30.800  1.00  0.00     0.049 A 
ATOM     47  H   UNL A   1      41.466  28.066  30.307  1.00  0.00     0.167 HD
ATOM     48  C   UNL A   1      37.045  33.760  29.241  1.00  0.00     0.031 A 
ATOM     49  C   UNL A   1      43.467  30.142  29.885  1.00  0.00     0.031 A 
ATOM     50  C   UNL A   1      38.256  34.245  29.897  1.00  0.00     0.049 A 
ATOM     51  C   UNL A   1      43.454  31.618  29.591  1.00  0.00     0.074 A 
ATOM     52  C   UNL A   1      38.688  34.084  31.205  1.00  0.00     0.029 A 
ATOM     53  N   UNL A   1      39.379  34.551  29.139  1.00  0.00    -0.354 N 
ATOM     54  N   UNL A   1      42.364  32.327  29.483  1.00  0.00    -0.248 NA
ATOM     55  C   UNL A   1      44.676  32.389  29.416  1.00  0.00     0.031 C 
ATOM     56  C   UNL A   1      40.099  34.198  31.210  1.00  0.00     0.029 A 
ATOM     57  C   UNL A   1      40.519  34.431  29.912  1.00  0.00     0.049 A 
ATOM     58  H   UNL A   1      39.365  34.816  28.191  1.00  0.00     0.167 HD
ATOM     59  C   UNL A   1      42.722  33.639  29.341  1.00  0.00     0.074 A 
ATOM     60  C   UNL A   1      44.174  33.623  29.259  1.00  0.00     0.031 C 
ATOM     61  C   UNL A   1      41.829  34.667  29.338  1.00  0.00     0.031 A 
BRANCH  48  62
ATOM     62  C   UNL A   1      35.661  34.261  29.581  1.00  0.00    -0.014 A 
ATOM     63  C   UNL A   1      34.905  34.901  28.579  1.00  0.00     0.009 A 
ATOM     64  C   UNL A   1      35.068  34.183  30.852  1.00  0.00     0.009 A 
ATOM     65  C   UNL A   1      33.669  35.502  28.841  1.00  0.00     0.001 A 
ATOM     66  C   UNL A   1      33.835  34.800  31.127  1.00  0.00     0.001 A 
ATOM     67  C   UNL A   1      33.142  35.468  30.124  1.00  0.00     0.000 A 
ENDBRANCH  48  62
BRANCH  49  68
ATOM     68  C   UNL A   1      43.761  29.128  28.815  1.00  0.00    -0.014 A 
ATOM     69  C   UNL A   1      43.637  29.476  27.454  1.00  0.00     0.009 A 
ATOM     70  C   UNL A   1      44.339  27.883  29.115  1.00  0.00     0.009 A 
ATOM     71  C   UNL A   1      44.113  28.634  26.438  1.00  0.00     0.001 A 
ATOM     72  C   UNL A   1      44.806  27.037  28.098  1.00  0.00     0.001 A 
ATOM     73  C   UNL A   1      44.702  27.416  26.761  1.00  0.00     0.000 A 
ENDBRANCH  49  68
BRANCH  61  74
ATOM     74  C   UNL A   1      42.162  36.052  28.882  1.00  0.00    -0.014 A 
ATOM     75  C   UNL A   1      42.959  36.925  29.632  1.00  0.00     0.009 A 
ATOM     76  C   UNL A   1      41.808  36.448  27.577  1.00  0.00     0.009 A 
ATOM     77  C   UNL A   1      43.332  38.170  29.124  1.00  0.00     0.001 A 
ATOM     78  C   UNL A   1      42.224  37.666  27.047  1.00  0.00     0.001 A 
ATOM     79  C   UNL A   1      42.973  38.535  27.829  1.00  0.00     0.000 A 
ENDBRANCH  61  74
ENDBRANCH  35  36
ENDBRANCH  28  30
ENDBRANCH  27  28
ENDBRANCH  26  27
ENDBRANCH   1  26
TORSDOF 14
ENDMDL
MODEL 3
REMARK VINA RESULT:     -11.9      2.894      8.303
REMARK SMILES Cc1ccc(N2C(=O)C[C@H](Sc3ccccc3C(=O)OCCOC(=O)c3ccc(-c4c5nc(c(-c6ccccc6)c6ccc([nH]6)c(-c6ccccc6)c6nc(c(-c7ccccc7)c7ccc4[nH]7)C=C6)C=C5)cc3)C2=O)cc1
REMARK SMILES IDX 21 1 20 2 18 3 19 4 17 5 12 6 13 7 14 8 16 9 15 10 11 11
REMARK SMILES IDX 10 12 6 13 7 14 74 15 8 16 9 17 75 18 5 19 1 20 2 21 3 22
REMARK SMILES IDX 77 23 4 24 76 25 22 26 23 27 24 28 25 29 26 30 27 31 73 32
REMARK SMILES IDX 28 33 72 34 29 35 30 36 31 37 66 38 32 39 71 40 65 41 67 42
REMARK SMILES IDX 33 43 70 44 64 45 63 46 34 48 56 49 41 50 55 51 42 52 45 53
REMARK SMILES IDX 54 54 68 55 43 56 44 57 53 59 69 60 46 61 35 62 36 63 40 64
REMARK SMILES IDX 37 65 39 66 38 67 57 68 58 69 62 70 59 71 61 72 60 73 47 74
REMARK SMILES IDX 48 75 52 76 49 77 51 78 50 79
REMARK H PARENT 67 47 45 58
REMARK Flexibility Score: inf
ROOT
ATOM      1  C   UNL A   1      37.609  20.793  25.123  1.00  0.00     0.275 C 
ENDROOT
BRANCH   1   2
ATOM      2  O   UNL A   1      36.793  21.990  25.148  1.00  0.00    -0.458 OA
BRANCH   2   3
ATOM      3  C   UNL A   1      35.520  21.821  25.605  1.00  0.00     0.339 C 
ATOM      4  O   UNL A   1      35.207  21.464  26.732  1.00  0.00    -0.246 OA
BRANCH   3   5
ATOM      5  C   UNL A   1      34.538  21.764  24.503  1.00  0.00     0.073 A 
ATOM      6  C   UNL A   1      34.131  22.826  23.656  1.00  0.00     0.023 A 
ATOM      7  C   UNL A   1      32.952  22.635  22.908  1.00  0.00     0.016 A 
ATOM      8  C   UNL A   1      32.183  21.471  23.030  1.00  0.00     0.001 A 
ATOM      9  C   UNL A   1      33.777  20.578  24.579  1.00  0.00     0.017 A 
ATOM     10  C   UNL A   1      32.593  20.442  23.867  1.00  0.00     0.001 A 
BRANCH   6  11
ATOM     11  S   UNL A   1      34.643  24.545  23.790  1.00  0.00    -0.111 SA
BRANCH  11  12
ATOM     12  C   UNL A   1      33.194  25.664  23.987  1.00  0.00     0.151 C 
ATOM     13  N   UNL A   1      33.090  27.194  25.728  1.00  0.00    -0.250 N 
ATOM     14  C   UNL A   1      32.198  26.226  26.100  1.00  0.00     0.235 C 
ATOM     15  C   UNL A   1      33.548  27.049  24.433  1.00  0.00     0.247 C 
ATOM     16  O   UNL A   1      31.489  26.192  27.099  1.00  0.00    -0.274 OA
ATOM     17  C   UNL A   1      32.143  25.197  25.002  1.00  0.00     0.126 C 
ATOM     18  O   UNL A   1      34.037  27.880  23.716  1.00  0.00    -0.273 OA
BRANCH  13  19
ATOM     19  C   UNL A   1      33.292  28.386  26.424  1.00  0.00     0.052 A 
ATOM     20  C   UNL A   1      34.174  32.257  28.036  1.00  0.00     0.044 C 
ATOM     21  C   UNL A   1      33.860  30.888  27.515  1.00  0.00    -0.051 A 
ATOM     22  C   UNL A   1      32.616  30.644  26.917  1.00  0.00     0.005 A 
ATOM     23  C   UNL A   1      34.802  29.855  27.596  1.00  0.00     0.005 A 
ATOM     24  C   UNL A   1      32.324  29.390  26.384  1.00  0.00     0.027 A 
ATOM     25  C   UNL A   1      34.525  28.610  27.038  1.00  0.00     0.027 A 
ENDBRANCH  13  19
ENDBRANCH  11  12
ENDBRANCH   6  11
ENDBRANCH   3   5
ENDBRANCH   2   3
ENDBRANCH   1   2
BRANCH   1  26
ATOM     26  C   UNL A   1      39.045  21.030  25.649  1.00  0.00     0.275 C 
BRANCH  26  27
ATOM     27  O   UNL A   1      39.742  19.920  26.251  1.00  0.00    -0.458 OA
BRANCH  27  28
ATOM     28  C   UNL A   1      41.076  19.926  26.102  1.00  0.00     0.338 C 
ATOM     29  O   UNL A   1      41.692  19.221  25.312  1.00  0.00    -0.246 OA
BRANCH  28  30
ATOM     30  C   UNL A   1      41.632  21.146  26.714  1.00  0.00     0.060 A 
ATOM     31  C   UNL A   1      42.011  22.186  25.861  1.00  0.00     0.016 A 
ATOM     32  C   UNL A   1      41.385  21.378  28.063  1.00  0.00     0.016 A 
ATOM     33  C   UNL A   1      41.910  23.496  26.265  1.00  0.00     0.010 A 
ATOM     34  C   UNL A   1      41.277  22.672  28.486  1.00  0.00     0.010 A 
ATOM     35  C   UNL A   1      41.532  23.709  27.581  1.00  0.00    -0.014 A 
BRANCH  35  36
ATOM     36  C   UNL A   1      41.769  24.985  28.200  1.00  0.00     0.031 A 
ATOM     37  C   UNL A   1      40.781  26.055  28.032  1.00  0.00     0.074 A 
ATOM     38  C   UNL A   1      42.922  24.947  28.905  1.00  0.00     0.049 A 
ATOM     39  N   UNL A   1      41.068  27.307  27.973  1.00  0.00    -0.248 NA
ATOM     40  C   UNL A   1      39.355  25.788  27.794  1.00  0.00     0.031 C 
ATOM     41  C   UNL A   1      43.474  25.844  29.893  1.00  0.00     0.029 A 
ATOM     42  N   UNL A   1      43.972  24.033  28.661  1.00  0.00    -0.354 N 
ATOM     43  C   UNL A   1      39.872  27.975  28.139  1.00  0.00     0.074 A 
ATOM     44  C   UNL A   1      38.841  27.023  27.813  1.00  0.00     0.031 C 
ATOM     45  C   UNL A   1      44.812  25.655  29.921  1.00  0.00     0.029 A 
ATOM     46  C   UNL A   1      45.150  24.743  28.825  1.00  0.00     0.049 A 
ATOM     47  H   UNL A   1      43.885  23.082  28.424  1.00  0.00     0.167 HD
ATOM     48  C   UNL A   1      39.872  29.151  28.830  1.00  0.00     0.031 A 
ATOM     49  C   UNL A   1      45.930  25.043  27.743  1.00  0.00     0.031 A 
ATOM     50  C   UNL A   1      41.234  29.481  29.240  1.00  0.00     0.049 A 
ATOM     51  C   UNL A   1      45.988  26.538  27.582  1.00  0.00     0.074 A 
ATOM     52  C   UNL A   1      41.918  29.161  30.403  1.00  0.00     0.029 A 
ATOM     53  N   UNL A   1      42.193  29.782  28.281  1.00  0.00    -0.354 N 
ATOM     54  N   UNL A   1      44.969  27.329  27.775  1.00  0.00    -0.248 NA
ATOM     55  C   UNL A   1      47.210  27.235  27.206  1.00  0.00     0.031 C 
ATOM     56  C   UNL A   1      43.303  29.173  30.106  1.00  0.00     0.029 A 
ATOM     57  C   UNL A   1      43.455  29.504  28.772  1.00  0.00     0.049 A 
ATOM     58  H   UNL A   1      42.001  30.140  27.384  1.00  0.00     0.167 HD
ATOM     59  C   UNL A   1      45.406  28.621  27.666  1.00  0.00     0.074 A 
ATOM     60  C   UNL A   1      46.800  28.511  27.266  1.00  0.00     0.031 C 
ATOM     61  C   UNL A   1      44.629  29.704  27.944  1.00  0.00     0.031 A 
BRANCH  48  62
ATOM     62  C   UNL A   1      38.644  29.712  29.505  1.00  0.00    -0.014 A 
ATOM     63  C   UNL A   1      38.329  31.073  29.324  1.00  0.00     0.009 A 
ATOM     64  C   UNL A   1      37.793  28.986  30.355  1.00  0.00     0.009 A 
ATOM     65  C   UNL A   1      37.284  31.698  30.010  1.00  0.00     0.001 A 
ATOM     66  C   UNL A   1      36.752  29.612  31.063  1.00  0.00     0.001 A 
ATOM     67  C   UNL A   1      36.505  30.970  30.898  1.00  0.00     0.000 A 
ENDBRANCH  48  62
BRANCH  49  68
ATOM     68  C   UNL A   1      45.897  24.123  26.555  1.00  0.00    -0.014 A 
ATOM     69  C   UNL A   1      46.409  24.551  25.312  1.00  0.00     0.009 A 
ATOM     70  C   UNL A   1      45.539  22.770  26.678  1.00  0.00     0.009 A 
ATOM     71  C   UNL A   1      46.597  23.652  24.251  1.00  0.00     0.001 A 
ATOM     72  C   UNL A   1      45.718  21.874  25.613  1.00  0.00     0.001 A 
ATOM     73  C   UNL A   1      46.255  22.313  24.404  1.00  0.00     0.000 A 
ENDBRANCH  49  68
BRANCH  61  74
ATOM     74  C   UNL A   1      44.981  31.101  27.542  1.00  0.00    -0.014 A 
ATOM     75  C   UNL A   1      44.436  31.725  26.413  1.00  0.00     0.009 A 
ATOM     76  C   UNL A   1      45.758  31.890  28.414  1.00  0.00     0.009 A 
ATOM     77  C   UNL A   1      44.710  33.064  26.132  1.00  0.00     0.001 A 
ATOM     78  C   UNL A   1      45.987  33.241  28.166  1.00  0.00     0.001 A 
ATOM     79  C   UNL A   1      45.477  33.823  27.013  1.00  0.00     0.000 A 
ENDBRANCH  61  74
ENDBRANCH  35  36
ENDBRANCH  28  30
ENDBRANCH  27  28
ENDBRANCH  26  27
ENDBRANCH   1  26
TORSDOF 14
ENDMDL
