MODEL 1
REMARK VINA RESULT:     -11.6      0.000      0.000
REMARK SMILES Cc1ccc(Nc2c(F)cccc2Cl)c(CC(=O)OCCOC(=O)c2ccc(-c3c4nc(c(-c5ccccc5)c5ccc([nH]5)c(-c5ccccc5)c5nc(c(-c6ccccc6)c6ccc3[nH]6)C=C5)C=C4)cc2)c1
REMARK SMILES IDX 20 1 19 2 17 3 18 4 16 5 15 6 1 7 2 8 3 9 73 10 4 11 5 12
REMARK SMILES IDX 6 13 7 15 8 16 13 17 9 18 10 19 12 20 14 21 11 22 21 23
REMARK SMILES IDX 22 24 23 25 24 26 25 27 26 28 72 29 27 30 71 31 28 32 29 33
REMARK SMILES IDX 30 34 65 35 31 36 70 37 64 38 66 39 32 40 69 41 63 42 62 43
REMARK SMILES IDX 33 45 55 46 40 47 54 48 41 49 44 50 53 51 67 52 42 53 43 54
REMARK SMILES IDX 52 56 68 57 45 58 34 59 35 60 39 61 36 62 38 63 37 64 56 65
REMARK SMILES IDX 57 66 61 67 58 68 60 69 59 70 46 71 47 72 51 73 48 74 50 75
REMARK SMILES IDX 49 76
REMARK H PARENT 6 14 66 44 44 55
REMARK Flexibility Score: inf
ROOT
ATOM      1  C   UNL A   1      33.459  31.821  27.534  1.00  0.00     0.274 C 
ENDROOT
BRANCH   1   2
ATOM      2  O   UNL A   1      32.538  30.934  26.921  1.00  0.00    -0.462 OA
BRANCH   2   3
ATOM      3  C   UNL A   1      32.948  29.663  26.657  1.00  0.00     0.310 C 
ATOM      4  O   UNL A   1      34.050  29.331  26.292  1.00  0.00    -0.252 OA
BRANCH   3   5
ATOM      5  C   UNL A   1      31.778  28.729  26.899  1.00  0.00     0.160 C 
BRANCH   5   6
ATOM      6  C   UNL A   1      31.388  28.095  25.593  1.00  0.00    -0.013 A 
ATOM      7  C   UNL A   1      29.815  29.536  22.449  1.00  0.00     0.044 C 
ATOM      8  C   UNL A   1      30.362  28.552  23.435  1.00  0.00    -0.051 A 
ATOM      9  C   UNL A   1      30.190  27.181  23.256  1.00  0.00     0.005 A 
ATOM     10  C   UNL A   1      30.989  28.999  24.590  1.00  0.00     0.009 A 
ATOM     11  C   UNL A   1      30.623  26.272  24.227  1.00  0.00     0.026 A 
ATOM     12  C   UNL A   1      31.213  26.701  25.421  1.00  0.00     0.042 A 
BRANCH  12  13
ATOM     13  N   UNL A   1      31.489  25.764  26.439  1.00  0.00    -0.352 N 
ATOM     14  H   UNL A   1      31.051  25.936  27.303  1.00  0.00     0.167 HD
BRANCH  13  15
ATOM     15  C   UNL A   1      32.310  24.607  26.389  1.00  0.00     0.094 A 
ATOM     16  C   UNL A   1      33.681  24.724  26.126  1.00  0.00     0.148 A 
ATOM     17  C   UNL A   1      31.848  23.337  26.782  1.00  0.00     0.067 A 
ATOM     18  F   UNL A   1      34.194  25.907  25.756  1.00  0.00    -0.205 F 
ATOM     19  C   UNL A   1      34.549  23.638  26.235  1.00  0.00     0.041 A 
ATOM     20  C   UNL A   1      32.725  22.260  26.965  1.00  0.00     0.023 A 
ATOM     21  Cl  UNL A   1      30.171  22.964  26.876  1.00  0.00    -0.082 Cl
ATOM     22  C   UNL A   1      34.077  22.407  26.684  1.00  0.00     0.005 A 
ENDBRANCH  13  15
ENDBRANCH  12  13
ENDBRANCH   5   6
ENDBRANCH   3   5
ENDBRANCH   2   3
ENDBRANCH   1   2
BRANCH   1  23
ATOM     23  C   UNL A   1      32.821  33.216  27.627  1.00  0.00     0.275 C 
BRANCH  23  24
ATOM     24  O   UNL A   1      33.525  34.263  28.406  1.00  0.00    -0.458 OA
BRANCH  24  25
ATOM     25  C   UNL A   1      33.954  34.283  29.701  1.00  0.00     0.338 C 
ATOM     26  O   UNL A   1      33.368  34.888  30.587  1.00  0.00    -0.246 OA
BRANCH  25  27
ATOM     27  C   UNL A   1      35.128  33.466  30.019  1.00  0.00     0.060 A 
ATOM     28  C   UNL A   1      35.066  32.330  30.846  1.00  0.00     0.016 A 
ATOM     29  C   UNL A   1      36.274  33.771  29.321  1.00  0.00     0.016 A 
ATOM     30  C   UNL A   1      36.138  31.442  30.848  1.00  0.00     0.010 A 
ATOM     31  C   UNL A   1      37.141  32.761  29.058  1.00  0.00     0.010 A 
ATOM     32  C   UNL A   1      37.156  31.666  29.920  1.00  0.00    -0.014 A 
BRANCH  32  33
ATOM     33  C   UNL A   1      38.480  31.076  29.961  1.00  0.00     0.031 A 
ATOM     34  C   UNL A   1      38.746  29.794  29.308  1.00  0.00     0.074 A 
ATOM     35  C   UNL A   1      39.399  31.888  30.546  1.00  0.00     0.049 A 
ATOM     36  N   UNL A   1      39.442  28.847  29.830  1.00  0.00    -0.248 NA
ATOM     37  C   UNL A   1      38.211  29.457  27.987  1.00  0.00     0.031 C 
ATOM     38  C   UNL A   1      40.837  31.787  30.650  1.00  0.00     0.029 A 
ATOM     39  N   UNL A   1      39.115  33.040  31.305  1.00  0.00    -0.354 N 
ATOM     40  C   UNL A   1      39.780  28.020  28.779  1.00  0.00     0.074 A 
ATOM     41  C   UNL A   1      38.833  28.301  27.728  1.00  0.00     0.031 C 
ATOM     42  C   UNL A   1      41.234  32.555  31.691  1.00  0.00     0.029 A 
ATOM     43  C   UNL A   1      40.037  33.097  32.335  1.00  0.00     0.049 A 
ATOM     44  H   UNL A   1      38.393  33.687  31.135  1.00  0.00     0.167 HD
ATOM     45  C   UNL A   1      41.006  27.423  28.758  1.00  0.00     0.031 A 
ATOM     46  C   UNL A   1      39.600  32.887  33.614  1.00  0.00     0.031 A 
ATOM     47  C   UNL A   1      41.815  27.899  29.878  1.00  0.00     0.049 A 
ATOM     48  C   UNL A   1      40.140  31.563  34.108  1.00  0.00     0.074 A 
ATOM     49  C   UNL A   1      42.789  28.882  29.950  1.00  0.00     0.029 A 
ATOM     50  N   UNL A   1      41.388  27.673  31.181  1.00  0.00    -0.354 N 
ATOM     51  N   UNL A   1      40.476  30.581  33.316  1.00  0.00    -0.248 NA
ATOM     52  C   UNL A   1      40.384  31.262  35.512  1.00  0.00     0.031 C 
ATOM     53  C   UNL A   1      42.887  29.304  31.302  1.00  0.00     0.029 A 
ATOM     54  C   UNL A   1      41.974  28.577  32.047  1.00  0.00     0.049 A 
ATOM     55  H   UNL A   1      40.755  26.968  31.450  1.00  0.00     0.167 HD
ATOM     56  C   UNL A   1      41.087  29.600  34.045  1.00  0.00     0.074 A 
ATOM     57  C   UNL A   1      40.968  30.054  35.421  1.00  0.00     0.031 C 
ATOM     58  C   UNL A   1      41.681  28.513  33.471  1.00  0.00     0.031 A 
BRANCH  45  59
ATOM     59  C   UNL A   1      41.580  26.752  27.536  1.00  0.00    -0.014 A 
ATOM     60  C   UNL A   1      41.513  25.351  27.408  1.00  0.00     0.009 A 
ATOM     61  C   UNL A   1      42.180  27.447  26.470  1.00  0.00     0.009 A 
ATOM     62  C   UNL A   1      42.064  24.673  26.314  1.00  0.00     0.001 A 
ATOM     63  C   UNL A   1      42.753  26.771  25.380  1.00  0.00     0.001 A 
ATOM     64  C   UNL A   1      42.698  25.383  25.305  1.00  0.00     0.000 A 
ENDBRANCH  45  59
BRANCH  46  65
ATOM     65  C   UNL A   1      38.231  33.441  33.919  1.00  0.00    -0.014 A 
ATOM     66  C   UNL A   1      37.814  34.598  33.219  1.00  0.00     0.009 A 
ATOM     67  C   UNL A   1      37.246  32.713  34.603  1.00  0.00     0.009 A 
ATOM     68  C   UNL A   1      36.461  34.952  33.118  1.00  0.00     0.001 A 
ATOM     69  C   UNL A   1      35.890  33.088  34.522  1.00  0.00     0.001 A 
ATOM     70  C   UNL A   1      35.494  34.182  33.752  1.00  0.00     0.000 A 
ENDBRANCH  46  65
BRANCH  58  71
ATOM     71  C   UNL A   1      42.138  27.284  34.205  1.00  0.00    -0.014 A 
ATOM     72  C   UNL A   1      41.293  26.487  34.981  1.00  0.00     0.009 A 
ATOM     73  C   UNL A   1      43.446  26.798  33.972  1.00  0.00     0.009 A 
ATOM     74  C   UNL A   1      41.747  25.288  35.538  1.00  0.00     0.001 A 
ATOM     75  C   UNL A   1      43.881  25.574  34.470  1.00  0.00     0.001 A 
ATOM     76  C   UNL A   1      43.033  24.826  35.271  1.00  0.00     0.000 A 
ENDBRANCH  58  71
ENDBRANCH  32  33
ENDBRANCH  25  27
ENDBRANCH  24  25
ENDBRANCH  23  24
ENDBRANCH   1  23
TORSDOF 14
ENDMDL
MODEL 2
REMARK VINA RESULT:     -11.6      2.161      3.517
REMARK SMILES Cc1ccc(Nc2c(F)cccc2Cl)c(CC(=O)OCCOC(=O)c2ccc(-c3c4nc(c(-c5ccccc5)c5ccc([nH]5)c(-c5ccccc5)c5nc(c(-c6ccccc6)c6ccc3[nH]6)C=C5)C=C4)cc2)c1
REMARK SMILES IDX 20 1 19 2 17 3 18 4 16 5 15 6 1 7 2 8 3 9 73 10 4 11 5 12
REMARK SMILES IDX 6 13 7 15 8 16 13 17 9 18 10 19 12 20 14 21 11 22 21 23
REMARK SMILES IDX 22 24 23 25 24 26 25 27 26 28 72 29 27 30 71 31 28 32 29 33
REMARK SMILES IDX 30 34 65 35 31 36 70 37 64 38 66 39 32 40 69 41 63 42 62 43
REMARK SMILES IDX 33 45 55 46 40 47 54 48 41 49 44 50 53 51 67 52 42 53 43 54
REMARK SMILES IDX 52 56 68 57 45 58 34 59 35 60 39 61 36 62 38 63 37 64 56 65
REMARK SMILES IDX 57 66 61 67 58 68 60 69 59 70 46 71 47 72 51 73 48 74 50 75
REMARK SMILES IDX 49 76
REMARK H PARENT 6 14 66 44 44 55
REMARK Flexibility Score: inf
ROOT
ATOM      1  C   UNL A   1      33.077  30.380  26.609  1.00  0.00     0.274 C 
ENDROOT
BRANCH   1   2
ATOM      2  O   UNL A   1      31.954  29.819  27.269  1.00  0.00    -0.462 OA
BRANCH   2   3
ATOM      3  C   UNL A   1      31.775  28.471  27.197  1.00  0.00     0.310 C 
ATOM      4  O   UNL A   1      31.190  27.785  28.000  1.00  0.00    -0.252 OA
BRANCH   3   5
ATOM      5  C   UNL A   1      32.440  27.973  25.927  1.00  0.00     0.160 C 
BRANCH   5   6
ATOM      6  C   UNL A   1      31.381  27.429  25.008  1.00  0.00    -0.013 A 
ATOM      7  C   UNL A   1      28.858  29.155  22.751  1.00  0.00     0.044 C 
ATOM      8  C   UNL A   1      29.593  28.084  23.494  1.00  0.00    -0.051 A 
ATOM      9  C   UNL A   1      29.094  26.784  23.563  1.00  0.00     0.005 A 
ATOM     10  C   UNL A   1      30.752  28.390  24.194  1.00  0.00     0.009 A 
ATOM     11  C   UNL A   1      29.737  25.811  24.335  1.00  0.00     0.026 A 
ATOM     12  C   UNL A   1      30.879  26.108  25.087  1.00  0.00     0.042 A 
BRANCH  12  13
ATOM     13  N   UNL A   1      31.402  25.143  25.974  1.00  0.00    -0.352 N 
ATOM     14  H   UNL A   1      31.335  25.366  26.930  1.00  0.00     0.167 HD
BRANCH  13  15
ATOM     15  C   UNL A   1      32.010  23.896  25.679  1.00  0.00     0.094 A 
ATOM     16  C   UNL A   1      31.275  22.708  25.787  1.00  0.00     0.148 A 
ATOM     17  C   UNL A   1      33.285  23.798  25.092  1.00  0.00     0.067 A 
ATOM     18  F   UNL A   1      30.047  22.726  26.328  1.00  0.00    -0.205 F 
ATOM     19  C   UNL A   1      31.779  21.485  25.346  1.00  0.00     0.041 A 
ATOM     20  C   UNL A   1      33.769  22.587  24.580  1.00  0.00     0.023 A 
ATOM     21  Cl  UNL A   1      34.411  25.098  25.133  1.00  0.00    -0.082 Cl
ATOM     22  C   UNL A   1      33.018  21.426  24.714  1.00  0.00     0.005 A 
ENDBRANCH  13  15
ENDBRANCH  12  13
ENDBRANCH   5   6
ENDBRANCH   3   5
ENDBRANCH   2   3
ENDBRANCH   1   2
BRANCH   1  23
ATOM     23  C   UNL A   1      33.873  31.226  27.614  1.00  0.00     0.275 C 
BRANCH  23  24
ATOM     24  O   UNL A   1      35.146  30.679  28.144  1.00  0.00    -0.458 OA
BRANCH  24  25
ATOM     25  C   UNL A   1      35.899  31.040  29.223  1.00  0.00     0.338 C 
ATOM     26  O   UNL A   1      35.560  31.915  30.009  1.00  0.00    -0.246 OA
BRANCH  25  27
ATOM     27  C   UNL A   1      37.121  30.270  29.462  1.00  0.00     0.060 A 
ATOM     28  C   UNL A   1      37.159  29.138  30.297  1.00  0.00     0.016 A 
ATOM     29  C   UNL A   1      38.203  30.610  28.683  1.00  0.00     0.016 A 
ATOM     30  C   UNL A   1      38.261  28.289  30.228  1.00  0.00     0.010 A 
ATOM     31  C   UNL A   1      39.086  29.631  28.365  1.00  0.00     0.010 A 
ATOM     32  C   UNL A   1      39.202  28.544  29.229  1.00  0.00    -0.014 A 
BRANCH  32  33
ATOM     33  C   UNL A   1      40.546  28.002  29.179  1.00  0.00     0.031 A 
ATOM     34  C   UNL A   1      40.806  26.704  28.557  1.00  0.00     0.074 A 
ATOM     35  C   UNL A   1      41.479  28.870  29.650  1.00  0.00     0.049 A 
ATOM     36  N   UNL A   1      41.579  25.805  29.054  1.00  0.00    -0.248 NA
ATOM     37  C   UNL A   1      40.174  26.293  27.301  1.00  0.00     0.031 C 
ATOM     38  C   UNL A   1      42.924  28.825  29.634  1.00  0.00     0.029 A 
ATOM     39  N   UNL A   1      41.217  30.044  30.385  1.00  0.00    -0.354 N 
ATOM     40  C   UNL A   1      41.858  24.946  28.011  1.00  0.00     0.074 A 
ATOM     41  C   UNL A   1      40.816  25.148  27.035  1.00  0.00     0.031 C 
ATOM     42  C   UNL A   1      43.378  29.650  30.605  1.00  0.00     0.029 A 
ATOM     43  C   UNL A   1      42.220  30.177  31.328  1.00  0.00     0.049 A 
ATOM     44  H   UNL A   1      40.459  30.657  30.252  1.00  0.00     0.167 HD
ATOM     45  C   UNL A   1      43.100  24.393  27.909  1.00  0.00     0.031 A 
ATOM     46  C   UNL A   1      41.901  30.006  32.647  1.00  0.00     0.031 A 
ATOM     47  C   UNL A   1      43.983  24.943  28.935  1.00  0.00     0.049 A 
ATOM     48  C   UNL A   1      42.531  28.724  33.145  1.00  0.00     0.074 A 
ATOM     49  C   UNL A   1      44.921  25.962  28.884  1.00  0.00     0.029 A 
ATOM     50  N   UNL A   1      43.676  24.759  30.278  1.00  0.00    -0.354 N 
ATOM     51  N   UNL A   1      42.837  27.721  32.367  1.00  0.00    -0.248 NA
ATOM     52  C   UNL A   1      42.905  28.492  34.533  1.00  0.00     0.031 C 
ATOM     53  C   UNL A   1      45.116  26.444  30.204  1.00  0.00     0.029 A 
ATOM     54  C   UNL A   1      44.298  25.719  31.054  1.00  0.00     0.049 A 
ATOM     55  H   UNL A   1      43.096  24.044  30.628  1.00  0.00     0.167 HD
ATOM     56  C   UNL A   1      43.544  26.795  33.079  1.00  0.00     0.074 A 
ATOM     57  C   UNL A   1      43.525  27.302  34.441  1.00  0.00     0.031 C 
ATOM     58  C   UNL A   1      44.129  25.706  32.499  1.00  0.00     0.031 A 
BRANCH  45  59
ATOM     59  C   UNL A   1      43.594  23.690  26.669  1.00  0.00    -0.014 A 
ATOM     60  C   UNL A   1      44.382  24.388  25.733  1.00  0.00     0.009 A 
ATOM     61  C   UNL A   1      43.334  22.338  26.380  1.00  0.00     0.009 A 
ATOM     62  C   UNL A   1      44.834  23.796  24.548  1.00  0.00     0.001 A 
ATOM     63  C   UNL A   1      43.767  21.745  25.182  1.00  0.00     0.001 A 
ATOM     64  C   UNL A   1      44.515  22.477  24.264  1.00  0.00     0.000 A 
ENDBRANCH  45  59
BRANCH  46  65
ATOM     65  C   UNL A   1      40.543  30.525  33.047  1.00  0.00    -0.014 A 
ATOM     66  C   UNL A   1      40.138  31.782  32.539  1.00  0.00     0.009 A 
ATOM     67  C   UNL A   1      39.551  29.712  33.617  1.00  0.00     0.009 A 
ATOM     68  C   UNL A   1      38.790  32.167  32.507  1.00  0.00     0.001 A 
ATOM     69  C   UNL A   1      38.200  30.114  33.607  1.00  0.00     0.001 A 
ATOM     70  C   UNL A   1      37.816  31.320  33.021  1.00  0.00     0.000 A 
ENDBRANCH  46  65
BRANCH  58  71
ATOM     71  C   UNL A   1      44.693  24.526  33.240  1.00  0.00    -0.014 A 
ATOM     72  C   UNL A   1      46.025  24.435  33.652  1.00  0.00     0.009 A 
ATOM     73  C   UNL A   1      43.806  23.526  33.702  1.00  0.00     0.009 A 
ATOM     74  C   UNL A   1      46.461  23.369  34.445  1.00  0.00     0.001 A 
ATOM     75  C   UNL A   1      44.222  22.499  34.545  1.00  0.00     0.001 A 
ATOM     76  C   UNL A   1      45.558  22.412  34.903  1.00  0.00     0.000 A 
ENDBRANCH  58  71
ENDBRANCH  32  33
ENDBRANCH  25  27
ENDBRANCH  24  25
ENDBRANCH  23  24
ENDBRANCH   1  23
TORSDOF 14
ENDMDL
MODEL 3
REMARK VINA RESULT:     -11.6      2.559      4.387
REMARK SMILES Cc1ccc(Nc2c(F)cccc2Cl)c(CC(=O)OCCOC(=O)c2ccc(-c3c4nc(c(-c5ccccc5)c5ccc([nH]5)c(-c5ccccc5)c5nc(c(-c6ccccc6)c6ccc3[nH]6)C=C5)C=C4)cc2)c1
REMARK SMILES IDX 20 1 19 2 17 3 18 4 16 5 15 6 1 7 2 8 3 9 73 10 4 11 5 12
REMARK SMILES IDX 6 13 7 15 8 16 13 17 9 18 10 19 12 20 14 21 11 22 21 23
REMARK SMILES IDX 22 24 23 25 24 26 25 27 26 28 72 29 27 30 71 31 28 32 29 33
REMARK SMILES IDX 30 34 65 35 31 36 70 37 64 38 66 39 32 40 69 41 63 42 62 43
REMARK SMILES IDX 33 45 55 46 40 47 54 48 41 49 44 50 53 51 67 52 42 53 43 54
REMARK SMILES IDX 52 56 68 57 45 58 34 59 35 60 39 61 36 62 38 63 37 64 56 65
REMARK SMILES IDX 57 66 61 67 58 68 60 69 59 70 46 71 47 72 51 73 48 74 50 75
REMARK SMILES IDX 49 76
REMARK H PARENT 6 14 66 44 44 55
REMARK Flexibility Score: inf
ROOT
ATOM      1  C   UNL A   1      33.558  30.426  26.792  1.00  0.00     0.274 C 
ENDROOT
BRANCH   1   2
ATOM      2  O   UNL A   1      32.396  30.007  27.488  1.00  0.00    -0.462 OA
BRANCH   2   3
ATOM      3  C   UNL A   1      31.953  28.735  27.291  1.00  0.00     0.310 C 
ATOM      4  O   UNL A   1      31.178  28.132  27.994  1.00  0.00    -0.252 OA
BRANCH   3   5
ATOM      5  C   UNL A   1      32.606  28.198  26.031  1.00  0.00     0.160 C 
BRANCH   5   6
ATOM      6  C   UNL A   1      31.554  27.529  25.190  1.00  0.00    -0.013 A 
ATOM      7  C   UNL A   1      29.035  28.918  22.709  1.00  0.00     0.044 C 
ATOM      8  C   UNL A   1      29.770  27.962  23.593  1.00  0.00    -0.051 A 
ATOM      9  C   UNL A   1      29.277  26.681  23.837  1.00  0.00     0.005 A 
ATOM     10  C   UNL A   1      30.925  28.366  24.250  1.00  0.00     0.009 A 
ATOM     11  C   UNL A   1      29.921  25.825  24.737  1.00  0.00     0.026 A 
ATOM     12  C   UNL A   1      31.058  26.228  25.446  1.00  0.00     0.042 A 
BRANCH  12  13
ATOM     13  N   UNL A   1      31.581  25.396  26.458  1.00  0.00    -0.352 N 
ATOM     14  H   UNL A   1      31.337  25.644  27.379  1.00  0.00     0.167 HD
BRANCH  13  15
ATOM     15  C   UNL A   1      32.408  24.250  26.333  1.00  0.00     0.094 A 
ATOM     16  C   UNL A   1      33.790  24.392  26.152  1.00  0.00     0.148 A 
ATOM     17  C   UNL A   1      31.933  22.947  26.570  1.00  0.00     0.067 A 
ATOM     18  F   UNL A   1      34.315  25.607  25.931  1.00  0.00    -0.205 F 
ATOM     19  C   UNL A   1      34.657  23.300  26.194  1.00  0.00     0.041 A 
ATOM     20  C   UNL A   1      32.805  21.856  26.687  1.00  0.00     0.023 A 
ATOM     21  Cl  UNL A   1      30.255  22.567  26.542  1.00  0.00    -0.082 Cl
ATOM     22  C   UNL A   1      34.169  22.031  26.491  1.00  0.00     0.005 A 
ENDBRANCH  13  15
ENDBRANCH  12  13
ENDBRANCH   5   6
ENDBRANCH   3   5
ENDBRANCH   2   3
ENDBRANCH   1   2
BRANCH   1  23
ATOM     23  C   UNL A   1      34.469  31.195  27.762  1.00  0.00     0.275 C 
BRANCH  23  24
ATOM     24  O   UNL A   1      35.877  30.754  27.906  1.00  0.00    -0.458 OA
BRANCH  24  25
ATOM     25  C   UNL A   1      36.533  30.167  28.949  1.00  0.00     0.338 C 
ATOM     26  O   UNL A   1      36.147  30.247  30.107  1.00  0.00    -0.246 OA
BRANCH  25  27
ATOM     27  C   UNL A   1      37.701  29.348  28.616  1.00  0.00     0.060 A 
ATOM     28  C   UNL A   1      38.430  29.509  27.424  1.00  0.00     0.016 A 
ATOM     29  C   UNL A   1      38.157  28.523  29.618  1.00  0.00     0.016 A 
ATOM     30  C   UNL A   1      39.689  28.922  27.323  1.00  0.00     0.010 A 
ATOM     31  C   UNL A   1      39.485  28.254  29.661  1.00  0.00     0.010 A 
ATOM     32  C   UNL A   1      40.208  28.321  28.470  1.00  0.00    -0.014 A 
BRANCH  32  33
ATOM     33  C   UNL A   1      41.324  27.396  28.507  1.00  0.00     0.031 A 
ATOM     34  C   UNL A   1      41.112  25.961  28.317  1.00  0.00     0.074 A 
ATOM     35  C   UNL A   1      42.523  28.026  28.611  1.00  0.00     0.049 A 
ATOM     36  N   UNL A   1      41.676  25.047  29.024  1.00  0.00    -0.248 NA
ATOM     37  C   UNL A   1      40.198  25.428  27.305  1.00  0.00     0.031 C 
ATOM     38  C   UNL A   1      43.877  27.529  28.514  1.00  0.00     0.029 A 
ATOM     39  N   UNL A   1      42.716  29.381  28.947  1.00  0.00    -0.354 N 
ATOM     40  C   UNL A   1      41.537  23.884  28.295  1.00  0.00     0.074 A 
ATOM     41  C   UNL A   1      40.448  24.114  27.377  1.00  0.00     0.031 C 
ATOM     42  C   UNL A   1      44.691  28.412  29.137  1.00  0.00     0.029 A 
ATOM     43  C   UNL A   1      43.855  29.457  29.729  1.00  0.00     0.049 A 
ATOM     44  H   UNL A   1      42.146  30.135  28.676  1.00  0.00     0.167 HD
ATOM     45  C   UNL A   1      42.544  22.965  28.292  1.00  0.00     0.031 A 
ATOM     46  C   UNL A   1      43.718  29.778  31.052  1.00  0.00     0.031 A 
ATOM     47  C   UNL A   1      43.698  23.482  29.027  1.00  0.00     0.049 A 
ATOM     48  C   UNL A   1      44.041  28.562  31.890  1.00  0.00     0.074 A 
ATOM     49  C   UNL A   1      44.859  24.097  28.589  1.00  0.00     0.029 A 
ATOM     50  N   UNL A   1      43.572  23.793  30.375  1.00  0.00    -0.354 N 
ATOM     51  N   UNL A   1      43.929  27.336  31.456  1.00  0.00    -0.248 NA
ATOM     52  C   UNL A   1      44.554  28.631  33.252  1.00  0.00     0.031 C 
ATOM     53  C   UNL A   1      45.390  24.850  29.669  1.00  0.00     0.029 A 
ATOM     54  C   UNL A   1      44.551  24.690  30.759  1.00  0.00     0.049 A 
ATOM     55  H   UNL A   1      42.881  23.427  30.974  1.00  0.00     0.167 HD
ATOM     56  C   UNL A   1      44.458  26.478  32.378  1.00  0.00     0.074 A 
ATOM     57  C   UNL A   1      44.799  27.333  33.504  1.00  0.00     0.031 C 
ATOM     58  C   UNL A   1      44.619  25.144  32.140  1.00  0.00     0.031 A 
BRANCH  45  59
ATOM     59  C   UNL A   1      42.620  21.821  27.313  1.00  0.00    -0.014 A 
ATOM     60  C   UNL A   1      41.758  20.716  27.457  1.00  0.00     0.009 A 
ATOM     61  C   UNL A   1      43.504  21.784  26.219  1.00  0.00     0.009 A 
ATOM     62  C   UNL A   1      41.813  19.610  26.601  1.00  0.00     0.001 A 
ATOM     63  C   UNL A   1      43.577  20.667  25.369  1.00  0.00     0.001 A 
ATOM     64  C   UNL A   1      42.733  19.579  25.563  1.00  0.00     0.000 A 
ENDBRANCH  45  59
BRANCH  46  65
ATOM     65  C   UNL A   1      42.637  30.786  31.354  1.00  0.00    -0.014 A 
ATOM     66  C   UNL A   1      41.457  30.324  31.982  1.00  0.00     0.009 A 
ATOM     67  C   UNL A   1      42.859  32.172  31.341  1.00  0.00     0.009 A 
ATOM     68  C   UNL A   1      40.591  31.194  32.659  1.00  0.00     0.001 A 
ATOM     69  C   UNL A   1      41.972  33.047  31.999  1.00  0.00     0.001 A 
ATOM     70  C   UNL A   1      40.861  32.557  32.687  1.00  0.00     0.000 A 
ENDBRANCH  46  65
BRANCH  58  71
ATOM     71  C   UNL A   1      44.947  24.110  33.180  1.00  0.00    -0.014 A 
ATOM     72  C   UNL A   1      46.190  24.013  33.812  1.00  0.00     0.009 A 
ATOM     73  C   UNL A   1      43.905  23.294  33.681  1.00  0.00     0.009 A 
ATOM     74  C   UNL A   1      46.395  23.110  34.860  1.00  0.00     0.001 A 
ATOM     75  C   UNL A   1      44.088  22.442  34.766  1.00  0.00     0.001 A 
ATOM     76  C   UNL A   1      45.343  22.338  35.345  1.00  0.00     0.000 A 
ENDBRANCH  58  71
ENDBRANCH  32  33
ENDBRANCH  25  27
ENDBRANCH  24  25
ENDBRANCH  23  24
ENDBRANCH   1  23
TORSDOF 14
ENDMDL
