MODEL 1
REMARK VINA RESULT:      -8.3      0.000      0.000
REMARK SMILES CCC[N@H+](CC)[C@H]1CC[C@]([NH2+]C)(C(=O)OCCOC(=O)c2ccc(-c3c4nc(c(-c5ccccc5)c5ccc([nH]5)c(-c5ccccc5)c5nc(c(-c6ccccc6)c6ccc3[nH]6)C=C5)C=C4)cc2)C1
REMARK SMILES IDX 16 1 15 2 13 3 14 4 10 5 7 6 8 7 69 8 9 9 4 10 3 12 2 13
REMARK SMILES IDX 1 14 5 15 6 16 11 17 12 18 17 21 18 22 19 23 20 24 21 25
REMARK SMILES IDX 22 26 68 27 23 28 67 29 24 30 25 31 26 32 61 33 27 34 66 35
REMARK SMILES IDX 60 36 62 37 28 38 65 39 59 40 58 41 29 43 51 44 36 45 50 46
REMARK SMILES IDX 37 47 40 48 49 49 63 50 38 51 39 52 48 54 64 55 41 56 30 57
REMARK SMILES IDX 31 58 35 59 32 60 34 61 33 62 52 63 53 64 57 65 54 66 56 67
REMARK SMILES IDX 55 68 42 69 43 70 47 71 44 72 46 73 45 74
REMARK H PARENT 4 11 11 19 11 20 62 42 40 53
REMARK Flexibility Score: inf
ROOT
ATOM      1  C   UNL A   1      33.827  33.706  28.038  1.00  0.00     0.274 C 
ENDROOT
BRANCH   1   2
ATOM      2  O   UNL A   1      34.789  33.825  29.105  1.00  0.00    -0.457 OA
BRANCH   2   3
ATOM      3  C   UNL A   1      34.273  34.262  30.296  1.00  0.00     0.368 C 
ATOM      4  O   UNL A   1      33.171  34.789  30.385  1.00  0.00    -0.245 OA
BRANCH   3   5
ATOM      5  C   UNL A   1      35.275  34.058  31.470  1.00  0.00     0.200 C 
ATOM      6  C   UNL A   1      37.235  32.696  32.090  1.00  0.00     0.191 C 
ATOM      7  C   UNL A   1      35.959  31.944  32.536  1.00  0.00     0.072 C 
ATOM      8  C   UNL A   1      36.618  33.517  30.939  1.00  0.00     0.146 C 
ATOM      9  C   UNL A   1      34.812  32.951  32.454  1.00  0.00     0.087 C 
BRANCH   6  10
ATOM     10  N   UNL A   1      37.940  33.563  33.091  1.00  0.00    -0.333 N 
ATOM     11  H   UNL A   1      37.382  34.410  33.204  1.00  0.00     0.348 HD
BRANCH  10  12
ATOM     12  C   UNL A   1      39.304  33.919  32.602  1.00  0.00     0.262 C 
BRANCH  12  13
ATOM     13  C   UNL A   1      40.466  33.761  33.592  1.00  0.00     0.058 C 
ATOM     14  C   UNL A   1      41.054  35.094  34.032  1.00  0.00     0.010 C 
ENDBRANCH  12  13
ENDBRANCH  10  12
BRANCH  10  15
ATOM     15  C   UNL A   1      38.051  32.893  34.413  1.00  0.00     0.258 C 
ATOM     16  C   UNL A   1      37.243  33.527  35.550  1.00  0.00     0.071 C 
ENDBRANCH  10  15
ENDBRANCH   6  10
BRANCH   5  17
ATOM     17  N   UNL A   1      35.469  35.279  32.315  1.00  0.00    -0.334 N 
ATOM     18  C   UNL A   1      34.641  35.359  33.514  1.00  0.00     0.331 C 
ATOM     19  H   UNL A   1      35.263  36.095  31.739  1.00  0.00     0.347 HD
ATOM     20  H   UNL A   1      36.433  35.237  32.647  1.00  0.00     0.347 HD
ENDBRANCH   5  17
ENDBRANCH   3   5
ENDBRANCH   2   3
ENDBRANCH   1   2
BRANCH   1  21
ATOM     21  C   UNL A   1      33.578  32.250  27.646  1.00  0.00     0.275 C 
BRANCH  21  22
ATOM     22  O   UNL A   1      34.174  31.342  28.589  1.00  0.00    -0.458 OA
BRANCH  22  23
ATOM     23  C   UNL A   1      34.678  30.208  28.055  1.00  0.00     0.338 C 
ATOM     24  O   UNL A   1      34.115  29.420  27.310  1.00  0.00    -0.246 OA
BRANCH  23  25
ATOM     25  C   UNL A   1      36.079  30.040  28.456  1.00  0.00     0.060 A 
ATOM     26  C   UNL A   1      37.076  30.184  27.493  1.00  0.00     0.016 A 
ATOM     27  C   UNL A   1      36.392  29.571  29.730  1.00  0.00     0.016 A 
ATOM     28  C   UNL A   1      38.384  29.807  27.771  1.00  0.00     0.010 A 
ATOM     29  C   UNL A   1      37.715  29.230  30.026  1.00  0.00     0.010 A 
ATOM     30  C   UNL A   1      38.714  29.312  29.036  1.00  0.00    -0.014 A 
BRANCH  30  31
ATOM     31  C   UNL A   1      40.077  28.794  29.299  1.00  0.00     0.031 A 
ATOM     32  C   UNL A   1      41.070  29.657  30.027  1.00  0.00     0.074 A 
ATOM     33  C   UNL A   1      40.421  27.551  28.917  1.00  0.00     0.049 A 
ATOM     34  N   UNL A   1      42.348  29.462  30.222  1.00  0.00    -0.248 NA
ATOM     35  C   UNL A   1      40.553  30.906  30.610  1.00  0.00     0.031 C 
ATOM     36  C   UNL A   1      39.530  26.581  28.280  1.00  0.00     0.029 A 
ATOM     37  N   UNL A   1      41.620  26.893  29.014  1.00  0.00    -0.354 N 
ATOM     38  C   UNL A   1      42.798  30.580  30.913  1.00  0.00     0.074 A 
ATOM     39  C   UNL A   1      41.657  31.449  31.104  1.00  0.00     0.031 C 
ATOM     40  C   UNL A   1      40.213  25.448  28.050  1.00  0.00     0.029 A 
ATOM     41  C   UNL A   1      41.600  25.636  28.464  1.00  0.00     0.049 A 
ATOM     42  H   UNL A   1      42.419  27.285  29.437  1.00  0.00     0.167 HD
ATOM     43  C   UNL A   1      44.050  30.860  31.344  1.00  0.00     0.031 A 
ATOM     44  C   UNL A   1      42.596  24.749  28.280  1.00  0.00     0.031 A 
ATOM     45  C   UNL A   1      45.180  29.987  31.173  1.00  0.00     0.049 A 
ATOM     46  C   UNL A   1      43.990  25.110  28.706  1.00  0.00     0.074 A 
ATOM     47  C   UNL A   1      46.494  30.188  31.561  1.00  0.00     0.029 A 
ATOM     48  N   UNL A   1      45.125  28.740  30.572  1.00  0.00    -0.354 N 
ATOM     49  N   UNL A   1      44.419  26.197  29.302  1.00  0.00    -0.248 NA
ATOM     50  C   UNL A   1      45.043  24.125  28.418  1.00  0.00     0.031 C 
ATOM     51  C   UNL A   1      47.241  29.073  31.165  1.00  0.00     0.029 A 
ATOM     52  C   UNL A   1      46.384  28.163  30.566  1.00  0.00     0.049 A 
ATOM     53  H   UNL A   1      44.312  28.325  30.203  1.00  0.00     0.167 HD
ATOM     54  C   UNL A   1      45.785  26.022  29.472  1.00  0.00     0.074 A 
ATOM     55  C   UNL A   1      46.112  24.718  28.931  1.00  0.00     0.031 C 
ATOM     56  C   UNL A   1      46.689  26.866  30.024  1.00  0.00     0.031 A 
BRANCH  43  57
ATOM     57  C   UNL A   1      44.269  32.191  32.002  1.00  0.00    -0.014 A 
ATOM     58  C   UNL A   1      44.222  32.334  33.397  1.00  0.00     0.009 A 
ATOM     59  C   UNL A   1      44.542  33.316  31.208  1.00  0.00     0.009 A 
ATOM     60  C   UNL A   1      44.418  33.587  33.982  1.00  0.00     0.001 A 
ATOM     61  C   UNL A   1      44.757  34.563  31.798  1.00  0.00     0.001 A 
ATOM     62  C   UNL A   1      44.688  34.699  33.184  1.00  0.00     0.000 A 
ENDBRANCH  43  57
BRANCH  44  63
ATOM     63  C   UNL A   1      42.319  23.453  27.613  1.00  0.00    -0.014 A 
ATOM     64  C   UNL A   1      42.511  23.307  26.232  1.00  0.00     0.009 A 
ATOM     65  C   UNL A   1      41.854  22.357  28.356  1.00  0.00     0.009 A 
ATOM     66  C   UNL A   1      42.227  22.091  25.606  1.00  0.00     0.001 A 
ATOM     67  C   UNL A   1      41.593  21.137  27.732  1.00  0.00     0.001 A 
ATOM     68  C   UNL A   1      41.773  21.007  26.356  1.00  0.00     0.000 A 
ENDBRANCH  44  63
BRANCH  56  69
ATOM     69  C   UNL A   1      48.109  26.390  30.096  1.00  0.00    -0.014 A 
ATOM     70  C   UNL A   1      48.593  25.726  31.233  1.00  0.00     0.009 A 
ATOM     71  C   UNL A   1      48.963  26.581  28.999  1.00  0.00     0.009 A 
ATOM     72  C   UNL A   1      49.917  25.285  31.281  1.00  0.00     0.001 A 
ATOM     73  C   UNL A   1      50.280  26.121  29.042  1.00  0.00     0.001 A 
ATOM     74  C   UNL A   1      50.757  25.480  30.184  1.00  0.00     0.000 A 
ENDBRANCH  56  69
ENDBRANCH  30  31
ENDBRANCH  23  25
ENDBRANCH  22  23
ENDBRANCH  21  22
ENDBRANCH   1  21
TORSDOF 16
ENDMDL
MODEL 2
REMARK VINA RESULT:      -8.0      4.205      9.070
REMARK SMILES CCC[N@H+](CC)[C@H]1CC[C@]([NH2+]C)(C(=O)OCCOC(=O)c2ccc(-c3c4nc(c(-c5ccccc5)c5ccc([nH]5)c(-c5ccccc5)c5nc(c(-c6ccccc6)c6ccc3[nH]6)C=C5)C=C4)cc2)C1
REMARK SMILES IDX 16 1 15 2 13 3 14 4 10 5 7 6 8 7 69 8 9 9 4 10 3 12 2 13
REMARK SMILES IDX 1 14 5 15 6 16 11 17 12 18 17 21 18 22 19 23 20 24 21 25
REMARK SMILES IDX 22 26 68 27 23 28 67 29 24 30 25 31 26 32 61 33 27 34 66 35
REMARK SMILES IDX 60 36 62 37 28 38 65 39 59 40 58 41 29 43 51 44 36 45 50 46
REMARK SMILES IDX 37 47 40 48 49 49 63 50 38 51 39 52 48 54 64 55 41 56 30 57
REMARK SMILES IDX 31 58 35 59 32 60 34 61 33 62 52 63 53 64 57 65 54 66 56 67
REMARK SMILES IDX 55 68 42 69 43 70 47 71 44 72 46 73 45 74
REMARK H PARENT 4 11 11 19 11 20 62 42 40 53
REMARK Flexibility Score: inf
ROOT
ATOM      1  C   UNL A   1      31.081  29.410  24.443  1.00  0.00     0.274 C 
ENDROOT
BRANCH   1   2
ATOM      2  O   UNL A   1      30.505  28.095  24.321  1.00  0.00    -0.457 OA
BRANCH   2   3
ATOM      3  C   UNL A   1      31.047  27.323  23.328  1.00  0.00     0.368 C 
ATOM      4  O   UNL A   1      30.712  27.424  22.154  1.00  0.00    -0.245 OA
BRANCH   3   5
ATOM      5  C   UNL A   1      32.069  26.291  23.890  1.00  0.00     0.200 C 
ATOM      6  C   UNL A   1      33.048  25.547  26.027  1.00  0.00     0.191 C 
ATOM      7  C   UNL A   1      33.923  26.690  25.462  1.00  0.00     0.072 C 
ATOM      8  C   UNL A   1      31.717  25.930  25.347  1.00  0.00     0.146 C 
ATOM      9  C   UNL A   1      33.499  26.883  24.007  1.00  0.00     0.087 C 
BRANCH   6  10
ATOM     10  N   UNL A   1      33.447  24.130  25.735  1.00  0.00    -0.333 N 
ATOM     11  H   UNL A   1      33.079  23.896  24.813  1.00  0.00     0.348 HD
BRANCH  10  12
ATOM     12  C   UNL A   1      32.872  23.207  26.757  1.00  0.00     0.262 C 
BRANCH  12  13
ATOM     13  C   UNL A   1      33.650  21.918  27.052  1.00  0.00     0.058 C 
ATOM     14  C   UNL A   1      33.276  20.774  26.122  1.00  0.00     0.010 C 
ENDBRANCH  12  13
ENDBRANCH  10  12
BRANCH  10  15
ATOM     15  C   UNL A   1      34.924  23.973  25.707  1.00  0.00     0.258 C 
ATOM     16  C   UNL A   1      35.527  23.594  24.351  1.00  0.00     0.071 C 
ENDBRANCH  10  15
ENDBRANCH   6  10
BRANCH   5  17
ATOM     17  N   UNL A   1      32.219  25.067  23.040  1.00  0.00    -0.334 N 
ATOM     18  C   UNL A   1      31.131  24.099  23.126  1.00  0.00     0.331 C 
ATOM     19  H   UNL A   1      33.079  24.595  23.318  1.00  0.00     0.347 HD
ATOM     20  H   UNL A   1      32.220  25.397  22.075  1.00  0.00     0.347 HD
ENDBRANCH   5  17
ENDBRANCH   3   5
ENDBRANCH   2   3
ENDBRANCH   1   2
BRANCH   1  21
ATOM     21  C   UNL A   1      31.602  29.682  25.855  1.00  0.00     0.275 C 
BRANCH  21  22
ATOM     22  O   UNL A   1      32.896  30.311  25.824  1.00  0.00    -0.458 OA
BRANCH  22  23
ATOM     23  C   UNL A   1      33.167  31.117  26.873  1.00  0.00     0.338 C 
ATOM     24  O   UNL A   1      32.425  31.934  27.398  1.00  0.00    -0.246 OA
BRANCH  23  25
ATOM     25  C   UNL A   1      34.521  30.855  27.376  1.00  0.00     0.060 A 
ATOM     26  C   UNL A   1      34.907  29.537  27.611  1.00  0.00     0.016 A 
ATOM     27  C   UNL A   1      35.336  31.911  27.777  1.00  0.00     0.016 A 
ATOM     28  C   UNL A   1      36.081  29.259  28.301  1.00  0.00     0.010 A 
ATOM     29  C   UNL A   1      36.538  31.634  28.434  1.00  0.00     0.010 A 
ATOM     30  C   UNL A   1      36.901  30.306  28.732  1.00  0.00    -0.014 A 
BRANCH  30  31
ATOM     31  C   UNL A   1      38.087  30.021  29.572  1.00  0.00     0.031 A 
ATOM     32  C   UNL A   1      39.206  29.184  29.016  1.00  0.00     0.074 A 
ATOM     33  C   UNL A   1      38.183  30.530  30.814  1.00  0.00     0.049 A 
ATOM     34  N   UNL A   1      40.252  28.692  29.627  1.00  0.00    -0.248 NA
ATOM     35  C   UNL A   1      39.133  28.859  27.582  1.00  0.00     0.031 C 
ATOM     36  C   UNL A   1      37.211  31.425  31.442  1.00  0.00     0.029 A 
ATOM     37  N   UNL A   1      39.153  30.361  31.769  1.00  0.00    -0.354 N 
ATOM     38  C   UNL A   1      40.941  27.964  28.664  1.00  0.00     0.074 A 
ATOM     39  C   UNL A   1      40.195  28.080  27.430  1.00  0.00     0.031 C 
ATOM     40  C   UNL A   1      37.639  31.733  32.678  1.00  0.00     0.029 A 
ATOM     41  C   UNL A   1      38.877  31.008  32.947  1.00  0.00     0.049 A 
ATOM     42  H   UNL A   1      39.968  29.827  31.624  1.00  0.00     0.167 HD
ATOM     43  C   UNL A   1      42.088  27.258  28.799  1.00  0.00     0.031 A 
ATOM     44  C   UNL A   1      39.528  30.990  34.125  1.00  0.00     0.031 A 
ATOM     45  C   UNL A   1      42.841  27.161  30.020  1.00  0.00     0.049 A 
ATOM     46  C   UNL A   1      40.762  30.145  34.270  1.00  0.00     0.074 A 
ATOM     47  C   UNL A   1      44.008  26.456  30.263  1.00  0.00     0.029 A 
ATOM     48  N   UNL A   1      42.503  27.797  31.204  1.00  0.00    -0.354 N 
ATOM     49  N   UNL A   1      41.371  29.409  33.372  1.00  0.00    -0.248 NA
ATOM     50  C   UNL A   1      41.390  30.117  35.600  1.00  0.00     0.031 C 
ATOM     51  C   UNL A   1      44.360  26.642  31.605  1.00  0.00     0.029 A 
ATOM     52  C   UNL A   1      43.432  27.493  32.184  1.00  0.00     0.049 A 
ATOM     53  H   UNL A   1      41.719  28.379  31.329  1.00  0.00     0.167 HD
ATOM     54  C   UNL A   1      42.459  28.842  34.022  1.00  0.00     0.074 A 
ATOM     55  C   UNL A   1      42.436  29.331  35.385  1.00  0.00     0.031 C 
ATOM     56  C   UNL A   1      43.392  27.990  33.534  1.00  0.00     0.031 A 
BRANCH  43  57
ATOM     57  C   UNL A   1      42.571  26.496  27.600  1.00  0.00    -0.014 A 
ATOM     58  C   UNL A   1      43.484  27.058  26.695  1.00  0.00     0.009 A 
ATOM     59  C   UNL A   1      42.113  25.187  27.384  1.00  0.00     0.009 A 
ATOM     60  C   UNL A   1      43.907  26.331  25.580  1.00  0.00     0.001 A 
ATOM     61  C   UNL A   1      42.555  24.455  26.281  1.00  0.00     0.001 A 
ATOM     62  C   UNL A   1      43.445  25.030  25.375  1.00  0.00     0.000 A 
ENDBRANCH  43  57
BRANCH  44  63
ATOM     63  C   UNL A   1      38.995  31.756  35.278  1.00  0.00    -0.014 A 
ATOM     64  C   UNL A   1      39.304  33.115  35.435  1.00  0.00     0.009 A 
ATOM     65  C   UNL A   1      38.180  31.128  36.233  1.00  0.00     0.009 A 
ATOM     66  C   UNL A   1      38.817  33.826  36.535  1.00  0.00     0.001 A 
ATOM     67  C   UNL A   1      37.677  31.847  37.318  1.00  0.00     0.001 A 
ATOM     68  C   UNL A   1      38.002  33.193  37.473  1.00  0.00     0.000 A 
ENDBRANCH  44  63
BRANCH  56  69
ATOM     69  C   UNL A   1      44.478  27.559  34.474  1.00  0.00    -0.014 A 
ATOM     70  C   UNL A   1      44.378  26.359  35.194  1.00  0.00     0.009 A 
ATOM     71  C   UNL A   1      45.630  28.348  34.616  1.00  0.00     0.009 A 
ATOM     72  C   UNL A   1      45.401  25.970  36.060  1.00  0.00     0.001 A 
ATOM     73  C   UNL A   1      46.660  27.947  35.467  1.00  0.00     0.001 A 
ATOM     74  C   UNL A   1      46.541  26.763  36.193  1.00  0.00     0.000 A 
ENDBRANCH  56  69
ENDBRANCH  30  31
ENDBRANCH  23  25
ENDBRANCH  22  23
ENDBRANCH  21  22
ENDBRANCH   1  21
TORSDOF 16
ENDMDL
MODEL 3
REMARK VINA RESULT:      -7.9      0.962      6.266
REMARK SMILES CCC[N@H+](CC)[C@H]1CC[C@]([NH2+]C)(C(=O)OCCOC(=O)c2ccc(-c3c4nc(c(-c5ccccc5)c5ccc([nH]5)c(-c5ccccc5)c5nc(c(-c6ccccc6)c6ccc3[nH]6)C=C5)C=C4)cc2)C1
REMARK SMILES IDX 16 1 15 2 13 3 14 4 10 5 7 6 8 7 69 8 9 9 4 10 3 12 2 13
REMARK SMILES IDX 1 14 5 15 6 16 11 17 12 18 17 21 18 22 19 23 20 24 21 25
REMARK SMILES IDX 22 26 68 27 23 28 67 29 24 30 25 31 26 32 61 33 27 34 66 35
REMARK SMILES IDX 60 36 62 37 28 38 65 39 59 40 58 41 29 43 51 44 36 45 50 46
REMARK SMILES IDX 37 47 40 48 49 49 63 50 38 51 39 52 48 54 64 55 41 56 30 57
REMARK SMILES IDX 31 58 35 59 32 60 34 61 33 62 52 63 53 64 57 65 54 66 56 67
REMARK SMILES IDX 55 68 42 69 43 70 47 71 44 72 46 73 45 74
REMARK H PARENT 4 11 11 19 11 20 62 42 40 53
REMARK Flexibility Score: inf
ROOT
ATOM      1  C   UNL A   1      33.629  33.465  28.105  1.00  0.00     0.274 C 
ENDROOT
BRANCH   1   2
ATOM      2  O   UNL A   1      34.662  33.573  29.104  1.00  0.00    -0.457 OA
BRANCH   2   3
ATOM      3  C   UNL A   1      34.339  34.354  30.181  1.00  0.00     0.368 C 
ATOM      4  O   UNL A   1      33.417  35.162  30.159  1.00  0.00    -0.245 OA
BRANCH   3   5
ATOM      5  C   UNL A   1      35.311  34.125  31.375  1.00  0.00     0.200 C 
ATOM      6  C   UNL A   1      37.348  32.865  31.961  1.00  0.00     0.191 C 
ATOM      7  C   UNL A   1      36.119  31.985  32.289  1.00  0.00     0.072 C 
ATOM      8  C   UNL A   1      36.710  33.734  30.857  1.00  0.00     0.146 C 
ATOM      9  C   UNL A   1      34.901  32.906  32.243  1.00  0.00     0.087 C 
BRANCH   6  10
ATOM     10  N   UNL A   1      37.947  33.692  33.060  1.00  0.00    -0.333 N 
ATOM     11  H   UNL A   1      37.303  34.461  33.246  1.00  0.00     0.348 HD
BRANCH  10  12
ATOM     12  C   UNL A   1      39.272  34.237  32.638  1.00  0.00     0.262 C 
BRANCH  12  13
ATOM     13  C   UNL A   1      40.438  34.081  33.623  1.00  0.00     0.058 C 
ATOM     14  C   UNL A   1      40.832  35.393  34.285  1.00  0.00     0.010 C 
ENDBRANCH  12  13
ENDBRANCH  10  12
BRANCH  10  15
ATOM     15  C   UNL A   1      38.115  32.905  34.309  1.00  0.00     0.258 C 
ATOM     16  C   UNL A   1      37.362  33.433  35.534  1.00  0.00     0.071 C 
ENDBRANCH  10  15
ENDBRANCH   6  10
BRANCH   5  17
ATOM     17  N   UNL A   1      35.380  35.280  32.326  1.00  0.00    -0.334 N 
ATOM     18  C   UNL A   1      34.571  35.156  33.534  1.00  0.00     0.331 C 
ATOM     19  H   UNL A   1      35.071  36.115  31.829  1.00  0.00     0.347 HD
ATOM     20  H   UNL A   1      36.348  35.321  32.645  1.00  0.00     0.347 HD
ENDBRANCH   5  17
ENDBRANCH   3   5
ENDBRANCH   2   3
ENDBRANCH   1   2
BRANCH   1  21
ATOM     21  C   UNL A   1      33.251  32.012  27.821  1.00  0.00     0.275 C 
BRANCH  21  22
ATOM     22  O   UNL A   1      34.339  31.295  27.213  1.00  0.00    -0.458 OA
BRANCH  22  23
ATOM     23  C   UNL A   1      34.552  30.053  27.701  1.00  0.00     0.338 C 
ATOM     24  O   UNL A   1      33.782  29.104  27.688  1.00  0.00    -0.246 OA
BRANCH  23  25
ATOM     25  C   UNL A   1      35.913  29.948  28.239  1.00  0.00     0.060 A 
ATOM     26  C   UNL A   1      36.991  30.223  27.399  1.00  0.00     0.016 A 
ATOM     27  C   UNL A   1      36.126  29.412  29.507  1.00  0.00     0.016 A 
ATOM     28  C   UNL A   1      38.288  29.912  27.792  1.00  0.00     0.010 A 
ATOM     29  C   UNL A   1      37.433  29.137  29.921  1.00  0.00     0.010 A 
ATOM     30  C   UNL A   1      38.520  29.352  29.052  1.00  0.00    -0.014 A 
BRANCH  30  31
ATOM     31  C   UNL A   1      39.882  28.906  29.426  1.00  0.00     0.031 A 
ATOM     32  C   UNL A   1      40.388  27.579  28.935  1.00  0.00     0.074 A 
ATOM     33  C   UNL A   1      40.676  29.693  30.175  1.00  0.00     0.049 A 
ATOM     34  N   UNL A   1      41.478  26.935  29.268  1.00  0.00    -0.248 NA
ATOM     35  C   UNL A   1      39.555  26.884  27.940  1.00  0.00     0.031 C 
ATOM     36  C   UNL A   1      40.341  31.037  30.645  1.00  0.00     0.029 A 
ATOM     37  N   UNL A   1      41.935  29.467  30.672  1.00  0.00    -0.354 N 
ATOM     38  C   UNL A   1      41.441  25.743  28.555  1.00  0.00     0.074 A 
ATOM     39  C   UNL A   1      40.224  25.752  27.773  1.00  0.00     0.031 C 
ATOM     40  C   UNL A   1      41.374  31.520  31.356  1.00  0.00     0.029 A 
ATOM     41  C   UNL A   1      42.411  30.496  31.443  1.00  0.00     0.049 A 
ATOM     42  H   UNL A   1      42.447  28.644  30.492  1.00  0.00     0.167 HD
ATOM     43  C   UNL A   1      42.339  24.729  28.558  1.00  0.00     0.031 A 
ATOM     44  C   UNL A   1      43.539  30.590  32.171  1.00  0.00     0.031 A 
ATOM     45  C   UNL A   1      43.559  24.729  29.319  1.00  0.00     0.049 A 
ATOM     46  C   UNL A   1      44.487  29.426  32.212  1.00  0.00     0.074 A 
ATOM     47  C   UNL A   1      44.527  23.742  29.402  1.00  0.00     0.029 A 
ATOM     48  N   UNL A   1      43.983  25.775  30.123  1.00  0.00    -0.354 N 
ATOM     49  N   UNL A   1      44.414  28.277  31.585  1.00  0.00    -0.248 NA
ATOM     50  C   UNL A   1      45.669  29.568  33.076  1.00  0.00     0.031 C 
ATOM     51  C   UNL A   1      45.523  24.180  30.282  1.00  0.00     0.029 A 
ATOM     52  C   UNL A   1      45.193  25.454  30.715  1.00  0.00     0.049 A 
ATOM     53  H   UNL A   1      43.497  26.621  30.254  1.00  0.00     0.167 HD
ATOM     54  C   UNL A   1      45.542  27.564  31.967  1.00  0.00     0.074 A 
ATOM     55  C   UNL A   1      46.292  28.416  32.868  1.00  0.00     0.031 C 
ATOM     56  C   UNL A   1      45.923  26.315  31.607  1.00  0.00     0.031 A 
BRANCH  43  57
ATOM     57  C   UNL A   1      42.005  23.514  27.744  1.00  0.00    -0.014 A 
ATOM     58  C   UNL A   1      41.200  22.486  28.260  1.00  0.00     0.009 A 
ATOM     59  C   UNL A   1      42.494  23.406  26.433  1.00  0.00     0.009 A 
ATOM     60  C   UNL A   1      40.915  21.361  27.485  1.00  0.00     0.001 A 
ATOM     61  C   UNL A   1      42.189  22.289  25.653  1.00  0.00     0.001 A 
ATOM     62  C   UNL A   1      41.406  21.263  26.183  1.00  0.00     0.000 A 
ENDBRANCH  43  57
BRANCH  44  63
ATOM     63  C   UNL A   1      43.809  31.815  32.964  1.00  0.00    -0.014 A 
ATOM     64  C   UNL A   1      43.402  31.901  34.303  1.00  0.00     0.009 A 
ATOM     65  C   UNL A   1      44.470  32.907  32.381  1.00  0.00     0.009 A 
ATOM     66  C   UNL A   1      43.638  33.065  35.038  1.00  0.00     0.001 A 
ATOM     67  C   UNL A   1      44.725  34.060  33.125  1.00  0.00     0.001 A 
ATOM     68  C   UNL A   1      44.302  34.141  34.451  1.00  0.00     0.000 A 
ENDBRANCH  44  63
BRANCH  56  69
ATOM     69  C   UNL A   1      47.220  25.811  32.165  1.00  0.00    -0.014 A 
ATOM     70  C   UNL A   1      48.430  26.018  31.485  1.00  0.00     0.009 A 
ATOM     71  C   UNL A   1      47.235  25.150  33.403  1.00  0.00     0.009 A 
ATOM     72  C   UNL A   1      49.629  25.547  32.022  1.00  0.00     0.001 A 
ATOM     73  C   UNL A   1      48.438  24.698  33.947  1.00  0.00     0.001 A 
ATOM     74  C   UNL A   1      49.632  24.891  33.253  1.00  0.00     0.000 A 
ENDBRANCH  56  69
ENDBRANCH  30  31
ENDBRANCH  23  25
ENDBRANCH  22  23
ENDBRANCH  21  22
ENDBRANCH   1  21
TORSDOF 16
ENDMDL
