MODEL 1
REMARK VINA RESULT:     -11.6      0.000      0.000
REMARK SMILES CCc1nn(-c2cc(F)c(F)c(F)c2)c(Cl)c1C(=O)OCCOC(=O)c1ccc(-c2c3nc(c(-c4ccccc4)c4ccc([nH]4)c(-c4ccccc4)c4nc(c(-c5ccccc5)c5ccc2[nH]5)C=C4)C=C3)cc1
REMARK SMILES IDX 22 1 21 2 20 3 18 4 19 5 17 6 3 7 4 8 5 9 15 10 16 11 2 12
REMARK SMILES IDX 1 13 6 14 7 15 14 16 8 17 12 18 9 19 10 20 13 21 11 22 23 23
REMARK SMILES IDX 24 24 25 25 26 26 27 27 73 28 28 29 72 30 29 31 30 32 31 33
REMARK SMILES IDX 66 34 32 35 71 36 65 37 67 38 33 39 70 40 64 41 63 42 34 44
REMARK SMILES IDX 56 45 41 46 55 47 42 48 45 49 54 50 68 51 43 52 44 53 53 55
REMARK SMILES IDX 69 56 46 57 35 58 36 59 40 60 37 61 39 62 38 63 57 64 58 65
REMARK SMILES IDX 62 66 59 67 61 68 60 69 47 70 48 71 52 72 49 73 51 74 50 75
REMARK H PARENT 67 43 45 54
REMARK Flexibility Score: inf
ROOT
ATOM      1  C   UNL A   1      37.051  33.645  30.013  1.00  0.00     0.275 C 
ENDROOT
BRANCH   1   2
ATOM      2  C   UNL A   1      35.571  33.635  30.355  1.00  0.00     0.275 C 
BRANCH   2   3
ATOM      3  O   UNL A   1      34.947  32.468  29.804  1.00  0.00    -0.458 OA
BRANCH   3   4
ATOM      4  C   UNL A   1      34.443  32.596  28.541  1.00  0.00     0.343 C 
ATOM      5  O   UNL A   1      34.157  33.660  28.030  1.00  0.00    -0.246 OA
BRANCH   4   6
ATOM      6  C   UNL A   1      34.357  31.322  27.849  1.00  0.00     0.120 A 
ATOM      7  C   UNL A   1      35.304  30.269  27.681  1.00  0.00     0.079 A 
ATOM      8  N   UNL A   1      34.783  29.228  27.001  1.00  0.00    -0.171 NA
ATOM      9  N   UNL A   1      33.578  29.677  26.578  1.00  0.00    -0.221 N 
ATOM     10  C   UNL A   1      33.275  30.900  27.116  1.00  0.00     0.147 A 
ATOM     11  Cl  UNL A   1      31.756  31.632  26.823  1.00  0.00    -0.061 Cl
BRANCH   7  12
ATOM     12  C   UNL A   1      36.742  30.221  28.113  1.00  0.00     0.056 C 
ATOM     13  C   UNL A   1      37.000  29.459  29.407  1.00  0.00     0.011 C 
ENDBRANCH   7  12
BRANCH   9  14
ATOM     14  C   UNL A   1      32.761  28.902  25.730  1.00  0.00     0.072 A 
ATOM     15  C   UNL A   1      32.507  29.347  24.425  1.00  0.00     0.071 A 
ATOM     16  C   UNL A   1      32.053  27.828  26.276  1.00  0.00     0.071 A 
ATOM     17  C   UNL A   1      31.505  28.728  23.685  1.00  0.00     0.164 A 
ATOM     18  C   UNL A   1      31.035  27.248  25.522  1.00  0.00     0.164 A 
ATOM     19  F   UNL A   1      31.243  29.166  22.446  1.00  0.00    -0.204 F 
ATOM     20  C   UNL A   1      30.753  27.698  24.235  1.00  0.00     0.194 A 
ATOM     21  F   UNL A   1      30.285  26.283  26.071  1.00  0.00    -0.204 F 
ATOM     22  F   UNL A   1      29.739  27.161  23.541  1.00  0.00    -0.200 F 
ENDBRANCH   9  14
ENDBRANCH   4   6
ENDBRANCH   3   4
ENDBRANCH   2   3
ENDBRANCH   1   2
BRANCH   1  23
ATOM     23  O   UNL A   1      37.830  33.058  31.056  1.00  0.00    -0.458 OA
BRANCH  23  24
ATOM     24  C   UNL A   1      39.150  33.343  31.019  1.00  0.00     0.338 C 
ATOM     25  O   UNL A   1      39.680  34.425  30.830  1.00  0.00    -0.246 OA
BRANCH  24  26
ATOM     26  C   UNL A   1      39.898  32.088  31.031  1.00  0.00     0.060 A 
ATOM     27  C   UNL A   1      41.070  32.001  30.275  1.00  0.00     0.016 A 
ATOM     28  C   UNL A   1      39.290  30.958  31.594  1.00  0.00     0.016 A 
ATOM     29  C   UNL A   1      41.571  30.749  29.986  1.00  0.00     0.010 A 
ATOM     30  C   UNL A   1      39.788  29.714  31.304  1.00  0.00     0.010 A 
ATOM     31  C   UNL A   1      40.887  29.618  30.454  1.00  0.00    -0.014 A 
BRANCH  31  32
ATOM     32  C   UNL A   1      41.443  28.305  30.198  1.00  0.00     0.031 A 
ATOM     33  C   UNL A   1      42.257  27.814  31.333  1.00  0.00     0.074 A 
ATOM     34  C   UNL A   1      41.106  27.573  29.116  1.00  0.00     0.049 A 
ATOM     35  N   UNL A   1      43.521  27.556  31.329  1.00  0.00    -0.248 NA
ATOM     36  C   UNL A   1      41.641  27.775  32.673  1.00  0.00     0.031 C 
ATOM     37  C   UNL A   1      40.116  27.904  28.084  1.00  0.00     0.029 A 
ATOM     38  N   UNL A   1      41.495  26.316  28.770  1.00  0.00    -0.354 N 
ATOM     39  C   UNL A   1      43.818  27.118  32.615  1.00  0.00     0.074 A 
ATOM     40  C   UNL A   1      42.682  27.443  33.435  1.00  0.00     0.031 C 
ATOM     41  C   UNL A   1      39.813  26.791  27.377  1.00  0.00     0.029 A 
ATOM     42  C   UNL A   1      40.691  25.716  27.806  1.00  0.00     0.049 A 
ATOM     43  H   UNL A   1      42.278  25.870  29.167  1.00  0.00     0.167 HD
ATOM     44  C   UNL A   1      44.839  26.246  32.824  1.00  0.00     0.031 A 
ATOM     45  C   UNL A   1      40.727  24.420  27.410  1.00  0.00     0.031 A 
ATOM     46  C   UNL A   1      45.728  26.207  31.692  1.00  0.00     0.049 A 
ATOM     47  C   UNL A   1      42.052  23.885  27.782  1.00  0.00     0.074 A 
ATOM     48  C   UNL A   1      46.640  27.066  31.119  1.00  0.00     0.029 A 
ATOM     49  N   UNL A   1      45.388  25.277  30.742  1.00  0.00    -0.354 N 
ATOM     50  N   UNL A   1      43.156  24.289  27.225  1.00  0.00    -0.248 NA
ATOM     51  C   UNL A   1      42.211  23.181  29.046  1.00  0.00     0.031 C 
ATOM     52  C   UNL A   1      46.604  26.784  29.719  1.00  0.00     0.029 A 
ATOM     53  C   UNL A   1      45.721  25.727  29.493  1.00  0.00     0.049 A 
ATOM     54  H   UNL A   1      44.964  24.409  30.932  1.00  0.00     0.167 HD
ATOM     55  C   UNL A   1      44.072  24.312  28.261  1.00  0.00     0.074 A 
ATOM     56  C   UNL A   1      43.497  23.454  29.292  1.00  0.00     0.031 C 
ATOM     57  C   UNL A   1      45.050  25.264  28.297  1.00  0.00     0.031 A 
BRANCH  44  58
ATOM     58  C   UNL A   1      44.714  25.066  33.763  1.00  0.00    -0.014 A 
ATOM     59  C   UNL A   1      45.829  24.229  33.941  1.00  0.00     0.009 A 
ATOM     60  C   UNL A   1      43.476  24.570  34.219  1.00  0.00     0.009 A 
ATOM     61  C   UNL A   1      45.699  22.946  34.486  1.00  0.00     0.001 A 
ATOM     62  C   UNL A   1      43.346  23.303  34.794  1.00  0.00     0.001 A 
ATOM     63  C   UNL A   1      44.456  22.480  34.904  1.00  0.00     0.000 A 
ENDBRANCH  44  58
BRANCH  45  64
ATOM     64  C   UNL A   1      39.641  23.545  26.924  1.00  0.00    -0.014 A 
ATOM     65  C   UNL A   1      38.426  24.080  26.463  1.00  0.00     0.009 A 
ATOM     66  C   UNL A   1      39.910  22.194  26.642  1.00  0.00     0.009 A 
ATOM     67  C   UNL A   1      37.534  23.301  25.714  1.00  0.00     0.001 A 
ATOM     68  C   UNL A   1      39.021  21.417  25.889  1.00  0.00     0.001 A 
ATOM     69  C   UNL A   1      37.839  21.975  25.414  1.00  0.00     0.000 A 
ENDBRANCH  45  64
BRANCH  57  70
ATOM     70  C   UNL A   1      45.310  26.025  27.022  1.00  0.00    -0.014 A 
ATOM     71  C   UNL A   1      44.453  27.020  26.519  1.00  0.00     0.009 A 
ATOM     72  C   UNL A   1      46.518  25.786  26.353  1.00  0.00     0.009 A 
ATOM     73  C   UNL A   1      44.784  27.731  25.361  1.00  0.00     0.001 A 
ATOM     74  C   UNL A   1      46.859  26.510  25.210  1.00  0.00     0.001 A 
ATOM     75  C   UNL A   1      45.990  27.477  24.710  1.00  0.00     0.000 A 
ENDBRANCH  57  70
ENDBRANCH  31  32
ENDBRANCH  24  26
ENDBRANCH  23  24
ENDBRANCH   1  23
TORSDOF 13
ENDMDL
MODEL 2
REMARK VINA RESULT:     -11.6      3.442      4.195
REMARK SMILES CCc1nn(-c2cc(F)c(F)c(F)c2)c(Cl)c1C(=O)OCCOC(=O)c1ccc(-c2c3nc(c(-c4ccccc4)c4ccc([nH]4)c(-c4ccccc4)c4nc(c(-c5ccccc5)c5ccc2[nH]5)C=C4)C=C3)cc1
REMARK SMILES IDX 22 1 21 2 20 3 18 4 19 5 17 6 3 7 4 8 5 9 15 10 16 11 2 12
REMARK SMILES IDX 1 13 6 14 7 15 14 16 8 17 12 18 9 19 10 20 13 21 11 22 23 23
REMARK SMILES IDX 24 24 25 25 26 26 27 27 73 28 28 29 72 30 29 31 30 32 31 33
REMARK SMILES IDX 66 34 32 35 71 36 65 37 67 38 33 39 70 40 64 41 63 42 34 44
REMARK SMILES IDX 56 45 41 46 55 47 42 48 45 49 54 50 68 51 43 52 44 53 53 55
REMARK SMILES IDX 69 56 46 57 35 58 36 59 40 60 37 61 39 62 38 63 57 64 58 65
REMARK SMILES IDX 62 66 59 67 61 68 60 69 47 70 48 71 52 72 49 73 51 74 50 75
REMARK H PARENT 67 43 45 54
REMARK Flexibility Score: inf
ROOT
ATOM      1  C   UNL A   1      40.207  34.409  33.112  1.00  0.00     0.275 C 
ENDROOT
BRANCH   1   2
ATOM      2  C   UNL A   1      39.820  33.379  34.159  1.00  0.00     0.275 C 
BRANCH   2   3
ATOM      3  O   UNL A   1      39.062  32.324  33.554  1.00  0.00    -0.458 OA
BRANCH   3   4
ATOM      4  C   UNL A   1      37.767  32.197  33.974  1.00  0.00     0.343 C 
ATOM      5  O   UNL A   1      37.439  32.109  35.139  1.00  0.00    -0.246 OA
BRANCH   4   6
ATOM      6  C   UNL A   1      36.823  32.253  32.873  1.00  0.00     0.120 A 
ATOM      7  C   UNL A   1      36.343  31.245  31.984  1.00  0.00     0.079 A 
ATOM      8  N   UNL A   1      35.421  31.729  31.127  1.00  0.00    -0.171 NA
ATOM      9  N   UNL A   1      35.440  33.065  31.338  1.00  0.00    -0.221 N 
ATOM     10  C   UNL A   1      36.224  33.399  32.410  1.00  0.00     0.147 A 
ATOM     11  Cl  UNL A   1      36.324  35.020  32.951  1.00  0.00    -0.061 Cl
BRANCH   7  12
ATOM     12  C   UNL A   1      36.764  29.807  31.878  1.00  0.00     0.056 C 
ATOM     13  C   UNL A   1      36.708  29.223  30.473  1.00  0.00     0.011 C 
ENDBRANCH   7  12
BRANCH   9  14
ATOM     14  C   UNL A   1      34.675  33.946  30.545  1.00  0.00     0.072 A 
ATOM     15  C   UNL A   1      34.998  34.107  29.190  1.00  0.00     0.071 A 
ATOM     16  C   UNL A   1      33.760  34.795  31.174  1.00  0.00     0.071 A 
ATOM     17  C   UNL A   1      34.421  35.154  28.480  1.00  0.00     0.164 A 
ATOM     18  C   UNL A   1      33.223  35.854  30.445  1.00  0.00     0.164 A 
ATOM     19  F   UNL A   1      34.744  35.325  27.191  1.00  0.00    -0.204 F 
ATOM     20  C   UNL A   1      33.555  36.042  29.106  1.00  0.00     0.194 A 
ATOM     21  F   UNL A   1      32.420  36.730  31.064  1.00  0.00    -0.204 F 
ATOM     22  F   UNL A   1      33.065  37.092  28.432  1.00  0.00    -0.200 F 
ENDBRANCH   9  14
ENDBRANCH   4   6
ENDBRANCH   3   4
ENDBRANCH   2   3
ENDBRANCH   1   2
BRANCH   1  23
ATOM     23  O   UNL A   1      41.030  33.834  32.096  1.00  0.00    -0.458 OA
BRANCH  23  24
ATOM     24  C   UNL A   1      40.423  33.635  30.906  1.00  0.00     0.338 C 
ATOM     25  O   UNL A   1      39.561  34.318  30.379  1.00  0.00    -0.246 OA
BRANCH  24  26
ATOM     26  C   UNL A   1      40.805  32.317  30.404  1.00  0.00     0.060 A 
ATOM     27  C   UNL A   1      39.822  31.329  30.306  1.00  0.00     0.016 A 
ATOM     28  C   UNL A   1      42.169  32.025  30.275  1.00  0.00     0.016 A 
ATOM     29  C   UNL A   1      40.224  30.015  30.192  1.00  0.00     0.010 A 
ATOM     30  C   UNL A   1      42.568  30.718  30.164  1.00  0.00     0.010 A 
ATOM     31  C   UNL A   1      41.595  29.722  30.184  1.00  0.00    -0.014 A 
BRANCH  31  32
ATOM     32  C   UNL A   1      42.018  28.347  30.009  1.00  0.00     0.031 A 
ATOM     33  C   UNL A   1      42.761  27.839  31.186  1.00  0.00     0.074 A 
ATOM     34  C   UNL A   1      41.626  27.594  28.962  1.00  0.00     0.049 A 
ATOM     35  N   UNL A   1      43.992  27.456  31.222  1.00  0.00    -0.248 NA
ATOM     36  C   UNL A   1      42.123  27.937  32.512  1.00  0.00     0.031 C 
ATOM     37  C   UNL A   1      40.690  27.966  27.893  1.00  0.00     0.029 A 
ATOM     38  N   UNL A   1      41.890  26.287  28.691  1.00  0.00    -0.354 N 
ATOM     39  C   UNL A   1      44.223  27.062  32.535  1.00  0.00     0.074 A 
ATOM     40  C   UNL A   1      43.114  27.544  33.313  1.00  0.00     0.031 C 
ATOM     41  C   UNL A   1      40.287  26.851  27.240  1.00  0.00     0.029 A 
ATOM     42  C   UNL A   1      41.044  25.719  27.743  1.00  0.00     0.049 A 
ATOM     43  H   UNL A   1      42.618  25.787  29.127  1.00  0.00     0.167 HD
ATOM     44  C   UNL A   1      45.147  26.104  32.811  1.00  0.00     0.031 A 
ATOM     45  C   UNL A   1      40.954  24.406  27.418  1.00  0.00     0.031 A 
ATOM     46  C   UNL A   1      46.045  25.914  31.702  1.00  0.00     0.049 A 
ATOM     47  C   UNL A   1      42.212  23.762  27.845  1.00  0.00     0.074 A 
ATOM     48  C   UNL A   1      47.048  26.643  31.103  1.00  0.00     0.029 A 
ATOM     49  N   UNL A   1      45.627  24.972  30.796  1.00  0.00    -0.354 N 
ATOM     50  N   UNL A   1      43.359  24.021  27.291  1.00  0.00    -0.248 NA
ATOM     51  C   UNL A   1      42.280  23.116  29.148  1.00  0.00     0.031 C 
ATOM     52  C   UNL A   1      47.005  26.290  29.720  1.00  0.00     0.029 A 
ATOM     53  C   UNL A   1      46.023  25.316  29.532  1.00  0.00     0.049 A 
ATOM     54  H   UNL A   1      45.114  24.163  31.023  1.00  0.00     0.167 HD
ATOM     55  C   UNL A   1      44.258  24.009  28.343  1.00  0.00     0.074 A 
ATOM     56  C   UNL A   1      43.583  23.271  29.406  1.00  0.00     0.031 C 
ATOM     57  C   UNL A   1      45.326  24.858  28.349  1.00  0.00     0.031 A 
BRANCH  44  58
ATOM     58  C   UNL A   1      44.888  24.996  33.809  1.00  0.00    -0.014 A 
ATOM     59  C   UNL A   1      45.982  24.448  34.501  1.00  0.00     0.009 A 
ATOM     60  C   UNL A   1      43.683  24.267  33.858  1.00  0.00     0.009 A 
ATOM     61  C   UNL A   1      45.889  23.210  35.150  1.00  0.00     0.001 A 
ATOM     62  C   UNL A   1      43.576  23.048  34.532  1.00  0.00     0.001 A 
ATOM     63  C   UNL A   1      44.688  22.507  35.157  1.00  0.00     0.000 A 
ENDBRANCH  44  58
BRANCH  45  64
ATOM     64  C   UNL A   1      39.793  23.620  26.956  1.00  0.00    -0.014 A 
ATOM     65  C   UNL A   1      38.580  24.242  26.618  1.00  0.00     0.009 A 
ATOM     66  C   UNL A   1      39.970  22.278  26.571  1.00  0.00     0.009 A 
ATOM     67  C   UNL A   1      37.598  23.559  25.887  1.00  0.00     0.001 A 
ATOM     68  C   UNL A   1      38.991  21.598  25.837  1.00  0.00     0.001 A 
ATOM     69  C   UNL A   1      37.810  22.243  25.483  1.00  0.00     0.000 A 
ENDBRANCH  45  64
BRANCH  57  70
ATOM     70  C   UNL A   1      45.682  25.517  27.041  1.00  0.00    -0.014 A 
ATOM     71  C   UNL A   1      45.120  26.729  26.601  1.00  0.00     0.009 A 
ATOM     72  C   UNL A   1      46.694  24.932  26.268  1.00  0.00     0.009 A 
ATOM     73  C   UNL A   1      45.540  27.319  25.403  1.00  0.00     0.001 A 
ATOM     74  C   UNL A   1      47.128  25.531  25.084  1.00  0.00     0.001 A 
ATOM     75  C   UNL A   1      46.546  26.720  24.648  1.00  0.00     0.000 A 
ENDBRANCH  57  70
ENDBRANCH  31  32
ENDBRANCH  24  26
ENDBRANCH  23  24
ENDBRANCH   1  23
TORSDOF 13
ENDMDL
MODEL 3
REMARK VINA RESULT:     -11.6      4.510      9.621
REMARK SMILES CCc1nn(-c2cc(F)c(F)c(F)c2)c(Cl)c1C(=O)OCCOC(=O)c1ccc(-c2c3nc(c(-c4ccccc4)c4ccc([nH]4)c(-c4ccccc4)c4nc(c(-c5ccccc5)c5ccc2[nH]5)C=C4)C=C3)cc1
REMARK SMILES IDX 22 1 21 2 20 3 18 4 19 5 17 6 3 7 4 8 5 9 15 10 16 11 2 12
REMARK SMILES IDX 1 13 6 14 7 15 14 16 8 17 12 18 9 19 10 20 13 21 11 22 23 23
REMARK SMILES IDX 24 24 25 25 26 26 27 27 73 28 28 29 72 30 29 31 30 32 31 33
REMARK SMILES IDX 66 34 32 35 71 36 65 37 67 38 33 39 70 40 64 41 63 42 34 44
REMARK SMILES IDX 56 45 41 46 55 47 42 48 45 49 54 50 68 51 43 52 44 53 53 55
REMARK SMILES IDX 69 56 46 57 35 58 36 59 40 60 37 61 39 62 38 63 57 64 58 65
REMARK SMILES IDX 62 66 59 67 61 68 60 69 47 70 48 71 52 72 49 73 51 74 50 75
REMARK H PARENT 67 43 45 54
REMARK Flexibility Score: inf
ROOT
ATOM      1  C   UNL A   1      42.916  23.071  29.376  1.00  0.00     0.275 C 
ENDROOT
BRANCH   1   2
ATOM      2  C   UNL A   1      42.840  22.160  28.163  1.00  0.00     0.275 C 
BRANCH   2   3
ATOM      3  O   UNL A   1      41.476  21.811  27.895  1.00  0.00    -0.458 OA
BRANCH   3   4
ATOM      4  C   UNL A   1      41.133  21.697  26.577  1.00  0.00     0.343 C 
ATOM      5  O   UNL A   1      41.805  21.116  25.750  1.00  0.00    -0.246 OA
BRANCH   4   6
ATOM      6  C   UNL A   1      39.837  22.286  26.292  1.00  0.00     0.120 A 
ATOM      7  C   UNL A   1      39.326  23.601  26.505  1.00  0.00     0.079 A 
ATOM      8  N   UNL A   1      38.068  23.733  26.038  1.00  0.00    -0.171 NA
ATOM      9  N   UNL A   1      37.707  22.475  25.695  1.00  0.00    -0.221 N 
ATOM     10  C   UNL A   1      38.760  21.603  25.782  1.00  0.00     0.147 A 
ATOM     11  Cl  UNL A   1      38.588  19.972  25.293  1.00  0.00    -0.061 Cl
BRANCH   7  12
ATOM     12  C   UNL A   1      39.983  24.764  27.194  1.00  0.00     0.056 C 
ATOM     13  C   UNL A   1      39.327  25.191  28.500  1.00  0.00     0.011 C 
ENDBRANCH   7  12
BRANCH   9  14
ATOM     14  C   UNL A   1      36.401  22.179  25.255  1.00  0.00     0.072 A 
ATOM     15  C   UNL A   1      35.961  22.680  24.022  1.00  0.00     0.071 A 
ATOM     16  C   UNL A   1      35.509  21.581  26.150  1.00  0.00     0.071 A 
ATOM     17  C   UNL A   1      34.607  22.610  23.710  1.00  0.00     0.164 A 
ATOM     18  C   UNL A   1      34.155  21.554  25.823  1.00  0.00     0.164 A 
ATOM     19  F   UNL A   1      34.179  23.109  22.542  1.00  0.00    -0.204 F 
ATOM     20  C   UNL A   1      33.700  22.072  24.614  1.00  0.00     0.194 A 
ATOM     21  F   UNL A   1      33.279  21.071  26.715  1.00  0.00    -0.204 F 
ATOM     22  F   UNL A   1      32.388  22.080  24.336  1.00  0.00    -0.200 F 
ENDBRANCH   9  14
ENDBRANCH   4   6
ENDBRANCH   3   4
ENDBRANCH   2   3
ENDBRANCH   1   2
BRANCH   1  23
ATOM     23  O   UNL A   1      43.832  24.145  29.165  1.00  0.00    -0.458 OA
BRANCH  23  24
ATOM     24  C   UNL A   1      44.159  24.851  30.269  1.00  0.00     0.338 C 
ATOM     25  O   UNL A   1      44.621  24.433  31.318  1.00  0.00    -0.246 OA
BRANCH  24  26
ATOM     26  C   UNL A   1      43.669  26.217  30.109  1.00  0.00     0.060 A 
ATOM     27  C   UNL A   1      43.597  27.037  31.239  1.00  0.00     0.016 A 
ATOM     28  C   UNL A   1      43.066  26.570  28.894  1.00  0.00     0.016 A 
ATOM     29  C   UNL A   1      42.813  28.170  31.176  1.00  0.00     0.010 A 
ATOM     30  C   UNL A   1      42.285  27.695  28.835  1.00  0.00     0.010 A 
ATOM     31  C   UNL A   1      42.117  28.451  29.991  1.00  0.00    -0.014 A 
BRANCH  31  32
ATOM     32  C   UNL A   1      41.336  29.668  29.907  1.00  0.00     0.031 A 
ATOM     33  C   UNL A   1      42.179  30.850  29.609  1.00  0.00     0.074 A 
ATOM     34  C   UNL A   1      39.988  29.670  29.936  1.00  0.00     0.049 A 
ATOM     35  N   UNL A   1      42.368  31.879  30.362  1.00  0.00    -0.248 NA
ATOM     36  C   UNL A   1      43.052  30.805  28.421  1.00  0.00     0.031 C 
ATOM     37  C   UNL A   1      39.092  28.507  29.981  1.00  0.00     0.029 A 
ATOM     38  N   UNL A   1      39.124  30.714  29.813  1.00  0.00    -0.354 N 
ATOM     39  C   UNL A   1      43.221  32.713  29.648  1.00  0.00     0.074 A 
ATOM     40  C   UNL A   1      43.748  31.934  28.560  1.00  0.00     0.031 C 
ATOM     41  C   UNL A   1      37.838  28.893  29.649  1.00  0.00     0.029 A 
ATOM     42  C   UNL A   1      37.817  30.339  29.516  1.00  0.00     0.049 A 
ATOM     43  H   UNL A   1      39.399  31.652  29.924  1.00  0.00     0.167 HD
ATOM     44  C   UNL A   1      43.176  34.060  29.830  1.00  0.00     0.031 A 
ATOM     45  C   UNL A   1      36.798  31.158  29.159  1.00  0.00     0.031 A 
ATOM     46  C   UNL A   1      42.496  34.394  31.055  1.00  0.00     0.049 A 
ATOM     47  C   UNL A   1      37.148  32.517  29.617  1.00  0.00     0.074 A 
ATOM     48  C   UNL A   1      42.759  34.268  32.401  1.00  0.00     0.029 A 
ATOM     49  N   UNL A   1      41.141  34.565  30.916  1.00  0.00    -0.354 N 
ATOM     50  N   UNL A   1      37.223  32.838  30.875  1.00  0.00    -0.248 NA
ATOM     51  C   UNL A   1      37.800  33.437  28.696  1.00  0.00     0.031 C 
ATOM     52  C   UNL A   1      41.488  34.078  33.023  1.00  0.00     0.029 A 
ATOM     53  C   UNL A   1      40.491  34.157  32.050  1.00  0.00     0.049 A 
ATOM     54  H   UNL A   1      40.700  34.929  30.115  1.00  0.00     0.167 HD
ATOM     55  C   UNL A   1      38.298  33.707  30.941  1.00  0.00     0.074 A 
ATOM     56  C   UNL A   1      38.487  34.179  29.573  1.00  0.00     0.031 C 
ATOM     57  C   UNL A   1      39.112  33.717  32.036  1.00  0.00     0.031 A 
BRANCH  44  58
ATOM     58  C   UNL A   1      43.233  35.034  28.674  1.00  0.00    -0.014 A 
ATOM     59  C   UNL A   1      44.451  35.681  28.402  1.00  0.00     0.009 A 
ATOM     60  C   UNL A   1      42.084  35.570  28.059  1.00  0.00     0.009 A 
ATOM     61  C   UNL A   1      44.503  36.835  27.611  1.00  0.00     0.001 A 
ATOM     62  C   UNL A   1      42.136  36.703  27.241  1.00  0.00     0.001 A 
ATOM     63  C   UNL A   1      43.344  37.351  27.039  1.00  0.00     0.000 A 
ENDBRANCH  44  58
BRANCH  45  64
ATOM     64  C   UNL A   1      35.642  30.906  28.275  1.00  0.00    -0.014 A 
ATOM     65  C   UNL A   1      35.424  29.641  27.703  1.00  0.00     0.009 A 
ATOM     66  C   UNL A   1      34.589  31.837  28.224  1.00  0.00     0.009 A 
ATOM     67  C   UNL A   1      34.185  29.309  27.138  1.00  0.00     0.001 A 
ATOM     68  C   UNL A   1      33.350  31.503  27.664  1.00  0.00     0.001 A 
ATOM     69  C   UNL A   1      33.143  30.235  27.134  1.00  0.00     0.000 A 
ENDBRANCH  45  64
BRANCH  57  70
ATOM     70  C   UNL A   1      38.594  33.038  33.278  1.00  0.00    -0.014 A 
ATOM     71  C   UNL A   1      38.743  31.663  33.535  1.00  0.00     0.009 A 
ATOM     72  C   UNL A   1      38.011  33.841  34.268  1.00  0.00     0.009 A 
ATOM     73  C   UNL A   1      38.291  31.107  34.736  1.00  0.00     0.001 A 
ATOM     74  C   UNL A   1      37.580  33.290  35.476  1.00  0.00     0.001 A 
ATOM     75  C   UNL A   1      37.713  31.922  35.707  1.00  0.00     0.000 A 
ENDBRANCH  57  70
ENDBRANCH  31  32
ENDBRANCH  24  26
ENDBRANCH  23  24
ENDBRANCH   1  23
TORSDOF 13
ENDMDL
