MODEL 1
REMARK VINA RESULT:     -17.3      0.000      0.000
REMARK SMILES Cc1ccc([C@@H]2[C@H](C(=O)OCCOC(=O)c3ccc(-c4c5nc(c(-c6ccccc6)c6ccc([nH]6)c(-c6ccccc6)c6nc(c(-c7ccccc7)c7ccc4[nH]7)C=C6)C=C5)cc3)c3ccccc3C(=O)N2c2ccccc2)cc1
REMARK SMILES IDX 12 1 11 2 10 3 8 4 9 5 7 6 6 7 72 8 64 9 70 10 65 11 69 12
REMARK SMILES IDX 71 13 66 14 68 15 67 16 5 17 1 18 2 19 3 20 80 21 4 22 79 23
REMARK SMILES IDX 73 24 74 25 78 26 75 27 77 28 76 29 13 30 14 31 15 32 16 33
REMARK SMILES IDX 17 34 63 35 18 36 62 37 19 38 20 39 21 40 56 41 22 42 61 43
REMARK SMILES IDX 55 44 57 45 23 46 60 47 54 48 53 49 24 51 46 52 31 53 45 54
REMARK SMILES IDX 32 55 35 56 44 57 58 58 33 59 34 60 43 62 59 63 36 64 25 65
REMARK SMILES IDX 26 66 30 67 27 68 29 69 28 70 47 71 48 72 52 73 49 74 51 75
REMARK SMILES IDX 50 76 37 77 38 78 42 79 39 80 41 81 40 82
REMARK H PARENT 57 50 35 61
REMARK Flexibility Score: inf
ROOT
ATOM      1  C   UNL A   1      33.657  27.796  24.713  1.00  0.00     0.275 C 
ENDROOT
BRANCH   1   2
ATOM      2  C   UNL A   1      33.676  27.022  22.955  1.00  0.00     0.274 C 
BRANCH   2   3
ATOM      3  O   UNL A   1      33.929  25.329  22.714  1.00  0.00    -0.462 OA
BRANCH   3   4
ATOM      4  C   UNL A   1      33.051  24.322  22.167  1.00  0.00     0.316 C 
ATOM      5  O   UNL A   1      32.777  24.407  20.973  1.00  0.00    -0.251 OA
BRANCH   4   6
ATOM      6  C   UNL A   1      32.107  23.176  23.196  1.00  0.00     0.157 C 
ATOM      7  C   UNL A   1      32.385  21.812  24.259  1.00  0.00     0.140 C 
ATOM      8  N   UNL A   1      33.091  22.192  25.533  1.00  0.00    -0.300 N 
ATOM      9  C   UNL A   1      31.273  24.121  24.064  1.00  0.00    -0.019 A 
ATOM     10  C   UNL A   1      32.204  23.047  26.276  1.00  0.00     0.259 C 
ATOM     11  C   UNL A   1      30.637  25.186  23.397  1.00  0.00     0.005 A 
ATOM     12  C   UNL A   1      31.370  24.089  25.481  1.00  0.00     0.044 A 
ATOM     13  O   UNL A   1      32.117  23.004  27.499  1.00  0.00    -0.269 OA
ATOM     14  C   UNL A   1      30.280  26.319  24.106  1.00  0.00     0.000 A 
ATOM     15  C   UNL A   1      30.914  25.211  26.178  1.00  0.00     0.014 A 
ATOM     16  C   UNL A   1      30.427  26.335  25.490  1.00  0.00     0.001 A 
BRANCH   7  17
ATOM     17  C   UNL A   1      32.461  20.251  24.014  1.00  0.00    -0.024 A 
ATOM     18  C   UNL A   1      33.853  16.230  23.365  1.00  0.00     0.044 C 
ATOM     19  C   UNL A   1      33.056  17.483  23.612  1.00  0.00    -0.051 A 
ATOM     20  C   UNL A   1      32.843  17.964  24.894  1.00  0.00     0.004 A 
ATOM     21  C   UNL A   1      32.624  18.285  22.556  1.00  0.00     0.004 A 
ATOM     22  C   UNL A   1      32.515  19.320  25.086  1.00  0.00     0.006 A 
ATOM     23  C   UNL A   1      32.334  19.656  22.753  1.00  0.00     0.006 A 
ENDBRANCH   7  17
BRANCH   8  24
ATOM     24  C   UNL A   1      34.463  22.698  25.363  1.00  0.00     0.045 A 
ATOM     25  C   UNL A   1      35.276  21.427  24.826  1.00  0.00     0.026 A 
ATOM     26  C   UNL A   1      35.352  24.068  26.104  1.00  0.00     0.026 A 
ATOM     27  C   UNL A   1      36.977  21.239  25.069  1.00  0.00     0.002 A 
ATOM     28  C   UNL A   1      37.154  24.090  26.324  1.00  0.00     0.002 A 
ATOM     29  C   UNL A   1      38.091  22.646  25.769  1.00  0.00     0.000 A 
ENDBRANCH   8  24
ENDBRANCH   4   6
ENDBRANCH   3   4
ENDBRANCH   2   3
ENDBRANCH   1   2
BRANCH   1  30
ATOM     30  O   UNL A   1      33.029  29.488  25.045  1.00  0.00    -0.458 OA
BRANCH  30  31
ATOM     31  C   UNL A   1      32.941  30.362  26.608  1.00  0.00     0.338 C 
ATOM     32  O   UNL A   1      31.717  30.592  26.738  1.00  0.00    -0.246 OA
BRANCH  31  33
ATOM     33  C   UNL A   1      34.816  30.687  27.634  1.00  0.00     0.060 A 
ATOM     34  C   UNL A   1      35.903  31.648  27.667  1.00  0.00     0.016 A 
ATOM     35  C   UNL A   1      35.393  29.660  28.724  1.00  0.00     0.016 A 
ATOM     36  C   UNL A   1      37.082  31.679  28.496  1.00  0.00     0.010 A 
ATOM     37  C   UNL A   1      36.478  29.640  29.540  1.00  0.00     0.010 A 
ATOM     38  C   UNL A   1      37.364  30.652  29.370  1.00  0.00    -0.014 A 
BRANCH  38  39
ATOM     39  C   UNL A   1      38.645  30.239  29.886  1.00  0.00     0.031 A 
ATOM     40  C   UNL A   1      39.244  29.007  29.337  1.00  0.00     0.074 A 
ATOM     41  C   UNL A   1      39.265  31.334  30.404  1.00  0.00     0.049 A 
ATOM     42  N   UNL A   1      40.115  28.279  29.937  1.00  0.00    -0.248 NA
ATOM     43  C   UNL A   1      38.843  28.397  28.063  1.00  0.00     0.031 C 
ATOM     44  C   UNL A   1      40.654  31.739  30.474  1.00  0.00     0.029 A 
ATOM     45  N   UNL A   1      38.608  32.411  31.013  1.00  0.00    -0.354 N 
ATOM     46  C   UNL A   1      40.706  27.538  28.927  1.00  0.00     0.074 A 
ATOM     47  C   UNL A   1      39.712  27.397  27.912  1.00  0.00     0.031 C 
ATOM     48  C   UNL A   1      40.765  32.765  31.348  1.00  0.00     0.029 A 
ATOM     49  C   UNL A   1      39.456  33.017  31.943  1.00  0.00     0.049 A 
ATOM     50  H   UNL A   1      37.688  32.698  30.816  1.00  0.00     0.167 HD
ATOM     51  C   UNL A   1      42.066  27.468  28.871  1.00  0.00     0.031 A 
ATOM     52  C   UNL A   1      39.143  32.817  33.263  1.00  0.00     0.031 A 
ATOM     53  C   UNL A   1      42.641  28.269  29.955  1.00  0.00     0.049 A 
ATOM     54  C   UNL A   1      39.862  31.601  33.836  1.00  0.00     0.074 A 
ATOM     55  C   UNL A   1      43.292  29.490  30.011  1.00  0.00     0.029 A 
ATOM     56  N   UNL A   1      42.196  28.025  31.238  1.00  0.00    -0.354 N 
ATOM     57  N   UNL A   1      40.732  30.878  33.185  1.00  0.00    -0.248 NA
ATOM     58  C   UNL A   1      39.614  31.078  35.175  1.00  0.00     0.031 C 
ATOM     59  C   UNL A   1      43.210  29.968  31.360  1.00  0.00     0.029 A 
ATOM     60  C   UNL A   1      42.515  29.038  32.112  1.00  0.00     0.049 A 
ATOM     61  H   UNL A   1      41.704  27.213  31.500  1.00  0.00     0.167 HD
ATOM     62  C   UNL A   1      41.137  29.816  33.943  1.00  0.00     0.074 A 
ATOM     63  C   UNL A   1      40.385  29.975  35.179  1.00  0.00     0.031 C 
ATOM     64  C   UNL A   1      42.046  28.896  33.486  1.00  0.00     0.031 A 
BRANCH  51  65
ATOM     65  C   UNL A   1      42.890  26.932  27.726  1.00  0.00    -0.014 A 
ATOM     66  C   UNL A   1      43.368  25.611  27.817  1.00  0.00     0.009 A 
ATOM     67  C   UNL A   1      43.202  27.614  26.536  1.00  0.00     0.009 A 
ATOM     68  C   UNL A   1      44.124  25.011  26.803  1.00  0.00     0.001 A 
ATOM     69  C   UNL A   1      43.970  27.023  25.516  1.00  0.00     0.001 A 
ATOM     70  C   UNL A   1      44.428  25.720  25.651  1.00  0.00     0.000 A 
ENDBRANCH  51  65
BRANCH  52  71
ATOM     71  C   UNL A   1      37.704  33.151  33.536  1.00  0.00    -0.014 A 
ATOM     72  C   UNL A   1      37.267  34.490  33.433  1.00  0.00     0.009 A 
ATOM     73  C   UNL A   1      36.746  32.143  33.418  1.00  0.00     0.009 A 
ATOM     74  C   UNL A   1      35.938  34.802  33.105  1.00  0.00     0.001 A 
ATOM     75  C   UNL A   1      35.454  32.474  33.017  1.00  0.00     0.001 A 
ATOM     76  C   UNL A   1      35.036  33.785  32.853  1.00  0.00     0.000 A 
ENDBRANCH  52  71
BRANCH  64  77
ATOM     77  C   UNL A   1      42.565  27.711  34.276  1.00  0.00    -0.014 A 
ATOM     78  C   UNL A   1      43.913  27.525  34.583  1.00  0.00     0.009 A 
ATOM     79  C   UNL A   1      41.699  26.654  34.650  1.00  0.00     0.009 A 
ATOM     80  C   UNL A   1      44.347  26.414  35.317  1.00  0.00     0.001 A 
ATOM     81  C   UNL A   1      42.121  25.536  35.367  1.00  0.00     0.001 A 
ATOM     82  C   UNL A   1      43.451  25.427  35.718  1.00  0.00     0.000 A 
ENDBRANCH  64  77
ENDBRANCH  38  39
ENDBRANCH  31  33
ENDBRANCH  30  31
ENDBRANCH   1  30
TORSDOF 13
ENDMDL
MODEL 2
REMARK VINA RESULT:     -16.7      2.761      8.608
REMARK SMILES Cc1ccc([C@@H]2[C@H](C(=O)OCCOC(=O)c3ccc(-c4c5nc(c(-c6ccccc6)c6ccc([nH]6)c(-c6ccccc6)c6nc(c(-c7ccccc7)c7ccc4[nH]7)C=C6)C=C5)cc3)c3ccccc3C(=O)N2c2ccccc2)cc1
REMARK SMILES IDX 12 1 11 2 10 3 8 4 9 5 7 6 6 7 72 8 64 9 70 10 65 11 69 12
REMARK SMILES IDX 71 13 66 14 68 15 67 16 5 17 1 18 2 19 3 20 80 21 4 22 79 23
REMARK SMILES IDX 73 24 74 25 78 26 75 27 77 28 76 29 13 30 14 31 15 32 16 33
REMARK SMILES IDX 17 34 63 35 18 36 62 37 19 38 20 39 21 40 56 41 22 42 61 43
REMARK SMILES IDX 55 44 57 45 23 46 60 47 54 48 53 49 24 51 46 52 31 53 45 54
REMARK SMILES IDX 32 55 35 56 44 57 58 58 33 59 34 60 43 62 59 63 36 64 25 65
REMARK SMILES IDX 26 66 30 67 27 68 29 69 28 70 47 71 48 72 52 73 49 74 51 75
REMARK SMILES IDX 50 76 37 77 38 78 42 79 39 80 41 81 40 82
REMARK H PARENT 57 50 35 61
REMARK Flexibility Score: inf
ROOT
ATOM      1  C   UNL A   1      34.784  24.493  25.380  1.00  0.00     0.275 C 
ENDROOT
BRANCH   1   2
ATOM      2  C   UNL A   1      33.336  23.809  26.443  1.00  0.00     0.274 C 
BRANCH   2   3
ATOM      3  O   UNL A   1      31.867  24.696  26.648  1.00  0.00    -0.462 OA
BRANCH   3   4
ATOM      4  C   UNL A   1      30.622  24.623  25.921  1.00  0.00     0.316 C 
ATOM      5  O   UNL A   1      29.753  23.882  26.372  1.00  0.00    -0.251 OA
BRANCH   4   6
ATOM      6  C   UNL A   1      30.415  25.292  24.255  1.00  0.00     0.157 C 
ATOM      7  C   UNL A   1      30.592  26.814  23.407  1.00  0.00     0.140 C 
ATOM      8  N   UNL A   1      32.026  27.255  23.281  1.00  0.00    -0.300 N 
ATOM      9  C   UNL A   1      31.248  24.329  23.406  1.00  0.00    -0.019 A 
ATOM     10  C   UNL A   1      32.696  26.300  22.440  1.00  0.00     0.259 C 
ATOM     11  C   UNL A   1      31.070  22.955  23.661  1.00  0.00     0.005 A 
ATOM     12  C   UNL A   1      32.332  24.800  22.618  1.00  0.00     0.044 A 
ATOM     13  O   UNL A   1      33.557  26.624  21.629  1.00  0.00    -0.269 OA
ATOM     14  C   UNL A   1      32.069  22.062  23.317  1.00  0.00     0.000 A 
ATOM     15  C   UNL A   1      33.278  23.857  22.205  1.00  0.00     0.014 A 
ATOM     16  C   UNL A   1      33.173  22.514  22.600  1.00  0.00     0.001 A 
BRANCH   7  17
ATOM     17  C   UNL A   1      29.604  28.019  23.134  1.00  0.00    -0.024 A 
ATOM     18  C   UNL A   1      27.278  31.622  23.494  1.00  0.00     0.044 C 
ATOM     19  C   UNL A   1      27.968  30.363  23.044  1.00  0.00    -0.051 A 
ATOM     20  C   UNL A   1      29.245  30.390  22.505  1.00  0.00     0.004 A 
ATOM     21  C   UNL A   1      27.410  29.107  23.284  1.00  0.00     0.004 A 
ATOM     22  C   UNL A   1      30.034  29.225  22.519  1.00  0.00     0.006 A 
ATOM     23  C   UNL A   1      28.220  27.947  23.333  1.00  0.00     0.006 A 
ENDBRANCH   7  17
BRANCH   8  24
ATOM     24  C   UNL A   1      32.702  27.563  24.552  1.00  0.00     0.045 A 
ATOM     25  C   UNL A   1      31.515  28.062  25.506  1.00  0.00     0.026 A 
ATOM     26  C   UNL A   1      34.397  27.990  24.953  1.00  0.00     0.026 A 
ATOM     27  C   UNL A   1      31.777  29.136  26.834  1.00  0.00     0.002 A 
ATOM     28  C   UNL A   1      34.861  29.006  26.384  1.00  0.00     0.002 A 
ATOM     29  C   UNL A   1      33.537  29.621  27.450  1.00  0.00     0.000 A 
ENDBRANCH   8  24
ENDBRANCH   4   6
ENDBRANCH   3   4
ENDBRANCH   2   3
ENDBRANCH   1   2
BRANCH   1  30
ATOM     30  O   UNL A   1      35.918  23.406  24.432  1.00  0.00    -0.458 OA
BRANCH  30  31
ATOM     31  C   UNL A   1      37.451  22.648  24.969  1.00  0.00     0.338 C 
ATOM     32  O   UNL A   1      37.431  21.531  24.403  1.00  0.00    -0.246 OA
BRANCH  31  33
ATOM     33  C   UNL A   1      38.691  23.824  26.292  1.00  0.00     0.060 A 
ATOM     34  C   UNL A   1      38.906  24.025  27.714  1.00  0.00     0.016 A 
ATOM     35  C   UNL A   1      39.765  24.887  25.752  1.00  0.00     0.016 A 
ATOM     36  C   UNL A   1      39.856  24.870  28.393  1.00  0.00     0.010 A 
ATOM     37  C   UNL A   1      40.689  25.694  26.333  1.00  0.00     0.010 A 
ATOM     38  C   UNL A   1      40.684  25.717  27.689  1.00  0.00    -0.014 A 
BRANCH  38  39
ATOM     39  C   UNL A   1      41.305  26.940  28.134  1.00  0.00     0.031 A 
ATOM     40  C   UNL A   1      40.433  28.101  28.393  1.00  0.00     0.074 A 
ATOM     41  C   UNL A   1      42.499  26.623  28.704  1.00  0.00     0.049 A 
ATOM     42  N   UNL A   1      40.812  29.328  28.375  1.00  0.00    -0.248 NA
ATOM     43  C   UNL A   1      38.984  28.006  28.611  1.00  0.00     0.031 C 
ATOM     44  C   UNL A   1      43.245  27.189  29.810  1.00  0.00     0.029 A 
ATOM     45  N   UNL A   1      43.317  25.556  28.308  1.00  0.00    -0.354 N 
ATOM     46  C   UNL A   1      39.839  30.005  29.091  1.00  0.00     0.074 A 
ATOM     47  C   UNL A   1      38.635  29.256  28.922  1.00  0.00     0.031 C 
ATOM     48  C   UNL A   1      44.504  26.697  29.783  1.00  0.00     0.029 A 
ATOM     49  C   UNL A   1      44.650  25.846  28.607  1.00  0.00     0.049 A 
ATOM     50  H   UNL A   1      43.000  24.727  27.883  1.00  0.00     0.167 HD
ATOM     51  C   UNL A   1      40.225  30.880  30.062  1.00  0.00     0.031 A 
ATOM     52  C   UNL A   1      45.461  26.121  27.535  1.00  0.00     0.031 A 
ATOM     53  C   UNL A   1      41.689  30.893  30.154  1.00  0.00     0.049 A 
ATOM     54  C   UNL A   1      45.508  27.614  27.232  1.00  0.00     0.074 A 
ATOM     55  C   UNL A   1      42.601  30.390  31.065  1.00  0.00     0.029 A 
ATOM     56  N   UNL A   1      42.401  31.111  28.993  1.00  0.00    -0.354 N 
ATOM     57  N   UNL A   1      44.920  28.536  27.944  1.00  0.00    -0.248 NA
ATOM     58  C   UNL A   1      46.186  28.176  26.068  1.00  0.00     0.031 C 
ATOM     59  C   UNL A   1      43.872  30.304  30.408  1.00  0.00     0.029 A 
ATOM     60  C   UNL A   1      43.726  30.756  29.110  1.00  0.00     0.049 A 
ATOM     61  H   UNL A   1      42.006  31.481  28.171  1.00  0.00     0.167 HD
ATOM     62  C   UNL A   1      45.084  29.764  27.370  1.00  0.00     0.074 A 
ATOM     63  C   UNL A   1      45.869  29.480  26.178  1.00  0.00     0.031 C 
ATOM     64  C   UNL A   1      44.555  30.905  27.919  1.00  0.00     0.031 A 
BRANCH  51  65
ATOM     65  C   UNL A   1      39.336  31.515  31.104  1.00  0.00    -0.014 A 
ATOM     66  C   UNL A   1      38.961  32.860  30.923  1.00  0.00     0.009 A 
ATOM     67  C   UNL A   1      38.798  30.877  32.237  1.00  0.00     0.009 A 
ATOM     68  C   UNL A   1      38.125  33.535  31.818  1.00  0.00     0.001 A 
ATOM     69  C   UNL A   1      37.966  31.552  33.147  1.00  0.00     0.001 A 
ATOM     70  C   UNL A   1      37.628  32.882  32.935  1.00  0.00     0.000 A 
ENDBRANCH  51  65
BRANCH  52  71
ATOM     71  C   UNL A   1      45.356  25.051  26.486  1.00  0.00    -0.014 A 
ATOM     72  C   UNL A   1      45.894  23.770  26.739  1.00  0.00     0.009 A 
ATOM     73  C   UNL A   1      44.358  25.157  25.516  1.00  0.00     0.009 A 
ATOM     74  C   UNL A   1      45.368  22.622  26.127  1.00  0.00     0.001 A 
ATOM     75  C   UNL A   1      43.801  23.998  24.980  1.00  0.00     0.001 A 
ATOM     76  C   UNL A   1      44.286  22.733  25.274  1.00  0.00     0.000 A 
ENDBRANCH  52  71
BRANCH  64  77
ATOM     77  C   UNL A   1      44.719  32.304  27.359  1.00  0.00    -0.014 A 
ATOM     78  C   UNL A   1      45.321  33.346  28.065  1.00  0.00     0.009 A 
ATOM     79  C   UNL A   1      44.154  32.655  26.108  1.00  0.00     0.009 A 
ATOM     80  C   UNL A   1      45.451  34.624  27.506  1.00  0.00     0.001 A 
ATOM     81  C   UNL A   1      44.263  33.926  25.549  1.00  0.00     0.001 A 
ATOM     82  C   UNL A   1      44.933  34.911  26.246  1.00  0.00     0.000 A 
ENDBRANCH  64  77
ENDBRANCH  38  39
ENDBRANCH  31  33
ENDBRANCH  30  31
ENDBRANCH   1  30
TORSDOF 13
ENDMDL
MODEL 3
REMARK VINA RESULT:     -15.3      1.453      2.272
REMARK SMILES Cc1ccc([C@@H]2[C@H](C(=O)OCCOC(=O)c3ccc(-c4c5nc(c(-c6ccccc6)c6ccc([nH]6)c(-c6ccccc6)c6nc(c(-c7ccccc7)c7ccc4[nH]7)C=C6)C=C5)cc3)c3ccccc3C(=O)N2c2ccccc2)cc1
REMARK SMILES IDX 12 1 11 2 10 3 8 4 9 5 7 6 6 7 72 8 64 9 70 10 65 11 69 12
REMARK SMILES IDX 71 13 66 14 68 15 67 16 5 17 1 18 2 19 3 20 80 21 4 22 79 23
REMARK SMILES IDX 73 24 74 25 78 26 75 27 77 28 76 29 13 30 14 31 15 32 16 33
REMARK SMILES IDX 17 34 63 35 18 36 62 37 19 38 20 39 21 40 56 41 22 42 61 43
REMARK SMILES IDX 55 44 57 45 23 46 60 47 54 48 53 49 24 51 46 52 31 53 45 54
REMARK SMILES IDX 32 55 35 56 44 57 58 58 33 59 34 60 43 62 59 63 36 64 25 65
REMARK SMILES IDX 26 66 30 67 27 68 29 69 28 70 47 71 48 72 52 73 49 74 51 75
REMARK SMILES IDX 50 76 37 77 38 78 42 79 39 80 41 81 40 82
REMARK H PARENT 57 50 35 61
REMARK Flexibility Score: inf
ROOT
ATOM      1  C   UNL A   1      34.396  28.294  24.090  1.00  0.00     0.275 C 
ENDROOT
BRANCH   1   2
ATOM      2  C   UNL A   1      33.247  27.094  23.124  1.00  0.00     0.274 C 
BRANCH   2   3
ATOM      3  O   UNL A   1      33.721  25.468  22.781  1.00  0.00    -0.462 OA
BRANCH   3   4
ATOM      4  C   UNL A   1      32.969  24.376  22.209  1.00  0.00     0.316 C 
ATOM      5  O   UNL A   1      32.771  24.408  20.998  1.00  0.00    -0.251 OA
BRANCH   4   6
ATOM      6  C   UNL A   1      32.056  23.180  23.208  1.00  0.00     0.157 C 
ATOM      7  C   UNL A   1      32.370  21.802  24.242  1.00  0.00     0.140 C 
ATOM      8  N   UNL A   1      33.060  22.174  25.527  1.00  0.00    -0.300 N 
ATOM      9  C   UNL A   1      31.192  24.081  24.093  1.00  0.00    -0.019 A 
ATOM     10  C   UNL A   1      32.146  22.986  26.285  1.00  0.00     0.259 C 
ATOM     11  C   UNL A   1      30.526  25.142  23.448  1.00  0.00     0.005 A 
ATOM     12  C   UNL A   1      31.284  24.020  25.510  1.00  0.00     0.044 A 
ATOM     13  O   UNL A   1      32.055  22.914  27.507  1.00  0.00    -0.269 OA
ATOM     14  C   UNL A   1      30.134  26.247  24.180  1.00  0.00     0.000 A 
ATOM     15  C   UNL A   1      30.793  25.113  26.230  1.00  0.00     0.014 A 
ATOM     16  C   UNL A   1      30.275  26.237  25.564  1.00  0.00     0.001 A 
BRANCH   7  17
ATOM     17  C   UNL A   1      32.493  20.249  23.964  1.00  0.00    -0.024 A 
ATOM     18  C   UNL A   1      34.000  16.302  23.143  1.00  0.00     0.044 C 
ATOM     19  C   UNL A   1      33.171  17.516  23.469  1.00  0.00    -0.051 A 
ATOM     20  C   UNL A   1      33.031  17.968  24.771  1.00  0.00     0.004 A 
ATOM     21  C   UNL A   1      32.632  18.315  22.461  1.00  0.00     0.004 A 
ATOM     22  C   UNL A   1      32.662  19.305  25.012  1.00  0.00     0.006 A 
ATOM     23  C   UNL A   1      32.300  19.669  22.704  1.00  0.00     0.006 A 
ENDBRANCH   7  17
BRANCH   8  24
ATOM     24  C   UNL A   1      34.418  22.724  25.374  1.00  0.00     0.045 A 
ATOM     25  C   UNL A   1      35.254  21.510  24.748  1.00  0.00     0.026 A 
ATOM     26  C   UNL A   1      35.282  24.065  26.192  1.00  0.00     0.026 A 
ATOM     27  C   UNL A   1      36.961  21.349  24.960  1.00  0.00     0.002 A 
ATOM     28  C   UNL A   1      37.086  24.118  26.392  1.00  0.00     0.002 A 
ATOM     29  C   UNL A   1      38.050  22.737  25.735  1.00  0.00     0.000 A 
ENDBRANCH   8  24
ENDBRANCH   4   6
ENDBRANCH   3   4
ENDBRANCH   2   3
ENDBRANCH   1   2
BRANCH   1  30
ATOM     30  O   UNL A   1      33.785  29.387  25.431  1.00  0.00    -0.458 OA
BRANCH  30  31
ATOM     31  C   UNL A   1      34.226  29.380  27.169  1.00  0.00     0.338 C 
ATOM     32  O   UNL A   1      33.114  29.365  27.746  1.00  0.00    -0.246 OA
BRANCH  31  33
ATOM     33  C   UNL A   1      36.339  29.399  27.623  1.00  0.00     0.060 A 
ATOM     34  C   UNL A   1      37.594  29.805  27.016  1.00  0.00     0.016 A 
ATOM     35  C   UNL A   1      36.934  28.812  28.992  1.00  0.00     0.016 A 
ATOM     36  C   UNL A   1      38.934  29.753  27.545  1.00  0.00     0.010 A 
ATOM     37  C   UNL A   1      38.170  28.747  29.550  1.00  0.00     0.010 A 
ATOM     38  C   UNL A   1      39.192  29.181  28.771  1.00  0.00    -0.014 A 
BRANCH  38  39
ATOM     39  C   UNL A   1      40.419  28.592  29.247  1.00  0.00     0.031 A 
ATOM     40  C   UNL A   1      40.787  27.259  28.733  1.00  0.00     0.074 A 
ATOM     41  C   UNL A   1      41.230  29.595  29.678  1.00  0.00     0.049 A 
ATOM     42  N   UNL A   1      41.565  26.427  29.326  1.00  0.00    -0.248 NA
ATOM     43  C   UNL A   1      40.226  26.666  27.512  1.00  0.00     0.031 C 
ATOM     44  C   UNL A   1      42.668  29.777  29.661  1.00  0.00     0.029 A 
ATOM     45  N   UNL A   1      40.785  30.788  30.262  1.00  0.00    -0.354 N 
ATOM     46  C   UNL A   1      41.976  25.559  28.327  1.00  0.00     0.074 A 
ATOM     47  C   UNL A   1      40.918  25.535  27.369  1.00  0.00     0.031 C 
ATOM     48  C   UNL A   1      42.986  30.808  30.476  1.00  0.00     0.029 A 
ATOM     49  C   UNL A   1      41.768  31.290  31.119  1.00  0.00     0.049 A 
ATOM     50  H   UNL A   1      39.911  31.209  30.095  1.00  0.00     0.167 HD
ATOM     51  C   UNL A   1      43.304  25.272  28.210  1.00  0.00     0.031 A 
ATOM     52  C   UNL A   1      41.500  31.199  32.461  1.00  0.00     0.031 A 
ATOM     53  C   UNL A   1      44.056  26.017  29.224  1.00  0.00     0.049 A 
ATOM     54  C   UNL A   1      42.051  29.909  33.059  1.00  0.00     0.074 A 
ATOM     55  C   UNL A   1      44.892  27.120  29.187  1.00  0.00     0.029 A 
ATOM     56  N   UNL A   1      43.649  25.901  30.537  1.00  0.00    -0.354 N 
ATOM     57  N   UNL A   1      42.760  29.030  32.405  1.00  0.00    -0.248 NA
ATOM     58  C   UNL A   1      41.797  29.489  34.434  1.00  0.00     0.031 C 
ATOM     59  C   UNL A   1      44.960  27.661  30.512  1.00  0.00     0.029 A 
ATOM     60  C   UNL A   1      44.171  26.887  31.343  1.00  0.00     0.049 A 
ATOM     61  H   UNL A   1      43.051  25.189  30.863  1.00  0.00     0.167 HD
ATOM     62  C   UNL A   1      43.034  27.950  33.195  1.00  0.00     0.074 A 
ATOM     63  C   UNL A   1      42.385  28.279  34.457  1.00  0.00     0.031 C 
ATOM     64  C   UNL A   1      43.762  26.879  32.743  1.00  0.00     0.031 A 
BRANCH  51  65
ATOM     65  C   UNL A   1      43.969  24.563  27.055  1.00  0.00    -0.014 A 
ATOM     66  C   UNL A   1      43.878  23.160  27.000  1.00  0.00     0.009 A 
ATOM     67  C   UNL A   1      44.649  25.175  25.987  1.00  0.00     0.009 A 
ATOM     68  C   UNL A   1      44.442  22.409  25.963  1.00  0.00     0.001 A 
ATOM     69  C   UNL A   1      45.229  24.427  24.946  1.00  0.00     0.001 A 
ATOM     70  C   UNL A   1      45.122  23.043  24.934  1.00  0.00     0.000 A 
ENDBRANCH  51  65
BRANCH  52  71
ATOM     71  C   UNL A   1      40.149  31.769  32.785  1.00  0.00    -0.014 A 
ATOM     72  C   UNL A   1      39.064  30.898  33.029  1.00  0.00     0.009 A 
ATOM     73  C   UNL A   1      40.072  33.064  33.300  1.00  0.00     0.009 A 
ATOM     74  C   UNL A   1      37.996  31.275  33.859  1.00  0.00     0.001 A 
ATOM     75  C   UNL A   1      39.043  33.387  34.182  1.00  0.00     0.001 A 
ATOM     76  C   UNL A   1      38.008  32.513  34.474  1.00  0.00     0.000 A 
ENDBRANCH  52  71
BRANCH  64  77
ATOM     77  C   UNL A   1      44.132  25.661  33.567  1.00  0.00    -0.014 A 
ATOM     78  C   UNL A   1      43.190  24.769  34.081  1.00  0.00     0.009 A 
ATOM     79  C   UNL A   1      45.474  25.431  33.957  1.00  0.00     0.009 A 
ATOM     80  C   UNL A   1      43.579  23.656  34.837  1.00  0.00     0.001 A 
ATOM     81  C   UNL A   1      45.871  24.336  34.721  1.00  0.00     0.001 A 
ATOM     82  C   UNL A   1      44.917  23.433  35.147  1.00  0.00     0.000 A 
ENDBRANCH  64  77
ENDBRANCH  38  39
ENDBRANCH  31  33
ENDBRANCH  30  31
ENDBRANCH   1  30
TORSDOF 13
ENDMDL
