MODEL 1
REMARK VINA RESULT:     -11.1      0.000      0.000
REMARK SMILES O=C(OCCOC(=O)c1cccnc1Nc1cccc(C(F)(F)F)c1)c1ccc(-c2c3nc(c(-c4ccccc4)c4ccc([nH]4)c(-c4ccccc4)c4nc(c(-c5ccccc5)c5ccc2[nH]5)C=C4)C=C3)cc1
REMARK SMILES IDX 5 1 4 2 3 3 2 4 1 5 26 6 27 7 73 8 28 9 72 10 29 11 30 12
REMARK SMILES IDX 31 13 66 14 32 15 71 16 65 17 67 18 33 19 70 20 64 21 63 22
REMARK SMILES IDX 34 24 56 25 41 26 55 27 42 28 45 29 54 30 68 31 43 32 44 33
REMARK SMILES IDX 53 35 69 36 46 37 35 38 36 39 40 40 37 41 39 42 38 43 57 44
REMARK SMILES IDX 58 45 62 46 59 47 61 48 60 49 47 50 48 51 52 52 49 53 51 54
REMARK SMILES IDX 50 55 6 56 7 57 8 58 9 59 10 60 14 61 11 62 13 63 12 64
REMARK SMILES IDX 15 65 16 67 17 68 25 69 18 70 20 71 19 72 21 73 22 74 23 75
REMARK SMILES IDX 24 76
REMARK H PARENT 67 23 45 34 15 66
REMARK Flexibility Score: inf
ROOT
ATOM      1  C   UNL A   1      37.667  20.992  24.628  1.00  0.00     0.275 C 
ENDROOT
BRANCH   1   2
ATOM      2  C   UNL A   1      38.221  20.102  25.743  1.00  0.00     0.275 C 
BRANCH   2   3
ATOM      3  O   UNL A   1      39.436  19.400  25.428  1.00  0.00    -0.458 OA
BRANCH   3   4
ATOM      4  C   UNL A   1      40.695  19.576  25.888  1.00  0.00     0.338 C 
ATOM      5  O   UNL A   1      41.446  18.603  25.942  1.00  0.00    -0.246 OA
BRANCH   4   6
ATOM      6  C   UNL A   1      41.178  20.853  26.493  1.00  0.00     0.060 A 
ATOM      7  C   UNL A   1      41.084  21.214  27.838  1.00  0.00     0.016 A 
ATOM      8  C   UNL A   1      41.776  21.767  25.610  1.00  0.00     0.016 A 
ATOM      9  C   UNL A   1      41.659  22.402  28.305  1.00  0.00     0.010 A 
ATOM     10  C   UNL A   1      42.371  22.940  26.068  1.00  0.00     0.010 A 
ATOM     11  C   UNL A   1      42.313  23.267  27.426  1.00  0.00    -0.014 A 
BRANCH  11  12
ATOM     12  C   UNL A   1      42.806  24.583  27.881  1.00  0.00     0.031 A 
ATOM     13  C   UNL A   1      41.811  25.688  28.065  1.00  0.00     0.074 A 
ATOM     14  C   UNL A   1      44.116  24.792  28.105  1.00  0.00     0.049 A 
ATOM     15  N   UNL A   1      42.016  26.925  28.432  1.00  0.00    -0.248 NA
ATOM     16  C   UNL A   1      40.394  25.353  27.831  1.00  0.00     0.031 C 
ATOM     17  C   UNL A   1      45.164  23.776  28.027  1.00  0.00     0.029 A 
ATOM     18  N   UNL A   1      44.797  25.944  28.405  1.00  0.00    -0.354 N 
ATOM     19  C   UNL A   1      40.756  27.501  28.509  1.00  0.00     0.074 A 
ATOM     20  C   UNL A   1      39.798  26.507  28.082  1.00  0.00     0.031 C 
ATOM     21  C   UNL A   1      46.364  24.366  28.171  1.00  0.00     0.029 A 
ATOM     22  C   UNL A   1      46.164  25.797  28.364  1.00  0.00     0.049 A 
ATOM     23  H   UNL A   1      44.352  26.794  28.627  1.00  0.00     0.167 HD
ATOM     24  C   UNL A   1      40.426  28.739  28.941  1.00  0.00     0.031 A 
ATOM     25  C   UNL A   1      47.138  26.722  28.446  1.00  0.00     0.031 A 
ATOM     26  C   UNL A   1      41.390  29.722  29.343  1.00  0.00     0.049 A 
ATOM     27  C   UNL A   1      46.751  28.143  28.753  1.00  0.00     0.074 A 
ATOM     28  C   UNL A   1      41.171  30.985  29.860  1.00  0.00     0.029 A 
ATOM     29  N   UNL A   1      42.763  29.556  29.243  1.00  0.00    -0.354 N 
ATOM     30  N   UNL A   1      45.555  28.644  28.946  1.00  0.00    -0.248 NA
ATOM     31  C   UNL A   1      47.842  29.115  28.901  1.00  0.00     0.031 C 
ATOM     32  C   UNL A   1      42.414  31.608  30.011  1.00  0.00     0.029 A 
ATOM     33  C   UNL A   1      43.406  30.714  29.638  1.00  0.00     0.049 A 
ATOM     34  H   UNL A   1      43.213  28.735  28.937  1.00  0.00     0.167 HD
ATOM     35  C   UNL A   1      45.751  29.972  29.293  1.00  0.00     0.074 A 
ATOM     36  C   UNL A   1      47.181  30.202  29.275  1.00  0.00     0.031 C 
ATOM     37  C   UNL A   1      44.831  30.913  29.616  1.00  0.00     0.031 A 
BRANCH  24  38
ATOM     38  C   UNL A   1      38.968  29.084  28.991  1.00  0.00    -0.014 A 
ATOM     39  C   UNL A   1      38.211  28.857  30.152  1.00  0.00     0.009 A 
ATOM     40  C   UNL A   1      38.346  29.656  27.873  1.00  0.00     0.009 A 
ATOM     41  C   UNL A   1      36.851  29.169  30.181  1.00  0.00     0.001 A 
ATOM     42  C   UNL A   1      36.991  29.988  27.913  1.00  0.00     0.001 A 
ATOM     43  C   UNL A   1      36.244  29.738  29.063  1.00  0.00     0.000 A 
ENDBRANCH  24  38
BRANCH  25  44
ATOM     44  C   UNL A   1      48.558  26.353  28.210  1.00  0.00    -0.014 A 
ATOM     45  C   UNL A   1      49.404  25.991  29.269  1.00  0.00     0.009 A 
ATOM     46  C   UNL A   1      49.091  26.414  26.912  1.00  0.00     0.009 A 
ATOM     47  C   UNL A   1      50.760  25.739  29.039  1.00  0.00     0.001 A 
ATOM     48  C   UNL A   1      50.442  26.138  26.681  1.00  0.00     0.001 A 
ATOM     49  C   UNL A   1      51.278  25.814  27.746  1.00  0.00     0.000 A 
ENDBRANCH  25  44
BRANCH  37  50
ATOM     50  C   UNL A   1      45.344  32.264  30.017  1.00  0.00    -0.014 A 
ATOM     51  C   UNL A   1      45.719  32.535  31.340  1.00  0.00     0.009 A 
ATOM     52  C   UNL A   1      45.516  33.256  29.038  1.00  0.00     0.009 A 
ATOM     53  C   UNL A   1      46.241  33.784  31.679  1.00  0.00     0.001 A 
ATOM     54  C   UNL A   1      46.066  34.492  29.374  1.00  0.00     0.001 A 
ATOM     55  C   UNL A   1      46.423  34.756  30.695  1.00  0.00     0.000 A 
ENDBRANCH  37  50
ENDBRANCH  11  12
ENDBRANCH   4   6
ENDBRANCH   3   4
ENDBRANCH   2   3
ENDBRANCH   1   2
BRANCH   1  56
ATOM     56  O   UNL A   1      36.921  22.128  25.088  1.00  0.00    -0.458 OA
BRANCH  56  57
ATOM     57  C   UNL A   1      36.210  22.781  24.121  1.00  0.00     0.342 C 
ATOM     58  O   UNL A   1      36.452  22.789  22.938  1.00  0.00    -0.246 OA
BRANCH  57  59
ATOM     59  C   UNL A   1      35.023  23.408  24.737  1.00  0.00     0.102 A 
ATOM     60  C   UNL A   1      34.842  24.794  24.631  1.00  0.00     0.021 A 
ATOM     61  C   UNL A   1      34.090  22.644  25.445  1.00  0.00     0.144 A 
ATOM     62  C   UNL A   1      33.755  25.393  25.256  1.00  0.00     0.021 A 
ATOM     63  N   UNL A   1      33.047  23.252  26.073  1.00  0.00    -0.238 NA
ATOM     64  C   UNL A   1      32.905  24.590  25.983  1.00  0.00     0.113 A 
BRANCH  61  65
ATOM     65  N   UNL A   1      34.202  21.246  25.571  1.00  0.00    -0.340 N 
ATOM     66  H   UNL A   1      34.748  20.915  26.319  1.00  0.00     0.168 HD
BRANCH  65  67
ATOM     67  C   UNL A   1      33.616  20.271  24.744  1.00  0.00     0.040 A 
ATOM     68  C   UNL A   1      32.600  20.629  23.849  1.00  0.00     0.026 A 
ATOM     69  C   UNL A   1      34.103  18.958  24.708  1.00  0.00     0.039 A 
ATOM     70  C   UNL A   1      32.103  19.706  22.926  1.00  0.00     0.003 A 
ATOM     71  C   UNL A   1      33.591  18.010  23.813  1.00  0.00     0.058 A 
ATOM     72  C   UNL A   1      32.594  18.401  22.910  1.00  0.00     0.013 A 
BRANCH  71  73
ATOM     73  C   UNL A   1      34.090  16.590  23.832  1.00  0.00     0.416 C 
ATOM     74  F   UNL A   1      35.195  16.441  24.616  1.00  0.00    -0.166 F 
ATOM     75  F   UNL A   1      33.168  15.713  24.323  1.00  0.00    -0.166 F 
ATOM     76  F   UNL A   1      34.443  16.109  22.606  1.00  0.00    -0.166 F 
ENDBRANCH  71  73
ENDBRANCH  65  67
ENDBRANCH  61  65
ENDBRANCH  57  59
ENDBRANCH  56  57
ENDBRANCH   1  56
TORSDOF 14
ENDMDL
MODEL 2
REMARK VINA RESULT:     -10.9      2.389      7.086
REMARK SMILES O=C(OCCOC(=O)c1cccnc1Nc1cccc(C(F)(F)F)c1)c1ccc(-c2c3nc(c(-c4ccccc4)c4ccc([nH]4)c(-c4ccccc4)c4nc(c(-c5ccccc5)c5ccc2[nH]5)C=C4)C=C3)cc1
REMARK SMILES IDX 5 1 4 2 3 3 2 4 1 5 26 6 27 7 73 8 28 9 72 10 29 11 30 12
REMARK SMILES IDX 31 13 66 14 32 15 71 16 65 17 67 18 33 19 70 20 64 21 63 22
REMARK SMILES IDX 34 24 56 25 41 26 55 27 42 28 45 29 54 30 68 31 43 32 44 33
REMARK SMILES IDX 53 35 69 36 46 37 35 38 36 39 40 40 37 41 39 42 38 43 57 44
REMARK SMILES IDX 58 45 62 46 59 47 61 48 60 49 47 50 48 51 52 52 49 53 51 54
REMARK SMILES IDX 50 55 6 56 7 57 8 58 9 59 10 60 14 61 11 62 13 63 12 64
REMARK SMILES IDX 15 65 16 67 17 68 25 69 18 70 20 71 19 72 21 73 22 74 23 75
REMARK SMILES IDX 24 76
REMARK H PARENT 67 23 45 34 15 66
REMARK Flexibility Score: inf
ROOT
ATOM      1  C   UNL A   1      42.513  18.322  26.128  1.00  0.00     0.275 C 
ENDROOT
BRANCH   1   2
ATOM      2  C   UNL A   1      44.033  18.144  26.124  1.00  0.00     0.275 C 
BRANCH   2   3
ATOM      3  O   UNL A   1      44.694  18.494  24.896  1.00  0.00    -0.458 OA
BRANCH   3   4
ATOM      4  C   UNL A   1      44.610  19.614  24.143  1.00  0.00     0.338 C 
ATOM      5  O   UNL A   1      44.529  19.499  22.921  1.00  0.00    -0.246 OA
BRANCH   4   6
ATOM      6  C   UNL A   1      44.780  20.991  24.696  1.00  0.00     0.060 A 
ATOM      7  C   UNL A   1      45.101  21.316  26.015  1.00  0.00     0.016 A 
ATOM      8  C   UNL A   1      44.590  22.047  23.789  1.00  0.00     0.016 A 
ATOM      9  C   UNL A   1      45.327  22.645  26.393  1.00  0.00     0.010 A 
ATOM     10  C   UNL A   1      44.835  23.370  24.150  1.00  0.00     0.010 A 
ATOM     11  C   UNL A   1      45.204  23.677  25.463  1.00  0.00    -0.014 A 
BRANCH  11  12
ATOM     12  C   UNL A   1      45.308  25.091  25.879  1.00  0.00     0.031 A 
ATOM     13  C   UNL A   1      46.675  25.691  26.017  1.00  0.00     0.074 A 
ATOM     14  C   UNL A   1      44.207  25.817  26.145  1.00  0.00     0.049 A 
ATOM     15  N   UNL A   1      47.008  26.898  26.389  1.00  0.00    -0.248 NA
ATOM     16  C   UNL A   1      47.818  24.828  25.666  1.00  0.00     0.031 C 
ATOM     17  C   UNL A   1      42.828  25.363  25.978  1.00  0.00     0.029 A 
ATOM     18  N   UNL A   1      44.076  27.083  26.656  1.00  0.00    -0.354 N 
ATOM     19  C   UNL A   1      48.390  26.949  26.281  1.00  0.00     0.074 A 
ATOM     20  C   UNL A   1      48.843  25.637  25.881  1.00  0.00     0.031 C 
ATOM     21  C   UNL A   1      41.993  26.293  26.473  1.00  0.00     0.029 A 
ATOM     22  C   UNL A   1      42.780  27.411  26.978  1.00  0.00     0.049 A 
ATOM     23  H   UNL A   1      44.835  27.698  26.781  1.00  0.00     0.167 HD
ATOM     24  C   UNL A   1      49.204  28.014  26.458  1.00  0.00     0.031 A 
ATOM     25  C   UNL A   1      42.294  28.482  27.632  1.00  0.00     0.031 A 
ATOM     26  C   UNL A   1      48.743  29.306  26.875  1.00  0.00     0.049 A 
ATOM     27  C   UNL A   1      43.241  29.594  27.989  1.00  0.00     0.074 A 
ATOM     28  C   UNL A   1      49.465  30.475  27.024  1.00  0.00     0.029 A 
ATOM     29  N   UNL A   1      47.434  29.588  27.238  1.00  0.00    -0.354 N 
ATOM     30  N   UNL A   1      44.530  29.676  27.764  1.00  0.00    -0.248 NA
ATOM     31  C   UNL A   1      42.667  30.776  28.643  1.00  0.00     0.031 C 
ATOM     32  C   UNL A   1      48.604  31.448  27.541  1.00  0.00     0.029 A 
ATOM     33  C   UNL A   1      47.337  30.899  27.663  1.00  0.00     0.049 A 
ATOM     34  H   UNL A   1      46.686  28.949  27.197  1.00  0.00     0.167 HD
ATOM     35  C   UNL A   1      44.911  30.937  28.196  1.00  0.00     0.074 A 
ATOM     36  C   UNL A   1      43.718  31.583  28.705  1.00  0.00     0.031 C 
ATOM     37  C   UNL A   1      46.135  31.518  28.158  1.00  0.00     0.031 A 
BRANCH  24  38
ATOM     38  C   UNL A   1      50.668  27.809  26.204  1.00  0.00    -0.014 A 
ATOM     39  C   UNL A   1      51.530  27.407  27.238  1.00  0.00     0.009 A 
ATOM     40  C   UNL A   1      51.189  28.005  24.919  1.00  0.00     0.009 A 
ATOM     41  C   UNL A   1      52.893  27.234  26.992  1.00  0.00     0.001 A 
ATOM     42  C   UNL A   1      52.549  27.810  24.672  1.00  0.00     0.001 A 
ATOM     43  C   UNL A   1      53.400  27.432  25.709  1.00  0.00     0.000 A 
ENDBRANCH  24  38
BRANCH  25  44
ATOM     44  C   UNL A   1      40.859  28.550  28.017  1.00  0.00    -0.014 A 
ATOM     45  C   UNL A   1      39.914  29.189  27.203  1.00  0.00     0.009 A 
ATOM     46  C   UNL A   1      40.438  28.012  29.245  1.00  0.00     0.009 A 
ATOM     47  C   UNL A   1      38.589  29.326  27.627  1.00  0.00     0.001 A 
ATOM     48  C   UNL A   1      39.107  28.128  29.656  1.00  0.00     0.001 A 
ATOM     49  C   UNL A   1      38.186  28.796  28.853  1.00  0.00     0.000 A 
ENDBRANCH  25  44
BRANCH  37  50
ATOM     50  C   UNL A   1      46.238  32.934  28.641  1.00  0.00    -0.014 A 
ATOM     51  C   UNL A   1      46.582  33.224  29.969  1.00  0.00     0.009 A 
ATOM     52  C   UNL A   1      46.053  33.988  27.733  1.00  0.00     0.009 A 
ATOM     53  C   UNL A   1      46.720  34.550  30.383  1.00  0.00     0.001 A 
ATOM     54  C   UNL A   1      46.223  35.310  28.143  1.00  0.00     0.001 A 
ATOM     55  C   UNL A   1      46.551  35.589  29.468  1.00  0.00     0.000 A 
ENDBRANCH  37  50
ENDBRANCH  11  12
ENDBRANCH   4   6
ENDBRANCH   3   4
ENDBRANCH   2   3
ENDBRANCH   1   2
BRANCH   1  56
ATOM     56  O   UNL A   1      42.071  19.669  26.350  1.00  0.00    -0.458 OA
BRANCH  56  57
ATOM     57  C   UNL A   1      40.737  19.879  26.149  1.00  0.00     0.342 C 
ATOM     58  O   UNL A   1      39.936  19.067  25.750  1.00  0.00    -0.246 OA
BRANCH  57  59
ATOM     59  C   UNL A   1      40.392  21.245  26.591  1.00  0.00     0.102 A 
ATOM     60  C   UNL A   1      41.197  21.885  27.544  1.00  0.00     0.021 A 
ATOM     61  C   UNL A   1      39.261  21.900  26.093  1.00  0.00     0.144 A 
ATOM     62  C   UNL A   1      40.844  23.148  28.002  1.00  0.00     0.021 A 
ATOM     63  N   UNL A   1      38.917  23.126  26.574  1.00  0.00    -0.238 NA
ATOM     64  C   UNL A   1      39.688  23.714  27.511  1.00  0.00     0.113 A 
BRANCH  61  65
ATOM     65  N   UNL A   1      38.423  21.322  25.120  1.00  0.00    -0.340 N 
ATOM     66  H   UNL A   1      38.803  20.579  24.600  1.00  0.00     0.168 HD
BRANCH  65  67
ATOM     67  C   UNL A   1      37.102  21.693  24.812  1.00  0.00     0.040 A 
ATOM     68  C   UNL A   1      36.856  22.670  23.841  1.00  0.00     0.026 A 
ATOM     69  C   UNL A   1      36.008  21.023  25.376  1.00  0.00     0.039 A 
ATOM     70  C   UNL A   1      35.552  22.952  23.425  1.00  0.00     0.003 A 
ATOM     71  C   UNL A   1      34.692  21.319  24.997  1.00  0.00     0.058 A 
ATOM     72  C   UNL A   1      34.475  22.282  24.003  1.00  0.00     0.013 A 
BRANCH  71  73
ATOM     73  C   UNL A   1      33.530  20.627  25.657  1.00  0.00     0.416 C 
ATOM     74  F   UNL A   1      33.493  19.294  25.372  1.00  0.00    -0.166 F 
ATOM     75  F   UNL A   1      33.567  20.713  27.017  1.00  0.00    -0.166 F 
ATOM     76  F   UNL A   1      32.311  21.114  25.288  1.00  0.00    -0.166 F 
ENDBRANCH  71  73
ENDBRANCH  65  67
ENDBRANCH  61  65
ENDBRANCH  57  59
ENDBRANCH  56  57
ENDBRANCH   1  56
TORSDOF 14
ENDMDL
MODEL 3
REMARK VINA RESULT:     -10.9      0.418      5.986
REMARK SMILES O=C(OCCOC(=O)c1cccnc1Nc1cccc(C(F)(F)F)c1)c1ccc(-c2c3nc(c(-c4ccccc4)c4ccc([nH]4)c(-c4ccccc4)c4nc(c(-c5ccccc5)c5ccc2[nH]5)C=C4)C=C3)cc1
REMARK SMILES IDX 5 1 4 2 3 3 2 4 1 5 26 6 27 7 73 8 28 9 72 10 29 11 30 12
REMARK SMILES IDX 31 13 66 14 32 15 71 16 65 17 67 18 33 19 70 20 64 21 63 22
REMARK SMILES IDX 34 24 56 25 41 26 55 27 42 28 45 29 54 30 68 31 43 32 44 33
REMARK SMILES IDX 53 35 69 36 46 37 35 38 36 39 40 40 37 41 39 42 38 43 57 44
REMARK SMILES IDX 58 45 62 46 59 47 61 48 60 49 47 50 48 51 52 52 49 53 51 54
REMARK SMILES IDX 50 55 6 56 7 57 8 58 9 59 10 60 14 61 11 62 13 63 12 64
REMARK SMILES IDX 15 65 16 67 17 68 25 69 18 70 20 71 19 72 21 73 22 74 23 75
REMARK SMILES IDX 24 76
REMARK H PARENT 67 23 45 34 15 66
REMARK Flexibility Score: inf
ROOT
ATOM      1  C   UNL A   1      38.128  20.824  24.833  1.00  0.00     0.275 C 
ENDROOT
BRANCH   1   2
ATOM      2  C   UNL A   1      38.593  19.698  25.760  1.00  0.00     0.275 C 
BRANCH   2   3
ATOM      3  O   UNL A   1      39.894  19.158  25.473  1.00  0.00    -0.458 OA
BRANCH   3   4
ATOM      4  C   UNL A   1      41.101  19.440  26.014  1.00  0.00     0.338 C 
ATOM      5  O   UNL A   1      41.876  18.513  26.245  1.00  0.00    -0.246 OA
BRANCH   4   6
ATOM      6  C   UNL A   1      41.484  20.797  26.505  1.00  0.00     0.060 A 
ATOM      7  C   UNL A   1      41.498  21.219  27.835  1.00  0.00     0.016 A 
ATOM      8  C   UNL A   1      41.859  21.725  25.520  1.00  0.00     0.016 A 
ATOM      9  C   UNL A   1      41.968  22.491  28.182  1.00  0.00     0.010 A 
ATOM     10  C   UNL A   1      42.350  22.986  25.856  1.00  0.00     0.010 A 
ATOM     11  C   UNL A   1      42.405  23.378  27.196  1.00  0.00    -0.014 A 
BRANCH  11  12
ATOM     12  C   UNL A   1      42.776  24.767  27.534  1.00  0.00     0.031 A 
ATOM     13  C   UNL A   1      44.231  25.097  27.676  1.00  0.00     0.074 A 
ATOM     14  C   UNL A   1      41.834  25.708  27.729  1.00  0.00     0.049 A 
ATOM     15  N   UNL A   1      44.788  26.237  27.989  1.00  0.00    -0.248 NA
ATOM     16  C   UNL A   1      45.189  24.009  27.406  1.00  0.00     0.031 C 
ATOM     17  C   UNL A   1      40.396  25.520  27.551  1.00  0.00     0.029 A 
ATOM     18  N   UNL A   1      41.945  27.004  28.165  1.00  0.00    -0.354 N 
ATOM     19  C   UNL A   1      46.155  26.012  27.916  1.00  0.00     0.074 A 
ATOM     20  C   UNL A   1      46.349  24.616  27.603  1.00  0.00     0.031 C 
ATOM     21  C   UNL A   1      39.751  26.623  27.969  1.00  0.00     0.029 A 
ATOM     22  C   UNL A   1      40.733  27.595  28.432  1.00  0.00     0.049 A 
ATOM     23  H   UNL A   1      42.808  27.465  28.276  1.00  0.00     0.167 HD
ATOM     24  C   UNL A   1      47.159  26.907  28.056  1.00  0.00     0.031 A 
ATOM     25  C   UNL A   1      40.455  28.778  29.011  1.00  0.00     0.031 A 
ATOM     26  C   UNL A   1      46.952  28.287  28.387  1.00  0.00     0.049 A 
ATOM     27  C   UNL A   1      41.596  29.704  29.331  1.00  0.00     0.074 A 
ATOM     28  C   UNL A   1      47.886  29.300  28.490  1.00  0.00     0.029 A 
ATOM     29  N   UNL A   1      45.718  28.839  28.697  1.00  0.00    -0.354 N 
ATOM     30  N   UNL A   1      42.880  29.521  29.138  1.00  0.00    -0.248 NA
ATOM     31  C   UNL A   1      41.253  31.013  29.902  1.00  0.00     0.031 C 
ATOM     32  C   UNL A   1      47.224  30.452  28.927  1.00  0.00     0.029 A 
ATOM     33  C   UNL A   1      45.872  30.167  29.045  1.00  0.00     0.049 A 
ATOM     34  H   UNL A   1      44.860  28.357  28.672  1.00  0.00     0.167 HD
ATOM     35  C   UNL A   1      43.493  30.708  29.508  1.00  0.00     0.074 A 
ATOM     36  C   UNL A   1      42.441  31.602  29.947  1.00  0.00     0.031 C 
ATOM     37  C   UNL A   1      44.807  31.036  29.471  1.00  0.00     0.031 A 
BRANCH  24  38
ATOM     38  C   UNL A   1      48.558  26.408  27.854  1.00  0.00    -0.014 A 
ATOM     39  C   UNL A   1      49.305  25.899  28.930  1.00  0.00     0.009 A 
ATOM     40  C   UNL A   1      49.132  26.430  26.576  1.00  0.00     0.009 A 
ATOM     41  C   UNL A   1      50.612  25.451  28.732  1.00  0.00     0.001 A 
ATOM     42  C   UNL A   1      50.430  25.959  26.378  1.00  0.00     0.001 A 
ATOM     43  C   UNL A   1      51.171  25.478  27.456  1.00  0.00     0.000 A 
ENDBRANCH  24  38
BRANCH  25  44
ATOM     44  C   UNL A   1      39.056  29.146  29.353  1.00  0.00    -0.014 A 
ATOM     45  C   UNL A   1      38.516  28.870  30.617  1.00  0.00     0.009 A 
ATOM     46  C   UNL A   1      38.229  29.736  28.381  1.00  0.00     0.009 A 
ATOM     47  C   UNL A   1      37.171  29.137  30.888  1.00  0.00     0.001 A 
ATOM     48  C   UNL A   1      36.891  30.025  28.663  1.00  0.00     0.001 A 
ATOM     49  C   UNL A   1      36.359  29.713  29.911  1.00  0.00     0.000 A 
ENDBRANCH  25  44
BRANCH  37  50
ATOM     50  C   UNL A   1      45.177  32.432  29.877  1.00  0.00    -0.014 A 
ATOM     51  C   UNL A   1      45.570  32.726  31.190  1.00  0.00     0.009 A 
ATOM     52  C   UNL A   1      45.195  33.450  28.910  1.00  0.00     0.009 A 
ATOM     53  C   UNL A   1      45.958  34.022  31.532  1.00  0.00     0.001 A 
ATOM     54  C   UNL A   1      45.612  34.737  29.248  1.00  0.00     0.001 A 
ATOM     55  C   UNL A   1      45.988  35.022  30.559  1.00  0.00     0.000 A 
ENDBRANCH  37  50
ENDBRANCH  11  12
ENDBRANCH   4   6
ENDBRANCH   3   4
ENDBRANCH   2   3
ENDBRANCH   1   2
BRANCH   1  56
ATOM     56  O   UNL A   1      37.008  21.575  25.325  1.00  0.00    -0.458 OA
BRANCH  56  57
ATOM     57  C   UNL A   1      36.430  22.411  24.412  1.00  0.00     0.342 C 
ATOM     58  O   UNL A   1      36.734  22.520  23.248  1.00  0.00    -0.246 OA
BRANCH  57  59
ATOM     59  C   UNL A   1      35.290  23.103  25.047  1.00  0.00     0.102 A 
ATOM     60  C   UNL A   1      35.211  24.501  24.985  1.00  0.00     0.021 A 
ATOM     61  C   UNL A   1      34.302  22.387  25.731  1.00  0.00     0.144 A 
ATOM     62  C   UNL A   1      34.170  25.158  25.628  1.00  0.00     0.021 A 
ATOM     63  N   UNL A   1      33.305  23.051  26.377  1.00  0.00    -0.238 NA
ATOM     64  C   UNL A   1      33.261  24.397  26.330  1.00  0.00     0.113 A 
BRANCH  61  65
ATOM     65  N   UNL A   1      34.311  20.982  25.812  1.00  0.00    -0.340 N 
ATOM     66  H   UNL A   1      34.803  20.590  26.568  1.00  0.00     0.168 HD
BRANCH  65  67
ATOM     67  C   UNL A   1      33.691  20.078  24.930  1.00  0.00     0.040 A 
ATOM     68  C   UNL A   1      32.702  20.526  24.047  1.00  0.00     0.026 A 
ATOM     69  C   UNL A   1      34.120  18.748  24.831  1.00  0.00     0.039 A 
ATOM     70  C   UNL A   1      32.175  19.675  23.073  1.00  0.00     0.003 A 
ATOM     71  C   UNL A   1      33.576  17.871  23.884  1.00  0.00     0.058 A 
ATOM     72  C   UNL A   1      32.607  18.352  22.994  1.00  0.00     0.013 A 
BRANCH  71  73
ATOM     73  C   UNL A   1      34.011  16.431  23.834  1.00  0.00     0.416 C 
ATOM     74  F   UNL A   1      34.393  16.051  22.581  1.00  0.00    -0.166 F 
ATOM     75  F   UNL A   1      35.081  16.174  24.639  1.00  0.00    -0.166 F 
ATOM     76  F   UNL A   1      33.045  15.545  24.208  1.00  0.00    -0.166 F 
ENDBRANCH  71  73
ENDBRANCH  65  67
ENDBRANCH  61  65
ENDBRANCH  57  59
ENDBRANCH  56  57
ENDBRANCH   1  56
TORSDOF 14
ENDMDL
