MODEL 1
REMARK VINA RESULT:     -11.6      0.000      0.000
REMARK SMILES O=C(OCCOC(=O)[C@@H]1CCC[C@@H](C(=O)N2CCN3C(=O)NC[C@@H]3C2)C1)c1ccc(-c2c3nc(c(-c4ccccc4)c4ccc([nH]4)c(-c4ccccc4)c4nc(c(-c5ccccc5)c5ccc2[nH]5)C=C4)C=C3)cc1
REMARK SMILES IDX 4 1 3 2 2 3 1 4 27 5 28 6 74 7 29 8 73 9 30 10 31 11 32 12
REMARK SMILES IDX 67 13 33 14 72 15 66 16 68 17 34 18 71 19 65 20 64 21 35 23
REMARK SMILES IDX 57 24 42 25 56 26 43 27 46 28 55 29 69 30 44 31 45 32 54 34
REMARK SMILES IDX 70 35 47 36 36 37 37 38 41 39 38 40 40 41 39 42 58 43 59 44
REMARK SMILES IDX 63 45 60 46 62 47 61 48 48 49 49 50 53 51 50 52 52 53 51 54
REMARK SMILES IDX 5 55 6 56 7 57 8 58 9 59 10 60 26 61 11 62 13 63 12 64 14 65
REMARK SMILES IDX 15 66 16 67 17 68 25 69 18 70 24 71 19 72 23 73 20 74 22 75
REMARK SMILES IDX 21 76
REMARK H PARENT 68 22 46 33 22 77
REMARK Flexibility Score: inf
ROOT
ATOM      1  C   UNL A   1      31.865  33.051  26.489  1.00  0.00     0.275 C 
ENDROOT
BRANCH   1   2
ATOM      2  O   UNL A   1      31.924  33.861  27.665  1.00  0.00    -0.458 OA
BRANCH   2   3
ATOM      3  C   UNL A   1      33.005  34.311  28.333  1.00  0.00     0.338 C 
ATOM      4  O   UNL A   1      32.979  35.471  28.746  1.00  0.00    -0.246 OA
BRANCH   3   5
ATOM      5  C   UNL A   1      34.291  33.545  28.502  1.00  0.00     0.060 A 
ATOM      6  C   UNL A   1      35.604  33.987  28.298  1.00  0.00     0.016 A 
ATOM      7  C   UNL A   1      34.133  32.270  29.063  1.00  0.00     0.016 A 
ATOM      8  C   UNL A   1      36.708  33.266  28.781  1.00  0.00     0.010 A 
ATOM      9  C   UNL A   1      35.216  31.592  29.620  1.00  0.00     0.010 A 
ATOM     10  C   UNL A   1      36.521  32.096  29.507  1.00  0.00    -0.014 A 
BRANCH  10  11
ATOM     11  C   UNL A   1      37.659  31.335  30.086  1.00  0.00     0.031 A 
ATOM     12  C   UNL A   1      38.067  31.671  31.491  1.00  0.00     0.074 A 
ATOM     13  C   UNL A   1      38.360  30.424  29.375  1.00  0.00     0.049 A 
ATOM     14  N   UNL A   1      39.075  31.225  32.190  1.00  0.00    -0.248 NA
ATOM     15  C   UNL A   1      37.241  32.670  32.198  1.00  0.00     0.031 C 
ATOM     16  C   UNL A   1      38.082  29.996  28.001  1.00  0.00     0.029 A 
ATOM     17  N   UNL A   1      39.495  29.720  29.702  1.00  0.00    -0.354 N 
ATOM     18  C   UNL A   1      38.973  31.869  33.413  1.00  0.00     0.074 A 
ATOM     19  C   UNL A   1      37.944  32.872  33.294  1.00  0.00     0.031 C 
ATOM     20  C   UNL A   1      39.056  29.166  27.582  1.00  0.00     0.029 A 
ATOM     21  C   UNL A   1      40.013  28.976  28.664  1.00  0.00     0.049 A 
ATOM     22  H   UNL A   1      39.902  29.745  30.598  1.00  0.00     0.167 HD
ATOM     23  C   UNL A   1      39.583  31.570  34.581  1.00  0.00     0.031 A 
ATOM     24  C   UNL A   1      41.130  28.224  28.602  1.00  0.00     0.031 A 
ATOM     25  C   UNL A   1      40.580  30.553  34.707  1.00  0.00     0.049 A 
ATOM     26  C   UNL A   1      41.917  28.013  29.871  1.00  0.00     0.074 A 
ATOM     27  C   UNL A   1      41.230  30.114  35.842  1.00  0.00     0.029 A 
ATOM     28  N   UNL A   1      41.075  29.820  33.640  1.00  0.00    -0.354 N 
ATOM     29  N   UNL A   1      41.712  28.523  31.062  1.00  0.00    -0.248 NA
ATOM     30  C   UNL A   1      43.039  27.066  29.807  1.00  0.00     0.031 C 
ATOM     31  C   UNL A   1      42.164  29.150  35.452  1.00  0.00     0.029 A 
ATOM     32  C   UNL A   1      42.048  28.947  34.083  1.00  0.00     0.049 A 
ATOM     33  H   UNL A   1      40.777  29.907  32.705  1.00  0.00     0.167 HD
ATOM     34  C   UNL A   1      42.620  27.894  31.905  1.00  0.00     0.074 A 
ATOM     35  C   UNL A   1      43.391  26.984  31.083  1.00  0.00     0.031 C 
ATOM     36  C   UNL A   1      42.781  28.034  33.244  1.00  0.00     0.031 A 
BRANCH  23  37
ATOM     37  C   UNL A   1      39.111  32.334  35.783  1.00  0.00    -0.014 A 
ATOM     38  C   UNL A   1      39.717  33.558  36.133  1.00  0.00     0.009 A 
ATOM     39  C   UNL A   1      38.133  31.795  36.624  1.00  0.00     0.009 A 
ATOM     40  C   UNL A   1      39.409  34.181  37.341  1.00  0.00     0.001 A 
ATOM     41  C   UNL A   1      37.797  32.443  37.814  1.00  0.00     0.001 A 
ATOM     42  C   UNL A   1      38.449  33.623  38.182  1.00  0.00     0.000 A 
ENDBRANCH  23  37
BRANCH  24  43
ATOM     43  C   UNL A   1      41.547  27.547  27.340  1.00  0.00    -0.014 A 
ATOM     44  C   UNL A   1      41.080  26.259  27.031  1.00  0.00     0.009 A 
ATOM     45  C   UNL A   1      42.471  28.151  26.473  1.00  0.00     0.009 A 
ATOM     46  C   UNL A   1      41.563  25.573  25.912  1.00  0.00     0.001 A 
ATOM     47  C   UNL A   1      42.937  27.471  25.342  1.00  0.00     0.001 A 
ATOM     48  C   UNL A   1      42.493  26.179  25.069  1.00  0.00     0.000 A 
ENDBRANCH  24  43
BRANCH  36  49
ATOM     49  C   UNL A   1      43.769  27.128  33.921  1.00  0.00    -0.014 A 
ATOM     50  C   UNL A   1      43.407  25.854  34.378  1.00  0.00     0.009 A 
ATOM     51  C   UNL A   1      45.108  27.541  34.027  1.00  0.00     0.009 A 
ATOM     52  C   UNL A   1      44.365  25.018  34.953  1.00  0.00     0.001 A 
ATOM     53  C   UNL A   1      46.069  26.688  34.567  1.00  0.00     0.001 A 
ATOM     54  C   UNL A   1      45.695  25.432  35.037  1.00  0.00     0.000 A 
ENDBRANCH  36  49
ENDBRANCH  10  11
ENDBRANCH   3   5
ENDBRANCH   2   3
ENDBRANCH   1   2
BRANCH   1  55
ATOM     55  C   UNL A   1      31.431  31.602  26.747  1.00  0.00     0.274 C 
BRANCH  55  56
ATOM     56  O   UNL A   1      31.834  30.647  25.736  1.00  0.00    -0.462 OA
BRANCH  56  57
ATOM     57  C   UNL A   1      31.938  29.344  26.140  1.00  0.00     0.309 C 
ATOM     58  O   UNL A   1      31.551  28.931  27.227  1.00  0.00    -0.252 OA
BRANCH  57  59
ATOM     59  C   UNL A   1      32.632  28.432  25.120  1.00  0.00     0.100 C 
ATOM     60  C   UNL A   1      33.166  29.207  23.921  1.00  0.00     0.015 C 
ATOM     61  C   UNL A   1      31.730  27.308  24.628  1.00  0.00     0.028 C 
ATOM     62  C   UNL A   1      33.930  28.276  22.978  1.00  0.00     0.002 C 
ATOM     63  C   UNL A   1      32.359  26.323  23.621  1.00  0.00     0.079 C 
ATOM     64  C   UNL A   1      33.126  27.056  22.514  1.00  0.00     0.013 C 
BRANCH  63  65
ATOM     65  C   UNL A   1      33.239  25.311  24.341  1.00  0.00     0.225 C 
ATOM     66  O   UNL A   1      34.281  25.633  24.911  1.00  0.00    -0.275 OA
BRANCH  65  67
ATOM     67  N   UNL A   1      32.699  24.054  24.505  1.00  0.00    -0.339 N 
ATOM     68  C   UNL A   1      31.896  23.296  23.526  1.00  0.00     0.141 C 
ATOM     69  C   UNL A   1      32.882  23.445  25.812  1.00  0.00     0.146 C 
ATOM     70  C   UNL A   1      32.136  21.756  23.543  1.00  0.00     0.143 C 
ATOM     71  C   UNL A   1      33.497  22.080  25.641  1.00  0.00     0.125 C 
ATOM     72  N   UNL A   1      32.644  21.255  24.810  1.00  0.00    -0.317 N 
ATOM     73  C   UNL A   1      33.610  21.284  26.928  1.00  0.00     0.144 C 
ATOM     74  C   UNL A   1      32.629  19.949  25.273  1.00  0.00     0.317 C 
ATOM     75  N   UNL A   1      33.276  19.949  26.507  1.00  0.00    -0.336 N 
ATOM     76  O   UNL A   1      32.152  18.975  24.731  1.00  0.00    -0.249 OA
ATOM     77  H   UNL A   1      33.478  19.138  27.026  1.00  0.00     0.165 HD
ENDBRANCH  65  67
ENDBRANCH  63  65
ENDBRANCH  57  59
ENDBRANCH  56  57
ENDBRANCH  55  56
ENDBRANCH   1  55
TORSDOF 13
ENDMDL
MODEL 2
REMARK VINA RESULT:     -11.2      4.193      9.396
REMARK SMILES O=C(OCCOC(=O)[C@@H]1CCC[C@@H](C(=O)N2CCN3C(=O)NC[C@@H]3C2)C1)c1ccc(-c2c3nc(c(-c4ccccc4)c4ccc([nH]4)c(-c4ccccc4)c4nc(c(-c5ccccc5)c5ccc2[nH]5)C=C4)C=C3)cc1
REMARK SMILES IDX 4 1 3 2 2 3 1 4 27 5 28 6 74 7 29 8 73 9 30 10 31 11 32 12
REMARK SMILES IDX 67 13 33 14 72 15 66 16 68 17 34 18 71 19 65 20 64 21 35 23
REMARK SMILES IDX 57 24 42 25 56 26 43 27 46 28 55 29 69 30 44 31 45 32 54 34
REMARK SMILES IDX 70 35 47 36 36 37 37 38 41 39 38 40 40 41 39 42 58 43 59 44
REMARK SMILES IDX 63 45 60 46 62 47 61 48 48 49 49 50 53 51 50 52 52 53 51 54
REMARK SMILES IDX 5 55 6 56 7 57 8 58 9 59 10 60 26 61 11 62 13 63 12 64 14 65
REMARK SMILES IDX 15 66 16 67 17 68 25 69 18 70 24 71 19 72 23 73 20 74 22 75
REMARK SMILES IDX 21 76
REMARK H PARENT 68 22 46 33 22 77
REMARK Flexibility Score: inf
ROOT
ATOM      1  C   UNL A   1      38.857  19.971  25.045  1.00  0.00     0.275 C 
ENDROOT
BRANCH   1   2
ATOM      2  O   UNL A   1      39.792  19.224  25.826  1.00  0.00    -0.458 OA
BRANCH   2   3
ATOM      3  C   UNL A   1      41.119  19.413  25.972  1.00  0.00     0.338 C 
ATOM      4  O   UNL A   1      41.851  18.428  25.859  1.00  0.00    -0.246 OA
BRANCH   3   5
ATOM      5  C   UNL A   1      41.762  20.709  26.388  1.00  0.00     0.060 A 
ATOM      6  C   UNL A   1      42.413  21.657  25.588  1.00  0.00     0.016 A 
ATOM      7  C   UNL A   1      41.554  21.051  27.731  1.00  0.00     0.016 A 
ATOM      8  C   UNL A   1      42.694  22.950  26.058  1.00  0.00     0.010 A 
ATOM      9  C   UNL A   1      41.752  22.356  28.178  1.00  0.00     0.010 A 
ATOM     10  C   UNL A   1      42.305  23.334  27.336  1.00  0.00    -0.014 A 
BRANCH  10  11
ATOM     11  C   UNL A   1      42.531  24.710  27.851  1.00  0.00     0.031 A 
ATOM     12  C   UNL A   1      43.900  25.033  28.374  1.00  0.00     0.074 A 
ATOM     13  C   UNL A   1      41.542  25.629  27.922  1.00  0.00     0.049 A 
ATOM     14  N   UNL A   1      44.329  26.119  28.958  1.00  0.00    -0.248 NA
ATOM     15  C   UNL A   1      44.922  23.974  28.249  1.00  0.00     0.031 C 
ATOM     16  C   UNL A   1      40.164  25.458  27.455  1.00  0.00     0.029 A 
ATOM     17  N   UNL A   1      41.538  26.892  28.467  1.00  0.00    -0.354 N 
ATOM     18  C   UNL A   1      45.665  25.872  29.232  1.00  0.00     0.074 A 
ATOM     19  C   UNL A   1      45.921  24.483  28.943  1.00  0.00     0.031 C 
ATOM     20  C   UNL A   1      39.435  26.537  27.797  1.00  0.00     0.029 A 
ATOM     21  C   UNL A   1      40.297  27.492  28.481  1.00  0.00     0.049 A 
ATOM     22  H   UNL A   1      42.348  27.329  28.816  1.00  0.00     0.167 HD
ATOM     23  C   UNL A   1      46.636  26.749  29.566  1.00  0.00     0.031 A 
ATOM     24  C   UNL A   1      39.909  28.681  28.984  1.00  0.00     0.031 A 
ATOM     25  C   UNL A   1      46.389  28.133  29.822  1.00  0.00     0.049 A 
ATOM     26  C   UNL A   1      40.971  29.610  29.515  1.00  0.00     0.074 A 
ATOM     27  C   UNL A   1      47.293  29.135  30.112  1.00  0.00     0.029 A 
ATOM     28  N   UNL A   1      45.126  28.706  29.823  1.00  0.00    -0.354 N 
ATOM     29  N   UNL A   1      42.262  29.406  29.628  1.00  0.00    -0.248 NA
ATOM     30  C   UNL A   1      40.538  30.957  29.913  1.00  0.00     0.031 C 
ATOM     31  C   UNL A   1      46.568  30.308  30.345  1.00  0.00     0.029 A 
ATOM     32  C   UNL A   1      45.220  30.046  30.139  1.00  0.00     0.049 A 
ATOM     33  H   UNL A   1      44.288  28.228  29.627  1.00  0.00     0.167 HD
ATOM     34  C   UNL A   1      42.804  30.622  30.026  1.00  0.00     0.074 A 
ATOM     35  C   UNL A   1      41.698  31.549  30.156  1.00  0.00     0.031 C 
ATOM     36  C   UNL A   1      44.103  30.951  30.235  1.00  0.00     0.031 A 
BRANCH  23  37
ATOM     37  C   UNL A   1      48.032  26.200  29.602  1.00  0.00    -0.014 A 
ATOM     38  C   UNL A   1      48.598  25.768  30.818  1.00  0.00     0.009 A 
ATOM     39  C   UNL A   1      48.822  26.203  28.448  1.00  0.00     0.009 A 
ATOM     40  C   UNL A   1      49.948  25.427  30.891  1.00  0.00     0.001 A 
ATOM     41  C   UNL A   1      50.164  25.821  28.516  1.00  0.00     0.001 A 
ATOM     42  C   UNL A   1      50.730  25.455  29.739  1.00  0.00     0.000 A 
ENDBRANCH  23  37
BRANCH  24  43
ATOM     43  C   UNL A   1      38.482  29.115  28.952  1.00  0.00    -0.014 A 
ATOM     44  C   UNL A   1      37.949  29.739  27.812  1.00  0.00     0.009 A 
ATOM     45  C   UNL A   1      37.664  28.975  30.085  1.00  0.00     0.009 A 
ATOM     46  C   UNL A   1      36.649  30.255  27.823  1.00  0.00     0.001 A 
ATOM     47  C   UNL A   1      36.356  29.474  30.085  1.00  0.00     0.001 A 
ATOM     48  C   UNL A   1      35.854  30.125  28.960  1.00  0.00     0.000 A 
ENDBRANCH  24  43
BRANCH  36  49
ATOM     49  C   UNL A   1      44.413  32.387  30.544  1.00  0.00    -0.014 A 
ATOM     50  C   UNL A   1      44.515  33.352  29.533  1.00  0.00     0.009 A 
ATOM     51  C   UNL A   1      44.525  32.785  31.887  1.00  0.00     0.009 A 
ATOM     52  C   UNL A   1      44.750  34.688  29.862  1.00  0.00     0.001 A 
ATOM     53  C   UNL A   1      44.720  34.126  32.213  1.00  0.00     0.001 A 
ATOM     54  C   UNL A   1      44.842  35.074  31.199  1.00  0.00     0.000 A 
ENDBRANCH  36  49
ENDBRANCH  10  11
ENDBRANCH   3   5
ENDBRANCH   2   3
ENDBRANCH   1   2
BRANCH   1  55
ATOM     55  C   UNL A   1      38.357  21.254  25.724  1.00  0.00     0.274 C 
BRANCH  55  56
ATOM     56  O   UNL A   1      37.084  21.750  25.244  1.00  0.00    -0.462 OA
BRANCH  56  57
ATOM     57  C   UNL A   1      36.736  23.011  25.643  1.00  0.00     0.309 C 
ATOM     58  O   UNL A   1      37.534  23.933  25.771  1.00  0.00    -0.252 OA
BRANCH  57  59
ATOM     59  C   UNL A   1      35.245  23.170  25.965  1.00  0.00     0.100 C 
ATOM     60  C   UNL A   1      34.723  22.049  26.856  1.00  0.00     0.015 C 
ATOM     61  C   UNL A   1      34.380  23.262  24.716  1.00  0.00     0.028 C 
ATOM     62  C   UNL A   1      33.260  22.297  27.228  1.00  0.00     0.002 C 
ATOM     63  C   UNL A   1      32.867  23.455  24.949  1.00  0.00     0.079 C 
ATOM     64  C   UNL A   1      32.333  22.503  26.026  1.00  0.00     0.013 C 
BRANCH  63  65
ATOM     65  C   UNL A   1      32.557  24.909  25.277  1.00  0.00     0.225 C 
ATOM     66  O   UNL A   1      33.052  25.484  26.245  1.00  0.00    -0.275 OA
BRANCH  65  67
ATOM     67  N   UNL A   1      31.865  25.608  24.312  1.00  0.00    -0.339 N 
ATOM     68  C   UNL A   1      30.432  25.488  23.983  1.00  0.00     0.141 C 
ATOM     69  C   UNL A   1      32.652  26.508  23.486  1.00  0.00     0.146 C 
ATOM     70  C   UNL A   1      29.745  26.825  23.570  1.00  0.00     0.143 C 
ATOM     71  C   UNL A   1      32.035  27.882  23.521  1.00  0.00     0.125 C 
ATOM     72  N   UNL A   1      30.667  27.820  23.046  1.00  0.00    -0.317 N 
ATOM     73  C   UNL A   1      32.687  28.880  22.583  1.00  0.00     0.144 C 
ATOM     74  C   UNL A   1      30.366  28.937  22.284  1.00  0.00     0.317 C 
ATOM     75  N   UNL A   1      31.563  29.617  22.069  1.00  0.00    -0.336 N 
ATOM     76  O   UNL A   1      29.280  29.281  21.868  1.00  0.00    -0.249 OA
ATOM     77  H   UNL A   1      31.631  30.491  21.622  1.00  0.00     0.165 HD
ENDBRANCH  65  67
ENDBRANCH  63  65
ENDBRANCH  57  59
ENDBRANCH  56  57
ENDBRANCH  55  56
ENDBRANCH   1  55
TORSDOF 13
ENDMDL
MODEL 3
REMARK VINA RESULT:     -11.2      4.146      9.923
REMARK SMILES O=C(OCCOC(=O)[C@@H]1CCC[C@@H](C(=O)N2CCN3C(=O)NC[C@@H]3C2)C1)c1ccc(-c2c3nc(c(-c4ccccc4)c4ccc([nH]4)c(-c4ccccc4)c4nc(c(-c5ccccc5)c5ccc2[nH]5)C=C4)C=C3)cc1
REMARK SMILES IDX 4 1 3 2 2 3 1 4 27 5 28 6 74 7 29 8 73 9 30 10 31 11 32 12
REMARK SMILES IDX 67 13 33 14 72 15 66 16 68 17 34 18 71 19 65 20 64 21 35 23
REMARK SMILES IDX 57 24 42 25 56 26 43 27 46 28 55 29 69 30 44 31 45 32 54 34
REMARK SMILES IDX 70 35 47 36 36 37 37 38 41 39 38 40 40 41 39 42 58 43 59 44
REMARK SMILES IDX 63 45 60 46 62 47 61 48 48 49 49 50 53 51 50 52 52 53 51 54
REMARK SMILES IDX 5 55 6 56 7 57 8 58 9 59 10 60 26 61 11 62 13 63 12 64 14 65
REMARK SMILES IDX 15 66 16 67 17 68 25 69 18 70 24 71 19 72 23 73 20 74 22 75
REMARK SMILES IDX 21 76
REMARK H PARENT 68 22 46 33 22 77
REMARK Flexibility Score: inf
ROOT
ATOM      1  C   UNL A   1      38.787  19.206  25.762  1.00  0.00     0.275 C 
ENDROOT
BRANCH   1   2
ATOM      2  O   UNL A   1      40.179  19.067  25.469  1.00  0.00    -0.458 OA
BRANCH   2   3
ATOM      3  C   UNL A   1      41.240  19.584  26.122  1.00  0.00     0.338 C 
ATOM      4  O   UNL A   1      42.201  18.841  26.326  1.00  0.00    -0.246 OA
BRANCH   3   5
ATOM      5  C   UNL A   1      41.287  20.960  26.731  1.00  0.00     0.060 A 
ATOM      6  C   UNL A   1      41.793  21.346  27.978  1.00  0.00     0.016 A 
ATOM      7  C   UNL A   1      40.887  21.988  25.865  1.00  0.00     0.016 A 
ATOM      8  C   UNL A   1      42.046  22.693  28.286  1.00  0.00     0.010 A 
ATOM      9  C   UNL A   1      41.214  23.317  26.130  1.00  0.00     0.010 A 
ATOM     10  C   UNL A   1      41.822  23.685  27.340  1.00  0.00    -0.014 A 
BRANCH  10  11
ATOM     11  C   UNL A   1      42.133  25.114  27.605  1.00  0.00     0.031 A 
ATOM     12  C   UNL A   1      43.507  25.599  27.244  1.00  0.00     0.074 A 
ATOM     13  C   UNL A   1      41.257  25.947  28.211  1.00  0.00     0.049 A 
ATOM     14  N   UNL A   1      44.056  26.764  27.455  1.00  0.00    -0.248 NA
ATOM     15  C   UNL A   1      44.396  24.627  26.577  1.00  0.00     0.031 C 
ATOM     16  C   UNL A   1      39.889  25.617  28.621  1.00  0.00     0.029 A 
ATOM     17  N   UNL A   1      41.410  27.246  28.635  1.00  0.00    -0.354 N 
ATOM     18  C   UNL A   1      45.330  26.659  26.919  1.00  0.00     0.074 A 
ATOM     19  C   UNL A   1      45.542  25.278  26.563  1.00  0.00     0.031 C 
ATOM     20  C   UNL A   1      39.358  26.654  29.297  1.00  0.00     0.029 A 
ATOM     21  C   UNL A   1      40.334  27.735  29.345  1.00  0.00     0.049 A 
ATOM     22  H   UNL A   1      42.215  27.780  28.449  1.00  0.00     0.167 HD
ATOM     23  C   UNL A   1      46.206  27.642  26.620  1.00  0.00     0.031 A 
ATOM     24  C   UNL A   1      40.160  28.924  29.956  1.00  0.00     0.031 A 
ATOM     25  C   UNL A   1      45.983  29.017  26.944  1.00  0.00     0.049 A 
ATOM     26  C   UNL A   1      41.215  29.983  29.764  1.00  0.00     0.074 A 
ATOM     27  C   UNL A   1      46.764  30.114  26.644  1.00  0.00     0.029 A 
ATOM     28  N   UNL A   1      44.886  29.475  27.656  1.00  0.00    -0.354 N 
ATOM     29  N   UNL A   1      42.356  29.904  29.122  1.00  0.00    -0.248 NA
ATOM     30  C   UNL A   1      40.925  31.316  30.312  1.00  0.00     0.031 C 
ATOM     31  C   UNL A   1      46.164  31.235  27.227  1.00  0.00     0.029 A 
ATOM     32  C   UNL A   1      44.980  30.840  27.835  1.00  0.00     0.049 A 
ATOM     33  H   UNL A   1      44.148  28.911  27.985  1.00  0.00     0.167 HD
ATOM     34  C   UNL A   1      42.877  31.192  29.114  1.00  0.00     0.074 A 
ATOM     35  C   UNL A   1      41.938  32.026  29.835  1.00  0.00     0.031 C 
ATOM     36  C   UNL A   1      44.015  31.649  28.535  1.00  0.00     0.031 A 
BRANCH  23  37
ATOM     37  C   UNL A   1      47.431  27.222  25.861  1.00  0.00    -0.014 A 
ATOM     38  C   UNL A   1      48.592  26.816  26.548  1.00  0.00     0.009 A 
ATOM     39  C   UNL A   1      47.466  27.323  24.466  1.00  0.00     0.009 A 
ATOM     40  C   UNL A   1      49.784  26.598  25.859  1.00  0.00     0.001 A 
ATOM     41  C   UNL A   1      48.652  27.064  23.775  1.00  0.00     0.001 A 
ATOM     42  C   UNL A   1      49.813  26.723  24.472  1.00  0.00     0.000 A 
ENDBRANCH  23  37
BRANCH  24  43
ATOM     43  C   UNL A   1      38.926  29.227  30.738  1.00  0.00    -0.014 A 
ATOM     44  C   UNL A   1      37.794  29.768  30.108  1.00  0.00     0.009 A 
ATOM     45  C   UNL A   1      38.898  29.048  32.130  1.00  0.00     0.009 A 
ATOM     46  C   UNL A   1      36.681  30.166  30.856  1.00  0.00     0.001 A 
ATOM     47  C   UNL A   1      37.774  29.428  32.875  1.00  0.00     0.001 A 
ATOM     48  C   UNL A   1      36.673  29.998  32.240  1.00  0.00     0.000 A 
ENDBRANCH  24  43
BRANCH  36  49
ATOM     49  C   UNL A   1      44.270  33.127  28.582  1.00  0.00    -0.014 A 
ATOM     50  C   UNL A   1      45.027  33.711  29.607  1.00  0.00     0.009 A 
ATOM     51  C   UNL A   1      43.803  33.933  27.530  1.00  0.00     0.009 A 
ATOM     52  C   UNL A   1      45.289  35.083  29.589  1.00  0.00     0.001 A 
ATOM     53  C   UNL A   1      44.100  35.294  27.496  1.00  0.00     0.001 A 
ATOM     54  C   UNL A   1      44.835  35.868  28.530  1.00  0.00     0.000 A 
ENDBRANCH  36  49
ENDBRANCH  10  11
ENDBRANCH   3   5
ENDBRANCH   2   3
ENDBRANCH   1   2
BRANCH   1  55
ATOM     55  C   UNL A   1      37.983  19.916  24.664  1.00  0.00     0.274 C 
BRANCH  55  56
ATOM     56  O   UNL A   1      37.103  20.969  25.126  1.00  0.00    -0.462 OA
BRANCH  56  57
ATOM     57  C   UNL A   1      35.761  20.735  25.000  1.00  0.00     0.309 C 
ATOM     58  O   UNL A   1      35.270  19.620  24.859  1.00  0.00    -0.252 OA
BRANCH  57  59
ATOM     59  C   UNL A   1      34.906  22.009  25.004  1.00  0.00     0.100 C 
ATOM     60  C   UNL A   1      35.747  23.269  24.838  1.00  0.00     0.015 C 
ATOM     61  C   UNL A   1      34.051  22.139  26.257  1.00  0.00     0.028 C 
ATOM     62  C   UNL A   1      34.849  24.505  24.754  1.00  0.00     0.002 C 
ATOM     63  C   UNL A   1      33.135  23.378  26.330  1.00  0.00     0.079 C 
ATOM     64  C   UNL A   1      33.880  24.658  25.931  1.00  0.00     0.013 C 
BRANCH  63  65
ATOM     65  C   UNL A   1      31.883  23.168  25.490  1.00  0.00     0.225 C 
ATOM     66  O   UNL A   1      31.381  22.057  25.325  1.00  0.00    -0.275 OA
BRANCH  65  67
ATOM     67  N   UNL A   1      31.220  24.312  25.104  1.00  0.00    -0.339 N 
ATOM     68  C   UNL A   1      30.544  25.288  25.981  1.00  0.00     0.141 C 
ATOM     69  C   UNL A   1      31.118  24.540  23.672  1.00  0.00     0.146 C 
ATOM     70  C   UNL A   1      30.649  26.769  25.508  1.00  0.00     0.143 C 
ATOM     71  C   UNL A   1      31.638  25.917  23.350  1.00  0.00     0.125 C 
ATOM     72  N   UNL A   1      30.881  26.914  24.079  1.00  0.00    -0.317 N 
ATOM     73  C   UNL A   1      31.454  26.327  21.901  1.00  0.00     0.144 C 
ATOM     74  C   UNL A   1      30.676  28.039  23.297  1.00  0.00     0.317 C 
ATOM     75  N   UNL A   1      31.091  27.716  22.007  1.00  0.00    -0.336 N 
ATOM     76  O   UNL A   1      30.224  29.110  23.640  1.00  0.00    -0.249 OA
ATOM     77  H   UNL A   1      31.130  28.357  21.261  1.00  0.00     0.165 HD
ENDBRANCH  65  67
ENDBRANCH  63  65
ENDBRANCH  57  59
ENDBRANCH  56  57
ENDBRANCH  55  56
ENDBRANCH   1  55
TORSDOF 13
ENDMDL
