MODEL 1
REMARK VINA RESULT:     -10.9      0.000      0.000
REMARK SMILES CC[C@@H](C(=O)OCCOC(=O)c1ccc(-c2c3nc(c(-c4ccccc4)c4ccc([nH]4)c(-c4ccccc4)c4nc(c(-c5ccccc5)c5ccc2[nH]5)C=C4)C=C3)cc1)N1CCN(Cc2cccc(C)c2)C(=O)C1=O
REMARK SMILES IDX 7 1 6 2 4 3 5 4 3 5 2 6 1 7 60 8 61 9 74 10 62 11 72 12
REMARK SMILES IDX 75 13 63 14 73 15 64 16 65 17 66 18 71 19 67 20 69 21 68 22
REMARK SMILES IDX 70 23 8 24 9 25 10 26 11 27 12 28 13 29 59 30 14 31 58 32
REMARK SMILES IDX 15 33 16 34 17 35 52 36 18 37 57 38 51 39 53 40 19 41 56 42
REMARK SMILES IDX 50 43 49 44 20 46 42 47 27 48 41 49 28 50 31 51 40 52 54 53
REMARK SMILES IDX 29 54 30 55 39 57 55 58 32 59 21 60 22 61 26 62 23 63 25 64
REMARK SMILES IDX 24 65 43 66 44 67 48 68 45 69 47 70 46 71 33 72 34 73 38 74
REMARK SMILES IDX 35 75 37 76 36 77
REMARK H PARENT 53 45 31 56
REMARK Flexibility Score: inf
ROOT
ATOM      1  C   UNL A   1      34.388  21.129  25.095  1.00  0.00     0.274 C 
ENDROOT
BRANCH   1   2
ATOM      2  O   UNL A   1      34.387  22.479  25.584  1.00  0.00    -0.461 OA
BRANCH   2   3
ATOM      3  C   UNL A   1      34.175  23.437  24.640  1.00  0.00     0.328 C 
ATOM      4  O   UNL A   1      35.022  23.857  23.861  1.00  0.00    -0.250 OA
BRANCH   3   5
ATOM      5  C   UNL A   1      32.712  23.942  24.681  1.00  0.00     0.195 C 
BRANCH   5   6
ATOM      6  C   UNL A   1      32.009  23.623  23.331  1.00  0.00     0.034 C 
ATOM      7  C   UNL A   1      30.536  24.010  23.286  1.00  0.00     0.007 C 
ENDBRANCH   5   6
BRANCH   5   8
ATOM      8  N   UNL A   1      32.475  25.358  25.099  1.00  0.00    -0.319 N 
ATOM      9  C   UNL A   1      32.984  26.416  24.239  1.00  0.00     0.142 C 
ATOM     10  C   UNL A   1      31.768  25.687  26.261  1.00  0.00     0.312 C 
ATOM     11  C   UNL A   1      32.242  27.735  24.371  1.00  0.00     0.142 C 
ATOM     12  C   UNL A   1      31.675  27.194  26.668  1.00  0.00     0.312 C 
ATOM     13  O   UNL A   1      31.267  24.854  27.007  1.00  0.00    -0.263 OA
ATOM     14  N   UNL A   1      32.136  28.153  25.753  1.00  0.00    -0.328 N 
ATOM     15  O   UNL A   1      31.226  27.485  27.770  1.00  0.00    -0.263 OA
BRANCH  14  16
ATOM     16  C   UNL A   1      32.000  29.569  26.132  1.00  0.00     0.155 C 
BRANCH  16  17
ATOM     17  C   UNL A   1      33.185  30.206  26.826  1.00  0.00    -0.028 A 
ATOM     18  C   UNL A   1      33.089  31.481  27.402  1.00  0.00     0.005 A 
ATOM     19  C   UNL A   1      34.424  29.546  26.876  1.00  0.00     0.009 A 
ATOM     20  C   UNL A   1      34.193  32.059  28.036  1.00  0.00     0.001 A 
ATOM     21  C   UNL A   1      35.510  30.078  27.582  1.00  0.00    -0.051 A 
ATOM     22  C   UNL A   1      35.394  31.355  28.139  1.00  0.00     0.003 A 
ATOM     23  C   UNL A   1      36.782  29.297  27.721  1.00  0.00     0.044 C 
ENDBRANCH  16  17
ENDBRANCH  14  16
ENDBRANCH   5   8
ENDBRANCH   3   5
ENDBRANCH   2   3
ENDBRANCH   1   2
BRANCH   1  24
ATOM     24  C   UNL A   1      35.830  20.623  25.010  1.00  0.00     0.275 C 
BRANCH  24  25
ATOM     25  O   UNL A   1      36.704  21.486  25.763  1.00  0.00    -0.458 OA
BRANCH  25  26
ATOM     26  C   UNL A   1      38.015  21.148  25.709  1.00  0.00     0.338 C 
ATOM     27  O   UNL A   1      38.511  20.145  25.226  1.00  0.00    -0.246 OA
BRANCH  26  28
ATOM     28  C   UNL A   1      38.820  22.294  26.155  1.00  0.00     0.060 A 
ATOM     29  C   UNL A   1      38.304  23.566  25.902  1.00  0.00     0.016 A 
ATOM     30  C   UNL A   1      40.075  22.142  26.748  1.00  0.00     0.016 A 
ATOM     31  C   UNL A   1      39.034  24.696  26.256  1.00  0.00     0.010 A 
ATOM     32  C   UNL A   1      40.809  23.282  27.102  1.00  0.00     0.010 A 
ATOM     33  C   UNL A   1      40.290  24.566  26.862  1.00  0.00    -0.014 A 
BRANCH  33  34
ATOM     34  C   UNL A   1      41.066  25.793  27.164  1.00  0.00     0.031 A 
ATOM     35  C   UNL A   1      40.563  26.750  28.201  1.00  0.00     0.074 A 
ATOM     36  C   UNL A   1      42.269  25.997  26.596  1.00  0.00     0.049 A 
ATOM     37  N   UNL A   1      41.082  27.884  28.600  1.00  0.00    -0.248 NA
ATOM     38  C   UNL A   1      39.322  26.373  28.893  1.00  0.00     0.031 C 
ATOM     39  C   UNL A   1      42.923  25.084  25.663  1.00  0.00     0.029 A 
ATOM     40  N   UNL A   1      43.172  27.020  26.754  1.00  0.00    -0.354 N 
ATOM     41  C   UNL A   1      40.210  28.377  29.560  1.00  0.00     0.074 A 
ATOM     42  C   UNL A   1      39.142  27.408  29.701  1.00  0.00     0.031 C 
ATOM     43  C   UNL A   1      44.144  25.561  25.370  1.00  0.00     0.029 A 
ATOM     44  C   UNL A   1      44.326  26.850  26.028  1.00  0.00     0.049 A 
ATOM     45  H   UNL A   1      43.008  27.800  27.332  1.00  0.00     0.167 HD
ATOM     46  C   UNL A   1      40.277  29.546  30.240  1.00  0.00     0.031 A 
ATOM     47  C   UNL A   1      45.397  27.657  25.887  1.00  0.00     0.031 A 
ATOM     48  C   UNL A   1      41.320  30.523  30.078  1.00  0.00     0.049 A 
ATOM     49  C   UNL A   1      45.399  28.994  26.581  1.00  0.00     0.074 A 
ATOM     50  C   UNL A   1      41.436  31.769  30.671  1.00  0.00     0.029 A 
ATOM     51  N   UNL A   1      42.425  30.367  29.255  1.00  0.00    -0.354 N 
ATOM     52  N   UNL A   1      44.536  29.484  27.439  1.00  0.00    -0.248 NA
ATOM     53  C   UNL A   1      46.513  29.902  26.266  1.00  0.00     0.031 C 
ATOM     54  C   UNL A   1      42.586  32.388  30.167  1.00  0.00     0.029 A 
ATOM     55  C   UNL A   1      43.217  31.502  29.308  1.00  0.00     0.049 A 
ATOM     56  H   UNL A   1      42.618  29.568  28.714  1.00  0.00     0.167 HD
ATOM     57  C   UNL A   1      45.004  30.751  27.766  1.00  0.00     0.074 A 
ATOM     58  C   UNL A   1      46.244  30.941  27.044  1.00  0.00     0.031 C 
ATOM     59  C   UNL A   1      44.448  31.680  28.582  1.00  0.00     0.031 A 
BRANCH  46  60
ATOM     60  C   UNL A   1      39.126  29.869  31.149  1.00  0.00    -0.014 A 
ATOM     61  C   UNL A   1      39.070  29.391  32.468  1.00  0.00     0.009 A 
ATOM     62  C   UNL A   1      38.073  30.661  30.665  1.00  0.00     0.009 A 
ATOM     63  C   UNL A   1      37.962  29.671  33.270  1.00  0.00     0.001 A 
ATOM     64  C   UNL A   1      36.980  30.960  31.478  1.00  0.00     0.001 A 
ATOM     65  C   UNL A   1      36.919  30.456  32.775  1.00  0.00     0.000 A 
ENDBRANCH  46  60
BRANCH  47  66
ATOM     66  C   UNL A   1      46.533  27.268  25.007  1.00  0.00    -0.014 A 
ATOM     67  C   UNL A   1      47.423  26.252  25.388  1.00  0.00     0.009 A 
ATOM     68  C   UNL A   1      46.762  27.946  23.799  1.00  0.00     0.009 A 
ATOM     69  C   UNL A   1      48.530  25.942  24.593  1.00  0.00     0.001 A 
ATOM     70  C   UNL A   1      47.848  27.611  22.988  1.00  0.00     0.001 A 
ATOM     71  C   UNL A   1      48.739  26.618  23.391  1.00  0.00     0.000 A 
ENDBRANCH  47  66
BRANCH  59  72
ATOM     72  C   UNL A   1      45.187  32.977  28.755  1.00  0.00    -0.014 A 
ATOM     73  C   UNL A   1      46.182  33.122  29.735  1.00  0.00     0.009 A 
ATOM     74  C   UNL A   1      44.919  34.054  27.895  1.00  0.00     0.009 A 
ATOM     75  C   UNL A   1      46.872  34.329  29.868  1.00  0.00     0.001 A 
ATOM     76  C   UNL A   1      45.630  35.249  28.012  1.00  0.00     0.001 A 
ATOM     77  C   UNL A   1      46.600  35.389  29.003  1.00  0.00     0.000 A 
ENDBRANCH  59  72
ENDBRANCH  33  34
ENDBRANCH  26  28
ENDBRANCH  25  26
ENDBRANCH  24  25
ENDBRANCH   1  24
TORSDOF 15
ENDMDL
MODEL 2
REMARK VINA RESULT:     -10.8      5.249     10.262
REMARK SMILES CC[C@@H](C(=O)OCCOC(=O)c1ccc(-c2c3nc(c(-c4ccccc4)c4ccc([nH]4)c(-c4ccccc4)c4nc(c(-c5ccccc5)c5ccc2[nH]5)C=C4)C=C3)cc1)N1CCN(Cc2cccc(C)c2)C(=O)C1=O
REMARK SMILES IDX 7 1 6 2 4 3 5 4 3 5 2 6 1 7 60 8 61 9 74 10 62 11 72 12
REMARK SMILES IDX 75 13 63 14 73 15 64 16 65 17 66 18 71 19 67 20 69 21 68 22
REMARK SMILES IDX 70 23 8 24 9 25 10 26 11 27 12 28 13 29 59 30 14 31 58 32
REMARK SMILES IDX 15 33 16 34 17 35 52 36 18 37 57 38 51 39 53 40 19 41 56 42
REMARK SMILES IDX 50 43 49 44 20 46 42 47 27 48 41 49 28 50 31 51 40 52 54 53
REMARK SMILES IDX 29 54 30 55 39 57 55 58 32 59 21 60 22 61 26 62 23 63 25 64
REMARK SMILES IDX 24 65 43 66 44 67 48 68 45 69 47 70 46 71 33 72 34 73 38 74
REMARK SMILES IDX 35 75 37 76 36 77
REMARK H PARENT 53 45 31 56
REMARK Flexibility Score: inf
ROOT
ATOM      1  C   UNL A   1      33.661  35.012  28.385  1.00  0.00     0.274 C 
ENDROOT
BRANCH   1   2
ATOM      2  O   UNL A   1      34.166  35.148  29.721  1.00  0.00    -0.461 OA
BRANCH   2   3
ATOM      3  C   UNL A   1      33.461  35.991  30.525  1.00  0.00     0.328 C 
ATOM      4  O   UNL A   1      33.173  37.150  30.249  1.00  0.00    -0.250 OA
BRANCH   3   5
ATOM      5  C   UNL A   1      33.070  35.296  31.852  1.00  0.00     0.195 C 
BRANCH   5   6
ATOM      6  C   UNL A   1      32.301  36.296  32.761  1.00  0.00     0.034 C 
ATOM      7  C   UNL A   1      30.825  35.967  32.944  1.00  0.00     0.007 C 
ENDBRANCH   5   6
BRANCH   5   8
ATOM      8  N   UNL A   1      34.147  34.586  32.610  1.00  0.00    -0.319 N 
ATOM      9  C   UNL A   1      34.811  35.307  33.686  1.00  0.00     0.142 C 
ATOM     10  C   UNL A   1      34.509  33.263  32.333  1.00  0.00     0.312 C 
ATOM     11  C   UNL A   1      35.421  34.411  34.751  1.00  0.00     0.142 C 
ATOM     12  C   UNL A   1      35.724  32.652  33.106  1.00  0.00     0.312 C 
ATOM     13  O   UNL A   1      33.962  32.577  31.478  1.00  0.00    -0.263 OA
ATOM     14  N   UNL A   1      36.266  33.389  34.169  1.00  0.00    -0.328 N 
ATOM     15  O   UNL A   1      36.171  31.569  32.748  1.00  0.00    -0.263 OA
BRANCH  14  16
ATOM     16  C   UNL A   1      37.379  32.780  34.915  1.00  0.00     0.155 C 
BRANCH  16  17
ATOM     17  C   UNL A   1      38.145  33.685  35.856  1.00  0.00    -0.028 A 
ATOM     18  C   UNL A   1      38.018  33.558  37.247  1.00  0.00     0.005 A 
ATOM     19  C   UNL A   1      38.975  34.702  35.355  1.00  0.00     0.009 A 
ATOM     20  C   UNL A   1      38.728  34.403  38.105  1.00  0.00     0.001 A 
ATOM     21  C   UNL A   1      39.756  35.496  36.204  1.00  0.00    -0.051 A 
ATOM     22  C   UNL A   1      39.604  35.359  37.586  1.00  0.00     0.003 A 
ATOM     23  C   UNL A   1      40.723  36.491  35.637  1.00  0.00     0.044 C 
ENDBRANCH  16  17
ENDBRANCH  14  16
ENDBRANCH   5   8
ENDBRANCH   3   5
ENDBRANCH   2   3
ENDBRANCH   1   2
BRANCH   1  24
ATOM     24  C   UNL A   1      33.472  33.527  28.064  1.00  0.00     0.275 C 
BRANCH  24  25
ATOM     25  O   UNL A   1      34.742  32.849  28.089  1.00  0.00    -0.458 OA
BRANCH  25  26
ATOM     26  C   UNL A   1      34.660  31.499  28.181  1.00  0.00     0.338 C 
ATOM     27  O   UNL A   1      33.751  30.777  27.810  1.00  0.00    -0.246 OA
BRANCH  26  28
ATOM     28  C   UNL A   1      35.956  30.973  28.632  1.00  0.00     0.060 A 
ATOM     29  C   UNL A   1      35.933  29.809  29.400  1.00  0.00     0.016 A 
ATOM     30  C   UNL A   1      37.161  31.627  28.369  1.00  0.00     0.016 A 
ATOM     31  C   UNL A   1      37.120  29.280  29.899  1.00  0.00     0.010 A 
ATOM     32  C   UNL A   1      38.355  31.094  28.873  1.00  0.00     0.010 A 
ATOM     33  C   UNL A   1      38.340  29.914  29.638  1.00  0.00    -0.014 A 
BRANCH  33  34
ATOM     34  C   UNL A   1      39.576  29.358  30.242  1.00  0.00     0.031 A 
ATOM     35  C   UNL A   1      40.314  28.261  29.537  1.00  0.00     0.074 A 
ATOM     36  C   UNL A   1      40.097  29.904  31.355  1.00  0.00     0.049 A 
ATOM     37  N   UNL A   1      41.400  27.628  29.903  1.00  0.00    -0.248 NA
ATOM     38  C   UNL A   1      39.767  27.830  28.243  1.00  0.00     0.031 C 
ATOM     39  C   UNL A   1      39.542  31.050  32.068  1.00  0.00     0.029 A 
ATOM     40  N   UNL A   1      41.235  29.591  32.058  1.00  0.00    -0.354 N 
ATOM     41  C   UNL A   1      41.645  26.696  28.905  1.00  0.00     0.074 A 
ATOM     42  C   UNL A   1      40.609  26.862  27.906  1.00  0.00     0.031 C 
ATOM     43  C   UNL A   1      40.365  31.378  33.078  1.00  0.00     0.029 A 
ATOM     44  C   UNL A   1      41.462  30.417  33.133  1.00  0.00     0.049 A 
ATOM     45  H   UNL A   1      41.831  28.846  31.815  1.00  0.00     0.167 HD
ATOM     46  C   UNL A   1      42.627  25.766  28.841  1.00  0.00     0.031 A 
ATOM     47  C   UNL A   1      42.428  30.385  34.071  1.00  0.00     0.031 A 
ATOM     48  C   UNL A   1      43.638  25.580  29.847  1.00  0.00     0.049 A 
ATOM     49  C   UNL A   1      43.451  29.280  34.027  1.00  0.00     0.074 A 
ATOM     50  C   UNL A   1      44.632  24.618  29.904  1.00  0.00     0.029 A 
ATOM     51  N   UNL A   1      43.779  26.368  30.978  1.00  0.00    -0.354 N 
ATOM     52  N   UNL A   1      43.637  28.358  33.113  1.00  0.00    -0.248 NA
ATOM     53  C   UNL A   1      44.383  29.195  35.163  1.00  0.00     0.031 C 
ATOM     54  C   UNL A   1      45.343  24.794  31.097  1.00  0.00     0.029 A 
ATOM     55  C   UNL A   1      44.830  25.903  31.751  1.00  0.00     0.049 A 
ATOM     56  H   UNL A   1      43.216  27.145  31.199  1.00  0.00     0.167 HD
ATOM     57  C   UNL A   1      44.706  27.590  33.560  1.00  0.00     0.074 A 
ATOM     58  C   UNL A   1      45.149  28.173  34.808  1.00  0.00     0.031 C 
ATOM     59  C   UNL A   1      45.260  26.490  32.993  1.00  0.00     0.031 A 
BRANCH  46  60
ATOM     60  C   UNL A   1      42.583  24.813  27.681  1.00  0.00    -0.014 A 
ATOM     61  C   UNL A   1      43.263  25.077  26.482  1.00  0.00     0.009 A 
ATOM     62  C   UNL A   1      41.836  23.630  27.795  1.00  0.00     0.009 A 
ATOM     63  C   UNL A   1      43.162  24.191  25.407  1.00  0.00     0.001 A 
ATOM     64  C   UNL A   1      41.758  22.735  26.728  1.00  0.00     0.001 A 
ATOM     65  C   UNL A   1      42.411  23.021  25.532  1.00  0.00     0.000 A 
ENDBRANCH  46  60
BRANCH  47  66
ATOM     66  C   UNL A   1      42.451  31.383  35.176  1.00  0.00    -0.014 A 
ATOM     67  C   UNL A   1      41.694  31.181  36.341  1.00  0.00     0.009 A 
ATOM     68  C   UNL A   1      43.193  32.567  35.051  1.00  0.00     0.009 A 
ATOM     69  C   UNL A   1      41.661  32.156  37.343  1.00  0.00     0.001 A 
ATOM     70  C   UNL A   1      43.186  33.524  36.069  1.00  0.00     0.001 A 
ATOM     71  C   UNL A   1      42.411  33.324  37.209  1.00  0.00     0.000 A 
ENDBRANCH  47  66
BRANCH  59  72
ATOM     72  C   UNL A   1      46.423  25.859  33.706  1.00  0.00    -0.014 A 
ATOM     73  C   UNL A   1      46.226  24.900  34.712  1.00  0.00     0.009 A 
ATOM     74  C   UNL A   1      47.735  26.193  33.332  1.00  0.00     0.009 A 
ATOM     75  C   UNL A   1      47.321  24.309  35.348  1.00  0.00     0.001 A 
ATOM     76  C   UNL A   1      48.826  25.580  33.950  1.00  0.00     0.001 A 
ATOM     77  C   UNL A   1      48.618  24.645  34.964  1.00  0.00     0.000 A 
ENDBRANCH  59  72
ENDBRANCH  33  34
ENDBRANCH  26  28
ENDBRANCH  25  26
ENDBRANCH  24  25
ENDBRANCH   1  24
TORSDOF 15
ENDMDL
MODEL 3
REMARK VINA RESULT:     -10.5      3.227      8.695
REMARK SMILES CC[C@@H](C(=O)OCCOC(=O)c1ccc(-c2c3nc(c(-c4ccccc4)c4ccc([nH]4)c(-c4ccccc4)c4nc(c(-c5ccccc5)c5ccc2[nH]5)C=C4)C=C3)cc1)N1CCN(Cc2cccc(C)c2)C(=O)C1=O
REMARK SMILES IDX 7 1 6 2 4 3 5 4 3 5 2 6 1 7 60 8 61 9 74 10 62 11 72 12
REMARK SMILES IDX 75 13 63 14 73 15 64 16 65 17 66 18 71 19 67 20 69 21 68 22
REMARK SMILES IDX 70 23 8 24 9 25 10 26 11 27 12 28 13 29 59 30 14 31 58 32
REMARK SMILES IDX 15 33 16 34 17 35 52 36 18 37 57 38 51 39 53 40 19 41 56 42
REMARK SMILES IDX 50 43 49 44 20 46 42 47 27 48 41 49 28 50 31 51 40 52 54 53
REMARK SMILES IDX 29 54 30 55 39 57 55 58 32 59 21 60 22 61 26 62 23 63 25 64
REMARK SMILES IDX 24 65 43 66 44 67 48 68 45 69 47 70 46 71 33 72 34 73 38 74
REMARK SMILES IDX 35 75 37 76 36 77
REMARK H PARENT 53 45 31 56
REMARK Flexibility Score: inf
ROOT
ATOM      1  C   UNL A   1      31.858  28.449  24.585  1.00  0.00     0.274 C 
ENDROOT
BRANCH   1   2
ATOM      2  O   UNL A   1      32.819  27.547  25.152  1.00  0.00    -0.461 OA
BRANCH   2   3
ATOM      3  C   UNL A   1      32.303  26.391  25.655  1.00  0.00     0.328 C 
ATOM      4  O   UNL A   1      31.866  26.252  26.791  1.00  0.00    -0.250 OA
BRANCH   3   5
ATOM      5  C   UNL A   1      32.347  25.259  24.600  1.00  0.00     0.195 C 
BRANCH   5   6
ATOM      6  C   UNL A   1      31.021  24.449  24.645  1.00  0.00     0.034 C 
ATOM      7  C   UNL A   1      30.688  23.721  23.349  1.00  0.00     0.007 C 
ENDBRANCH   5   6
BRANCH   5   8
ATOM      8  N   UNL A   1      33.539  24.356  24.596  1.00  0.00    -0.319 N 
ATOM      9  C   UNL A   1      33.846  23.629  25.818  1.00  0.00     0.142 C 
ATOM     10  C   UNL A   1      34.338  24.176  23.460  1.00  0.00     0.312 C 
ATOM     11  C   UNL A   1      34.639  22.351  25.599  1.00  0.00     0.142 C 
ATOM     12  C   UNL A   1      35.626  23.300  23.595  1.00  0.00     0.312 C 
ATOM     13  O   UNL A   1      34.113  24.714  22.383  1.00  0.00    -0.263 OA
ATOM     14  N   UNL A   1      35.815  22.584  24.787  1.00  0.00    -0.328 N 
ATOM     15  O   UNL A   1      36.432  23.283  22.672  1.00  0.00    -0.263 OA
BRANCH  14  16
ATOM     16  C   UNL A   1      37.009  21.729  24.880  1.00  0.00     0.155 C 
BRANCH  16  17
ATOM     17  C   UNL A   1      38.144  22.235  25.744  1.00  0.00    -0.028 A 
ATOM     18  C   UNL A   1      39.258  21.430  26.023  1.00  0.00     0.005 A 
ATOM     19  C   UNL A   1      38.089  23.516  26.320  1.00  0.00     0.009 A 
ATOM     20  C   UNL A   1      40.297  21.908  26.827  1.00  0.00     0.001 A 
ATOM     21  C   UNL A   1      39.162  24.035  27.054  1.00  0.00    -0.051 A 
ATOM     22  C   UNL A   1      40.256  23.210  27.329  1.00  0.00     0.003 A 
ATOM     23  C   UNL A   1      39.127  25.448  27.554  1.00  0.00     0.044 C 
ENDBRANCH  16  17
ENDBRANCH  14  16
ENDBRANCH   5   8
ENDBRANCH   3   5
ENDBRANCH   2   3
ENDBRANCH   1   2
BRANCH   1  24
ATOM     24  C   UNL A   1      31.856  29.755  25.385  1.00  0.00     0.275 C 
BRANCH  24  25
ATOM     25  O   UNL A   1      32.900  29.729  26.377  1.00  0.00    -0.458 OA
BRANCH  25  26
ATOM     26  C   UNL A   1      33.234  30.944  26.877  1.00  0.00     0.338 C 
ATOM     27  O   UNL A   1      32.547  31.950  26.923  1.00  0.00    -0.246 OA
BRANCH  26  28
ATOM     28  C   UNL A   1      34.528  30.836  27.567  1.00  0.00     0.060 A 
ATOM     29  C   UNL A   1      34.926  29.559  27.965  1.00  0.00     0.016 A 
ATOM     30  C   UNL A   1      35.306  31.952  27.877  1.00  0.00     0.016 A 
ATOM     31  C   UNL A   1      36.117  29.388  28.664  1.00  0.00     0.010 A 
ATOM     32  C   UNL A   1      36.504  31.778  28.582  1.00  0.00     0.010 A 
ATOM     33  C   UNL A   1      36.919  30.493  28.975  1.00  0.00    -0.014 A 
BRANCH  33  34
ATOM     34  C   UNL A   1      38.147  30.279  29.778  1.00  0.00     0.031 A 
ATOM     35  C   UNL A   1      39.331  29.605  29.153  1.00  0.00     0.074 A 
ATOM     36  C   UNL A   1      38.246  30.781  31.022  1.00  0.00     0.049 A 
ATOM     37  N   UNL A   1      40.489  29.309  29.685  1.00  0.00    -0.248 NA
ATOM     38  C   UNL A   1      39.200  29.231  27.738  1.00  0.00     0.031 C 
ATOM     39  C   UNL A   1      37.212  31.558  31.699  1.00  0.00     0.029 A 
ATOM     40  N   UNL A   1      39.283  30.746  31.923  1.00  0.00    -0.354 N 
ATOM     41  C   UNL A   1      41.212  28.677  28.684  1.00  0.00     0.074 A 
ATOM     42  C   UNL A   1      40.371  28.654  27.505  1.00  0.00     0.031 C 
ATOM     43  C   UNL A   1      37.683  31.971  32.887  1.00  0.00     0.029 A 
ATOM     44  C   UNL A   1      39.019  31.421  33.090  1.00  0.00     0.049 A 
ATOM     45  H   UNL A   1      40.134  30.282  31.747  1.00  0.00     0.167 HD
ATOM     46  C   UNL A   1      42.452  28.137  28.749  1.00  0.00     0.031 A 
ATOM     47  C   UNL A   1      39.760  31.555  34.208  1.00  0.00     0.031 A 
ATOM     48  C   UNL A   1      43.275  28.132  29.928  1.00  0.00     0.049 A 
ATOM     49  C   UNL A   1      41.095  30.863  34.286  1.00  0.00     0.074 A 
ATOM     50  C   UNL A   1      44.518  27.548  30.111  1.00  0.00     0.029 A 
ATOM     51  N   UNL A   1      42.936  28.734  31.130  1.00  0.00    -0.354 N 
ATOM     52  N   UNL A   1      41.745  30.207  33.354  1.00  0.00    -0.248 NA
ATOM     53  C   UNL A   1      41.788  30.905  35.584  1.00  0.00     0.031 C 
ATOM     54  C   UNL A   1      44.906  27.753  31.440  1.00  0.00     0.029 A 
ATOM     55  C   UNL A   1      43.935  28.518  32.065  1.00  0.00     0.049 A 
ATOM     56  H   UNL A   1      42.108  29.242  31.293  1.00  0.00     0.167 HD
ATOM     57  C   UNL A   1      42.921  29.766  33.950  1.00  0.00     0.074 A 
ATOM     58  C   UNL A   1      42.912  30.256  35.312  1.00  0.00     0.031 C 
ATOM     59  C   UNL A   1      43.912  29.009  33.419  1.00  0.00     0.031 A 
BRANCH  46  60
ATOM     60  C   UNL A   1      42.943  27.417  27.526  1.00  0.00    -0.014 A 
ATOM     61  C   UNL A   1      43.593  28.094  26.482  1.00  0.00     0.009 A 
ATOM     62  C   UNL A   1      42.739  26.032  27.420  1.00  0.00     0.009 A 
ATOM     63  C   UNL A   1      43.995  27.400  25.338  1.00  0.00     0.001 A 
ATOM     64  C   UNL A   1      43.165  25.338  26.287  1.00  0.00     0.001 A 
ATOM     65  C   UNL A   1      43.782  26.024  25.243  1.00  0.00     0.000 A 
ENDBRANCH  46  60
BRANCH  47  66
ATOM     66  C   UNL A   1      39.243  32.319  35.377  1.00  0.00    -0.014 A 
ATOM     67  C   UNL A   1      38.422  31.700  36.333  1.00  0.00     0.009 A 
ATOM     68  C   UNL A   1      39.528  33.686  35.518  1.00  0.00     0.009 A 
ATOM     69  C   UNL A   1      37.879  32.439  37.389  1.00  0.00     0.001 A 
ATOM     70  C   UNL A   1      39.014  34.415  36.592  1.00  0.00     0.001 A 
ATOM     71  C   UNL A   1      38.179  33.795  37.520  1.00  0.00     0.000 A 
ENDBRANCH  47  66
BRANCH  59  72
ATOM     72  C   UNL A   1      45.082  28.684  34.306  1.00  0.00    -0.014 A 
ATOM     73  C   UNL A   1      45.073  27.552  35.136  1.00  0.00     0.009 A 
ATOM     74  C   UNL A   1      46.228  29.495  34.273  1.00  0.00     0.009 A 
ATOM     75  C   UNL A   1      46.178  27.256  35.938  1.00  0.00     0.001 A 
ATOM     76  C   UNL A   1      47.341  29.180  35.055  1.00  0.00     0.001 A 
ATOM     77  C   UNL A   1      47.312  28.066  35.892  1.00  0.00     0.000 A 
ENDBRANCH  59  72
ENDBRANCH  33  34
ENDBRANCH  26  28
ENDBRANCH  25  26
ENDBRANCH  24  25
ENDBRANCH   1  24
TORSDOF 15
ENDMDL
