MODEL 1
REMARK VINA RESULT:     -10.7      0.000      0.000
REMARK SMILES O=C(NC[C@@H]1CC[C@H](C(=O)OCCOC(=O)c2ccc(-c3c4nc(c(-c5ccccc5)c5ccc([nH]5)c(-c5ccccc5)c5nc(c(-c6ccccc6)c6ccc3[nH]6)C=C5)C=C4)cc2)O1)c1ccc(CO)cc1
REMARK SMILES IDX 11 1 9 2 10 3 8 4 5 5 6 6 65 7 7 8 4 9 3 10 1 11 2 12 66 14
REMARK SMILES IDX 67 15 73 16 68 17 72 18 69 19 70 20 71 21 12 23 13 24 14 25
REMARK SMILES IDX 15 26 16 27 17 28 18 29 64 30 19 31 63 32 20 33 21 34 22 35
REMARK SMILES IDX 57 36 23 37 62 38 56 39 58 40 24 41 61 42 55 43 54 44 25 46
REMARK SMILES IDX 47 47 32 48 46 49 33 50 36 51 45 52 59 53 34 54 35 55 44 57
REMARK SMILES IDX 60 58 37 59 26 60 27 61 31 62 28 63 30 64 29 65 48 66 49 67
REMARK SMILES IDX 53 68 50 69 52 70 51 71 38 72 39 73 43 74 40 75 42 76 41 77
REMARK H PARENT 3 13 71 22 58 45 36 56
REMARK Flexibility Score: inf
ROOT
ATOM      1  O   UNL A   1      35.687  21.716  25.853  1.00  0.00    -0.460 OA
ENDROOT
BRANCH   1   2
ATOM      2  C   UNL A   1      35.269  22.875  25.270  1.00  0.00     0.335 C 
ATOM      3  O   UNL A   1      35.345  23.979  25.796  1.00  0.00    -0.249 OA
BRANCH   2   4
ATOM      4  C   UNL A   1      34.658  22.656  23.874  1.00  0.00     0.228 C 
ATOM      5  C   UNL A   1      33.348  24.396  23.037  1.00  0.00     0.138 C 
ATOM      6  C   UNL A   1      32.427  23.434  23.777  1.00  0.00     0.037 C 
ATOM      7  O   UNL A   1      34.681  23.859  23.103  1.00  0.00    -0.361 OA
ATOM      8  C   UNL A   1      33.226  22.158  23.836  1.00  0.00     0.047 C 
BRANCH   5   9
ATOM      9  C   UNL A   1      33.360  25.788  23.673  1.00  0.00     0.148 C 
BRANCH   9  10
ATOM     10  N   UNL A   1      32.869  25.750  25.046  1.00  0.00    -0.349 N 
ATOM     11  O   UNL A   1      31.672  26.464  26.827  1.00  0.00    -0.269 OA
ATOM     12  C   UNL A   1      31.822  26.432  25.611  1.00  0.00     0.251 C 
ATOM     13  H   UNL A   1      33.358  25.148  25.652  1.00  0.00     0.163 HD
BRANCH  12  14
ATOM     14  C   UNL A   1      30.890  27.176  24.739  1.00  0.00     0.039 A 
ATOM     15  C   UNL A   1      31.144  28.504  24.387  1.00  0.00     0.014 A 
ATOM     16  C   UNL A   1      29.748  26.526  24.269  1.00  0.00     0.014 A 
ATOM     17  C   UNL A   1      30.205  29.211  23.636  1.00  0.00     0.007 A 
ATOM     18  C   UNL A   1      28.818  27.229  23.502  1.00  0.00     0.007 A 
ATOM     19  C   UNL A   1      29.034  28.581  23.190  1.00  0.00    -0.023 A 
BRANCH  19  20
ATOM     20  C   UNL A   1      28.000  29.370  22.434  1.00  0.00     0.191 C 
BRANCH  20  21
ATOM     21  O   UNL A   1      26.695  28.993  22.854  1.00  0.00    -0.392 OA
ATOM     22  H   UNL A   1      26.608  29.141  23.809  1.00  0.00     0.211 HD
ENDBRANCH  20  21
ENDBRANCH  19  20
ENDBRANCH  12  14
ENDBRANCH   9  10
ENDBRANCH   5   9
ENDBRANCH   2   4
ENDBRANCH   1   2
BRANCH   1  23
ATOM     23  C   UNL A   1      35.962  20.615  24.963  1.00  0.00     0.274 C 
BRANCH  23  24
ATOM     24  C   UNL A   1      37.461  20.312  24.881  1.00  0.00     0.275 C 
BRANCH  24  25
ATOM     25  O   UNL A   1      38.257  21.456  25.242  1.00  0.00    -0.458 OA
BRANCH  25  26
ATOM     26  C   UNL A   1      39.292  21.186  26.068  1.00  0.00     0.338 C 
ATOM     27  O   UNL A   1      39.886  20.126  26.190  1.00  0.00    -0.246 OA
BRANCH  26  28
ATOM     28  C   UNL A   1      39.758  22.419  26.718  1.00  0.00     0.060 A 
ATOM     29  C   UNL A   1      39.164  23.613  26.309  1.00  0.00     0.016 A 
ATOM     30  C   UNL A   1      40.837  22.431  27.602  1.00  0.00     0.016 A 
ATOM     31  C   UNL A   1      39.652  24.831  26.760  1.00  0.00     0.010 A 
ATOM     32  C   UNL A   1      41.333  23.660  28.056  1.00  0.00     0.010 A 
ATOM     33  C   UNL A   1      40.758  24.866  27.617  1.00  0.00    -0.014 A 
BRANCH  33  34
ATOM     34  C   UNL A   1      41.353  26.184  27.940  1.00  0.00     0.031 A 
ATOM     35  C   UNL A   1      42.667  26.576  27.326  1.00  0.00     0.074 A 
ATOM     36  C   UNL A   1      40.670  27.065  28.693  1.00  0.00     0.049 A 
ATOM     37  N   UNL A   1      43.343  27.689  27.461  1.00  0.00    -0.248 NA
ATOM     38  C   UNL A   1      43.302  25.588  26.440  1.00  0.00     0.031 C 
ATOM     39  C   UNL A   1      39.354  26.829  29.287  1.00  0.00     0.029 A 
ATOM     40  N   UNL A   1      40.980  28.350  29.059  1.00  0.00    -0.354 N 
ATOM     41  C   UNL A   1      44.492  27.527  26.699  1.00  0.00     0.074 A 
ATOM     42  C   UNL A   1      44.428  26.205  26.111  1.00  0.00     0.031 C 
ATOM     43  C   UNL A   1      38.958  27.944  29.925  1.00  0.00     0.029 A 
ATOM     44  C   UNL A   1      40.005  28.955  29.813  1.00  0.00     0.049 A 
ATOM     45  H   UNL A   1      41.821  28.796  28.806  1.00  0.00     0.167 HD
ATOM     46  C   UNL A   1      45.511  28.398  26.504  1.00  0.00     0.031 A 
ATOM     47  C   UNL A   1      39.966  30.184  30.360  1.00  0.00     0.031 A 
ATOM     48  C   UNL A   1      45.573  29.716  27.075  1.00  0.00     0.049 A 
ATOM     49  C   UNL A   1      41.123  31.120  30.156  1.00  0.00     0.074 A 
ATOM     50  C   UNL A   1      46.572  30.666  26.948  1.00  0.00     0.029 A 
ATOM     51  N   UNL A   1      44.587  30.275  27.873  1.00  0.00    -0.354 N 
ATOM     52  N   UNL A   1      42.220  30.939  29.461  1.00  0.00    -0.248 NA
ATOM     53  C   UNL A   1      41.034  32.431  30.815  1.00  0.00     0.031 C 
ATOM     54  C   UNL A   1      46.203  31.790  27.698  1.00  0.00     0.029 A 
ATOM     55  C   UNL A   1      44.959  31.552  28.256  1.00  0.00     0.049 A 
ATOM     56  H   UNL A   1      43.748  29.828  28.131  1.00  0.00     0.167 HD
ATOM     57  C   UNL A   1      42.947  32.114  29.591  1.00  0.00     0.074 A 
ATOM     58  C   UNL A   1      42.158  33.010  30.413  1.00  0.00     0.031 C 
ATOM     59  C   UNL A   1      44.163  32.424  29.079  1.00  0.00     0.031 A 
BRANCH  46  60
ATOM     60  C   UNL A   1      46.663  27.925  25.669  1.00  0.00    -0.014 A 
ATOM     61  C   UNL A   1      46.657  28.063  24.273  1.00  0.00     0.009 A 
ATOM     62  C   UNL A   1      47.777  27.343  26.293  1.00  0.00     0.009 A 
ATOM     63  C   UNL A   1      47.734  27.598  23.514  1.00  0.00     0.001 A 
ATOM     64  C   UNL A   1      48.860  26.898  25.534  1.00  0.00     0.001 A 
ATOM     65  C   UNL A   1      48.835  27.018  24.146  1.00  0.00     0.000 A 
ENDBRANCH  46  60
BRANCH  47  66
ATOM     66  C   UNL A   1      38.793  30.596  31.171  1.00  0.00    -0.014 A 
ATOM     67  C   UNL A   1      38.765  30.371  32.554  1.00  0.00     0.009 A 
ATOM     68  C   UNL A   1      37.693  31.216  30.557  1.00  0.00     0.009 A 
ATOM     69  C   UNL A   1      37.647  30.744  33.305  1.00  0.00     0.001 A 
ATOM     70  C   UNL A   1      36.589  31.608  31.314  1.00  0.00     0.001 A 
ATOM     71  C   UNL A   1      36.564  31.365  32.686  1.00  0.00     0.000 A 
ENDBRANCH  47  66
BRANCH  59  72
ATOM     72  C   UNL A   1      44.698  33.793  29.382  1.00  0.00    -0.014 A 
ATOM     73  C   UNL A   1      44.407  34.883  28.547  1.00  0.00     0.009 A 
ATOM     74  C   UNL A   1      45.484  33.997  30.526  1.00  0.00     0.009 A 
ATOM     75  C   UNL A   1      44.922  36.147  28.836  1.00  0.00     0.001 A 
ATOM     76  C   UNL A   1      45.980  35.268  30.823  1.00  0.00     0.001 A 
ATOM     77  C   UNL A   1      45.706  36.339  29.974  1.00  0.00     0.000 A 
ENDBRANCH  59  72
ENDBRANCH  33  34
ENDBRANCH  26  28
ENDBRANCH  25  26
ENDBRANCH  24  25
ENDBRANCH  23  24
ENDBRANCH   1  23
TORSDOF 16
ENDMDL
MODEL 2
REMARK VINA RESULT:     -10.7      2.422      3.291
REMARK SMILES O=C(NC[C@@H]1CC[C@H](C(=O)OCCOC(=O)c2ccc(-c3c4nc(c(-c5ccccc5)c5ccc([nH]5)c(-c5ccccc5)c5nc(c(-c6ccccc6)c6ccc3[nH]6)C=C5)C=C4)cc2)O1)c1ccc(CO)cc1
REMARK SMILES IDX 11 1 9 2 10 3 8 4 5 5 6 6 65 7 7 8 4 9 3 10 1 11 2 12 66 14
REMARK SMILES IDX 67 15 73 16 68 17 72 18 69 19 70 20 71 21 12 23 13 24 14 25
REMARK SMILES IDX 15 26 16 27 17 28 18 29 64 30 19 31 63 32 20 33 21 34 22 35
REMARK SMILES IDX 57 36 23 37 62 38 56 39 58 40 24 41 61 42 55 43 54 44 25 46
REMARK SMILES IDX 47 47 32 48 46 49 33 50 36 51 45 52 59 53 34 54 35 55 44 57
REMARK SMILES IDX 60 58 37 59 26 60 27 61 31 62 28 63 30 64 29 65 48 66 49 67
REMARK SMILES IDX 53 68 50 69 52 70 51 71 38 72 39 73 43 74 40 75 42 76 41 77
REMARK H PARENT 3 13 71 22 58 45 36 56
REMARK Flexibility Score: inf
ROOT
ATOM      1  O   UNL A   1      37.559  21.300  24.682  1.00  0.00    -0.460 OA
ENDROOT
BRANCH   1   2
ATOM      2  C   UNL A   1      36.311  21.206  25.223  1.00  0.00     0.335 C 
ATOM      3  O   UNL A   1      35.506  20.322  24.954  1.00  0.00    -0.249 OA
BRANCH   2   4
ATOM      4  C   UNL A   1      35.995  22.352  26.201  1.00  0.00     0.228 C 
ATOM      5  C   UNL A   1      33.755  22.987  26.357  1.00  0.00     0.138 C 
ATOM      6  C   UNL A   1      34.412  23.853  25.288  1.00  0.00     0.037 C 
ATOM      7  O   UNL A   1      34.769  22.119  26.895  1.00  0.00    -0.361 OA
ATOM      8  C   UNL A   1      35.882  23.740  25.598  1.00  0.00     0.047 C 
BRANCH   5   9
ATOM      9  C   UNL A   1      32.632  22.117  25.786  1.00  0.00     0.148 C 
BRANCH   9  10
ATOM     10  N   UNL A   1      31.384  22.317  26.513  1.00  0.00    -0.349 N 
ATOM     11  O   UNL A   1      29.656  23.511  27.350  1.00  0.00    -0.269 OA
ATOM     12  C   UNL A   1      30.549  23.405  26.518  1.00  0.00     0.251 C 
ATOM     13  H   UNL A   1      31.100  21.564  27.079  1.00  0.00     0.163 HD
BRANCH  12  14
ATOM     14  C   UNL A   1      30.764  24.484  25.533  1.00  0.00     0.039 A 
ATOM     15  C   UNL A   1      30.648  24.238  24.163  1.00  0.00     0.014 A 
ATOM     16  C   UNL A   1      31.084  25.762  25.997  1.00  0.00     0.014 A 
ATOM     17  C   UNL A   1      30.941  25.252  23.251  1.00  0.00     0.007 A 
ATOM     18  C   UNL A   1      31.360  26.780  25.083  1.00  0.00     0.007 A 
ATOM     19  C   UNL A   1      31.303  26.529  23.704  1.00  0.00    -0.023 A 
BRANCH  19  20
ATOM     20  C   UNL A   1      31.678  27.597  22.712  1.00  0.00     0.191 C 
BRANCH  20  21
ATOM     21  O   UNL A   1      30.626  27.783  21.774  1.00  0.00    -0.392 OA
ATOM     22  H   UNL A   1      30.356  28.715  21.772  1.00  0.00     0.211 HD
ENDBRANCH  20  21
ENDBRANCH  19  20
ENDBRANCH  12  14
ENDBRANCH   9  10
ENDBRANCH   5   9
ENDBRANCH   2   4
ENDBRANCH   1   2
BRANCH   1  23
ATOM     23  C   UNL A   1      38.665  21.205  25.603  1.00  0.00     0.274 C 
BRANCH  23  24
ATOM     24  C   UNL A   1      39.368  19.848  25.507  1.00  0.00     0.275 C 
BRANCH  24  25
ATOM     25  O   UNL A   1      40.378  19.698  26.523  1.00  0.00    -0.458 OA
BRANCH  25  26
ATOM     26  C   UNL A   1      41.646  19.864  26.085  1.00  0.00     0.338 C 
ATOM     27  O   UNL A   1      42.255  19.163  25.293  1.00  0.00    -0.246 OA
BRANCH  26  28
ATOM     28  C   UNL A   1      42.185  21.144  26.566  1.00  0.00     0.060 A 
ATOM     29  C   UNL A   1      42.168  21.360  27.944  1.00  0.00     0.016 A 
ATOM     30  C   UNL A   1      42.571  22.163  25.695  1.00  0.00     0.016 A 
ATOM     31  C   UNL A   1      42.514  22.598  28.466  1.00  0.00     0.010 A 
ATOM     32  C   UNL A   1      42.918  23.414  26.220  1.00  0.00     0.010 A 
ATOM     33  C   UNL A   1      42.867  23.644  27.606  1.00  0.00    -0.014 A 
BRANCH  33  34
ATOM     34  C   UNL A   1      43.065  24.992  28.187  1.00  0.00     0.031 A 
ATOM     35  C   UNL A   1      44.456  25.472  28.495  1.00  0.00     0.074 A 
ATOM     36  C   UNL A   1      42.016  25.822  28.340  1.00  0.00     0.049 A 
ATOM     37  N   UNL A   1      44.845  26.623  28.982  1.00  0.00    -0.248 NA
ATOM     38  C   UNL A   1      45.554  24.535  28.210  1.00  0.00     0.031 C 
ATOM     39  C   UNL A   1      40.628  25.498  28.012  1.00  0.00     0.029 A 
ATOM     40  N   UNL A   1      41.966  27.119  28.782  1.00  0.00    -0.354 N 
ATOM     41  C   UNL A   1      46.226  26.540  29.087  1.00  0.00     0.074 A 
ATOM     42  C   UNL A   1      46.609  25.224  28.621  1.00  0.00     0.031 C 
ATOM     43  C   UNL A   1      39.863  26.579  28.242  1.00  0.00     0.029 A 
ATOM     44  C   UNL A   1      40.702  27.653  28.764  1.00  0.00     0.049 A 
ATOM     45  H   UNL A   1      42.759  27.618  29.083  1.00  0.00     0.167 HD
ATOM     46  C   UNL A   1      47.100  27.475  29.531  1.00  0.00     0.031 A 
ATOM     47  C   UNL A   1      40.268  28.872  29.138  1.00  0.00     0.031 A 
ATOM     48  C   UNL A   1      46.727  28.788  29.982  1.00  0.00     0.049 A 
ATOM     49  C   UNL A   1      41.253  29.880  29.657  1.00  0.00     0.074 A 
ATOM     50  C   UNL A   1      47.540  29.799  30.465  1.00  0.00     0.029 A 
ATOM     51  N   UNL A   1      45.430  29.275  29.995  1.00  0.00    -0.354 N 
ATOM     52  N   UNL A   1      42.553  29.775  29.783  1.00  0.00    -0.248 NA
ATOM     53  C   UNL A   1      40.706  31.175  30.087  1.00  0.00     0.031 C 
ATOM     54  C   UNL A   1      46.727  30.890  30.800  1.00  0.00     0.029 A 
ATOM     55  C   UNL A   1      45.417  30.569  30.488  1.00  0.00     0.049 A 
ATOM     56  H   UNL A   1      44.635  28.775  29.698  1.00  0.00     0.167 HD
ATOM     57  C   UNL A   1      42.982  30.991  30.297  1.00  0.00     0.074 A 
ATOM     58  C   UNL A   1      41.807  31.827  30.438  1.00  0.00     0.031 C 
ATOM     59  C   UNL A   1      44.237  31.381  30.626  1.00  0.00     0.031 A 
BRANCH  46  60
ATOM     60  C   UNL A   1      48.548  27.083  29.588  1.00  0.00    -0.014 A 
ATOM     61  C   UNL A   1      49.085  26.441  30.713  1.00  0.00     0.009 A 
ATOM     62  C   UNL A   1      49.381  27.352  28.491  1.00  0.00     0.009 A 
ATOM     63  C   UNL A   1      50.440  26.104  30.751  1.00  0.00     0.001 A 
ATOM     64  C   UNL A   1      50.729  26.995  28.524  1.00  0.00     0.001 A 
ATOM     65  C   UNL A   1      51.260  26.379  29.655  1.00  0.00     0.000 A 
ENDBRANCH  46  60
BRANCH  47  66
ATOM     66  C   UNL A   1      38.823  29.201  29.050  1.00  0.00    -0.014 A 
ATOM     67  C   UNL A   1      38.273  29.696  27.858  1.00  0.00     0.009 A 
ATOM     68  C   UNL A   1      37.989  29.023  30.164  1.00  0.00     0.009 A 
ATOM     69  C   UNL A   1      36.916  30.022  27.791  1.00  0.00     0.001 A 
ATOM     70  C   UNL A   1      36.629  29.329  30.086  1.00  0.00     0.001 A 
ATOM     71  C   UNL A   1      36.096  29.834  28.902  1.00  0.00     0.000 A 
ENDBRANCH  47  66
BRANCH  59  72
ATOM     72  C   UNL A   1      44.398  32.777  31.153  1.00  0.00    -0.014 A 
ATOM     73  C   UNL A   1      44.616  33.856  30.284  1.00  0.00     0.009 A 
ATOM     74  C   UNL A   1      44.308  33.016  32.533  1.00  0.00     0.009 A 
ATOM     75  C   UNL A   1      44.775  35.147  30.791  1.00  0.00     0.001 A 
ATOM     76  C   UNL A   1      44.447  34.311  33.035  1.00  0.00     0.001 A 
ATOM     77  C   UNL A   1      44.689  35.373  32.165  1.00  0.00     0.000 A 
ENDBRANCH  59  72
ENDBRANCH  33  34
ENDBRANCH  26  28
ENDBRANCH  25  26
ENDBRANCH  24  25
ENDBRANCH  23  24
ENDBRANCH   1  23
TORSDOF 16
ENDMDL
MODEL 3
REMARK VINA RESULT:     -10.5      0.751      6.099
REMARK SMILES O=C(NC[C@@H]1CC[C@H](C(=O)OCCOC(=O)c2ccc(-c3c4nc(c(-c5ccccc5)c5ccc([nH]5)c(-c5ccccc5)c5nc(c(-c6ccccc6)c6ccc3[nH]6)C=C5)C=C4)cc2)O1)c1ccc(CO)cc1
REMARK SMILES IDX 11 1 9 2 10 3 8 4 5 5 6 6 65 7 7 8 4 9 3 10 1 11 2 12 66 14
REMARK SMILES IDX 67 15 73 16 68 17 72 18 69 19 70 20 71 21 12 23 13 24 14 25
REMARK SMILES IDX 15 26 16 27 17 28 18 29 64 30 19 31 63 32 20 33 21 34 22 35
REMARK SMILES IDX 57 36 23 37 62 38 56 39 58 40 24 41 61 42 55 43 54 44 25 46
REMARK SMILES IDX 47 47 32 48 46 49 33 50 36 51 45 52 59 53 34 54 35 55 44 57
REMARK SMILES IDX 60 58 37 59 26 60 27 61 31 62 28 63 30 64 29 65 48 66 49 67
REMARK SMILES IDX 53 68 50 69 52 70 51 71 38 72 39 73 43 74 40 75 42 76 41 77
REMARK H PARENT 3 13 71 22 58 45 36 56
REMARK Flexibility Score: inf
ROOT
ATOM      1  O   UNL A   1      35.583  22.188  24.607  1.00  0.00    -0.460 OA
ENDROOT
BRANCH   1   2
ATOM      2  C   UNL A   1      34.317  22.689  24.550  1.00  0.00     0.335 C 
ATOM      3  O   UNL A   1      33.709  23.141  25.514  1.00  0.00    -0.249 OA
BRANCH   2   4
ATOM      4  C   UNL A   1      33.703  22.608  23.141  1.00  0.00     0.228 C 
ATOM      5  C   UNL A   1      32.832  24.593  22.278  1.00  0.00     0.138 C 
ATOM      6  C   UNL A   1      31.704  23.863  22.996  1.00  0.00     0.037 C 
ATOM      7  O   UNL A   1      34.010  23.772  22.372  1.00  0.00    -0.361 OA
ATOM      8  C   UNL A   1      32.197  22.441  23.071  1.00  0.00     0.047 C 
BRANCH   5   9
ATOM      9  C   UNL A   1      33.141  25.950  22.916  1.00  0.00     0.148 C 
BRANCH   9  10
ATOM     10  N   UNL A   1      32.986  25.903  24.365  1.00  0.00    -0.349 N 
ATOM     11  O   UNL A   1      32.202  26.577  26.376  1.00  0.00    -0.269 OA
ATOM     12  C   UNL A   1      32.065  26.538  25.159  1.00  0.00     0.251 C 
ATOM     13  H   UNL A   1      33.634  25.335  24.841  1.00  0.00     0.163 HD
BRANCH  12  14
ATOM     14  C   UNL A   1      30.918  27.222  24.529  1.00  0.00     0.039 A 
ATOM     15  C   UNL A   1      29.744  26.527  24.230  1.00  0.00     0.014 A 
ATOM     16  C   UNL A   1      31.028  28.583  24.237  1.00  0.00     0.014 A 
ATOM     17  C   UNL A   1      28.709  27.174  23.555  1.00  0.00     0.007 A 
ATOM     18  C   UNL A   1      29.984  29.234  23.577  1.00  0.00     0.007 A 
ATOM     19  C   UNL A   1      28.823  28.532  23.221  1.00  0.00    -0.023 A 
BRANCH  19  20
ATOM     20  C   UNL A   1      27.727  29.204  22.438  1.00  0.00     0.191 C 
BRANCH  20  21
ATOM     21  O   UNL A   1      26.456  28.800  22.931  1.00  0.00    -0.392 OA
ATOM     22  H   UNL A   1      26.251  27.909  22.603  1.00  0.00     0.211 HD
ENDBRANCH  20  21
ENDBRANCH  19  20
ENDBRANCH  12  14
ENDBRANCH   9  10
ENDBRANCH   5   9
ENDBRANCH   2   4
ENDBRANCH   1   2
BRANCH   1  23
ATOM     23  C   UNL A   1      35.778  21.037  25.454  1.00  0.00     0.274 C 
BRANCH  23  24
ATOM     24  C   UNL A   1      36.970  20.191  24.997  1.00  0.00     0.275 C 
BRANCH  24  25
ATOM     25  O   UNL A   1      38.172  20.977  24.889  1.00  0.00    -0.458 OA
BRANCH  25  26
ATOM     26  C   UNL A   1      39.108  20.706  25.826  1.00  0.00     0.338 C 
ATOM     27  O   UNL A   1      39.581  19.617  26.109  1.00  0.00    -0.246 OA
BRANCH  26  28
ATOM     28  C   UNL A   1      39.645  21.956  26.383  1.00  0.00     0.060 A 
ATOM     29  C   UNL A   1      39.015  23.141  25.999  1.00  0.00     0.016 A 
ATOM     30  C   UNL A   1      40.811  21.989  27.147  1.00  0.00     0.016 A 
ATOM     31  C   UNL A   1      39.553  24.369  26.356  1.00  0.00     0.010 A 
ATOM     32  C   UNL A   1      41.357  23.228  27.505  1.00  0.00     0.010 A 
ATOM     33  C   UNL A   1      40.743  24.424  27.090  1.00  0.00    -0.014 A 
BRANCH  33  34
ATOM     34  C   UNL A   1      41.374  25.747  27.305  1.00  0.00     0.031 A 
ATOM     35  C   UNL A   1      40.729  26.735  28.236  1.00  0.00     0.074 A 
ATOM     36  C   UNL A   1      42.570  26.022  26.752  1.00  0.00     0.049 A 
ATOM     37  N   UNL A   1      41.131  27.933  28.578  1.00  0.00    -0.248 NA
ATOM     38  C   UNL A   1      39.470  26.317  28.872  1.00  0.00     0.031 C 
ATOM     39  C   UNL A   1      43.328  25.119  25.887  1.00  0.00     0.029 A 
ATOM     40  N   UNL A   1      43.367  27.132  26.865  1.00  0.00    -0.354 N 
ATOM     41  C   UNL A   1      40.164  28.421  29.446  1.00  0.00     0.074 A 
ATOM     42  C   UNL A   1      39.151  27.395  29.573  1.00  0.00     0.031 C 
ATOM     43  C   UNL A   1      44.496  25.703  25.567  1.00  0.00     0.029 A 
ATOM     44  C   UNL A   1      44.548  27.029  26.174  1.00  0.00     0.049 A 
ATOM     45  H   UNL A   1      43.117  27.925  27.392  1.00  0.00     0.167 HD
ATOM     46  C   UNL A   1      40.121  29.616  30.082  1.00  0.00     0.031 A 
ATOM     47  C   UNL A   1      45.556  27.912  26.038  1.00  0.00     0.031 A 
ATOM     48  C   UNL A   1      41.131  30.633  29.970  1.00  0.00     0.049 A 
ATOM     49  C   UNL A   1      45.469  29.244  26.728  1.00  0.00     0.074 A 
ATOM     50  C   UNL A   1      41.168  31.883  30.563  1.00  0.00     0.029 A 
ATOM     51  N   UNL A   1      42.291  30.511  29.220  1.00  0.00    -0.354 N 
ATOM     52  N   UNL A   1      44.531  29.705  27.518  1.00  0.00    -0.248 NA
ATOM     53  C   UNL A   1      46.584  30.176  26.503  1.00  0.00     0.031 C 
ATOM     54  C   UNL A   1      42.338  32.530  30.147  1.00  0.00     0.029 A 
ATOM     55  C   UNL A   1      43.045  31.667  29.327  1.00  0.00     0.049 A 
ATOM     56  H   UNL A   1      42.539  29.719  28.690  1.00  0.00     0.167 HD
ATOM     57  C   UNL A   1      44.945  30.976  27.892  1.00  0.00     0.074 A 
ATOM     58  C   UNL A   1      46.229  31.204  27.261  1.00  0.00     0.031 C 
ATOM     59  C   UNL A   1      44.316  31.877  28.686  1.00  0.00     0.031 A 
BRANCH  46  60
ATOM     60  C   UNL A   1      38.911  29.899  30.923  1.00  0.00    -0.014 A 
ATOM     61  C   UNL A   1      38.886  29.591  32.291  1.00  0.00     0.009 A 
ATOM     62  C   UNL A   1      37.784  30.494  30.336  1.00  0.00     0.009 A 
ATOM     63  C   UNL A   1      37.742  29.846  33.050  1.00  0.00     0.001 A 
ATOM     64  C   UNL A   1      36.650  30.767  31.101  1.00  0.00     0.001 A 
ATOM     65  C   UNL A   1      36.625  30.436  32.454  1.00  0.00     0.000 A 
ENDBRANCH  46  60
BRANCH  47  66
ATOM     66  C   UNL A   1      46.730  27.569  25.197  1.00  0.00    -0.014 A 
ATOM     67  C   UNL A   1      46.783  27.954  23.850  1.00  0.00     0.009 A 
ATOM     68  C   UNL A   1      47.805  26.852  25.745  1.00  0.00     0.009 A 
ATOM     69  C   UNL A   1      47.884  27.609  23.062  1.00  0.00     0.001 A 
ATOM     70  C   UNL A   1      48.913  26.529  24.960  1.00  0.00     0.001 A 
ATOM     71  C   UNL A   1      48.949  26.902  23.618  1.00  0.00     0.000 A 
ENDBRANCH  47  66
BRANCH  59  72
ATOM     72  C   UNL A   1      45.021  33.179  28.925  1.00  0.00    -0.014 A 
ATOM     73  C   UNL A   1      45.926  33.327  29.987  1.00  0.00     0.009 A 
ATOM     74  C   UNL A   1      44.793  34.264  28.065  1.00  0.00     0.009 A 
ATOM     75  C   UNL A   1      46.565  34.548  30.203  1.00  0.00     0.001 A 
ATOM     76  C   UNL A   1      45.449  35.478  28.271  1.00  0.00     0.001 A 
ATOM     77  C   UNL A   1      46.327  35.622  29.344  1.00  0.00     0.000 A 
ENDBRANCH  59  72
ENDBRANCH  33  34
ENDBRANCH  26  28
ENDBRANCH  25  26
ENDBRANCH  24  25
ENDBRANCH  23  24
ENDBRANCH   1  23
TORSDOF 16
ENDMDL
