MODEL 1
REMARK VINA RESULT:      -9.8      0.000      0.000
REMARK SMILES O=C(OCCOC(=O)c1cnc(Nc2ccccc2)nc1)c1ccc(-c2c3nc(c(-c4ccccc4)c4ccc([nH]4)c(-c4ccccc4)c4nc(c(-c5ccccc5)c5ccc2[nH]5)C=C4)C=C3)cc1
REMARK SMILES IDX 4 1 3 2 2 3 1 4 22 5 23 6 69 7 24 8 68 9 25 10 26 11 27 12
REMARK SMILES IDX 62 13 28 14 67 15 61 16 63 17 29 18 66 19 60 20 59 21 30 23
REMARK SMILES IDX 52 24 37 25 51 26 38 27 41 28 50 29 64 30 39 31 40 32 49 34
REMARK SMILES IDX 65 35 42 36 31 37 32 38 36 39 33 40 35 41 34 42 53 43 54 44
REMARK SMILES IDX 58 45 55 46 57 47 56 48 43 49 44 50 48 51 45 52 47 53 46 54
REMARK SMILES IDX 5 55 6 56 7 57 8 58 9 59 10 60 21 61 11 62 20 63 12 64 13 65
REMARK SMILES IDX 14 67 15 68 19 69 16 70 18 71 17 72
REMARK H PARENT 63 22 41 33 13 66
REMARK Flexibility Score: inf
ROOT
ATOM      1  C   UNL A   1      33.078  36.534  28.780  1.00  0.00     0.275 C 
ENDROOT
BRANCH   1   2
ATOM      2  O   UNL A   1      32.494  35.237  28.551  1.00  0.00    -0.458 OA
BRANCH   2   3
ATOM      3  C   UNL A   1      33.065  34.058  28.220  1.00  0.00     0.338 C 
ATOM      4  O   UNL A   1      32.382  33.206  27.653  1.00  0.00    -0.246 OA
BRANCH   3   5
ATOM      5  C   UNL A   1      34.447  33.659  28.626  1.00  0.00     0.060 A 
ATOM      6  C   UNL A   1      35.614  33.895  27.898  1.00  0.00     0.016 A 
ATOM      7  C   UNL A   1      34.554  32.916  29.818  1.00  0.00     0.016 A 
ATOM      8  C   UNL A   1      36.854  33.446  28.366  1.00  0.00     0.010 A 
ATOM      9  C   UNL A   1      35.792  32.473  30.295  1.00  0.00     0.010 A 
ATOM     10  C   UNL A   1      36.950  32.720  29.557  1.00  0.00    -0.014 A 
BRANCH  10  11
ATOM     11  C   UNL A   1      38.238  32.083  29.914  1.00  0.00     0.031 A 
ATOM     12  C   UNL A   1      39.117  32.759  30.925  1.00  0.00     0.074 A 
ATOM     13  C   UNL A   1      38.573  30.879  29.418  1.00  0.00     0.049 A 
ATOM     14  N   UNL A   1      40.208  32.319  31.498  1.00  0.00    -0.248 NA
ATOM     15  C   UNL A   1      38.699  34.100  31.369  1.00  0.00     0.031 C 
ATOM     16  C   UNL A   1      37.776  30.109  28.467  1.00  0.00     0.029 A 
ATOM     17  N   UNL A   1      39.665  30.083  29.658  1.00  0.00    -0.354 N 
ATOM     18  C   UNL A   1      40.582  33.310  32.395  1.00  0.00     0.074 A 
ATOM     19  C   UNL A   1      39.645  34.400  32.246  1.00  0.00     0.031 C 
ATOM     20  C   UNL A   1      38.399  28.949  28.204  1.00  0.00     0.029 A 
ATOM     21  C   UNL A   1      39.642  28.895  28.965  1.00  0.00     0.049 A 
ATOM     22  H   UNL A   1      40.394  30.338  30.269  1.00  0.00     0.167 HD
ATOM     23  C   UNL A   1      41.598  33.300  33.288  1.00  0.00     0.031 A 
ATOM     24  C   UNL A   1      40.527  27.879  28.955  1.00  0.00     0.031 A 
ATOM     25  C   UNL A   1      42.552  32.234  33.408  1.00  0.00     0.049 A 
ATOM     26  C   UNL A   1      41.739  27.970  29.842  1.00  0.00     0.074 A 
ATOM     27  C   UNL A   1      43.626  32.124  34.273  1.00  0.00     0.029 A 
ATOM     28  N   UNL A   1      42.550  31.094  32.619  1.00  0.00    -0.354 N 
ATOM     29  N   UNL A   1      42.048  28.887  30.728  1.00  0.00    -0.248 NA
ATOM     30  C   UNL A   1      42.717  26.878  29.737  1.00  0.00     0.031 C 
ATOM     31  C   UNL A   1      44.299  30.933  33.977  1.00  0.00     0.029 A 
ATOM     32  C   UNL A   1      43.619  30.285  32.957  1.00  0.00     0.049 A 
ATOM     33  H   UNL A   1      41.886  30.891  31.920  1.00  0.00     0.167 HD
ATOM     34  C   UNL A   1      43.221  28.451  31.330  1.00  0.00     0.074 A 
ATOM     35  C   UNL A   1      43.575  27.196  30.697  1.00  0.00     0.031 C 
ATOM     36  C   UNL A   1      43.930  29.026  32.331  1.00  0.00     0.031 A 
BRANCH  23  37
ATOM     37  C   UNL A   1      41.716  34.500  34.181  1.00  0.00    -0.014 A 
ATOM     38  C   UNL A   1      42.329  35.679  33.723  1.00  0.00     0.009 A 
ATOM     39  C   UNL A   1      41.249  34.443  35.502  1.00  0.00     0.009 A 
ATOM     40  C   UNL A   1      42.514  36.759  34.586  1.00  0.00     0.001 A 
ATOM     41  C   UNL A   1      41.416  35.534  36.356  1.00  0.00     0.001 A 
ATOM     42  C   UNL A   1      42.058  36.687  35.901  1.00  0.00     0.000 A 
ENDBRANCH  23  37
BRANCH  24  43
ATOM     43  C   UNL A   1      40.307  26.688  28.089  1.00  0.00    -0.014 A 
ATOM     44  C   UNL A   1      39.556  25.590  28.531  1.00  0.00     0.009 A 
ATOM     45  C   UNL A   1      40.890  26.630  26.814  1.00  0.00     0.009 A 
ATOM     46  C   UNL A   1      39.423  24.452  27.728  1.00  0.00     0.001 A 
ATOM     47  C   UNL A   1      40.736  25.505  26.002  1.00  0.00     0.001 A 
ATOM     48  C   UNL A   1      40.012  24.411  26.465  1.00  0.00     0.000 A 
ENDBRANCH  24  43
BRANCH  36  49
ATOM     49  C   UNL A   1      45.107  28.259  32.858  1.00  0.00    -0.014 A 
ATOM     50  C   UNL A   1      46.398  28.454  32.348  1.00  0.00     0.009 A 
ATOM     51  C   UNL A   1      44.914  27.349  33.909  1.00  0.00     0.009 A 
ATOM     52  C   UNL A   1      47.472  27.727  32.865  1.00  0.00     0.001 A 
ATOM     53  C   UNL A   1      45.993  26.643  34.440  1.00  0.00     0.001 A 
ATOM     54  C   UNL A   1      47.270  26.827  33.911  1.00  0.00     0.000 A 
ENDBRANCH  36  49
ENDBRANCH  10  11
ENDBRANCH   3   5
ENDBRANCH   2   3
ENDBRANCH   1   2
BRANCH   1  55
ATOM     55  C   UNL A   1      33.159  36.932  30.253  1.00  0.00     0.275 C 
BRANCH  55  56
ATOM     56  O   UNL A   1      32.510  35.996  31.125  1.00  0.00    -0.458 OA
BRANCH  56  57
ATOM     57  C   UNL A   1      32.757  36.176  32.449  1.00  0.00     0.341 C 
ATOM     58  O   UNL A   1      32.134  36.872  33.230  1.00  0.00    -0.246 OA
BRANCH  57  59
ATOM     59  C   UNL A   1      33.830  35.278  32.859  1.00  0.00     0.096 A 
ATOM     60  C   UNL A   1      33.639  33.963  33.195  1.00  0.00     0.132 A 
ATOM     61  C   UNL A   1      35.114  35.744  32.987  1.00  0.00     0.132 A 
ATOM     62  N   UNL A   1      34.628  33.175  33.669  1.00  0.00    -0.220 NA
ATOM     63  N   UNL A   1      36.114  35.013  33.529  1.00  0.00    -0.220 NA
ATOM     64  C   UNL A   1      35.833  33.743  33.872  1.00  0.00     0.227 A 
BRANCH  64  65
ATOM     65  N   UNL A   1      36.822  33.077  34.579  1.00  0.00    -0.324 N 
ATOM     66  H   UNL A   1      37.042  33.486  35.447  1.00  0.00     0.170 HD
BRANCH  65  67
ATOM     67  C   UNL A   1      37.562  31.929  34.285  1.00  0.00     0.041 A 
ATOM     68  C   UNL A   1      38.738  31.666  35.002  1.00  0.00     0.026 A 
ATOM     69  C   UNL A   1      37.163  31.012  33.308  1.00  0.00     0.026 A 
ATOM     70  C   UNL A   1      39.524  30.549  34.706  1.00  0.00     0.002 A 
ATOM     71  C   UNL A   1      37.958  29.908  32.992  1.00  0.00     0.002 A 
ATOM     72  C   UNL A   1      39.148  29.685  33.682  1.00  0.00     0.000 A 
ENDBRANCH  65  67
ENDBRANCH  64  65
ENDBRANCH  57  59
ENDBRANCH  56  57
ENDBRANCH  55  56
ENDBRANCH   1  55
TORSDOF 13
ENDMDL
MODEL 2
REMARK VINA RESULT:      -9.3      0.696      6.235
REMARK SMILES O=C(OCCOC(=O)c1cnc(Nc2ccccc2)nc1)c1ccc(-c2c3nc(c(-c4ccccc4)c4ccc([nH]4)c(-c4ccccc4)c4nc(c(-c5ccccc5)c5ccc2[nH]5)C=C4)C=C3)cc1
REMARK SMILES IDX 4 1 3 2 2 3 1 4 22 5 23 6 69 7 24 8 68 9 25 10 26 11 27 12
REMARK SMILES IDX 62 13 28 14 67 15 61 16 63 17 29 18 66 19 60 20 59 21 30 23
REMARK SMILES IDX 52 24 37 25 51 26 38 27 41 28 50 29 64 30 39 31 40 32 49 34
REMARK SMILES IDX 65 35 42 36 31 37 32 38 36 39 33 40 35 41 34 42 53 43 54 44
REMARK SMILES IDX 58 45 55 46 57 47 56 48 43 49 44 50 48 51 45 52 47 53 46 54
REMARK SMILES IDX 5 55 6 56 7 57 8 58 9 59 10 60 21 61 11 62 20 63 12 64 13 65
REMARK SMILES IDX 14 67 15 68 19 69 16 70 18 71 17 72
REMARK H PARENT 63 22 41 33 13 66
REMARK Flexibility Score: inf
ROOT
ATOM      1  C   UNL A   1      33.149  36.055  28.589  1.00  0.00     0.275 C 
ENDROOT
BRANCH   1   2
ATOM      2  O   UNL A   1      32.655  34.721  28.359  1.00  0.00    -0.458 OA
BRANCH   2   3
ATOM      3  C   UNL A   1      33.313  33.562  28.136  1.00  0.00     0.338 C 
ATOM      4  O   UNL A   1      32.726  32.646  27.561  1.00  0.00    -0.246 OA
BRANCH   3   5
ATOM      5  C   UNL A   1      34.676  33.263  28.672  1.00  0.00     0.060 A 
ATOM      6  C   UNL A   1      35.883  33.477  28.005  1.00  0.00     0.016 A 
ATOM      7  C   UNL A   1      34.724  32.642  29.935  1.00  0.00     0.016 A 
ATOM      8  C   UNL A   1      37.102  33.128  28.597  1.00  0.00     0.010 A 
ATOM      9  C   UNL A   1      35.939  32.299  30.536  1.00  0.00     0.010 A 
ATOM     10  C   UNL A   1      37.138  32.524  29.857  1.00  0.00    -0.014 A 
BRANCH  10  11
ATOM     11  C   UNL A   1      38.420  31.978  30.361  1.00  0.00     0.031 A 
ATOM     12  C   UNL A   1      38.871  30.635  29.867  1.00  0.00     0.074 A 
ATOM     13  C   UNL A   1      39.209  32.708  31.169  1.00  0.00     0.049 A 
ATOM     14  N   UNL A   1      40.016  30.029  30.052  1.00  0.00    -0.248 NA
ATOM     15  C   UNL A   1      37.916  29.885  29.034  1.00  0.00     0.031 C 
ATOM     16  C   UNL A   1      38.895  34.041  31.673  1.00  0.00     0.029 A 
ATOM     17  N   UNL A   1      40.448  32.437  31.694  1.00  0.00    -0.354 N 
ATOM     18  C   UNL A   1      39.931  28.848  29.328  1.00  0.00     0.074 A 
ATOM     19  C   UNL A   1      38.605  28.789  28.756  1.00  0.00     0.031 C 
ATOM     20  C   UNL A   1      39.913  34.479  32.433  1.00  0.00     0.029 A 
ATOM     21  C   UNL A   1      40.950  33.453  32.472  1.00  0.00     0.049 A 
ATOM     22  H   UNL A   1      40.931  31.595  31.529  1.00  0.00     0.167 HD
ATOM     23  C   UNL A   1      40.885  27.909  29.129  1.00  0.00     0.031 A 
ATOM     24  C   UNL A   1      42.120  33.544  33.134  1.00  0.00     0.031 A 
ATOM     25  C   UNL A   1      42.188  27.949  29.730  1.00  0.00     0.049 A 
ATOM     26  C   UNL A   1      43.098  32.406  33.027  1.00  0.00     0.074 A 
ATOM     27  C   UNL A   1      43.229  27.047  29.604  1.00  0.00     0.029 A 
ATOM     28  N   UNL A   1      42.620  28.947  30.590  1.00  0.00    -0.354 N 
ATOM     29  N   UNL A   1      43.028  31.322  32.290  1.00  0.00    -0.248 NA
ATOM     30  C   UNL A   1      44.324  32.511  33.831  1.00  0.00     0.031 C 
ATOM     31  C   UNL A   1      44.278  27.480  30.423  1.00  0.00     0.029 A 
ATOM     32  C   UNL A   1      43.904  28.672  31.024  1.00  0.00     0.049 A 
ATOM     33  H   UNL A   1      42.091  29.735  30.853  1.00  0.00     0.167 HD
ATOM     34  C   UNL A   1      44.225  30.649  32.494  1.00  0.00     0.074 A 
ATOM     35  C   UNL A   1      44.995  31.438  33.434  1.00  0.00     0.031 C 
ATOM     36  C   UNL A   1      44.658  29.492  31.936  1.00  0.00     0.031 A 
BRANCH  23  37
ATOM     37  C   UNL A   1      40.519  26.762  28.234  1.00  0.00    -0.014 A 
ATOM     38  C   UNL A   1      40.952  26.727  26.898  1.00  0.00     0.009 A 
ATOM     39  C   UNL A   1      39.700  25.729  28.713  1.00  0.00     0.009 A 
ATOM     40  C   UNL A   1      40.536  25.704  26.047  1.00  0.00     0.001 A 
ATOM     41  C   UNL A   1      39.303  24.695  27.864  1.00  0.00     0.001 A 
ATOM     42  C   UNL A   1      39.711  24.689  26.529  1.00  0.00     0.000 A 
ENDBRANCH  23  37
BRANCH  24  43
ATOM     43  C   UNL A   1      42.440  34.746  33.952  1.00  0.00    -0.014 A 
ATOM     44  C   UNL A   1      42.078  34.827  35.305  1.00  0.00     0.009 A 
ATOM     45  C   UNL A   1      43.082  35.845  33.364  1.00  0.00     0.009 A 
ATOM     46  C   UNL A   1      42.324  35.995  36.036  1.00  0.00     0.001 A 
ATOM     47  C   UNL A   1      43.351  37.001  34.100  1.00  0.00     0.001 A 
ATOM     48  C   UNL A   1      42.961  37.079  35.433  1.00  0.00     0.000 A 
ENDBRANCH  24  43
BRANCH  36  49
ATOM     49  C   UNL A   1      46.057  29.061  32.264  1.00  0.00    -0.014 A 
ATOM     50  C   UNL A   1      46.329  28.205  33.340  1.00  0.00     0.009 A 
ATOM     51  C   UNL A   1      47.115  29.501  31.452  1.00  0.00     0.009 A 
ATOM     52  C   UNL A   1      47.642  27.820  33.614  1.00  0.00     0.001 A 
ATOM     53  C   UNL A   1      48.423  29.094  31.714  1.00  0.00     0.001 A 
ATOM     54  C   UNL A   1      48.686  28.260  32.800  1.00  0.00     0.000 A 
ENDBRANCH  36  49
ENDBRANCH  10  11
ENDBRANCH   3   5
ENDBRANCH   2   3
ENDBRANCH   1   2
BRANCH   1  55
ATOM     55  C   UNL A   1      32.876  36.589  29.994  1.00  0.00     0.275 C 
BRANCH  55  56
ATOM     56  O   UNL A   1      32.644  35.550  30.956  1.00  0.00    -0.458 OA
BRANCH  56  57
ATOM     57  C   UNL A   1      32.805  35.919  32.254  1.00  0.00     0.341 C 
ATOM     58  O   UNL A   1      32.117  36.694  32.893  1.00  0.00    -0.246 OA
BRANCH  57  59
ATOM     59  C   UNL A   1      33.876  35.126  32.844  1.00  0.00     0.096 A 
ATOM     60  C   UNL A   1      33.718  33.838  33.285  1.00  0.00     0.132 A 
ATOM     61  C   UNL A   1      35.116  35.677  33.047  1.00  0.00     0.132 A 
ATOM     62  N   UNL A   1      34.694  33.154  33.922  1.00  0.00    -0.220 NA
ATOM     63  N   UNL A   1      36.093  35.057  33.746  1.00  0.00    -0.220 NA
ATOM     64  C   UNL A   1      35.843  33.809  34.181  1.00  0.00     0.227 A 
BRANCH  64  65
ATOM     65  N   UNL A   1      36.791  33.267  35.037  1.00  0.00    -0.324 N 
ATOM     66  H   UNL A   1      36.743  33.610  35.959  1.00  0.00     0.170 HD
BRANCH  65  67
ATOM     67  C   UNL A   1      37.799  32.323  34.830  1.00  0.00     0.041 A 
ATOM     68  C   UNL A   1      37.568  31.250  33.957  1.00  0.00     0.026 A 
ATOM     69  C   UNL A   1      39.050  32.417  35.446  1.00  0.00     0.026 A 
ATOM     70  C   UNL A   1      38.539  30.266  33.757  1.00  0.00     0.002 A 
ATOM     71  C   UNL A   1      40.015  31.422  35.269  1.00  0.00     0.002 A 
ATOM     72  C   UNL A   1      39.753  30.338  34.435  1.00  0.00     0.000 A 
ENDBRANCH  65  67
ENDBRANCH  64  65
ENDBRANCH  57  59
ENDBRANCH  56  57
ENDBRANCH  55  56
ENDBRANCH   1  55
TORSDOF 13
ENDMDL
MODEL 3
REMARK VINA RESULT:      -8.4      5.760     10.946
REMARK SMILES O=C(OCCOC(=O)c1cnc(Nc2ccccc2)nc1)c1ccc(-c2c3nc(c(-c4ccccc4)c4ccc([nH]4)c(-c4ccccc4)c4nc(c(-c5ccccc5)c5ccc2[nH]5)C=C4)C=C3)cc1
REMARK SMILES IDX 4 1 3 2 2 3 1 4 22 5 23 6 69 7 24 8 68 9 25 10 26 11 27 12
REMARK SMILES IDX 62 13 28 14 67 15 61 16 63 17 29 18 66 19 60 20 59 21 30 23
REMARK SMILES IDX 52 24 37 25 51 26 38 27 41 28 50 29 64 30 39 31 40 32 49 34
REMARK SMILES IDX 65 35 42 36 31 37 32 38 36 39 33 40 35 41 34 42 53 43 54 44
REMARK SMILES IDX 58 45 55 46 57 47 56 48 43 49 44 50 48 51 45 52 47 53 46 54
REMARK SMILES IDX 5 55 6 56 7 57 8 58 9 59 10 60 21 61 11 62 20 63 12 64 13 65
REMARK SMILES IDX 14 67 15 68 19 69 16 70 18 71 17 72
REMARK H PARENT 63 22 41 33 13 66
REMARK Flexibility Score: inf
ROOT
ATOM      1  C   UNL A   1      38.454  19.948  24.819  1.00  0.00     0.275 C 
ENDROOT
BRANCH   1   2
ATOM      2  O   UNL A   1      39.384  19.321  25.723  1.00  0.00    -0.458 OA
BRANCH   2   3
ATOM      3  C   UNL A   1      40.697  19.554  25.942  1.00  0.00     0.338 C 
ATOM      4  O   UNL A   1      41.507  18.658  25.708  1.00  0.00    -0.246 OA
BRANCH   3   5
ATOM      5  C   UNL A   1      41.225  20.794  26.589  1.00  0.00     0.060 A 
ATOM      6  C   UNL A   1      41.156  21.101  27.949  1.00  0.00     0.016 A 
ATOM      7  C   UNL A   1      41.773  21.761  25.723  1.00  0.00     0.016 A 
ATOM      8  C   UNL A   1      41.660  22.312  28.437  1.00  0.00     0.010 A 
ATOM      9  C   UNL A   1      42.286  22.969  26.206  1.00  0.00     0.010 A 
ATOM     10  C   UNL A   1      42.214  23.259  27.570  1.00  0.00    -0.014 A 
BRANCH  10  11
ATOM     11  C   UNL A   1      42.543  24.607  28.086  1.00  0.00     0.031 A 
ATOM     12  C   UNL A   1      43.987  24.963  28.293  1.00  0.00     0.074 A 
ATOM     13  C   UNL A   1      41.581  25.527  28.276  1.00  0.00     0.049 A 
ATOM     14  N   UNL A   1      44.517  26.121  28.591  1.00  0.00    -0.248 NA
ATOM     15  C   UNL A   1      44.965  23.877  28.116  1.00  0.00     0.031 C 
ATOM     16  C   UNL A   1      40.154  25.308  28.063  1.00  0.00     0.029 A 
ATOM     17  N   UNL A   1      41.661  26.837  28.676  1.00  0.00    -0.354 N 
ATOM     18  C   UNL A   1      45.889  25.910  28.598  1.00  0.00     0.074 A 
ATOM     19  C   UNL A   1      46.109  24.504  28.342  1.00  0.00     0.031 C 
ATOM     20  C   UNL A   1      39.487  26.443  28.330  1.00  0.00     0.029 A 
ATOM     21  C   UNL A   1      40.441  27.469  28.737  1.00  0.00     0.049 A 
ATOM     22  H   UNL A   1      42.511  27.282  28.898  1.00  0.00     0.167 HD
ATOM     23  C   UNL A   1      46.882  26.812  28.772  1.00  0.00     0.031 A 
ATOM     24  C   UNL A   1      40.135  28.736  29.076  1.00  0.00     0.031 A 
ATOM     25  C   UNL A   1      46.663  28.200  29.066  1.00  0.00     0.049 A 
ATOM     26  C   UNL A   1      41.255  29.678  29.426  1.00  0.00     0.074 A 
ATOM     27  C   UNL A   1      47.595  29.202  29.270  1.00  0.00     0.029 A 
ATOM     28  N   UNL A   1      45.411  28.777  29.216  1.00  0.00    -0.354 N 
ATOM     29  N   UNL A   1      42.550  29.479  29.371  1.00  0.00    -0.248 NA
ATOM     30  C   UNL A   1      40.869  31.025  29.870  1.00  0.00     0.031 C 
ATOM     31  C   UNL A   1      46.904  30.378  29.584  1.00  0.00     0.029 A 
ATOM     32  C   UNL A   1      45.544  30.116  29.534  1.00  0.00     0.049 A 
ATOM     33  H   UNL A   1      44.554  28.303  29.111  1.00  0.00     0.167 HD
ATOM     34  C   UNL A   1      43.134  30.692  29.712  1.00  0.00     0.074 A 
ATOM     35  C   UNL A   1      42.051  31.615  29.987  1.00  0.00     0.031 C 
ATOM     36  C   UNL A   1      44.448  31.019  29.772  1.00  0.00     0.031 A 
BRANCH  23  37
ATOM     37  C   UNL A   1      48.285  26.294  28.660  1.00  0.00    -0.014 A 
ATOM     38  C   UNL A   1      48.977  25.841  29.796  1.00  0.00     0.009 A 
ATOM     39  C   UNL A   1      48.938  26.295  27.419  1.00  0.00     0.009 A 
ATOM     40  C   UNL A   1      50.310  25.443  29.699  1.00  0.00     0.001 A 
ATOM     41  C   UNL A   1      50.266  25.876  27.322  1.00  0.00     0.001 A 
ATOM     42  C   UNL A   1      50.955  25.461  28.463  1.00  0.00     0.000 A 
ENDBRANCH  23  37
BRANCH  24  43
ATOM     43  C   UNL A   1      38.719  29.196  29.102  1.00  0.00    -0.014 A 
ATOM     44  C   UNL A   1      37.929  29.066  30.254  1.00  0.00     0.009 A 
ATOM     45  C   UNL A   1      38.135  29.737  27.948  1.00  0.00     0.009 A 
ATOM     46  C   UNL A   1      36.580  29.439  30.234  1.00  0.00     0.001 A 
ATOM     47  C   UNL A   1      36.796  30.132  27.935  1.00  0.00     0.001 A 
ATOM     48  C   UNL A   1      36.016  29.972  29.076  1.00  0.00     0.000 A 
ENDBRANCH  24  43
BRANCH  36  49
ATOM     49  C   UNL A   1      44.778  32.453  30.063  1.00  0.00    -0.014 A 
ATOM     50  C   UNL A   1      44.916  32.923  31.377  1.00  0.00     0.009 A 
ATOM     51  C   UNL A   1      44.988  33.337  28.993  1.00  0.00     0.009 A 
ATOM     52  C   UNL A   1      45.230  34.263  31.613  1.00  0.00     0.001 A 
ATOM     53  C   UNL A   1      45.326  34.669  29.231  1.00  0.00     0.001 A 
ATOM     54  C   UNL A   1      45.438  35.132  30.542  1.00  0.00     0.000 A 
ENDBRANCH  36  49
ENDBRANCH  10  11
ENDBRANCH   3   5
ENDBRANCH   2   3
ENDBRANCH   1   2
BRANCH   1  55
ATOM     55  C   UNL A   1      37.742  21.168  25.401  1.00  0.00     0.275 C 
BRANCH  55  56
ATOM     56  O   UNL A   1      36.688  21.659  24.561  1.00  0.00    -0.458 OA
BRANCH  56  57
ATOM     57  C   UNL A   1      35.483  21.055  24.736  1.00  0.00     0.341 C 
ATOM     58  O   UNL A   1      35.271  19.875  24.944  1.00  0.00    -0.246 OA
BRANCH  57  59
ATOM     59  C   UNL A   1      34.442  22.076  24.781  1.00  0.00     0.096 A 
ATOM     60  C   UNL A   1      33.986  22.750  23.679  1.00  0.00     0.132 A 
ATOM     61  C   UNL A   1      33.900  22.461  25.981  1.00  0.00     0.132 A 
ATOM     62  N   UNL A   1      33.095  23.763  23.754  1.00  0.00    -0.220 NA
ATOM     63  N   UNL A   1      33.066  23.517  26.109  1.00  0.00    -0.220 NA
ATOM     64  C   UNL A   1      32.699  24.152  24.981  1.00  0.00     0.227 A 
BRANCH  64  65
ATOM     65  N   UNL A   1      31.986  25.329  25.157  1.00  0.00    -0.324 N 
ATOM     66  H   UNL A   1      31.116  25.345  24.698  1.00  0.00     0.170 HD
BRANCH  65  67
ATOM     67  C   UNL A   1      32.279  26.495  25.869  1.00  0.00     0.041 A 
ATOM     68  C   UNL A   1      33.570  27.037  25.802  1.00  0.00     0.026 A 
ATOM     69  C   UNL A   1      31.320  27.162  26.638  1.00  0.00     0.026 A 
ATOM     70  C   UNL A   1      33.908  28.178  26.533  1.00  0.00     0.002 A 
ATOM     71  C   UNL A   1      31.660  28.288  27.391  1.00  0.00     0.002 A 
ATOM     72  C   UNL A   1      32.959  28.788  27.349  1.00  0.00     0.000 A 
ENDBRANCH  65  67
ENDBRANCH  64  65
ENDBRANCH  57  59
ENDBRANCH  56  57
ENDBRANCH  55  56
ENDBRANCH   1  55
TORSDOF 13
ENDMDL
