MODEL 1
REMARK VINA RESULT:      -9.2      0.000      0.000
REMARK SMILES C[C@H](C(=O)OCCOC(=O)c1ccc(-c2c3nc(c(-c4ccccc4)c4ccc([nH]4)c(-c4ccccc4)c4nc(c(-c5ccccc5)c5ccc2[nH]5)C=C4)C=C3)cc1)N1CCc2ccccc21
REMARK SMILES IDX 7 1 6 2 5 3 3 4 4 5 2 6 1 7 59 8 60 9 67 10 61 11 62 12
REMARK SMILES IDX 66 13 63 14 65 15 64 16 8 17 9 18 10 19 11 20 12 21 58 22
REMARK SMILES IDX 13 23 57 24 14 25 15 26 16 27 51 28 17 29 56 30 50 31 52 32
REMARK SMILES IDX 18 33 55 34 49 35 48 36 19 38 41 39 26 40 40 41 27 42 30 43
REMARK SMILES IDX 39 44 53 45 28 46 29 47 38 49 54 50 31 51 20 52 21 53 25 54
REMARK SMILES IDX 22 55 24 56 23 57 42 58 43 59 47 60 44 61 46 62 45 63 32 64
REMARK SMILES IDX 33 65 37 66 34 67 36 68 35 69
REMARK H PARENT 52 37 30 48
REMARK Flexibility Score: inf
ROOT
ATOM      1  C   UNL A   1      34.556  33.222  28.274  1.00  0.00     0.275 C 
ENDROOT
BRANCH   1   2
ATOM      2  C   UNL A   1      33.656  34.212  29.005  1.00  0.00     0.274 C 
BRANCH   2   3
ATOM      3  O   UNL A   1      34.411  34.983  29.962  1.00  0.00    -0.461 OA
BRANCH   3   4
ATOM      4  C   UNL A   1      34.009  34.898  31.265  1.00  0.00     0.328 C 
ATOM      5  O   UNL A   1      32.834  34.916  31.619  1.00  0.00    -0.250 OA
BRANCH   4   6
ATOM      6  C   UNL A   1      35.203  34.929  32.245  1.00  0.00     0.189 C 
ATOM      7  C   UNL A   1      34.710  35.251  33.656  1.00  0.00     0.044 C 
BRANCH   6   8
ATOM      8  N   UNL A   1      36.081  33.739  32.192  1.00  0.00    -0.358 N 
ATOM      9  C   UNL A   1      35.470  32.397  32.203  1.00  0.00     0.122 C 
ATOM     10  C   UNL A   1      37.347  33.606  32.737  1.00  0.00     0.041 A 
ATOM     11  C   UNL A   1      36.478  31.409  32.813  1.00  0.00     0.059 C 
ATOM     12  C   UNL A   1      37.590  32.315  33.210  1.00  0.00    -0.023 A 
ATOM     13  C   UNL A   1      38.370  34.530  32.814  1.00  0.00     0.026 A 
ATOM     14  C   UNL A   1      38.746  31.968  33.896  1.00  0.00     0.006 A 
ATOM     15  C   UNL A   1      39.571  34.188  33.449  1.00  0.00     0.002 A 
ATOM     16  C   UNL A   1      39.740  32.930  34.033  1.00  0.00     0.000 A 
ENDBRANCH   6   8
ENDBRANCH   4   6
ENDBRANCH   3   4
ENDBRANCH   2   3
ENDBRANCH   1   2
BRANCH   1  17
ATOM     17  O   UNL A   1      34.338  31.907  28.804  1.00  0.00    -0.458 OA
BRANCH  17  18
ATOM     18  C   UNL A   1      34.561  30.887  27.949  1.00  0.00     0.338 C 
ATOM     19  O   UNL A   1      33.823  30.515  27.043  1.00  0.00    -0.246 OA
BRANCH  18  20
ATOM     20  C   UNL A   1      35.835  30.217  28.277  1.00  0.00     0.060 A 
ATOM     21  C   UNL A   1      36.068  29.673  29.543  1.00  0.00     0.016 A 
ATOM     22  C   UNL A   1      36.856  30.214  27.323  1.00  0.00     0.016 A 
ATOM     23  C   UNL A   1      37.344  29.219  29.880  1.00  0.00     0.010 A 
ATOM     24  C   UNL A   1      38.110  29.687  27.639  1.00  0.00     0.010 A 
ATOM     25  C   UNL A   1      38.385  29.225  28.936  1.00  0.00    -0.014 A 
BRANCH  25  26
ATOM     26  C   UNL A   1      39.753  28.766  29.303  1.00  0.00     0.031 A 
ATOM     27  C   UNL A   1      40.691  29.654  30.085  1.00  0.00     0.074 A 
ATOM     28  C   UNL A   1      40.164  27.537  28.936  1.00  0.00     0.049 A 
ATOM     29  N   UNL A   1      41.941  29.445  30.423  1.00  0.00    -0.248 NA
ATOM     30  C   UNL A   1      40.158  30.940  30.562  1.00  0.00     0.031 C 
ATOM     31  C   UNL A   1      39.355  26.552  28.215  1.00  0.00     0.029 A 
ATOM     32  N   UNL A   1      41.370  26.907  29.119  1.00  0.00    -0.354 N 
ATOM     33  C   UNL A   1      42.337  30.566  31.144  1.00  0.00     0.074 A 
ATOM     34  C   UNL A   1      41.201  31.459  31.193  1.00  0.00     0.031 C 
ATOM     35  C   UNL A   1      40.077  25.437  28.037  1.00  0.00     0.029 A 
ATOM     36  C   UNL A   1      41.424  25.659  28.551  1.00  0.00     0.049 A 
ATOM     37  H   UNL A   1      42.123  27.312  29.608  1.00  0.00     0.167 HD
ATOM     38  C   UNL A   1      43.542  30.837  31.701  1.00  0.00     0.031 A 
ATOM     39  C   UNL A   1      42.451  24.801  28.405  1.00  0.00     0.031 A 
ATOM     40  C   UNL A   1      44.690  29.974  31.622  1.00  0.00     0.049 A 
ATOM     41  C   UNL A   1      43.808  25.181  28.915  1.00  0.00     0.074 A 
ATOM     42  C   UNL A   1      45.955  30.170  32.151  1.00  0.00     0.029 A 
ATOM     43  N   UNL A   1      44.720  28.760  30.956  1.00  0.00    -0.354 N 
ATOM     44  N   UNL A   1      44.170  26.254  29.574  1.00  0.00    -0.248 NA
ATOM     45  C   UNL A   1      44.902  24.239  28.642  1.00  0.00     0.031 C 
ATOM     46  C   UNL A   1      46.767  29.104  31.750  1.00  0.00     0.029 A 
ATOM     47  C   UNL A   1      45.992  28.216  31.024  1.00  0.00     0.049 A 
ATOM     48  H   UNL A   1      43.951  28.346  30.502  1.00  0.00     0.167 HD
ATOM     49  C   UNL A   1      45.532  26.116  29.797  1.00  0.00     0.074 A 
ATOM     50  C   UNL A   1      45.927  24.846  29.224  1.00  0.00     0.031 C 
ATOM     51  C   UNL A   1      46.380  26.968  30.424  1.00  0.00     0.031 A 
BRANCH  38  52
ATOM     52  C   UNL A   1      43.707  32.152  32.411  1.00  0.00    -0.014 A 
ATOM     53  C   UNL A   1      44.050  33.320  31.715  1.00  0.00     0.009 A 
ATOM     54  C   UNL A   1      43.436  32.234  33.786  1.00  0.00     0.009 A 
ATOM     55  C   UNL A   1      44.129  34.544  32.385  1.00  0.00     0.001 A 
ATOM     56  C   UNL A   1      43.497  33.460  34.450  1.00  0.00     0.001 A 
ATOM     57  C   UNL A   1      43.846  34.614  33.749  1.00  0.00     0.000 A 
ENDBRANCH  38  52
BRANCH  39  58
ATOM     58  C   UNL A   1      42.234  23.527  27.674  1.00  0.00    -0.014 A 
ATOM     59  C   UNL A   1      41.689  22.411  28.323  1.00  0.00     0.009 A 
ATOM     60  C   UNL A   1      42.536  23.441  26.305  1.00  0.00     0.009 A 
ATOM     61  C   UNL A   1      41.451  21.232  27.612  1.00  0.00     0.001 A 
ATOM     62  C   UNL A   1      42.268  22.272  25.592  1.00  0.00     0.001 A 
ATOM     63  C   UNL A   1      41.730  21.167  26.248  1.00  0.00     0.000 A 
ENDBRANCH  39  58
BRANCH  51  64
ATOM     64  C   UNL A   1      47.815  26.543  30.525  1.00  0.00    -0.014 A 
ATOM     65  C   UNL A   1      48.731  26.843  29.505  1.00  0.00     0.009 A 
ATOM     66  C   UNL A   1      48.257  25.844  31.657  1.00  0.00     0.009 A 
ATOM     67  C   UNL A   1      50.056  26.415  29.602  1.00  0.00     0.001 A 
ATOM     68  C   UNL A   1      49.588  25.440  31.762  1.00  0.00     0.001 A 
ATOM     69  C   UNL A   1      50.484  25.716  30.730  1.00  0.00     0.000 A 
ENDBRANCH  51  64
ENDBRANCH  25  26
ENDBRANCH  18  20
ENDBRANCH  17  18
ENDBRANCH   1  17
TORSDOF 12
ENDMDL
MODEL 2
REMARK VINA RESULT:      -9.1      4.667     10.934
REMARK SMILES C[C@H](C(=O)OCCOC(=O)c1ccc(-c2c3nc(c(-c4ccccc4)c4ccc([nH]4)c(-c4ccccc4)c4nc(c(-c5ccccc5)c5ccc2[nH]5)C=C4)C=C3)cc1)N1CCc2ccccc21
REMARK SMILES IDX 7 1 6 2 5 3 3 4 4 5 2 6 1 7 59 8 60 9 67 10 61 11 62 12
REMARK SMILES IDX 66 13 63 14 65 15 64 16 8 17 9 18 10 19 11 20 12 21 58 22
REMARK SMILES IDX 13 23 57 24 14 25 15 26 16 27 51 28 17 29 56 30 50 31 52 32
REMARK SMILES IDX 18 33 55 34 49 35 48 36 19 38 41 39 26 40 40 41 27 42 30 43
REMARK SMILES IDX 39 44 53 45 28 46 29 47 38 49 54 50 31 51 20 52 21 53 25 54
REMARK SMILES IDX 22 55 24 56 23 57 42 58 43 59 47 60 44 61 46 62 45 63 32 64
REMARK SMILES IDX 33 65 37 66 34 67 36 68 35 69
REMARK H PARENT 52 37 30 48
REMARK Flexibility Score: inf
ROOT
ATOM      1  C   UNL A   1      44.601  22.586  25.669  1.00  0.00     0.275 C 
ENDROOT
BRANCH   1   2
ATOM      2  C   UNL A   1      43.833  21.307  25.359  1.00  0.00     0.274 C 
BRANCH   2   3
ATOM      3  O   UNL A   1      42.411  21.541  25.383  1.00  0.00    -0.461 OA
BRANCH   3   4
ATOM      4  C   UNL A   1      41.645  20.578  25.979  1.00  0.00     0.328 C 
ATOM      5  O   UNL A   1      41.727  19.383  25.715  1.00  0.00    -0.250 OA
BRANCH   4   6
ATOM      6  C   UNL A   1      40.568  21.183  26.906  1.00  0.00     0.189 C 
ATOM      7  C   UNL A   1      41.231  21.822  28.126  1.00  0.00     0.044 C 
BRANCH   6   8
ATOM      8  N   UNL A   1      39.600  22.077  26.234  1.00  0.00    -0.358 N 
ATOM      9  C   UNL A   1      39.554  23.500  26.615  1.00  0.00     0.122 C 
ATOM     10  C   UNL A   1      38.338  21.748  25.768  1.00  0.00     0.041 A 
ATOM     11  C   UNL A   1      38.136  24.031  26.347  1.00  0.00     0.059 C 
ATOM     12  C   UNL A   1      37.428  22.798  25.910  1.00  0.00    -0.023 A 
ATOM     13  C   UNL A   1      37.903  20.588  25.158  1.00  0.00     0.026 A 
ATOM     14  C   UNL A   1      36.077  22.669  25.616  1.00  0.00     0.006 A 
ATOM     15  C   UNL A   1      36.556  20.454  24.796  1.00  0.00     0.002 A 
ATOM     16  C   UNL A   1      35.636  21.469  25.070  1.00  0.00     0.000 A 
ENDBRANCH   6   8
ENDBRANCH   4   6
ENDBRANCH   3   4
ENDBRANCH   2   3
ENDBRANCH   1   2
BRANCH   1  17
ATOM     17  O   UNL A   1      44.008  23.677  24.949  1.00  0.00    -0.458 OA
BRANCH  17  18
ATOM     18  C   UNL A   1      44.577  24.885  25.144  1.00  0.00     0.338 C 
ATOM     19  O   UNL A   1      45.593  25.313  24.605  1.00  0.00    -0.246 OA
BRANCH  18  20
ATOM     20  C   UNL A   1      43.822  25.646  26.158  1.00  0.00     0.060 A 
ATOM     21  C   UNL A   1      44.097  26.991  26.415  1.00  0.00     0.016 A 
ATOM     22  C   UNL A   1      42.877  24.971  26.936  1.00  0.00     0.016 A 
ATOM     23  C   UNL A   1      43.501  27.627  27.506  1.00  0.00     0.010 A 
ATOM     24  C   UNL A   1      42.223  25.634  27.978  1.00  0.00     0.010 A 
ATOM     25  C   UNL A   1      42.561  26.956  28.306  1.00  0.00    -0.014 A 
BRANCH  25  26
ATOM     26  C   UNL A   1      41.945  27.625  29.486  1.00  0.00     0.031 A 
ATOM     27  C   UNL A   1      40.636  28.370  29.365  1.00  0.00     0.074 A 
ATOM     28  C   UNL A   1      42.559  27.564  30.683  1.00  0.00     0.049 A 
ATOM     29  N   UNL A   1      39.997  29.073  30.269  1.00  0.00    -0.248 NA
ATOM     30  C   UNL A   1      39.946  28.310  28.067  1.00  0.00     0.031 C 
ATOM     31  C   UNL A   1      43.805  26.846  30.961  1.00  0.00     0.029 A 
ATOM     32  N   UNL A   1      42.217  28.120  31.890  1.00  0.00    -0.354 N 
ATOM     33  C   UNL A   1      38.842  29.536  29.650  1.00  0.00     0.074 A 
ATOM     34  C   UNL A   1      38.864  29.042  28.291  1.00  0.00     0.031 C 
ATOM     35  C   UNL A   1      44.110  26.985  32.259  1.00  0.00     0.029 A 
ATOM     36  C   UNL A   1      43.134  27.871  32.882  1.00  0.00     0.049 A 
ATOM     37  H   UNL A   1      41.397  28.645  32.032  1.00  0.00     0.167 HD
ATOM     38  C   UNL A   1      37.857  30.315  30.159  1.00  0.00     0.031 A 
ATOM     39  C   UNL A   1      43.220  28.343  34.140  1.00  0.00     0.031 A 
ATOM     40  C   UNL A   1      37.846  30.846  31.497  1.00  0.00     0.049 A 
ATOM     41  C   UNL A   1      42.188  29.309  34.638  1.00  0.00     0.074 A 
ATOM     42  C   UNL A   1      36.893  31.651  32.098  1.00  0.00     0.029 A 
ATOM     43  N   UNL A   1      38.844  30.640  32.434  1.00  0.00    -0.354 N 
ATOM     44  N   UNL A   1      41.115  29.754  34.032  1.00  0.00    -0.248 NA
ATOM     45  C   UNL A   1      42.392  29.854  35.987  1.00  0.00     0.031 C 
ATOM     46  C   UNL A   1      37.346  31.985  33.379  1.00  0.00     0.029 A 
ATOM     47  C   UNL A   1      38.552  31.339  33.595  1.00  0.00     0.049 A 
ATOM     48  H   UNL A   1      39.643  30.082  32.297  1.00  0.00     0.167 HD
ATOM     49  C   UNL A   1      40.514  30.628  34.925  1.00  0.00     0.074 A 
ATOM     50  C   UNL A   1      41.329  30.634  36.123  1.00  0.00     0.031 C 
ATOM     51  C   UNL A   1      39.385  31.361  34.767  1.00  0.00     0.031 A 
BRANCH  38  52
ATOM     52  C   UNL A   1      36.720  30.693  29.250  1.00  0.00    -0.014 A 
ATOM     53  C   UNL A   1      36.562  32.007  28.786  1.00  0.00     0.009 A 
ATOM     54  C   UNL A   1      35.842  29.698  28.793  1.00  0.00     0.009 A 
ATOM     55  C   UNL A   1      35.539  32.318  27.886  1.00  0.00     0.001 A 
ATOM     56  C   UNL A   1      34.832  30.009  27.881  1.00  0.00     0.001 A 
ATOM     57  C   UNL A   1      34.680  31.319  27.429  1.00  0.00     0.000 A 
ENDBRANCH  38  52
BRANCH  39  58
ATOM     58  C   UNL A   1      44.378  27.954  34.983  1.00  0.00    -0.014 A 
ATOM     59  C   UNL A   1      45.546  28.728  34.999  1.00  0.00     0.009 A 
ATOM     60  C   UNL A   1      44.298  26.822  35.810  1.00  0.00     0.009 A 
ATOM     61  C   UNL A   1      46.613  28.374  35.829  1.00  0.00     0.001 A 
ATOM     62  C   UNL A   1      45.353  26.488  36.661  1.00  0.00     0.001 A 
ATOM     63  C   UNL A   1      46.511  27.263  36.665  1.00  0.00     0.000 A 
ENDBRANCH  39  58
BRANCH  51  64
ATOM     64  C   UNL A   1      38.967  32.220  35.923  1.00  0.00    -0.014 A 
ATOM     65  C   UNL A   1      38.120  31.723  36.925  1.00  0.00     0.009 A 
ATOM     66  C   UNL A   1      39.433  33.541  36.014  1.00  0.00     0.009 A 
ATOM     67  C   UNL A   1      37.718  32.546  37.978  1.00  0.00     0.001 A 
ATOM     68  C   UNL A   1      39.049  34.352  37.082  1.00  0.00     0.001 A 
ATOM     69  C   UNL A   1      38.183  33.858  38.057  1.00  0.00     0.000 A 
ENDBRANCH  51  64
ENDBRANCH  25  26
ENDBRANCH  18  20
ENDBRANCH  17  18
ENDBRANCH   1  17
TORSDOF 12
ENDMDL
MODEL 3
REMARK VINA RESULT:      -9.0      3.786     10.235
REMARK SMILES C[C@H](C(=O)OCCOC(=O)c1ccc(-c2c3nc(c(-c4ccccc4)c4ccc([nH]4)c(-c4ccccc4)c4nc(c(-c5ccccc5)c5ccc2[nH]5)C=C4)C=C3)cc1)N1CCc2ccccc21
REMARK SMILES IDX 7 1 6 2 5 3 3 4 4 5 2 6 1 7 59 8 60 9 67 10 61 11 62 12
REMARK SMILES IDX 66 13 63 14 65 15 64 16 8 17 9 18 10 19 11 20 12 21 58 22
REMARK SMILES IDX 13 23 57 24 14 25 15 26 16 27 51 28 17 29 56 30 50 31 52 32
REMARK SMILES IDX 18 33 55 34 49 35 48 36 19 38 41 39 26 40 40 41 27 42 30 43
REMARK SMILES IDX 39 44 53 45 28 46 29 47 38 49 54 50 31 51 20 52 21 53 25 54
REMARK SMILES IDX 22 55 24 56 23 57 42 58 43 59 47 60 44 61 46 62 45 63 32 64
REMARK SMILES IDX 33 65 37 66 34 67 36 68 35 69
REMARK H PARENT 52 37 30 48
REMARK Flexibility Score: inf
ROOT
ATOM      1  C   UNL A   1      40.690  20.496  26.272  1.00  0.00     0.275 C 
ENDROOT
BRANCH   1   2
ATOM      2  C   UNL A   1      42.196  20.726  26.219  1.00  0.00     0.274 C 
BRANCH   2   3
ATOM      3  O   UNL A   1      42.517  21.831  25.351  1.00  0.00    -0.461 OA
BRANCH   3   4
ATOM      4  C   UNL A   1      43.830  21.967  24.997  1.00  0.00     0.328 C 
ATOM      5  O   UNL A   1      44.500  21.064  24.503  1.00  0.00    -0.250 OA
BRANCH   4   6
ATOM      6  C   UNL A   1      44.411  23.333  25.426  1.00  0.00     0.189 C 
ATOM      7  C   UNL A   1      43.351  24.422  25.263  1.00  0.00     0.044 C 
BRANCH   6   8
ATOM      8  N   UNL A   1      45.058  23.341  26.756  1.00  0.00    -0.358 N 
ATOM      9  C   UNL A   1      44.231  23.124  27.957  1.00  0.00     0.122 C 
ATOM     10  C   UNL A   1      46.146  24.100  27.154  1.00  0.00     0.041 A 
ATOM     11  C   UNL A   1      44.906  23.823  29.148  1.00  0.00     0.059 C 
ATOM     12  C   UNL A   1      46.058  24.497  28.490  1.00  0.00    -0.023 A 
ATOM     13  C   UNL A   1      47.280  24.446  26.446  1.00  0.00     0.026 A 
ATOM     14  C   UNL A   1      46.975  25.355  29.083  1.00  0.00     0.006 A 
ATOM     15  C   UNL A   1      48.251  25.261  27.041  1.00  0.00     0.002 A 
ATOM     16  C   UNL A   1      48.076  25.756  28.336  1.00  0.00     0.000 A 
ENDBRANCH   6   8
ENDBRANCH   4   6
ENDBRANCH   3   4
ENDBRANCH   2   3
ENDBRANCH   1   2
BRANCH   1  17
ATOM     17  O   UNL A   1      40.104  21.430  27.190  1.00  0.00    -0.458 OA
BRANCH  17  18
ATOM     18  C   UNL A   1      39.397  22.435  26.631  1.00  0.00     0.338 C 
ATOM     19  O   UNL A   1      38.419  22.325  25.899  1.00  0.00    -0.246 OA
BRANCH  18  20
ATOM     20  C   UNL A   1      39.995  23.737  26.986  1.00  0.00     0.060 A 
ATOM     21  C   UNL A   1      40.666  23.925  28.197  1.00  0.00     0.016 A 
ATOM     22  C   UNL A   1      39.800  24.821  26.126  1.00  0.00     0.016 A 
ATOM     23  C   UNL A   1      41.051  25.210  28.586  1.00  0.00     0.010 A 
ATOM     24  C   UNL A   1      40.257  26.092  26.485  1.00  0.00     0.010 A 
ATOM     25  C   UNL A   1      40.847  26.312  27.739  1.00  0.00    -0.014 A 
BRANCH  25  26
ATOM     26  C   UNL A   1      41.233  27.686  28.164  1.00  0.00     0.031 A 
ATOM     27  C   UNL A   1      42.681  28.114  28.200  1.00  0.00     0.074 A 
ATOM     28  C   UNL A   1      40.278  28.566  28.520  1.00  0.00     0.049 A 
ATOM     29  N   UNL A   1      43.200  29.244  28.617  1.00  0.00    -0.248 NA
ATOM     30  C   UNL A   1      43.677  27.157  27.693  1.00  0.00     0.031 C 
ATOM     31  C   UNL A   1      38.836  28.310  28.495  1.00  0.00     0.029 A 
ATOM     32  N   UNL A   1      40.379  29.857  28.977  1.00  0.00    -0.354 N 
ATOM     33  C   UNL A   1      44.573  29.130  28.424  1.00  0.00     0.074 A 
ATOM     34  C   UNL A   1      44.812  27.821  27.858  1.00  0.00     0.031 C 
ATOM     35  C   UNL A   1      38.188  29.413  28.895  1.00  0.00     0.029 A 
ATOM     36  C   UNL A   1      39.167  30.421  29.287  1.00  0.00     0.049 A 
ATOM     37  H   UNL A   1      41.236  30.331  29.073  1.00  0.00     0.167 HD
ATOM     38  C   UNL A   1      45.549  30.026  28.705  1.00  0.00     0.031 A 
ATOM     39  C   UNL A   1      38.865  31.595  29.873  1.00  0.00     0.031 A 
ATOM     40  C   UNL A   1      45.325  31.314  29.306  1.00  0.00     0.049 A 
ATOM     41  C   UNL A   1      39.971  32.513  30.296  1.00  0.00     0.074 A 
ATOM     42  C   UNL A   1      46.255  32.286  29.636  1.00  0.00     0.029 A 
ATOM     43  N   UNL A   1      44.086  31.802  29.687  1.00  0.00    -0.354 N 
ATOM     44  N   UNL A   1      41.263  32.380  30.127  1.00  0.00    -0.248 NA
ATOM     45  C   UNL A   1      39.576  33.734  31.011  1.00  0.00     0.031 C 
ATOM     46  C   UNL A   1      45.584  33.336  30.273  1.00  0.00     0.029 A 
ATOM     47  C   UNL A   1      44.231  33.043  30.286  1.00  0.00     0.049 A 
ATOM     48  H   UNL A   1      43.229  31.337  29.552  1.00  0.00     0.167 HD
ATOM     49  C   UNL A   1      41.837  33.501  30.710  1.00  0.00     0.074 A 
ATOM     50  C   UNL A   1      40.750  34.314  31.218  1.00  0.00     0.031 C 
ATOM     51  C   UNL A   1      43.148  33.827  30.814  1.00  0.00     0.031 A 
BRANCH  38  52
ATOM     52  C   UNL A   1      46.970  29.630  28.416  1.00  0.00    -0.014 A 
ATOM     53  C   UNL A   1      47.485  29.658  27.112  1.00  0.00     0.009 A 
ATOM     54  C   UNL A   1      47.826  29.300  29.479  1.00  0.00     0.009 A 
ATOM     55  C   UNL A   1      48.829  29.353  26.878  1.00  0.00     0.001 A 
ATOM     56  C   UNL A   1      49.171  29.013  29.244  1.00  0.00     0.001 A 
ATOM     57  C   UNL A   1      49.672  29.038  27.944  1.00  0.00     0.000 A 
ENDBRANCH  38  52
BRANCH  39  58
ATOM     58  C   UNL A   1      37.445  31.921  30.156  1.00  0.00    -0.014 A 
ATOM     59  C   UNL A   1      36.846  31.532  31.361  1.00  0.00     0.009 A 
ATOM     60  C   UNL A   1      36.695  32.664  29.229  1.00  0.00     0.009 A 
ATOM     61  C   UNL A   1      35.521  31.882  31.633  1.00  0.00     0.001 A 
ATOM     62  C   UNL A   1      35.382  33.039  29.517  1.00  0.00     0.001 A 
ATOM     63  C   UNL A   1      34.796  32.644  30.717  1.00  0.00     0.000 A 
ENDBRANCH  39  58
BRANCH  51  64
ATOM     64  C   UNL A   1      43.472  35.122  31.497  1.00  0.00    -0.014 A 
ATOM     65  C   UNL A   1      43.591  35.193  32.894  1.00  0.00     0.009 A 
ATOM     66  C   UNL A   1      43.669  36.283  30.734  1.00  0.00     0.009 A 
ATOM     67  C   UNL A   1      43.865  36.413  33.516  1.00  0.00     0.001 A 
ATOM     68  C   UNL A   1      43.966  37.495  31.357  1.00  0.00     0.001 A 
ATOM     69  C   UNL A   1      44.053  37.561  32.748  1.00  0.00     0.000 A 
ENDBRANCH  51  64
ENDBRANCH  25  26
ENDBRANCH  18  20
ENDBRANCH  17  18
ENDBRANCH   1  17
TORSDOF 12
ENDMDL
