MODEL 1
REMARK VINA RESULT:     -12.5      0.000      0.000
REMARK SMILES Cc1n[nH]c2c1[C@@]1(C(=O)N([C@@H](C)C(=O)OCCOC(=O)c3ccc(-c4c5nc(c(-c6ccccc6)c6ccc([nH]6)c(-c6ccccc6)c6nc(c(-c7ccccc7)c7ccc4[nH]7)C=C6)C=C5)cc3)c3ccccc31)C(C#N)=C(N)O2
REMARK SMILES IDX 16 1 15 2 13 3 14 4 11 5 12 6 10 7 1 8 2 9 3 10 6 11 4 12
REMARK SMILES IDX 5 13 7 14 80 16 8 17 74 18 75 19 78 20 9 21 69 22 73 23
REMARK SMILES IDX 70 24 72 25 71 26 76 27 77 28 79 29 17 32 18 33 19 34 20 35
REMARK SMILES IDX 21 36 22 37 68 38 23 39 67 40 24 41 25 42 26 43 61 44 27 45
REMARK SMILES IDX 66 46 60 47 62 48 28 49 65 50 59 51 58 52 29 54 51 55 36 56
REMARK SMILES IDX 50 57 37 58 40 59 49 60 63 61 38 62 39 63 48 65 64 66 41 67
REMARK SMILES IDX 30 68 31 69 35 70 32 71 34 72 33 73 52 74 53 75 57 76 54 77
REMARK SMILES IDX 56 78 55 79 42 80 43 81 47 82 44 83 46 84 45 85
REMARK H PARENT 4 15 79 30 79 31 62 53 40 64
REMARK Flexibility Score: inf
ROOT
ATOM      1  C   UNL A   1      32.418  30.479  26.664  1.00  0.00     0.274 C 
ENDROOT
BRANCH   1   2
ATOM      2  O   UNL A   1      33.383  29.774  25.846  1.00  0.00    -0.461 OA
BRANCH   2   3
ATOM      3  C   UNL A   1      32.918  29.162  24.720  1.00  0.00     0.329 C 
ATOM      4  O   UNL A   1      31.788  29.322  24.268  1.00  0.00    -0.250 OA
BRANCH   3   5
ATOM      5  C   UNL A   1      33.947  28.205  24.055  1.00  0.00     0.197 C 
ATOM      6  C   UNL A   1      34.096  28.601  22.580  1.00  0.00     0.044 C 
BRANCH   5   7
ATOM      7  N   UNL A   1      33.679  26.788  24.198  1.00  0.00    -0.297 N 
ATOM      8  C   UNL A   1      30.249  26.353  24.810  1.00  0.00     0.069 C 
ATOM      9  C   UNL A   1      30.631  25.211  25.677  1.00  0.00     0.068 A 
ATOM     10  N   UNL A   1      29.703  24.646  26.467  1.00  0.00    -0.177 NA
ATOM     11  C   UNL A   1      31.892  24.578  25.833  1.00  0.00     0.063 A 
ATOM     12  N   UNL A   1      30.373  23.689  27.139  1.00  0.00    -0.246 N 
ATOM     13  C   UNL A   1      31.679  23.615  26.778  1.00  0.00     0.222 A 
ATOM     14  C   UNL A   1      33.272  24.770  25.294  1.00  0.00     0.149 C 
ATOM     15  H   UNL A   1      29.961  23.106  27.817  1.00  0.00     0.193 HD
ATOM     16  O   UNL A   1      32.571  22.782  27.291  1.00  0.00    -0.422 OA
ATOM     17  C   UNL A   1      33.688  26.215  25.477  1.00  0.00     0.248 C 
ATOM     18  C   UNL A   1      33.160  24.588  23.819  1.00  0.00     0.002 A 
ATOM     19  C   UNL A   1      34.275  23.866  25.917  1.00  0.00     0.114 C 
ATOM     20  C   UNL A   1      33.904  22.942  26.860  1.00  0.00     0.208 C 
ATOM     21  O   UNL A   1      33.936  26.772  26.536  1.00  0.00    -0.273 OA
ATOM     22  C   UNL A   1      33.330  25.830  23.213  1.00  0.00     0.050 A 
ATOM     23  C   UNL A   1      32.923  23.412  23.109  1.00  0.00     0.008 A 
ATOM     24  C   UNL A   1      33.118  25.919  21.856  1.00  0.00     0.027 A 
ATOM     25  C   UNL A   1      32.842  23.493  21.727  1.00  0.00     0.001 A 
ATOM     26  C   UNL A   1      32.920  24.744  21.106  1.00  0.00     0.002 A 
BRANCH  19  27
ATOM     27  C   UNL A   1      35.767  23.961  25.641  1.00  0.00     0.102 C 
ATOM     28  N   UNL A   1      37.005  24.040  25.413  1.00  0.00    -0.193 NA
ENDBRANCH  19  27
BRANCH  20  29
ATOM     29  N   UNL A   1      34.745  22.082  27.504  1.00  0.00    -0.369 N 
ATOM     30  H   UNL A   1      34.728  22.019  28.486  1.00  0.00     0.159 HD
ATOM     31  H   UNL A   1      35.370  21.524  26.986  1.00  0.00     0.159 HD
ENDBRANCH  20  29
ENDBRANCH   5   7
ENDBRANCH   3   5
ENDBRANCH   2   3
ENDBRANCH   1   2
BRANCH   1  32
ATOM     32  C   UNL A   1      33.008  31.795  27.180  1.00  0.00     0.275 C 
BRANCH  32  33
ATOM     33  O   UNL A   1      34.000  31.495  28.172  1.00  0.00    -0.458 OA
BRANCH  33  34
ATOM     34  C   UNL A   1      35.210  32.061  27.965  1.00  0.00     0.338 C 
ATOM     35  O   UNL A   1      35.443  33.208  27.604  1.00  0.00    -0.246 OA
BRANCH  34  36
ATOM     36  C   UNL A   1      36.213  31.192  28.611  1.00  0.00     0.060 A 
ATOM     37  C   UNL A   1      37.448  31.677  29.059  1.00  0.00     0.016 A 
ATOM     38  C   UNL A   1      35.992  29.821  28.533  1.00  0.00     0.016 A 
ATOM     39  C   UNL A   1      38.519  30.797  29.228  1.00  0.00     0.010 A 
ATOM     40  C   UNL A   1      37.059  28.960  28.734  1.00  0.00     0.010 A 
ATOM     41  C   UNL A   1      38.349  29.439  28.953  1.00  0.00    -0.014 A 
BRANCH  41  42
ATOM     42  C   UNL A   1      39.397  28.451  29.224  1.00  0.00     0.031 A 
ATOM     43  C   UNL A   1      39.594  28.324  30.672  1.00  0.00     0.074 A 
ATOM     44  C   UNL A   1      40.132  27.661  28.413  1.00  0.00     0.049 A 
ATOM     45  N   UNL A   1      40.391  29.084  31.335  1.00  0.00    -0.248 NA
ATOM     46  C   UNL A   1      38.711  27.486  31.487  1.00  0.00     0.031 C 
ATOM     47  C   UNL A   1      40.052  27.483  26.971  1.00  0.00     0.029 A 
ATOM     48  N   UNL A   1      41.152  26.807  28.760  1.00  0.00    -0.354 N 
ATOM     49  C   UNL A   1      40.284  28.668  32.641  1.00  0.00     0.074 A 
ATOM     50  C   UNL A   1      39.089  27.863  32.711  1.00  0.00     0.031 C 
ATOM     51  C   UNL A   1      40.839  26.448  26.576  1.00  0.00     0.029 A 
ATOM     52  C   UNL A   1      41.623  26.008  27.724  1.00  0.00     0.049 A 
ATOM     53  H   UNL A   1      41.522  26.766  29.672  1.00  0.00     0.167 HD
ATOM     54  C   UNL A   1      41.357  28.779  33.465  1.00  0.00     0.031 A 
ATOM     55  C   UNL A   1      42.761  25.268  27.690  1.00  0.00     0.031 A 
ATOM     56  C   UNL A   1      42.423  29.529  32.839  1.00  0.00     0.049 A 
ATOM     57  C   UNL A   1      43.720  25.897  28.618  1.00  0.00     0.074 A 
ATOM     58  C   UNL A   1      42.673  30.852  32.544  1.00  0.00     0.029 A 
ATOM     59  N   UNL A   1      43.231  28.772  32.025  1.00  0.00    -0.354 N 
ATOM     60  N   UNL A   1      44.286  27.045  28.382  1.00  0.00    -0.248 NA
ATOM     61  C   UNL A   1      43.853  25.395  29.980  1.00  0.00     0.031 C 
ATOM     62  C   UNL A   1      43.533  30.854  31.405  1.00  0.00     0.029 A 
ATOM     63  C   UNL A   1      43.817  29.537  31.048  1.00  0.00     0.049 A 
ATOM     64  H   UNL A   1      43.372  27.803  32.130  1.00  0.00     0.167 HD
ATOM     65  C   UNL A   1      44.445  27.602  29.634  1.00  0.00     0.074 A 
ATOM     66  C   UNL A   1      44.338  26.491  30.570  1.00  0.00     0.031 C 
ATOM     67  C   UNL A   1      44.328  28.945  29.825  1.00  0.00     0.031 A 
BRANCH  54  68
ATOM     68  C   UNL A   1      41.626  27.842  34.606  1.00  0.00    -0.014 A 
ATOM     69  C   UNL A   1      41.404  26.454  34.548  1.00  0.00     0.009 A 
ATOM     70  C   UNL A   1      42.360  28.323  35.701  1.00  0.00     0.009 A 
ATOM     71  C   UNL A   1      41.874  25.587  35.535  1.00  0.00     0.001 A 
ATOM     72  C   UNL A   1      42.865  27.455  36.673  1.00  0.00     0.001 A 
ATOM     73  C   UNL A   1      42.620  26.088  36.591  1.00  0.00     0.000 A 
ENDBRANCH  54  68
BRANCH  55  74
ATOM     74  C   UNL A   1      42.957  23.860  27.262  1.00  0.00    -0.014 A 
ATOM     75  C   UNL A   1      43.603  23.564  26.051  1.00  0.00     0.009 A 
ATOM     76  C   UNL A   1      42.222  22.830  27.882  1.00  0.00     0.009 A 
ATOM     77  C   UNL A   1      43.459  22.307  25.448  1.00  0.00     0.001 A 
ATOM     78  C   UNL A   1      42.079  21.574  27.276  1.00  0.00     0.001 A 
ATOM     79  C   UNL A   1      42.680  21.320  26.048  1.00  0.00     0.000 A 
ENDBRANCH  55  74
BRANCH  67  80
ATOM     80  C   UNL A   1      44.566  29.849  28.645  1.00  0.00    -0.014 A 
ATOM     81  C   UNL A   1      45.846  30.411  28.508  1.00  0.00     0.009 A 
ATOM     82  C   UNL A   1      43.572  30.228  27.727  1.00  0.00     0.009 A 
ATOM     83  C   UNL A   1      46.122  31.344  27.508  1.00  0.00     0.001 A 
ATOM     84  C   UNL A   1      43.855  31.144  26.707  1.00  0.00     0.001 A 
ATOM     85  C   UNL A   1      45.125  31.711  26.607  1.00  0.00     0.000 A 
ENDBRANCH  67  80
ENDBRANCH  41  42
ENDBRANCH  34  36
ENDBRANCH  33  34
ENDBRANCH  32  33
ENDBRANCH   1  32
TORSDOF 14
ENDMDL
MODEL 2
REMARK VINA RESULT:     -12.2      2.310      7.645
REMARK SMILES Cc1n[nH]c2c1[C@@]1(C(=O)N([C@@H](C)C(=O)OCCOC(=O)c3ccc(-c4c5nc(c(-c6ccccc6)c6ccc([nH]6)c(-c6ccccc6)c6nc(c(-c7ccccc7)c7ccc4[nH]7)C=C6)C=C5)cc3)c3ccccc31)C(C#N)=C(N)O2
REMARK SMILES IDX 16 1 15 2 13 3 14 4 11 5 12 6 10 7 1 8 2 9 3 10 6 11 4 12
REMARK SMILES IDX 5 13 7 14 80 16 8 17 74 18 75 19 78 20 9 21 69 22 73 23
REMARK SMILES IDX 70 24 72 25 71 26 76 27 77 28 79 29 17 32 18 33 19 34 20 35
REMARK SMILES IDX 21 36 22 37 68 38 23 39 67 40 24 41 25 42 26 43 61 44 27 45
REMARK SMILES IDX 66 46 60 47 62 48 28 49 65 50 59 51 58 52 29 54 51 55 36 56
REMARK SMILES IDX 50 57 37 58 40 59 49 60 63 61 38 62 39 63 48 65 64 66 41 67
REMARK SMILES IDX 30 68 31 69 35 70 32 71 34 72 33 73 52 74 53 75 57 76 54 77
REMARK SMILES IDX 56 78 55 79 42 80 43 81 47 82 44 83 46 84 45 85
REMARK H PARENT 4 15 79 30 79 31 62 53 40 64
REMARK Flexibility Score: inf
ROOT
ATOM      1  C   UNL A   1      37.050  22.086  25.817  1.00  0.00     0.274 C 
ENDROOT
BRANCH   1   2
ATOM      2  O   UNL A   1      35.947  21.371  25.210  1.00  0.00    -0.461 OA
BRANCH   2   3
ATOM      3  C   UNL A   1      34.709  21.558  25.748  1.00  0.00     0.329 C 
ATOM      4  O   UNL A   1      33.780  20.765  25.628  1.00  0.00    -0.250 OA
BRANCH   3   5
ATOM      5  C   UNL A   1      34.557  22.898  26.521  1.00  0.00     0.197 C 
ATOM      6  C   UNL A   1      34.022  22.590  27.926  1.00  0.00     0.044 C 
BRANCH   5   7
ATOM      7  N   UNL A   1      33.767  23.922  25.867  1.00  0.00    -0.297 N 
ATOM      8  C   UNL A   1      32.771  22.725  22.719  1.00  0.00     0.069 C 
ATOM      9  C   UNL A   1      32.905  24.122  22.236  1.00  0.00     0.068 A 
ATOM     10  N   UNL A   1      32.848  24.369  20.916  1.00  0.00    -0.177 NA
ATOM     11  C   UNL A   1      33.107  25.317  22.974  1.00  0.00     0.063 A 
ATOM     12  N   UNL A   1      33.042  25.700  20.817  1.00  0.00    -0.246 N 
ATOM     13  C   UNL A   1      33.190  26.297  22.026  1.00  0.00     0.222 A 
ATOM     14  C   UNL A   1      33.298  25.682  24.410  1.00  0.00     0.149 C 
ATOM     15  H   UNL A   1      33.073  26.185  19.961  1.00  0.00     0.193 HD
ATOM     16  O   UNL A   1      33.415  27.587  22.222  1.00  0.00    -0.422 OA
ATOM     17  C   UNL A   1      34.399  24.828  25.004  1.00  0.00     0.248 C 
ATOM     18  C   UNL A   1      32.056  25.245  25.108  1.00  0.00     0.002 A 
ATOM     19  C   UNL A   1      33.604  27.123  24.613  1.00  0.00     0.114 C 
ATOM     20  C   UNL A   1      33.653  27.991  23.551  1.00  0.00     0.208 C 
ATOM     21  O   UNL A   1      35.591  24.893  24.743  1.00  0.00    -0.273 OA
ATOM     22  C   UNL A   1      32.367  24.145  25.903  1.00  0.00     0.050 A 
ATOM     23  C   UNL A   1      30.778  25.794  25.023  1.00  0.00     0.008 A 
ATOM     24  C   UNL A   1      31.332  23.487  26.526  1.00  0.00     0.027 A 
ATOM     25  C   UNL A   1      29.765  25.201  25.760  1.00  0.00     0.001 A 
ATOM     26  C   UNL A   1      30.038  24.042  26.493  1.00  0.00     0.002 A 
BRANCH  19  27
ATOM     27  C   UNL A   1      33.977  27.714  25.963  1.00  0.00     0.102 C 
ATOM     28  N   UNL A   1      34.286  28.205  27.083  1.00  0.00    -0.193 NA
ENDBRANCH  19  27
BRANCH  20  29
ATOM     29  N   UNL A   1      33.942  29.322  23.627  1.00  0.00    -0.369 N 
ATOM     30  H   UNL A   1      34.767  29.670  23.219  1.00  0.00     0.159 HD
ATOM     31  H   UNL A   1      33.324  29.935  24.088  1.00  0.00     0.159 HD
ENDBRANCH  20  29
ENDBRANCH   5   7
ENDBRANCH   3   5
ENDBRANCH   2   3
ENDBRANCH   1   2
BRANCH   1  32
ATOM     32  C   UNL A   1      38.335  21.255  25.749  1.00  0.00     0.275 C 
BRANCH  32  33
ATOM     33  O   UNL A   1      39.459  22.145  25.808  1.00  0.00    -0.458 OA
BRANCH  33  34
ATOM     34  C   UNL A   1      39.974  22.340  27.043  1.00  0.00     0.338 C 
ATOM     35  O   UNL A   1      40.404  21.490  27.813  1.00  0.00    -0.246 OA
BRANCH  34  36
ATOM     36  C   UNL A   1      40.286  23.778  27.162  1.00  0.00     0.060 A 
ATOM     37  C   UNL A   1      41.308  24.257  27.991  1.00  0.00     0.016 A 
ATOM     38  C   UNL A   1      39.363  24.663  26.614  1.00  0.00     0.016 A 
ATOM     39  C   UNL A   1      41.279  25.582  28.432  1.00  0.00     0.010 A 
ATOM     40  C   UNL A   1      39.368  25.982  27.040  1.00  0.00     0.010 A 
ATOM     41  C   UNL A   1      40.234  26.420  28.040  1.00  0.00    -0.014 A 
BRANCH  41  42
ATOM     42  C   UNL A   1      40.212  27.847  28.371  1.00  0.00     0.031 A 
ATOM     43  C   UNL A   1      41.310  28.532  27.681  1.00  0.00     0.074 A 
ATOM     44  C   UNL A   1      39.377  28.592  29.126  1.00  0.00     0.049 A 
ATOM     45  N   UNL A   1      42.495  28.621  28.173  1.00  0.00    -0.248 NA
ATOM     46  C   UNL A   1      41.186  28.942  26.279  1.00  0.00     0.031 C 
ATOM     47  C   UNL A   1      38.148  28.206  29.804  1.00  0.00     0.029 A 
ATOM     48  N   UNL A   1      39.480  29.927  29.438  1.00  0.00    -0.354 N 
ATOM     49  C   UNL A   1      43.226  29.308  27.232  1.00  0.00     0.074 A 
ATOM     50  C   UNL A   1      42.453  29.271  26.015  1.00  0.00     0.031 C 
ATOM     51  C   UNL A   1      37.509  29.303  30.288  1.00  0.00     0.029 A 
ATOM     52  C   UNL A   1      38.384  30.455  30.111  1.00  0.00     0.049 A 
ATOM     53  H   UNL A   1      40.269  30.466  29.203  1.00  0.00     0.167 HD
ATOM     54  C   UNL A   1      44.254  30.097  27.636  1.00  0.00     0.031 A 
ATOM     55  C   UNL A   1      38.296  31.645  30.761  1.00  0.00     0.031 A 
ATOM     56  C   UNL A   1      44.529  29.919  29.044  1.00  0.00     0.049 A 
ATOM     57  C   UNL A   1      39.660  32.011  31.189  1.00  0.00     0.074 A 
ATOM     58  C   UNL A   1      45.128  28.958  29.830  1.00  0.00     0.029 A 
ATOM     59  N   UNL A   1      43.733  30.679  29.867  1.00  0.00    -0.354 N 
ATOM     60  N   UNL A   1      40.303  31.379  32.127  1.00  0.00    -0.248 NA
ATOM     61  C   UNL A   1      40.461  32.916  30.374  1.00  0.00     0.031 C 
ATOM     62  C   UNL A   1      44.526  29.063  31.120  1.00  0.00     0.029 A 
ATOM     63  C   UNL A   1      43.600  30.103  31.105  1.00  0.00     0.049 A 
ATOM     64  H   UNL A   1      43.312  31.527  29.601  1.00  0.00     0.167 HD
ATOM     65  C   UNL A   1      41.624  31.458  31.738  1.00  0.00     0.074 A 
ATOM     66  C   UNL A   1      41.681  32.551  30.777  1.00  0.00     0.031 C 
ATOM     67  C   UNL A   1      42.490  30.436  31.981  1.00  0.00     0.031 A 
BRANCH  54  68
ATOM     68  C   UNL A   1      44.682  31.336  26.906  1.00  0.00    -0.014 A 
ATOM     69  C   UNL A   1      43.787  32.297  26.401  1.00  0.00     0.009 A 
ATOM     70  C   UNL A   1      46.041  31.686  26.934  1.00  0.00     0.009 A 
ATOM     71  C   UNL A   1      44.220  33.538  25.933  1.00  0.00     0.001 A 
ATOM     72  C   UNL A   1      46.475  32.942  26.502  1.00  0.00     0.001 A 
ATOM     73  C   UNL A   1      45.565  33.867  25.999  1.00  0.00     0.000 A 
ENDBRANCH  54  68
BRANCH  55  74
ATOM     74  C   UNL A   1      37.238  32.682  30.689  1.00  0.00    -0.014 A 
ATOM     75  C   UNL A   1      36.390  32.916  31.784  1.00  0.00     0.009 A 
ATOM     76  C   UNL A   1      36.853  33.206  29.439  1.00  0.00     0.009 A 
ATOM     77  C   UNL A   1      35.170  33.588  31.619  1.00  0.00     0.001 A 
ATOM     78  C   UNL A   1      35.632  33.876  29.276  1.00  0.00     0.001 A 
ATOM     79  C   UNL A   1      34.781  34.047  30.362  1.00  0.00     0.000 A 
ENDBRANCH  55  74
BRANCH  67  80
ATOM     80  C   UNL A   1      42.171  29.494  33.111  1.00  0.00    -0.014 A 
ATOM     81  C   UNL A   1      42.532  29.893  34.408  1.00  0.00     0.009 A 
ATOM     82  C   UNL A   1      41.615  28.215  32.940  1.00  0.00     0.009 A 
ATOM     83  C   UNL A   1      42.374  29.036  35.498  1.00  0.00     0.001 A 
ATOM     84  C   UNL A   1      41.431  27.364  34.036  1.00  0.00     0.001 A 
ATOM     85  C   UNL A   1      41.823  27.771  35.312  1.00  0.00     0.000 A 
ENDBRANCH  67  80
ENDBRANCH  41  42
ENDBRANCH  34  36
ENDBRANCH  33  34
ENDBRANCH  32  33
ENDBRANCH   1  32
TORSDOF 14
ENDMDL
MODEL 3
REMARK VINA RESULT:     -12.1      2.482      5.468
REMARK SMILES Cc1n[nH]c2c1[C@@]1(C(=O)N([C@@H](C)C(=O)OCCOC(=O)c3ccc(-c4c5nc(c(-c6ccccc6)c6ccc([nH]6)c(-c6ccccc6)c6nc(c(-c7ccccc7)c7ccc4[nH]7)C=C6)C=C5)cc3)c3ccccc31)C(C#N)=C(N)O2
REMARK SMILES IDX 16 1 15 2 13 3 14 4 11 5 12 6 10 7 1 8 2 9 3 10 6 11 4 12
REMARK SMILES IDX 5 13 7 14 80 16 8 17 74 18 75 19 78 20 9 21 69 22 73 23
REMARK SMILES IDX 70 24 72 25 71 26 76 27 77 28 79 29 17 32 18 33 19 34 20 35
REMARK SMILES IDX 21 36 22 37 68 38 23 39 67 40 24 41 25 42 26 43 61 44 27 45
REMARK SMILES IDX 66 46 60 47 62 48 28 49 65 50 59 51 58 52 29 54 51 55 36 56
REMARK SMILES IDX 50 57 37 58 40 59 49 60 63 61 38 62 39 63 48 65 64 66 41 67
REMARK SMILES IDX 30 68 31 69 35 70 32 71 34 72 33 73 52 74 53 75 57 76 54 77
REMARK SMILES IDX 56 78 55 79 42 80 43 81 47 82 44 83 46 84 45 85
REMARK H PARENT 4 15 79 30 79 31 62 53 40 64
REMARK Flexibility Score: inf
ROOT
ATOM      1  C   UNL A   1      35.102  29.569  26.763  1.00  0.00     0.274 C 
ENDROOT
BRANCH   1   2
ATOM      2  O   UNL A   1      33.839  30.099  26.292  1.00  0.00    -0.461 OA
BRANCH   2   3
ATOM      3  C   UNL A   1      33.090  29.300  25.483  1.00  0.00     0.329 C 
ATOM      4  O   UNL A   1      31.864  29.231  25.528  1.00  0.00    -0.250 OA
BRANCH   3   5
ATOM      5  C   UNL A   1      33.928  28.443  24.494  1.00  0.00     0.197 C 
ATOM      6  C   UNL A   1      33.775  29.035  23.087  1.00  0.00     0.044 C 
BRANCH   5   7
ATOM      7  N   UNL A   1      33.657  27.019  24.501  1.00  0.00    -0.297 N 
ATOM      8  C   UNL A   1      30.219  26.536  25.023  1.00  0.00     0.069 C 
ATOM      9  C   UNL A   1      30.588  25.318  25.786  1.00  0.00     0.068 A 
ATOM     10  N   UNL A   1      29.648  24.684  26.507  1.00  0.00    -0.177 NA
ATOM     11  C   UNL A   1      31.846  24.671  25.900  1.00  0.00     0.063 A 
ATOM     12  N   UNL A   1      30.309  23.667  27.096  1.00  0.00    -0.246 N 
ATOM     13  C   UNL A   1      31.619  23.624  26.747  1.00  0.00     0.222 A 
ATOM     14  C   UNL A   1      33.234  24.908  25.399  1.00  0.00     0.149 C 
ATOM     15  H   UNL A   1      29.887  23.025  27.711  1.00  0.00     0.193 HD
ATOM     16  O   UNL A   1      32.504  22.745  27.193  1.00  0.00    -0.422 OA
ATOM     17  C   UNL A   1      33.649  26.329  25.721  1.00  0.00     0.248 C 
ATOM     18  C   UNL A   1      33.142  24.865  23.913  1.00  0.00     0.002 A 
ATOM     19  C   UNL A   1      34.227  23.949  25.949  1.00  0.00     0.114 C 
ATOM     20  C   UNL A   1      33.842  22.942  26.798  1.00  0.00     0.208 C 
ATOM     21  O   UNL A   1      33.882  26.785  26.831  1.00  0.00    -0.273 OA
ATOM     22  C   UNL A   1      33.321  26.157  23.426  1.00  0.00     0.050 A 
ATOM     23  C   UNL A   1      32.914  23.761  23.093  1.00  0.00     0.008 A 
ATOM     24  C   UNL A   1      33.128  26.372  22.082  1.00  0.00     0.027 A 
ATOM     25  C   UNL A   1      32.852  23.969  21.724  1.00  0.00     0.001 A 
ATOM     26  C   UNL A   1      32.940  25.272  21.223  1.00  0.00     0.002 A 
BRANCH  19  27
ATOM     27  C   UNL A   1      35.723  24.066  25.704  1.00  0.00     0.102 C 
ATOM     28  N   UNL A   1      36.964  24.163  25.501  1.00  0.00    -0.193 NA
ENDBRANCH  19  27
BRANCH  20  29
ATOM     29  N   UNL A   1      34.674  22.024  27.371  1.00  0.00    -0.369 N 
ATOM     30  H   UNL A   1      34.314  21.165  27.689  1.00  0.00     0.159 HD
ATOM     31  H   UNL A   1      35.634  22.222  27.465  1.00  0.00     0.159 HD
ENDBRANCH  20  29
ENDBRANCH   5   7
ENDBRANCH   3   5
ENDBRANCH   2   3
ENDBRANCH   1   2
BRANCH   1  32
ATOM     32  C   UNL A   1      35.407  30.074  28.176  1.00  0.00     0.275 C 
BRANCH  32  33
ATOM     33  O   UNL A   1      36.807  30.378  28.262  1.00  0.00    -0.458 OA
BRANCH  33  34
ATOM     34  C   UNL A   1      37.474  29.741  29.250  1.00  0.00     0.338 C 
ATOM     35  O   UNL A   1      37.164  29.671  30.433  1.00  0.00    -0.246 OA
BRANCH  34  36
ATOM     36  C   UNL A   1      38.434  28.823  28.606  1.00  0.00     0.060 A 
ATOM     37  C   UNL A   1      38.923  27.678  29.247  1.00  0.00     0.016 A 
ATOM     38  C   UNL A   1      39.030  29.270  27.431  1.00  0.00     0.016 A 
ATOM     39  C   UNL A   1      40.128  27.110  28.827  1.00  0.00     0.010 A 
ATOM     40  C   UNL A   1      40.209  28.674  27.011  1.00  0.00     0.010 A 
ATOM     41  C   UNL A   1      40.833  27.684  27.768  1.00  0.00    -0.014 A 
BRANCH  41  42
ATOM     42  C   UNL A   1      42.037  27.067  27.206  1.00  0.00     0.031 A 
ATOM     43  C   UNL A   1      41.814  25.629  27.019  1.00  0.00     0.074 A 
ATOM     44  C   UNL A   1      43.225  27.579  26.820  1.00  0.00     0.049 A 
ATOM     45  N   UNL A   1      42.024  24.765  27.948  1.00  0.00    -0.248 NA
ATOM     46  C   UNL A   1      41.105  25.118  25.843  1.00  0.00     0.031 C 
ATOM     47  C   UNL A   1      43.663  28.965  26.766  1.00  0.00     0.029 A 
ATOM     48  N   UNL A   1      44.331  26.901  26.365  1.00  0.00    -0.354 N 
ATOM     49  C   UNL A   1      41.686  23.552  27.396  1.00  0.00     0.074 A 
ATOM     50  C   UNL A   1      40.920  23.848  26.210  1.00  0.00     0.031 C 
ATOM     51  C   UNL A   1      44.860  29.060  26.131  1.00  0.00     0.029 A 
ATOM     52  C   UNL A   1      45.360  27.711  25.896  1.00  0.00     0.049 A 
ATOM     53  H   UNL A   1      44.391  25.918  26.372  1.00  0.00     0.167 HD
ATOM     54  C   UNL A   1      42.331  22.431  27.809  1.00  0.00     0.031 A 
ATOM     55  C   UNL A   1      46.644  27.360  25.626  1.00  0.00     0.031 A 
ATOM     56  C   UNL A   1      43.174  22.702  28.951  1.00  0.00     0.049 A 
ATOM     57  C   UNL A   1      46.963  26.190  26.467  1.00  0.00     0.074 A 
ATOM     58  C   UNL A   1      42.988  22.935  30.297  1.00  0.00     0.029 A 
ATOM     59  N   UNL A   1      44.415  23.194  28.622  1.00  0.00    -0.354 N 
ATOM     60  N   UNL A   1      47.099  26.262  27.759  1.00  0.00    -0.248 NA
ATOM     61  C   UNL A   1      46.850  24.845  25.918  1.00  0.00     0.031 C 
ATOM     62  C   UNL A   1      44.088  23.738  30.722  1.00  0.00     0.029 A 
ATOM     63  C   UNL A   1      44.939  23.952  29.639  1.00  0.00     0.049 A 
ATOM     64  H   UNL A   1      44.868  23.025  27.766  1.00  0.00     0.167 HD
ATOM     65  C   UNL A   1      46.647  25.040  28.212  1.00  0.00     0.074 A 
ATOM     66  C   UNL A   1      46.684  24.159  27.052  1.00  0.00     0.031 C 
ATOM     67  C   UNL A   1      45.983  24.932  29.395  1.00  0.00     0.031 A 
BRANCH  54  68
ATOM     68  C   UNL A   1      42.569  21.240  26.927  1.00  0.00    -0.014 A 
ATOM     69  C   UNL A   1      43.510  21.216  25.881  1.00  0.00     0.009 A 
ATOM     70  C   UNL A   1      42.006  20.012  27.305  1.00  0.00     0.009 A 
ATOM     71  C   UNL A   1      43.866  20.033  25.234  1.00  0.00     0.001 A 
ATOM     72  C   UNL A   1      42.387  18.818  26.684  1.00  0.00     0.001 A 
ATOM     73  C   UNL A   1      43.315  18.830  25.647  1.00  0.00     0.000 A 
ENDBRANCH  54  68
BRANCH  55  74
ATOM     74  C   UNL A   1      47.474  27.665  24.435  1.00  0.00    -0.014 A 
ATOM     75  C   UNL A   1      46.911  28.296  23.314  1.00  0.00     0.009 A 
ATOM     76  C   UNL A   1      48.728  27.044  24.276  1.00  0.00     0.009 A 
ATOM     77  C   UNL A   1      47.546  28.245  22.065  1.00  0.00     0.001 A 
ATOM     78  C   UNL A   1      49.361  26.992  23.026  1.00  0.00     0.001 A 
ATOM     79  C   UNL A   1      48.759  27.574  21.916  1.00  0.00     0.000 A 
ENDBRANCH  55  74
BRANCH  67  80
ATOM     80  C   UNL A   1      46.214  25.996  30.435  1.00  0.00    -0.014 A 
ATOM     81  C   UNL A   1      45.361  27.111  30.419  1.00  0.00     0.009 A 
ATOM     82  C   UNL A   1      47.273  25.981  31.357  1.00  0.00     0.009 A 
ATOM     83  C   UNL A   1      45.572  28.193  31.275  1.00  0.00     0.001 A 
ATOM     84  C   UNL A   1      47.470  27.055  32.234  1.00  0.00     0.001 A 
ATOM     85  C   UNL A   1      46.628  28.165  32.183  1.00  0.00     0.000 A 
ENDBRANCH  67  80
ENDBRANCH  41  42
ENDBRANCH  34  36
ENDBRANCH  33  34
ENDBRANCH  32  33
ENDBRANCH   1  32
TORSDOF 14
ENDMDL
