MODEL 1
REMARK VINA RESULT:     -12.2      0.000      0.000
REMARK SMILES O=C(OCCOC(=O)[C@H]1CC2=c3ccccc3=N[C@H]2[C@@H](c2ccccc2)[NH2+]1)c1ccc(-c2c3nc(c(-c4ccccc4)c4ccc([nH]4)c(-c4ccccc4)c4nc(c(-c5ccccc5)c5ccc2[nH]5)C=C4)C=C3)cc1
REMARK SMILES IDX 4 1 3 2 2 3 1 4 28 5 29 6 75 7 30 8 74 9 31 10 32 11 33 12
REMARK SMILES IDX 68 13 34 14 73 15 67 16 69 17 35 18 72 19 66 20 65 21 36 23
REMARK SMILES IDX 58 24 43 25 57 26 44 27 47 28 56 29 70 30 45 31 46 32 55 34
REMARK SMILES IDX 71 35 48 36 37 37 38 38 42 39 39 40 41 41 40 42 59 43 60 44
REMARK SMILES IDX 64 45 61 46 63 47 62 48 49 49 50 50 54 51 51 52 53 53 52 54
REMARK SMILES IDX 5 55 6 56 7 57 8 58 9 59 10 60 27 61 11 62 20 63 12 66 19 67
REMARK SMILES IDX 13 68 17 69 18 70 14 71 16 72 15 73 21 74 22 75 26 76 23 77
REMARK SMILES IDX 25 78 24 79
REMARK H PARENT 69 22 47 33 27 64 27 65
REMARK Flexibility Score: inf
ROOT
ATOM      1  C   UNL A   1      37.878  21.965  25.404  1.00  0.00     0.275 C 
ENDROOT
BRANCH   1   2
ATOM      2  O   UNL A   1      38.286  23.229  25.958  1.00  0.00    -0.458 OA
BRANCH   2   3
ATOM      3  C   UNL A   1      39.546  23.467  26.412  1.00  0.00     0.338 C 
ATOM      4  O   UNL A   1      40.368  22.566  26.540  1.00  0.00    -0.246 OA
BRANCH   3   5
ATOM      5  C   UNL A   1      39.810  24.785  27.040  1.00  0.00     0.060 A 
ATOM      6  C   UNL A   1      39.231  24.999  28.290  1.00  0.00     0.016 A 
ATOM      7  C   UNL A   1      40.593  25.794  26.462  1.00  0.00     0.016 A 
ATOM      8  C   UNL A   1      39.345  26.250  28.891  1.00  0.00     0.010 A 
ATOM      9  C   UNL A   1      40.682  27.063  27.055  1.00  0.00     0.010 A 
ATOM     10  C   UNL A   1      40.032  27.316  28.264  1.00  0.00    -0.014 A 
BRANCH  10  11
ATOM     11  C   UNL A   1      40.191  28.589  29.021  1.00  0.00     0.031 A 
ATOM     12  C   UNL A   1      39.263  29.772  28.884  1.00  0.00     0.074 A 
ATOM     13  C   UNL A   1      41.081  28.537  30.028  1.00  0.00     0.049 A 
ATOM     14  N   UNL A   1      39.123  30.795  29.699  1.00  0.00    -0.248 NA
ATOM     15  C   UNL A   1      38.321  29.792  27.754  1.00  0.00     0.031 C 
ATOM     16  C   UNL A   1      42.017  27.427  30.241  1.00  0.00     0.029 A 
ATOM     17  N   UNL A   1      41.299  29.371  31.091  1.00  0.00    -0.354 N 
ATOM     18  C   UNL A   1      37.984  31.480  29.276  1.00  0.00     0.074 A 
ATOM     19  C   UNL A   1      37.554  30.841  28.048  1.00  0.00     0.031 C 
ATOM     20  C   UNL A   1      42.663  27.617  31.393  1.00  0.00     0.029 A 
ATOM     21  C   UNL A   1      42.233  28.884  31.970  1.00  0.00     0.049 A 
ATOM     22  H   UNL A   1      40.835  30.231  31.210  1.00  0.00     0.167 HD
ATOM     23  C   UNL A   1      37.301  32.450  29.935  1.00  0.00     0.031 A 
ATOM     24  C   UNL A   1      42.716  29.392  33.118  1.00  0.00     0.031 A 
ATOM     25  C   UNL A   1      37.725  33.046  31.183  1.00  0.00     0.049 A 
ATOM     26  C   UNL A   1      42.116  30.644  33.660  1.00  0.00     0.074 A 
ATOM     27  C   UNL A   1      37.109  34.067  31.894  1.00  0.00     0.029 A 
ATOM     28  N   UNL A   1      38.847  32.683  31.906  1.00  0.00    -0.354 N 
ATOM     29  N   UNL A   1      41.066  31.296  33.225  1.00  0.00    -0.248 NA
ATOM     30  C   UNL A   1      42.752  31.232  34.844  1.00  0.00     0.031 C 
ATOM     31  C   UNL A   1      37.843  34.302  33.058  1.00  0.00     0.029 A 
ATOM     32  C   UNL A   1      38.932  33.447  33.061  1.00  0.00     0.049 A 
ATOM     33  H   UNL A   1      39.490  31.986  31.642  1.00  0.00     0.167 HD
ATOM     34  C   UNL A   1      40.920  32.379  34.073  1.00  0.00     0.074 A 
ATOM     35  C   UNL A   1      41.970  32.281  35.067  1.00  0.00     0.031 C 
ATOM     36  C   UNL A   1      39.995  33.366  34.025  1.00  0.00     0.031 A 
BRANCH  23  37
ATOM     37  C   UNL A   1      35.951  32.893  29.428  1.00  0.00    -0.014 A 
ATOM     38  C   UNL A   1      34.836  32.047  29.430  1.00  0.00     0.009 A 
ATOM     39  C   UNL A   1      35.868  34.115  28.732  1.00  0.00     0.009 A 
ATOM     40  C   UNL A   1      33.670  32.415  28.743  1.00  0.00     0.001 A 
ATOM     41  C   UNL A   1      34.714  34.467  28.028  1.00  0.00     0.001 A 
ATOM     42  C   UNL A   1      33.613  33.617  28.037  1.00  0.00     0.000 A 
ENDBRANCH  23  37
BRANCH  24  43
ATOM     43  C   UNL A   1      43.864  28.703  33.756  1.00  0.00    -0.014 A 
ATOM     44  C   UNL A   1      45.167  28.994  33.305  1.00  0.00     0.009 A 
ATOM     45  C   UNL A   1      43.681  27.677  34.688  1.00  0.00     0.009 A 
ATOM     46  C   UNL A   1      46.254  28.232  33.727  1.00  0.00     0.001 A 
ATOM     47  C   UNL A   1      44.780  26.938  35.138  1.00  0.00     0.001 A 
ATOM     48  C   UNL A   1      46.058  27.202  34.643  1.00  0.00     0.000 A 
ENDBRANCH  24  43
BRANCH  36  49
ATOM     49  C   UNL A   1      40.097  34.445  35.060  1.00  0.00    -0.014 A 
ATOM     50  C   UNL A   1      40.845  35.606  34.810  1.00  0.00     0.009 A 
ATOM     51  C   UNL A   1      39.482  34.283  36.310  1.00  0.00     0.009 A 
ATOM     52  C   UNL A   1      40.974  36.585  35.795  1.00  0.00     0.001 A 
ATOM     53  C   UNL A   1      39.594  35.273  37.285  1.00  0.00     0.001 A 
ATOM     54  C   UNL A   1      40.344  36.421  37.029  1.00  0.00     0.000 A 
ENDBRANCH  36  49
ENDBRANCH  10  11
ENDBRANCH   3   5
ENDBRANCH   2   3
ENDBRANCH   1   2
BRANCH   1  55
ATOM     55  C   UNL A   1      36.431  21.578  25.729  1.00  0.00     0.274 C 
BRANCH  55  56
ATOM     56  O   UNL A   1      35.614  21.583  24.549  1.00  0.00    -0.458 OA
BRANCH  56  57
ATOM     57  C   UNL A   1      35.335  22.808  24.016  1.00  0.00     0.365 C 
ATOM     58  O   UNL A   1      35.723  23.202  22.922  1.00  0.00    -0.245 OA
BRANCH  57  59
ATOM     59  C   UNL A   1      34.378  23.577  24.935  1.00  0.00     0.298 C 
ATOM     60  C   UNL A   1      34.513  25.118  24.781  1.00  0.00     0.111 C 
ATOM     61  N   UNL A   1      32.986  23.024  24.826  1.00  0.00    -0.326 N 
ATOM     62  C   UNL A   1      33.535  25.802  25.703  1.00  0.00    -0.024 C 
ATOM     63  C   UNL A   1      31.923  24.078  24.917  1.00  0.00     0.243 C 
ATOM     64  H   UNL A   1      32.844  22.355  25.583  1.00  0.00     0.347 HD
ATOM     65  H   UNL A   1      32.903  22.589  23.908  1.00  0.00     0.347 HD
ATOM     66  C   UNL A   1      33.315  27.062  26.066  1.00  0.00     0.002 A 
ATOM     67  C   UNL A   1      32.385  24.941  26.152  1.00  0.00     0.196 C 
ATOM     68  C   UNL A   1      33.882  28.327  25.761  1.00  0.00     0.010 A 
ATOM     69  C   UNL A   1      32.044  26.982  26.815  1.00  0.00     0.066 A 
ATOM     70  N   UNL A   1      31.399  25.852  26.791  1.00  0.00    -0.270 NA
ATOM     71  C   UNL A   1      33.391  29.436  26.332  1.00  0.00     0.001 A 
ATOM     72  C   UNL A   1      31.606  28.227  27.491  1.00  0.00     0.028 A 
ATOM     73  C   UNL A   1      32.286  29.365  27.268  1.00  0.00     0.002 A 
BRANCH  63  74
ATOM     74  C   UNL A   1      31.762  24.833  23.568  1.00  0.00     0.012 A 
ATOM     75  C   UNL A   1      32.466  24.448  22.407  1.00  0.00     0.010 A 
ATOM     76  C   UNL A   1      31.025  26.026  23.495  1.00  0.00     0.010 A 
ATOM     77  C   UNL A   1      32.592  25.308  21.315  1.00  0.00     0.001 A 
ATOM     78  C   UNL A   1      31.159  26.894  22.407  1.00  0.00     0.001 A 
ATOM     79  C   UNL A   1      31.972  26.549  21.333  1.00  0.00     0.000 A 
ENDBRANCH  63  74
ENDBRANCH  57  59
ENDBRANCH  56  57
ENDBRANCH  55  56
ENDBRANCH   1  55
TORSDOF 12
ENDMDL
MODEL 2
REMARK VINA RESULT:     -12.1      2.635      7.331
REMARK SMILES O=C(OCCOC(=O)[C@H]1CC2=c3ccccc3=N[C@H]2[C@@H](c2ccccc2)[NH2+]1)c1ccc(-c2c3nc(c(-c4ccccc4)c4ccc([nH]4)c(-c4ccccc4)c4nc(c(-c5ccccc5)c5ccc2[nH]5)C=C4)C=C3)cc1
REMARK SMILES IDX 4 1 3 2 2 3 1 4 28 5 29 6 75 7 30 8 74 9 31 10 32 11 33 12
REMARK SMILES IDX 68 13 34 14 73 15 67 16 69 17 35 18 72 19 66 20 65 21 36 23
REMARK SMILES IDX 58 24 43 25 57 26 44 27 47 28 56 29 70 30 45 31 46 32 55 34
REMARK SMILES IDX 71 35 48 36 37 37 38 38 42 39 39 40 41 41 40 42 59 43 60 44
REMARK SMILES IDX 64 45 61 46 63 47 62 48 49 49 50 50 54 51 51 52 53 53 52 54
REMARK SMILES IDX 5 55 6 56 7 57 8 58 9 59 10 60 27 61 11 62 20 63 12 66 19 67
REMARK SMILES IDX 13 68 17 69 18 70 14 71 16 72 15 73 21 74 22 75 26 76 23 77
REMARK SMILES IDX 25 78 24 79
REMARK H PARENT 69 22 47 33 27 64 27 65
REMARK Flexibility Score: inf
ROOT
ATOM      1  C   UNL A   1      32.754  31.517  27.051  1.00  0.00     0.275 C 
ENDROOT
BRANCH   1   2
ATOM      2  O   UNL A   1      32.374  32.895  27.221  1.00  0.00    -0.458 OA
BRANCH   2   3
ATOM      3  C   UNL A   1      32.930  33.706  28.161  1.00  0.00     0.338 C 
ATOM      4  O   UNL A   1      32.507  34.837  28.370  1.00  0.00    -0.246 OA
BRANCH   3   5
ATOM      5  C   UNL A   1      34.250  33.312  28.710  1.00  0.00     0.060 A 
ATOM      6  C   UNL A   1      35.366  33.681  27.960  1.00  0.00     0.016 A 
ATOM      7  C   UNL A   1      34.430  32.613  29.913  1.00  0.00     0.016 A 
ATOM      8  C   UNL A   1      36.630  33.252  28.358  1.00  0.00     0.010 A 
ATOM      9  C   UNL A   1      35.700  32.157  30.296  1.00  0.00     0.010 A 
ATOM     10  C   UNL A   1      36.814  32.445  29.505  1.00  0.00    -0.014 A 
BRANCH  10  11
ATOM     11  C   UNL A   1      38.208  32.114  29.913  1.00  0.00     0.031 A 
ATOM     12  C   UNL A   1      38.979  32.869  30.969  1.00  0.00     0.074 A 
ATOM     13  C   UNL A   1      38.663  30.935  29.451  1.00  0.00     0.049 A 
ATOM     14  N   UNL A   1      40.061  32.489  31.613  1.00  0.00    -0.248 NA
ATOM     15  C   UNL A   1      38.450  34.164  31.427  1.00  0.00     0.031 C 
ATOM     16  C   UNL A   1      37.979  30.133  28.431  1.00  0.00     0.029 A 
ATOM     17  N   UNL A   1      39.739  30.172  29.817  1.00  0.00    -0.354 N 
ATOM     18  C   UNL A   1      40.241  33.406  32.649  1.00  0.00     0.074 A 
ATOM     19  C   UNL A   1      39.243  34.440  32.460  1.00  0.00     0.031 C 
ATOM     20  C   UNL A   1      38.615  28.966  28.297  1.00  0.00     0.029 A 
ATOM     21  C   UNL A   1      39.778  28.960  29.174  1.00  0.00     0.049 A 
ATOM     22  H   UNL A   1      40.413  30.463  30.472  1.00  0.00     0.167 HD
ATOM     23  C   UNL A   1      41.071  33.303  33.719  1.00  0.00     0.031 A 
ATOM     24  C   UNL A   1      40.655  27.944  29.256  1.00  0.00     0.031 A 
ATOM     25  C   UNL A   1      42.032  32.239  33.911  1.00  0.00     0.049 A 
ATOM     26  C   UNL A   1      41.743  28.013  30.272  1.00  0.00     0.074 A 
ATOM     27  C   UNL A   1      42.940  32.087  34.949  1.00  0.00     0.029 A 
ATOM     28  N   UNL A   1      42.210  31.156  33.069  1.00  0.00    -0.354 N 
ATOM     29  N   UNL A   1      41.918  28.905  31.215  1.00  0.00    -0.248 NA
ATOM     30  C   UNL A   1      42.749  26.945  30.246  1.00  0.00     0.031 C 
ATOM     31  C   UNL A   1      43.647  30.900  34.749  1.00  0.00     0.029 A 
ATOM     32  C   UNL A   1      43.199  30.324  33.572  1.00  0.00     0.049 A 
ATOM     33  H   UNL A   1      41.709  30.998  32.235  1.00  0.00     0.167 HD
ATOM     34  C   UNL A   1      43.063  28.516  31.890  1.00  0.00     0.074 A 
ATOM     35  C   UNL A   1      43.522  27.290  31.269  1.00  0.00     0.031 C 
ATOM     36  C   UNL A   1      43.673  29.128  32.931  1.00  0.00     0.031 A 
BRANCH  23  37
ATOM     37  C   UNL A   1      40.944  34.278  34.862  1.00  0.00    -0.014 A 
ATOM     38  C   UNL A   1      40.022  34.099  35.901  1.00  0.00     0.009 A 
ATOM     39  C   UNL A   1      41.615  35.513  34.764  1.00  0.00     0.009 A 
ATOM     40  C   UNL A   1      39.776  35.136  36.812  1.00  0.00     0.001 A 
ATOM     41  C   UNL A   1      41.349  36.552  35.659  1.00  0.00     0.001 A 
ATOM     42  C   UNL A   1      40.431  36.361  36.686  1.00  0.00     0.000 A 
ENDBRANCH  23  37
BRANCH  24  43
ATOM     43  C   UNL A   1      40.520  26.829  28.288  1.00  0.00    -0.014 A 
ATOM     44  C   UNL A   1      41.123  26.954  27.020  1.00  0.00     0.009 A 
ATOM     45  C   UNL A   1      39.701  25.725  28.545  1.00  0.00     0.009 A 
ATOM     46  C   UNL A   1      40.857  26.030  26.012  1.00  0.00     0.001 A 
ATOM     47  C   UNL A   1      39.467  24.780  27.541  1.00  0.00     0.001 A 
ATOM     48  C   UNL A   1      40.027  24.944  26.274  1.00  0.00     0.000 A 
ENDBRANCH  24  43
BRANCH  36  49
ATOM     49  C   UNL A   1      44.932  28.499  33.447  1.00  0.00    -0.014 A 
ATOM     50  C   UNL A   1      44.882  27.521  34.452  1.00  0.00     0.009 A 
ATOM     51  C   UNL A   1      46.179  28.916  32.958  1.00  0.00     0.009 A 
ATOM     52  C   UNL A   1      46.061  26.974  34.960  1.00  0.00     0.001 A 
ATOM     53  C   UNL A   1      47.354  28.352  33.451  1.00  0.00     0.001 A 
ATOM     54  C   UNL A   1      47.295  27.384  34.455  1.00  0.00     0.000 A 
ENDBRANCH  36  49
ENDBRANCH  10  11
ENDBRANCH   3   5
ENDBRANCH   2   3
ENDBRANCH   1   2
BRANCH   1  55
ATOM     55  C   UNL A   1      31.789  30.706  26.178  1.00  0.00     0.274 C 
BRANCH  55  56
ATOM     56  O   UNL A   1      32.475  29.657  25.481  1.00  0.00    -0.458 OA
BRANCH  56  57
ATOM     57  C   UNL A   1      32.252  28.388  25.932  1.00  0.00     0.365 C 
ATOM     58  O   UNL A   1      31.550  28.099  26.894  1.00  0.00    -0.245 OA
BRANCH  57  59
ATOM     59  C   UNL A   1      32.916  27.371  24.996  1.00  0.00     0.298 C 
ATOM     60  C   UNL A   1      33.799  26.345  25.760  1.00  0.00     0.111 C 
ATOM     61  N   UNL A   1      31.908  26.792  24.045  1.00  0.00    -0.326 N 
ATOM     62  C   UNL A   1      34.406  25.374  24.778  1.00  0.00    -0.024 C 
ATOM     63  C   UNL A   1      32.143  25.342  23.745  1.00  0.00     0.243 C 
ATOM     64  H   UNL A   1      31.951  27.315  23.170  1.00  0.00     0.347 HD
ATOM     65  H   UNL A   1      30.994  26.865  24.491  1.00  0.00     0.347 HD
ATOM     66  C   UNL A   1      35.312  24.405  24.858  1.00  0.00     0.002 A 
ATOM     67  C   UNL A   1      33.690  25.287  23.456  1.00  0.00     0.196 C 
ATOM     68  C   UNL A   1      36.114  23.840  25.883  1.00  0.00     0.010 A 
ATOM     69  C   UNL A   1      35.216  23.742  23.542  1.00  0.00     0.066 A 
ATOM     70  N   UNL A   1      34.241  24.095  22.757  1.00  0.00    -0.270 NA
ATOM     71  C   UNL A   1      36.953  22.833  25.598  1.00  0.00     0.001 A 
ATOM     72  C   UNL A   1      36.229  22.696  23.263  1.00  0.00     0.028 A 
ATOM     73  C   UNL A   1      37.059  22.312  24.248  1.00  0.00     0.002 A 
BRANCH  63  74
ATOM     74  C   UNL A   1      31.623  24.438  24.898  1.00  0.00     0.012 A 
ATOM     75  C   UNL A   1      31.953  23.068  24.981  1.00  0.00     0.010 A 
ATOM     76  C   UNL A   1      30.676  24.917  25.818  1.00  0.00     0.010 A 
ATOM     77  C   UNL A   1      31.229  22.193  25.792  1.00  0.00     0.001 A 
ATOM     78  C   UNL A   1      29.942  24.041  26.623  1.00  0.00     0.001 A 
ATOM     79  C   UNL A   1      30.195  22.675  26.582  1.00  0.00     0.000 A 
ENDBRANCH  63  74
ENDBRANCH  57  59
ENDBRANCH  56  57
ENDBRANCH  55  56
ENDBRANCH   1  55
TORSDOF 12
ENDMDL
MODEL 3
REMARK VINA RESULT:     -12.1      3.519      7.353
REMARK SMILES O=C(OCCOC(=O)[C@H]1CC2=c3ccccc3=N[C@H]2[C@@H](c2ccccc2)[NH2+]1)c1ccc(-c2c3nc(c(-c4ccccc4)c4ccc([nH]4)c(-c4ccccc4)c4nc(c(-c5ccccc5)c5ccc2[nH]5)C=C4)C=C3)cc1
REMARK SMILES IDX 4 1 3 2 2 3 1 4 28 5 29 6 75 7 30 8 74 9 31 10 32 11 33 12
REMARK SMILES IDX 68 13 34 14 73 15 67 16 69 17 35 18 72 19 66 20 65 21 36 23
REMARK SMILES IDX 58 24 43 25 57 26 44 27 47 28 56 29 70 30 45 31 46 32 55 34
REMARK SMILES IDX 71 35 48 36 37 37 38 38 42 39 39 40 41 41 40 42 59 43 60 44
REMARK SMILES IDX 64 45 61 46 63 47 62 48 49 49 50 50 54 51 51 52 53 53 52 54
REMARK SMILES IDX 5 55 6 56 7 57 8 58 9 59 10 60 27 61 11 62 20 63 12 66 19 67
REMARK SMILES IDX 13 68 17 69 18 70 14 71 16 72 15 73 21 74 22 75 26 76 23 77
REMARK SMILES IDX 25 78 24 79
REMARK H PARENT 69 22 47 33 27 64 27 65
REMARK Flexibility Score: inf
ROOT
ATOM      1  C   UNL A   1      38.481  20.926  25.576  1.00  0.00     0.275 C 
ENDROOT
BRANCH   1   2
ATOM      2  O   UNL A   1      39.307  19.754  25.696  1.00  0.00    -0.458 OA
BRANCH   2   3
ATOM      3  C   UNL A   1      40.655  19.812  25.868  1.00  0.00     0.338 C 
ATOM      4  O   UNL A   1      41.357  18.808  25.816  1.00  0.00    -0.246 OA
BRANCH   3   5
ATOM      5  C   UNL A   1      41.220  21.065  26.425  1.00  0.00     0.060 A 
ATOM      6  C   UNL A   1      41.124  21.225  27.806  1.00  0.00     0.016 A 
ATOM      7  C   UNL A   1      41.835  22.065  25.658  1.00  0.00     0.016 A 
ATOM      8  C   UNL A   1      41.535  22.422  28.387  1.00  0.00     0.010 A 
ATOM      9  C   UNL A   1      42.221  23.282  26.240  1.00  0.00     0.010 A 
ATOM     10  C   UNL A   1      42.047  23.487  27.610  1.00  0.00    -0.014 A 
BRANCH  10  11
ATOM     11  C   UNL A   1      42.554  24.693  28.321  1.00  0.00     0.031 A 
ATOM     12  C   UNL A   1      44.017  24.970  28.575  1.00  0.00     0.074 A 
ATOM     13  C   UNL A   1      41.637  25.658  28.518  1.00  0.00     0.049 A 
ATOM     14  N   UNL A   1      44.584  26.110  28.903  1.00  0.00    -0.248 NA
ATOM     15  C   UNL A   1      44.979  23.877  28.366  1.00  0.00     0.031 C 
ATOM     16  C   UNL A   1      40.198  25.480  28.293  1.00  0.00     0.029 A 
ATOM     17  N   UNL A   1      41.765  26.976  28.864  1.00  0.00    -0.354 N 
ATOM     18  C   UNL A   1      45.960  25.913  28.778  1.00  0.00     0.074 A 
ATOM     19  C   UNL A   1      46.147  24.506  28.484  1.00  0.00     0.031 C 
ATOM     20  C   UNL A   1      39.585  26.656  28.447  1.00  0.00     0.029 A 
ATOM     21  C   UNL A   1      40.573  27.655  28.835  1.00  0.00     0.049 A 
ATOM     22  H   UNL A   1      42.623  27.391  29.108  1.00  0.00     0.167 HD
ATOM     23  C   UNL A   1      46.940  26.852  28.772  1.00  0.00     0.031 A 
ATOM     24  C   UNL A   1      40.281  28.940  29.101  1.00  0.00     0.031 A 
ATOM     25  C   UNL A   1      46.726  28.260  29.025  1.00  0.00     0.049 A 
ATOM     26  C   UNL A   1      41.396  29.888  29.381  1.00  0.00     0.074 A 
ATOM     27  C   UNL A   1      47.676  29.271  29.080  1.00  0.00     0.029 A 
ATOM     28  N   UNL A   1      45.500  28.858  29.257  1.00  0.00    -0.354 N 
ATOM     29  N   UNL A   1      42.686  29.673  29.295  1.00  0.00    -0.248 NA
ATOM     30  C   UNL A   1      41.029  31.249  29.789  1.00  0.00     0.031 C 
ATOM     31  C   UNL A   1      47.021  30.481  29.317  1.00  0.00     0.029 A 
ATOM     32  C   UNL A   1      45.667  30.223  29.437  1.00  0.00     0.049 A 
ATOM     33  H   UNL A   1      44.637  28.385  29.288  1.00  0.00     0.167 HD
ATOM     34  C   UNL A   1      43.288  30.868  29.649  1.00  0.00     0.074 A 
ATOM     35  C   UNL A   1      42.224  31.813  29.921  1.00  0.00     0.031 C 
ATOM     36  C   UNL A   1      44.609  31.148  29.740  1.00  0.00     0.031 A 
BRANCH  23  37
ATOM     37  C   UNL A   1      48.343  26.469  28.374  1.00  0.00    -0.014 A 
ATOM     38  C   UNL A   1      48.757  26.423  27.037  1.00  0.00     0.009 A 
ATOM     39  C   UNL A   1      49.192  25.929  29.360  1.00  0.00     0.009 A 
ATOM     40  C   UNL A   1      49.988  25.843  26.699  1.00  0.00     0.001 A 
ATOM     41  C   UNL A   1      50.406  25.330  29.017  1.00  0.00     0.001 A 
ATOM     42  C   UNL A   1      50.806  25.291  27.685  1.00  0.00     0.000 A 
ENDBRANCH  23  37
BRANCH  24  43
ATOM     43  C   UNL A   1      38.852  29.332  29.156  1.00  0.00    -0.014 A 
ATOM     44  C   UNL A   1      38.149  29.170  30.366  1.00  0.00     0.009 A 
ATOM     45  C   UNL A   1      38.152  29.724  28.011  1.00  0.00     0.009 A 
ATOM     46  C   UNL A   1      36.766  29.332  30.413  1.00  0.00     0.001 A 
ATOM     47  C   UNL A   1      36.768  29.921  28.071  1.00  0.00     0.001 A 
ATOM     48  C   UNL A   1      36.077  29.706  29.264  1.00  0.00     0.000 A 
ENDBRANCH  24  43
BRANCH  36  49
ATOM     49  C   UNL A   1      44.982  32.529  30.188  1.00  0.00    -0.014 A 
ATOM     50  C   UNL A   1      45.131  33.566  29.255  1.00  0.00     0.009 A 
ATOM     51  C   UNL A   1      45.230  32.786  31.544  1.00  0.00     0.009 A 
ATOM     52  C   UNL A   1      45.524  34.838  29.674  1.00  0.00     0.001 A 
ATOM     53  C   UNL A   1      45.601  34.064  31.963  1.00  0.00     0.001 A 
ATOM     54  C   UNL A   1      45.752  35.087  31.027  1.00  0.00     0.000 A 
ENDBRANCH  36  49
ENDBRANCH  10  11
ENDBRANCH   3   5
ENDBRANCH   2   3
ENDBRANCH   1   2
BRANCH   1  55
ATOM     55  C   UNL A   1      37.102  20.658  24.961  1.00  0.00     0.274 C 
BRANCH  55  56
ATOM     56  O   UNL A   1      36.110  21.541  25.506  1.00  0.00    -0.458 OA
BRANCH  56  57
ATOM     57  C   UNL A   1      35.657  22.523  24.673  1.00  0.00     0.365 C 
ATOM     58  O   UNL A   1      36.027  22.689  23.517  1.00  0.00    -0.245 OA
BRANCH  57  59
ATOM     59  C   UNL A   1      34.539  23.319  25.357  1.00  0.00     0.298 C 
ATOM     60  C   UNL A   1      34.765  24.855  25.273  1.00  0.00     0.111 C 
ATOM     61  N   UNL A   1      33.192  22.827  24.912  1.00  0.00    -0.326 N 
ATOM     62  C   UNL A   1      33.623  25.568  25.954  1.00  0.00    -0.024 C 
ATOM     63  C   UNL A   1      32.178  23.923  24.774  1.00  0.00     0.243 C 
ATOM     64  H   UNL A   1      32.850  22.155  25.600  1.00  0.00     0.347 HD
ATOM     65  H   UNL A   1      33.311  22.407  23.991  1.00  0.00     0.347 HD
ATOM     66  C   UNL A   1      33.372  26.832  26.283  1.00  0.00     0.002 A 
ATOM     67  C   UNL A   1      32.368  24.750  26.101  1.00  0.00     0.196 C 
ATOM     68  C   UNL A   1      34.042  28.075  26.147  1.00  0.00     0.010 A 
ATOM     69  C   UNL A   1      31.958  26.796  26.710  1.00  0.00     0.066 A 
ATOM     70  N   UNL A   1      31.295  25.694  26.510  1.00  0.00    -0.270 NA
ATOM     71  C   UNL A   1      33.472  29.197  26.612  1.00  0.00     0.001 A 
ATOM     72  C   UNL A   1      31.419  28.049  27.292  1.00  0.00     0.028 A 
ATOM     73  C   UNL A   1      32.175  29.160  27.260  1.00  0.00     0.002 A 
BRANCH  63  74
ATOM     74  C   UNL A   1      32.369  24.701  23.442  1.00  0.00     0.012 A 
ATOM     75  C   UNL A   1      31.756  25.951  23.212  1.00  0.00     0.010 A 
ATOM     76  C   UNL A   1      33.037  24.114  22.355  1.00  0.00     0.010 A 
ATOM     77  C   UNL A   1      31.640  26.478  21.925  1.00  0.00     0.001 A 
ATOM     78  C   UNL A   1      32.912  24.635  21.063  1.00  0.00     0.001 A 
ATOM     79  C   UNL A   1      32.183  25.797  20.845  1.00  0.00     0.000 A 
ENDBRANCH  63  74
ENDBRANCH  57  59
ENDBRANCH  56  57
ENDBRANCH  55  56
ENDBRANCH   1  55
TORSDOF 12
ENDMDL
