MODEL 1
REMARK VINA RESULT:     -12.6      0.000      0.000
REMARK SMILES Cc1cccc(NC(=O)COc2ccc(N3C[C@@H](C(=O)OCCOC(=O)c4ccc(-c5c6nc(c(-c7ccccc7)c7ccc([nH]7)c(-c7ccccc7)c7nc(c(-c8ccccc8)c8ccc5[nH]8)C=C7)C=C6)cc4)CC3=O)cc2)c1
REMARK SMILES IDX 21 1 19 2 20 3 18 4 16 5 17 6 76 7 75 8 77 9 15 10 12 11
REMARK SMILES IDX 13 12 79 13 14 14 78 15 11 16 10 17 8 18 7 19 9 21 6 22 1 23
REMARK SMILES IDX 2 24 3 25 80 26 4 27 5 28 22 29 23 30 24 31 25 32 26 33
REMARK SMILES IDX 27 34 28 35 74 36 29 37 73 38 30 39 31 40 32 41 67 42 33 43
REMARK SMILES IDX 72 44 66 45 68 46 34 47 71 48 65 49 64 50 35 52 57 53 42 54
REMARK SMILES IDX 56 55 43 56 46 57 55 58 69 59 44 60 45 61 54 63 70 64 47 65
REMARK SMILES IDX 36 66 37 67 41 68 38 69 40 70 39 71 58 72 59 73 63 74 60 75
REMARK SMILES IDX 62 76 61 77 48 78 49 79 53 80 50 81 52 82 51 83
REMARK H PARENT 7 20 68 51 46 62
REMARK Flexibility Score: inf
ROOT
ATOM      1  O   UNL A   1      35.488  21.019  25.099  1.00  0.00    -0.462 OA
ENDROOT
BRANCH   1   2
ATOM      2  C   UNL A   1      34.493  20.099  25.033  1.00  0.00     0.311 C 
ATOM      3  O   UNL A   1      34.603  18.980  24.550  1.00  0.00    -0.252 OA
BRANCH   2   4
ATOM      4  C   UNL A   1      33.266  20.650  25.698  1.00  0.00     0.128 C 
ATOM      5  N   UNL A   1      31.941  22.555  25.733  1.00  0.00    -0.312 N 
ATOM      6  C   UNL A   1      32.510  21.612  24.808  1.00  0.00     0.141 C 
ATOM      7  C   UNL A   1      32.607  22.550  26.959  1.00  0.00     0.227 C 
ATOM      8  C   UNL A   1      33.630  21.450  26.933  1.00  0.00     0.117 C 
ATOM      9  O   UNL A   1      32.449  23.305  27.905  1.00  0.00    -0.274 OA
BRANCH   5  10
ATOM     10  C   UNL A   1      31.197  23.638  25.241  1.00  0.00     0.044 A 
ATOM     11  C   UNL A   1      29.937  25.971  24.354  1.00  0.00     0.120 A 
ATOM     12  C   UNL A   1      30.553  25.116  23.439  1.00  0.00     0.048 A 
ATOM     13  C   UNL A   1      29.912  25.629  25.703  1.00  0.00     0.048 A 
ATOM     14  C   UNL A   1      31.214  23.968  23.883  1.00  0.00     0.030 A 
ATOM     15  C   UNL A   1      30.520  24.458  26.141  1.00  0.00     0.030 A 
BRANCH  11  16
ATOM     16  O   UNL A   1      29.320  27.070  23.828  1.00  0.00    -0.484 OA
BRANCH  16  17
ATOM     17  C   UNL A   1      29.876  27.596  22.634  1.00  0.00     0.329 C 
BRANCH  17  18
ATOM     18  C   UNL A   1      30.502  28.993  22.590  1.00  0.00     0.262 C 
ATOM     19  N   UNL A   1      31.421  29.434  23.494  1.00  0.00    -0.323 N 
ATOM     20  H   UNL A   1      31.816  30.302  23.246  1.00  0.00     0.170 HD
ATOM     21  O   UNL A   1      30.206  29.766  21.669  1.00  0.00    -0.271 OA
BRANCH  19  22
ATOM     22  C   UNL A   1      31.930  28.926  24.699  1.00  0.00     0.041 A 
ATOM     23  C   UNL A   1      34.189  25.977  25.609  1.00  0.00     0.044 C 
ATOM     24  C   UNL A   1      33.318  27.192  25.730  1.00  0.00    -0.049 A 
ATOM     25  C   UNL A   1      33.092  27.768  26.982  1.00  0.00     0.003 A 
ATOM     26  C   UNL A   1      32.734  27.779  24.598  1.00  0.00     0.029 A 
ATOM     27  C   UNL A   1      32.307  28.913  27.091  1.00  0.00     0.002 A 
ATOM     28  C   UNL A   1      31.738  29.495  25.955  1.00  0.00     0.026 A 
ENDBRANCH  19  22
ENDBRANCH  17  18
ENDBRANCH  16  17
ENDBRANCH  11  16
ENDBRANCH   5  10
ENDBRANCH   2   4
ENDBRANCH   1   2
BRANCH   1  29
ATOM     29  C   UNL A   1      36.747  20.571  24.596  1.00  0.00     0.274 C 
BRANCH  29  30
ATOM     30  C   UNL A   1      37.891  21.213  25.390  1.00  0.00     0.275 C 
BRANCH  30  31
ATOM     31  O   UNL A   1      38.954  20.343  25.903  1.00  0.00    -0.458 OA
BRANCH  31  32
ATOM     32  C   UNL A   1      40.251  20.591  26.217  1.00  0.00     0.338 C 
ATOM     33  O   UNL A   1      41.156  19.835  25.889  1.00  0.00    -0.246 OA
BRANCH  32  34
ATOM     34  C   UNL A   1      40.577  21.842  26.919  1.00  0.00     0.060 A 
ATOM     35  C   UNL A   1      41.353  21.814  28.094  1.00  0.00     0.016 A 
ATOM     36  C   UNL A   1      40.176  23.047  26.371  1.00  0.00     0.016 A 
ATOM     37  C   UNL A   1      41.870  23.001  28.618  1.00  0.00     0.010 A 
ATOM     38  C   UNL A   1      40.785  24.197  26.802  1.00  0.00     0.010 A 
ATOM     39  C   UNL A   1      41.621  24.188  27.932  1.00  0.00    -0.014 A 
BRANCH  39  40
ATOM     40  C   UNL A   1      41.938  25.521  28.430  1.00  0.00     0.031 A 
ATOM     41  C   UNL A   1      40.942  26.545  28.785  1.00  0.00     0.074 A 
ATOM     42  C   UNL A   1      43.252  25.683  28.693  1.00  0.00     0.049 A 
ATOM     43  N   UNL A   1      41.201  27.809  28.832  1.00  0.00    -0.248 NA
ATOM     44  C   UNL A   1      39.553  26.243  29.106  1.00  0.00     0.031 C 
ATOM     45  C   UNL A   1      43.932  26.695  29.476  1.00  0.00     0.029 A 
ATOM     46  N   UNL A   1      44.294  24.946  28.117  1.00  0.00    -0.354 N 
ATOM     47  C   UNL A   1      40.162  28.411  29.514  1.00  0.00     0.074 A 
ATOM     48  C   UNL A   1      39.104  27.431  29.533  1.00  0.00     0.031 C 
ATOM     49  C   UNL A   1      45.224  26.721  29.095  1.00  0.00     0.029 A 
ATOM     50  C   UNL A   1      45.343  25.839  27.937  1.00  0.00     0.049 A 
ATOM     51  H   UNL A   1      44.284  23.989  27.885  1.00  0.00     0.167 HD
ATOM     52  C   UNL A   1      40.380  29.589  30.167  1.00  0.00     0.031 A 
ATOM     53  C   UNL A   1      45.749  26.205  26.685  1.00  0.00     0.031 A 
ATOM     54  C   UNL A   1      41.759  30.032  29.988  1.00  0.00     0.049 A 
ATOM     55  C   UNL A   1      45.628  27.698  26.516  1.00  0.00     0.074 A 
ATOM     56  C   UNL A   1      42.873  29.921  30.803  1.00  0.00     0.029 A 
ATOM     57  N   UNL A   1      42.218  30.370  28.723  1.00  0.00    -0.354 N 
ATOM     58  N   UNL A   1      44.712  28.427  27.094  1.00  0.00    -0.248 NA
ATOM     59  C   UNL A   1      46.562  28.480  25.719  1.00  0.00     0.031 C 
ATOM     60  C   UNL A   1      44.021  30.125  29.998  1.00  0.00     0.029 A 
ATOM     61  C   UNL A   1      43.597  30.386  28.706  1.00  0.00     0.049 A 
ATOM     62  H   UNL A   1      41.643  30.569  27.950  1.00  0.00     0.167 HD
ATOM     63  C   UNL A   1      44.998  29.749  26.876  1.00  0.00     0.074 A 
ATOM     64  C   UNL A   1      46.133  29.729  25.969  1.00  0.00     0.031 C 
ATOM     65  C   UNL A   1      44.322  30.759  27.501  1.00  0.00     0.031 A 
BRANCH  52  66
ATOM     66  C   UNL A   1      39.476  30.169  31.233  1.00  0.00    -0.014 A 
ATOM     67  C   UNL A   1      38.757  31.353  30.959  1.00  0.00     0.009 A 
ATOM     68  C   UNL A   1      39.301  29.634  32.520  1.00  0.00     0.009 A 
ATOM     69  C   UNL A   1      37.989  32.011  31.927  1.00  0.00     0.001 A 
ATOM     70  C   UNL A   1      38.546  30.298  33.503  1.00  0.00     0.001 A 
ATOM     71  C   UNL A   1      37.901  31.494  33.210  1.00  0.00     0.000 A 
ENDBRANCH  52  66
BRANCH  53  72
ATOM     72  C   UNL A   1      45.457  25.206  25.607  1.00  0.00    -0.014 A 
ATOM     73  C   UNL A   1      46.481  24.313  25.219  1.00  0.00     0.009 A 
ATOM     74  C   UNL A   1      44.139  24.895  25.238  1.00  0.00     0.009 A 
ATOM     75  C   UNL A   1      46.184  23.107  24.570  1.00  0.00     0.001 A 
ATOM     76  C   UNL A   1      43.848  23.695  24.570  1.00  0.00     0.001 A 
ATOM     77  C   UNL A   1      44.865  22.791  24.262  1.00  0.00     0.000 A 
ENDBRANCH  53  72
BRANCH  65  78
ATOM     78  C   UNL A   1      44.354  32.225  27.141  1.00  0.00    -0.014 A 
ATOM     79  C   UNL A   1      44.121  32.731  25.859  1.00  0.00     0.009 A 
ATOM     80  C   UNL A   1      44.488  33.179  28.178  1.00  0.00     0.009 A 
ATOM     81  C   UNL A   1      44.068  34.111  25.618  1.00  0.00     0.001 A 
ATOM     82  C   UNL A   1      44.382  34.552  27.954  1.00  0.00     0.001 A 
ATOM     83  C   UNL A   1      44.184  35.019  26.665  1.00  0.00     0.000 A 
ENDBRANCH  65  78
ENDBRANCH  39  40
ENDBRANCH  32  34
ENDBRANCH  31  32
ENDBRANCH  30  31
ENDBRANCH  29  30
ENDBRANCH   1  29
TORSDOF 16
ENDMDL
MODEL 2
REMARK VINA RESULT:     -12.5      3.020      5.700
REMARK SMILES Cc1cccc(NC(=O)COc2ccc(N3C[C@@H](C(=O)OCCOC(=O)c4ccc(-c5c6nc(c(-c7ccccc7)c7ccc([nH]7)c(-c7ccccc7)c7nc(c(-c8ccccc8)c8ccc5[nH]8)C=C7)C=C6)cc4)CC3=O)cc2)c1
REMARK SMILES IDX 21 1 19 2 20 3 18 4 16 5 17 6 76 7 75 8 77 9 15 10 12 11
REMARK SMILES IDX 13 12 79 13 14 14 78 15 11 16 10 17 8 18 7 19 9 21 6 22 1 23
REMARK SMILES IDX 2 24 3 25 80 26 4 27 5 28 22 29 23 30 24 31 25 32 26 33
REMARK SMILES IDX 27 34 28 35 74 36 29 37 73 38 30 39 31 40 32 41 67 42 33 43
REMARK SMILES IDX 72 44 66 45 68 46 34 47 71 48 65 49 64 50 35 52 57 53 42 54
REMARK SMILES IDX 56 55 43 56 46 57 55 58 69 59 44 60 45 61 54 63 70 64 47 65
REMARK SMILES IDX 36 66 37 67 41 68 38 69 40 70 39 71 58 72 59 73 63 74 60 75
REMARK SMILES IDX 62 76 61 77 48 78 49 79 53 80 50 81 52 82 51 83
REMARK H PARENT 7 20 68 51 46 62
REMARK Flexibility Score: inf
ROOT
ATOM      1  O   UNL A   1      43.799  19.272  25.150  1.00  0.00    -0.462 OA
ENDROOT
BRANCH   1   2
ATOM      2  C   UNL A   1      42.739  18.755  25.821  1.00  0.00     0.311 C 
ATOM      3  O   UNL A   1      42.446  17.567  25.864  1.00  0.00    -0.252 OA
BRANCH   2   4
ATOM      4  C   UNL A   1      42.026  19.860  26.544  1.00  0.00     0.128 C 
ATOM      5  N   UNL A   1      40.265  21.346  26.272  1.00  0.00    -0.312 N 
ATOM      6  C   UNL A   1      40.562  19.943  26.174  1.00  0.00     0.141 C 
ATOM      7  C   UNL A   1      41.418  22.129  26.203  1.00  0.00     0.227 C 
ATOM      8  C   UNL A   1      42.608  21.211  26.179  1.00  0.00     0.117 C 
ATOM      9  O   UNL A   1      41.501  23.345  26.140  1.00  0.00    -0.274 OA
BRANCH   5  10
ATOM     10  C   UNL A   1      38.979  21.802  25.945  1.00  0.00     0.044 A 
ATOM     11  C   UNL A   1      36.317  22.547  25.521  1.00  0.00     0.120 A 
ATOM     12  C   UNL A   1      37.206  23.437  26.126  1.00  0.00     0.048 A 
ATOM     13  C   UNL A   1      36.778  21.307  25.087  1.00  0.00     0.048 A 
ATOM     14  C   UNL A   1      38.528  23.054  26.372  1.00  0.00     0.030 A 
ATOM     15  C   UNL A   1      38.106  20.945  25.278  1.00  0.00     0.030 A 
BRANCH  11  16
ATOM     16  O   UNL A   1      35.047  23.006  25.326  1.00  0.00    -0.484 OA
BRANCH  16  17
ATOM     17  C   UNL A   1      34.320  23.369  26.489  1.00  0.00     0.329 C 
BRANCH  17  18
ATOM     18  C   UNL A   1      33.246  22.451  27.081  1.00  0.00     0.262 C 
ATOM     19  N   UNL A   1      32.509  21.581  26.337  1.00  0.00    -0.323 N 
ATOM     20  H   UNL A   1      31.959  20.976  26.887  1.00  0.00     0.170 HD
ATOM     21  O   UNL A   1      33.050  22.449  28.303  1.00  0.00    -0.271 OA
BRANCH  19  22
ATOM     22  C   UNL A   1      32.358  21.354  24.959  1.00  0.00     0.041 A 
ATOM     23  C   UNL A   1      32.394  18.232  22.751  1.00  0.00     0.044 C 
ATOM     24  C   UNL A   1      32.302  19.664  23.189  1.00  0.00    -0.049 A 
ATOM     25  C   UNL A   1      32.041  20.666  22.253  1.00  0.00     0.003 A 
ATOM     26  C   UNL A   1      32.457  20.018  24.537  1.00  0.00     0.029 A 
ATOM     27  C   UNL A   1      31.928  21.991  22.663  1.00  0.00     0.002 A 
ATOM     28  C   UNL A   1      32.074  22.332  24.011  1.00  0.00     0.026 A 
ENDBRANCH  19  22
ENDBRANCH  17  18
ENDBRANCH  16  17
ENDBRANCH  11  16
ENDBRANCH   5  10
ENDBRANCH   2   4
ENDBRANCH   1   2
BRANCH   1  29
ATOM     29  C   UNL A   1      45.045  18.629  25.421  1.00  0.00     0.274 C 
BRANCH  29  30
ATOM     30  C   UNL A   1      46.208  19.578  25.105  1.00  0.00     0.275 C 
BRANCH  30  31
ATOM     31  O   UNL A   1      46.170  20.932  25.663  1.00  0.00    -0.458 OA
BRANCH  31  32
ATOM     32  C   UNL A   1      45.992  22.145  25.080  1.00  0.00     0.338 C 
ATOM     33  O   UNL A   1      46.195  22.328  23.887  1.00  0.00    -0.246 OA
BRANCH  32  34
ATOM     34  C   UNL A   1      45.477  23.251  25.901  1.00  0.00     0.060 A 
ATOM     35  C   UNL A   1      45.485  23.155  27.306  1.00  0.00     0.016 A 
ATOM     36  C   UNL A   1      45.058  24.413  25.280  1.00  0.00     0.016 A 
ATOM     37  C   UNL A   1      45.235  24.286  28.086  1.00  0.00     0.010 A 
ATOM     38  C   UNL A   1      44.940  25.553  26.033  1.00  0.00     0.010 A 
ATOM     39  C   UNL A   1      45.013  25.498  27.436  1.00  0.00    -0.014 A 
BRANCH  39  40
ATOM     40  C   UNL A   1      44.571  26.725  28.088  1.00  0.00     0.031 A 
ATOM     41  C   UNL A   1      43.165  27.128  28.258  1.00  0.00     0.074 A 
ATOM     42  C   UNL A   1      45.582  27.399  28.676  1.00  0.00     0.049 A 
ATOM     43  N   UNL A   1      42.790  28.348  28.455  1.00  0.00    -0.248 NA
ATOM     44  C   UNL A   1      42.046  26.196  28.207  1.00  0.00     0.031 C 
ATOM     45  C   UNL A   1      45.551  28.453  29.670  1.00  0.00     0.029 A 
ATOM     46  N   UNL A   1      46.934  27.308  28.323  1.00  0.00    -0.354 N 
ATOM     47  C   UNL A   1      41.483  28.303  28.901  1.00  0.00     0.074 A 
ATOM     48  C   UNL A   1      41.023  26.970  28.592  1.00  0.00     0.031 C 
ATOM     49  C   UNL A   1      46.726  29.110  29.620  1.00  0.00     0.029 A 
ATOM     50  C   UNL A   1      47.456  28.587  28.468  1.00  0.00     0.049 A 
ATOM     51  H   UNL A   1      47.416  26.501  28.029  1.00  0.00     0.167 HD
ATOM     52  C   UNL A   1      41.000  29.323  29.668  1.00  0.00     0.031 A 
ATOM     53  C   UNL A   1      47.868  29.306  27.383  1.00  0.00     0.031 A 
ATOM     54  C   UNL A   1      42.018  30.349  29.864  1.00  0.00     0.049 A 
ATOM     55  C   UNL A   1      47.097  30.598  27.294  1.00  0.00     0.074 A 
ATOM     56  C   UNL A   1      42.882  30.598  30.918  1.00  0.00     0.029 A 
ATOM     57  N   UNL A   1      42.491  31.070  28.777  1.00  0.00    -0.354 N 
ATOM     58  N   UNL A   1      45.858  30.738  27.678  1.00  0.00    -0.248 NA
ATOM     59  C   UNL A   1      47.687  31.837  26.806  1.00  0.00     0.031 C 
ATOM     60  C   UNL A   1      43.927  31.423  30.435  1.00  0.00     0.029 A 
ATOM     61  C   UNL A   1      43.679  31.692  29.100  1.00  0.00     0.049 A 
ATOM     62  H   UNL A   1      42.044  31.128  27.902  1.00  0.00     0.167 HD
ATOM     63  C   UNL A   1      45.527  32.067  27.630  1.00  0.00     0.074 A 
ATOM     64  C   UNL A   1      46.685  32.706  27.029  1.00  0.00     0.031 C 
ATOM     65  C   UNL A   1      44.355  32.551  28.138  1.00  0.00     0.031 A 
BRANCH  52  66
ATOM     66  C   UNL A   1      39.749  29.250  30.518  1.00  0.00    -0.014 A 
ATOM     67  C   UNL A   1      39.794  28.567  31.753  1.00  0.00     0.009 A 
ATOM     68  C   UNL A   1      38.504  29.795  30.167  1.00  0.00     0.009 A 
ATOM     69  C   UNL A   1      38.656  28.361  32.542  1.00  0.00     0.001 A 
ATOM     70  C   UNL A   1      37.353  29.576  30.944  1.00  0.00     0.001 A 
ATOM     71  C   UNL A   1      37.426  28.848  32.126  1.00  0.00     0.000 A 
ENDBRANCH  52  66
BRANCH  53  72
ATOM     72  C   UNL A   1      48.283  28.486  26.199  1.00  0.00    -0.014 A 
ATOM     73  C   UNL A   1      49.455  27.701  26.299  1.00  0.00     0.009 A 
ATOM     74  C   UNL A   1      47.384  28.196  25.161  1.00  0.00     0.009 A 
ATOM     75  C   UNL A   1      49.669  26.608  25.450  1.00  0.00     0.001 A 
ATOM     76  C   UNL A   1      47.613  27.111  24.300  1.00  0.00     0.001 A 
ATOM     77  C   UNL A   1      48.738  26.302  24.463  1.00  0.00     0.000 A 
ENDBRANCH  53  72
BRANCH  65  78
ATOM     78  C   UNL A   1      43.764  33.919  27.900  1.00  0.00    -0.014 A 
ATOM     79  C   UNL A   1      43.474  34.448  26.639  1.00  0.00     0.009 A 
ATOM     80  C   UNL A   1      43.336  34.681  29.014  1.00  0.00     0.009 A 
ATOM     81  C   UNL A   1      42.833  35.687  26.497  1.00  0.00     0.001 A 
ATOM     82  C   UNL A   1      42.650  35.888  28.879  1.00  0.00     0.001 A 
ATOM     83  C   UNL A   1      42.410  36.399  27.615  1.00  0.00     0.000 A 
ENDBRANCH  65  78
ENDBRANCH  39  40
ENDBRANCH  32  34
ENDBRANCH  31  32
ENDBRANCH  30  31
ENDBRANCH  29  30
ENDBRANCH   1  29
TORSDOF 16
ENDMDL
MODEL 3
REMARK VINA RESULT:     -12.3      2.438      4.247
REMARK SMILES Cc1cccc(NC(=O)COc2ccc(N3C[C@@H](C(=O)OCCOC(=O)c4ccc(-c5c6nc(c(-c7ccccc7)c7ccc([nH]7)c(-c7ccccc7)c7nc(c(-c8ccccc8)c8ccc5[nH]8)C=C7)C=C6)cc4)CC3=O)cc2)c1
REMARK SMILES IDX 21 1 19 2 20 3 18 4 16 5 17 6 76 7 75 8 77 9 15 10 12 11
REMARK SMILES IDX 13 12 79 13 14 14 78 15 11 16 10 17 8 18 7 19 9 21 6 22 1 23
REMARK SMILES IDX 2 24 3 25 80 26 4 27 5 28 22 29 23 30 24 31 25 32 26 33
REMARK SMILES IDX 27 34 28 35 74 36 29 37 73 38 30 39 31 40 32 41 67 42 33 43
REMARK SMILES IDX 72 44 66 45 68 46 34 47 71 48 65 49 64 50 35 52 57 53 42 54
REMARK SMILES IDX 56 55 43 56 46 57 55 58 69 59 44 60 45 61 54 63 70 64 47 65
REMARK SMILES IDX 36 66 37 67 41 68 38 69 40 70 39 71 58 72 59 73 63 74 60 75
REMARK SMILES IDX 62 76 61 77 48 78 49 79 53 80 50 81 52 82 51 83
REMARK H PARENT 7 20 68 51 46 62
REMARK Flexibility Score: inf
ROOT
ATOM      1  O   UNL A   1      41.349  19.723  26.010  1.00  0.00    -0.462 OA
ENDROOT
BRANCH   1   2
ATOM      2  C   UNL A   1      41.257  21.076  25.939  1.00  0.00     0.311 C 
ATOM      3  O   UNL A   1      42.063  21.805  25.377  1.00  0.00    -0.252 OA
BRANCH   2   4
ATOM      4  C   UNL A   1      39.986  21.519  26.602  1.00  0.00     0.128 C 
ATOM      5  N   UNL A   1      37.991  22.604  26.125  1.00  0.00    -0.312 N 
ATOM      6  C   UNL A   1      38.809  21.519  25.653  1.00  0.00     0.141 C 
ATOM      7  C   UNL A   1      38.718  23.502  26.907  1.00  0.00     0.227 C 
ATOM      8  C   UNL A   1      40.102  22.948  27.095  1.00  0.00     0.117 C 
ATOM      9  O   UNL A   1      38.352  24.576  27.356  1.00  0.00    -0.274 OA
BRANCH   5  10
ATOM     10  C   UNL A   1      36.813  22.928  25.435  1.00  0.00     0.044 A 
ATOM     11  C   UNL A   1      34.418  23.283  24.036  1.00  0.00     0.120 A 
ATOM     12  C   UNL A   1      34.460  23.485  25.416  1.00  0.00     0.048 A 
ATOM     13  C   UNL A   1      35.587  22.953  23.356  1.00  0.00     0.048 A 
ATOM     14  C   UNL A   1      35.647  23.274  26.124  1.00  0.00     0.030 A 
ATOM     15  C   UNL A   1      36.782  22.797  24.049  1.00  0.00     0.030 A 
BRANCH  11  16
ATOM     16  O   UNL A   1      33.215  23.509  23.431  1.00  0.00    -0.484 OA
BRANCH  16  17
ATOM     17  C   UNL A   1      33.246  23.743  22.033  1.00  0.00     0.329 C 
BRANCH  17  18
ATOM     18  C   UNL A   1      32.978  25.134  21.448  1.00  0.00     0.262 C 
ATOM     19  N   UNL A   1      32.639  26.214  22.204  1.00  0.00    -0.323 N 
ATOM     20  H   UNL A   1      32.631  27.055  21.690  1.00  0.00     0.170 HD
ATOM     21  O   UNL A   1      33.114  25.321  20.232  1.00  0.00    -0.271 OA
BRANCH  19  22
ATOM     22  C   UNL A   1      32.297  26.397  23.554  1.00  0.00     0.041 A 
ATOM     23  C   UNL A   1      33.989  28.110  26.525  1.00  0.00     0.044 C 
ATOM     24  C   UNL A   1      32.993  27.354  25.697  1.00  0.00    -0.049 A 
ATOM     25  C   UNL A   1      31.797  26.916  26.270  1.00  0.00     0.003 A 
ATOM     26  C   UNL A   1      33.232  27.091  24.341  1.00  0.00     0.029 A 
ATOM     27  C   UNL A   1      30.859  26.239  25.496  1.00  0.00     0.002 A 
ATOM     28  C   UNL A   1      31.103  25.991  24.142  1.00  0.00     0.026 A 
ENDBRANCH  19  22
ENDBRANCH  17  18
ENDBRANCH  16  17
ENDBRANCH  11  16
ENDBRANCH   5  10
ENDBRANCH   2   4
ENDBRANCH   1   2
BRANCH   1  29
ATOM     29  C   UNL A   1      42.642  19.233  26.365  1.00  0.00     0.274 C 
BRANCH  29  30
ATOM     30  C   UNL A   1      43.623  19.445  25.205  1.00  0.00     0.275 C 
BRANCH  30  31
ATOM     31  O   UNL A   1      45.002  19.824  25.522  1.00  0.00    -0.458 OA
BRANCH  31  32
ATOM     32  C   UNL A   1      45.786  20.839  25.075  1.00  0.00     0.338 C 
ATOM     33  O   UNL A   1      46.671  20.660  24.248  1.00  0.00    -0.246 OA
BRANCH  32  34
ATOM     34  C   UNL A   1      45.514  22.201  25.557  1.00  0.00     0.060 A 
ATOM     35  C   UNL A   1      45.578  23.293  24.670  1.00  0.00     0.016 A 
ATOM     36  C   UNL A   1      45.123  22.386  26.871  1.00  0.00     0.016 A 
ATOM     37  C   UNL A   1      45.082  24.539  25.059  1.00  0.00     0.010 A 
ATOM     38  C   UNL A   1      44.519  23.568  27.214  1.00  0.00     0.010 A 
ATOM     39  C   UNL A   1      44.505  24.654  26.322  1.00  0.00    -0.014 A 
BRANCH  39  40
ATOM     40  C   UNL A   1      44.101  25.909  26.943  1.00  0.00     0.031 A 
ATOM     41  C   UNL A   1      42.776  26.533  26.795  1.00  0.00     0.074 A 
ATOM     42  C   UNL A   1      45.018  26.382  27.814  1.00  0.00     0.049 A 
ATOM     43  N   UNL A   1      42.550  27.788  26.993  1.00  0.00    -0.248 NA
ATOM     44  C   UNL A   1      41.580  25.802  26.396  1.00  0.00     0.031 C 
ATOM     45  C   UNL A   1      44.893  27.385  28.852  1.00  0.00     0.029 A 
ATOM     46  N   UNL A   1      46.386  26.083  27.797  1.00  0.00    -0.354 N 
ATOM     47  C   UNL A   1      41.181  27.943  27.100  1.00  0.00     0.074 A 
ATOM     48  C   UNL A   1      40.621  26.719  26.580  1.00  0.00     0.031 C 
ATOM     49  C   UNL A   1      46.127  27.839  29.146  1.00  0.00     0.029 A 
ATOM     50  C   UNL A   1      47.040  27.250  28.169  1.00  0.00     0.049 A 
ATOM     51  H   UNL A   1      46.800  25.219  27.566  1.00  0.00     0.167 HD
ATOM     52  C   UNL A   1      40.677  28.996  27.806  1.00  0.00     0.031 A 
ATOM     53  C   UNL A   1      47.818  27.935  27.280  1.00  0.00     0.031 A 
ATOM     54  C   UNL A   1      41.754  29.831  28.328  1.00  0.00     0.049 A 
ATOM     55  C   UNL A   1      47.298  29.340  27.110  1.00  0.00     0.074 A 
ATOM     56  C   UNL A   1      42.347  29.890  29.578  1.00  0.00     0.029 A 
ATOM     57  N   UNL A   1      42.591  30.507  27.452  1.00  0.00    -0.354 N 
ATOM     58  N   UNL A   1      46.037  29.666  27.189  1.00  0.00    -0.248 NA
ATOM     59  C   UNL A   1      48.171  30.483  26.885  1.00  0.00     0.031 C 
ATOM     60  C   UNL A   1      43.593  30.549  29.435  1.00  0.00     0.029 A 
ATOM     61  C   UNL A   1      43.737  30.910  28.106  1.00  0.00     0.049 A 
ATOM     62  H   UNL A   1      42.396  30.674  26.502  1.00  0.00     0.167 HD
ATOM     63  C   UNL A   1      45.933  31.033  27.169  1.00  0.00     0.074 A 
ATOM     64  C   UNL A   1      47.289  31.495  26.925  1.00  0.00     0.031 C 
ATOM     65  C   UNL A   1      44.757  31.683  27.412  1.00  0.00     0.031 A 
BRANCH  52  66
ATOM     66  C   UNL A   1      39.255  29.097  28.314  1.00  0.00    -0.014 A 
ATOM     67  C   UNL A   1      38.260  29.647  27.475  1.00  0.00     0.009 A 
ATOM     68  C   UNL A   1      38.826  28.705  29.592  1.00  0.00     0.009 A 
ATOM     69  C   UNL A   1      36.949  29.876  27.910  1.00  0.00     0.001 A 
ATOM     70  C   UNL A   1      37.517  28.950  30.043  1.00  0.00     0.001 A 
ATOM     71  C   UNL A   1      36.582  29.547  29.206  1.00  0.00     0.000 A 
ENDBRANCH  52  66
BRANCH  53  72
ATOM     72  C   UNL A   1      48.393  27.106  26.172  1.00  0.00    -0.014 A 
ATOM     73  C   UNL A   1      47.700  27.051  24.941  1.00  0.00     0.009 A 
ATOM     74  C   UNL A   1      49.733  26.691  26.191  1.00  0.00     0.009 A 
ATOM     75  C   UNL A   1      48.353  26.685  23.757  1.00  0.00     0.001 A 
ATOM     76  C   UNL A   1      50.378  26.306  25.005  1.00  0.00     0.001 A 
ATOM     77  C   UNL A   1      49.698  26.331  23.788  1.00  0.00     0.000 A 
ENDBRANCH  53  72
BRANCH  65  78
ATOM     78  C   UNL A   1      44.459  33.139  27.149  1.00  0.00    -0.014 A 
ATOM     79  C   UNL A   1      44.217  33.682  25.883  1.00  0.00     0.009 A 
ATOM     80  C   UNL A   1      44.267  34.007  28.251  1.00  0.00     0.009 A 
ATOM     81  C   UNL A   1      43.848  35.025  25.724  1.00  0.00     0.001 A 
ATOM     82  C   UNL A   1      43.847  35.329  28.102  1.00  0.00     0.001 A 
ATOM     83  C   UNL A   1      43.650  35.843  26.831  1.00  0.00     0.000 A 
ENDBRANCH  65  78
ENDBRANCH  39  40
ENDBRANCH  32  34
ENDBRANCH  31  32
ENDBRANCH  30  31
ENDBRANCH  29  30
ENDBRANCH   1  29
TORSDOF 16
ENDMDL
