MODEL 1
REMARK VINA RESULT:     -11.0      0.000      0.000
REMARK SMILES Cc1ccc([C@@H](C)Nc2ccc(N)cc2C(=O)OCCOC(=O)c2ccc(-c3c4nc(c(-c5ccccc5)c5ccc([nH]5)c(-c5ccccc5)c5nc(c(-c6ccccc6)c6ccc3[nH]6)C=C5)C=C4)cc2)cc1F
REMARK SMILES IDX 19 1 18 2 16 3 17 4 15 5 9 6 10 7 11 8 14 9 12 10 8 11 6 13
REMARK SMILES IDX 7 14 5 15 1 16 2 17 3 18 73 19 4 20 72 21 74 22 13 23 20 26
REMARK SMILES IDX 21 27 22 28 23 29 24 30 25 31 71 32 26 33 70 34 27 35 28 36
REMARK SMILES IDX 29 37 64 38 30 39 69 40 63 41 65 42 31 43 68 44 62 45 61 46
REMARK SMILES IDX 32 48 54 49 39 50 53 51 40 52 43 53 52 54 66 55 41 56 42 57
REMARK SMILES IDX 51 59 67 60 44 61 33 62 34 63 38 64 35 65 37 66 36 67 55 68
REMARK SMILES IDX 56 69 60 70 57 71 59 72 58 73 45 74 46 75 50 76 47 77 49 78
REMARK SMILES IDX 48 79
REMARK H PARENT 8 12 13 24 13 25 65 47 43 58
REMARK Flexibility Score: inf
ROOT
ATOM      1  C   UNL A   1      33.179  35.703  28.792  1.00  0.00     0.275 C 
ENDROOT
BRANCH   1   2
ATOM      2  O   UNL A   1      32.949  34.303  29.074  1.00  0.00    -0.458 OA
BRANCH   2   3
ATOM      3  C   UNL A   1      32.938  33.465  28.009  1.00  0.00     0.340 C 
ATOM      4  O   UNL A   1      32.122  33.458  27.100  1.00  0.00    -0.246 OA
BRANCH   3   5
ATOM      5  C   UNL A   1      34.144  32.617  27.999  1.00  0.00     0.085 A 
ATOM      6  C   UNL A   1      34.172  31.230  27.790  1.00  0.00     0.049 A 
ATOM      7  C   UNL A   1      35.453  30.631  27.873  1.00  0.00     0.029 A 
ATOM      8  C   UNL A   1      36.625  31.346  28.148  1.00  0.00     0.027 A 
ATOM      9  C   UNL A   1      35.343  33.342  28.222  1.00  0.00     0.043 A 
ATOM     10  C   UNL A   1      36.578  32.714  28.346  1.00  0.00     0.032 A 
BRANCH   6  11
ATOM     11  N   UNL A   1      33.168  30.363  27.425  1.00  0.00    -0.378 N 
ATOM     12  H   UNL A   1      32.651  30.064  28.208  1.00  0.00     0.161 HD
BRANCH  11  13
ATOM     13  C   UNL A   1      32.661  29.766  26.194  1.00  0.00     0.106 C 
ATOM     14  C   UNL A   1      31.429  30.429  25.591  1.00  0.00     0.036 C 
BRANCH  13  15
ATOM     15  C   UNL A   1      32.694  28.244  26.219  1.00  0.00    -0.023 A 
ATOM     16  C   UNL A   1      32.467  23.935  25.805  1.00  0.00     0.047 C 
ATOM     17  C   UNL A   1      32.549  25.417  26.003  1.00  0.00    -0.015 A 
ATOM     18  C   UNL A   1      31.508  26.138  26.596  1.00  0.00     0.007 A 
ATOM     19  C   UNL A   1      33.673  26.115  25.567  1.00  0.00     0.126 A 
ATOM     20  C   UNL A   1      31.581  27.532  26.704  1.00  0.00     0.006 A 
ATOM     21  C   UNL A   1      33.753  27.502  25.669  1.00  0.00     0.045 A 
ATOM     22  F   UNL A   1      34.691  25.449  25.001  1.00  0.00    -0.207 F 
ENDBRANCH  13  15
ENDBRANCH  11  13
ENDBRANCH   6  11
BRANCH  10  23
ATOM     23  N   UNL A   1      37.738  33.439  28.542  1.00  0.00    -0.399 N 
ATOM     24  H   UNL A   1      38.552  32.989  28.864  1.00  0.00     0.156 HD
ATOM     25  H   UNL A   1      37.750  34.407  28.359  1.00  0.00     0.156 HD
ENDBRANCH  10  23
ENDBRANCH   3   5
ENDBRANCH   2   3
ENDBRANCH   1   2
BRANCH   1  26
ATOM     26  C   UNL A   1      32.904  36.542  30.032  1.00  0.00     0.275 C 
BRANCH  26  27
ATOM     27  O   UNL A   1      32.326  35.671  31.012  1.00  0.00    -0.458 OA
BRANCH  27  28
ATOM     28  C   UNL A   1      32.468  36.050  32.299  1.00  0.00     0.338 C 
ATOM     29  O   UNL A   1      31.814  36.850  32.936  1.00  0.00    -0.246 OA
BRANCH  28  30
ATOM     30  C   UNL A   1      33.544  35.231  32.862  1.00  0.00     0.060 A 
ATOM     31  C   UNL A   1      34.801  35.814  33.030  1.00  0.00     0.016 A 
ATOM     32  C   UNL A   1      33.331  33.888  33.155  1.00  0.00     0.016 A 
ATOM     33  C   UNL A   1      35.880  35.042  33.449  1.00  0.00     0.010 A 
ATOM     34  C   UNL A   1      34.403  33.123  33.617  1.00  0.00     0.010 A 
ATOM     35  C   UNL A   1      35.690  33.685  33.735  1.00  0.00    -0.014 A 
BRANCH  35  36
ATOM     36  C   UNL A   1      36.842  32.802  34.034  1.00  0.00     0.031 A 
ATOM     37  C   UNL A   1      37.566  32.980  35.338  1.00  0.00     0.074 A 
ATOM     38  C   UNL A   1      37.249  31.860  33.164  1.00  0.00     0.049 A 
ATOM     39  N   UNL A   1      38.740  32.538  35.701  1.00  0.00    -0.248 NA
ATOM     40  C   UNL A   1      36.874  33.779  36.364  1.00  0.00     0.031 C 
ATOM     41  C   UNL A   1      36.587  31.513  31.907  1.00  0.00     0.029 A 
ATOM     42  N   UNL A   1      38.338  31.025  33.212  1.00  0.00    -0.354 N 
ATOM     43  C   UNL A   1      38.962  33.066  36.966  1.00  0.00     0.074 A 
ATOM     44  C   UNL A   1      37.792  33.842  37.317  1.00  0.00     0.031 C 
ATOM     45  C   UNL A   1      37.281  30.533  31.305  1.00  0.00     0.029 A 
ATOM     46  C   UNL A   1      38.473  30.240  32.094  1.00  0.00     0.049 A 
ATOM     47  H   UNL A   1      38.960  30.993  33.974  1.00  0.00     0.167 HD
ATOM     48  C   UNL A   1      40.053  32.932  37.755  1.00  0.00     0.031 A 
ATOM     49  C   UNL A   1      39.474  29.419  31.724  1.00  0.00     0.031 A 
ATOM     50  C   UNL A   1      41.197  32.130  37.414  1.00  0.00     0.049 A 
ATOM     51  C   UNL A   1      40.692  29.305  32.597  1.00  0.00     0.074 A 
ATOM     52  C   UNL A   1      42.366  31.942  38.128  1.00  0.00     0.029 A 
ATOM     53  N   UNL A   1      41.297  31.361  36.266  1.00  0.00    -0.354 N 
ATOM     54  N   UNL A   1      40.944  29.889  33.745  1.00  0.00    -0.248 NA
ATOM     55  C   UNL A   1      41.775  28.437  32.113  1.00  0.00     0.031 C 
ATOM     56  C   UNL A   1      43.186  31.073  37.398  1.00  0.00     0.029 A 
ATOM     57  C   UNL A   1      42.508  30.694  36.250  1.00  0.00     0.049 A 
ATOM     58  H   UNL A   1      40.608  31.298  35.565  1.00  0.00     0.167 HD
ATOM     59  C   UNL A   1      42.209  29.458  34.119  1.00  0.00     0.074 A 
ATOM     60  C   UNL A   1      42.665  28.547  33.089  1.00  0.00     0.031 C 
ATOM     61  C   UNL A   1      42.935  29.792  35.214  1.00  0.00     0.031 A 
BRANCH  48  62
ATOM     62  C   UNL A   1      40.079  33.722  39.030  1.00  0.00    -0.014 A 
ATOM     63  C   UNL A   1      39.614  33.183  40.238  1.00  0.00     0.009 A 
ATOM     64  C   UNL A   1      40.581  35.032  39.015  1.00  0.00     0.009 A 
ATOM     65  C   UNL A   1      39.623  33.955  41.402  1.00  0.00     0.001 A 
ATOM     66  C   UNL A   1      40.609  35.793  40.185  1.00  0.00     0.001 A 
ATOM     67  C   UNL A   1      40.122  35.257  41.375  1.00  0.00     0.000 A 
ENDBRANCH  48  62
BRANCH  49  68
ATOM     68  C   UNL A   1      39.395  28.692  30.432  1.00  0.00    -0.014 A 
ATOM     69  C   UNL A   1      39.756  29.326  29.234  1.00  0.00     0.009 A 
ATOM     70  C   UNL A   1      38.962  27.357  30.391  1.00  0.00     0.009 A 
ATOM     71  C   UNL A   1      39.674  28.642  28.020  1.00  0.00     0.001 A 
ATOM     72  C   UNL A   1      38.904  26.668  29.179  1.00  0.00     0.001 A 
ATOM     73  C   UNL A   1      39.254  27.311  27.994  1.00  0.00     0.000 A 
ENDBRANCH  49  68
BRANCH  61  74
ATOM     74  C   UNL A   1      44.279  29.144  35.362  1.00  0.00    -0.014 A 
ATOM     75  C   UNL A   1      44.417  27.908  36.011  1.00  0.00     0.009 A 
ATOM     76  C   UNL A   1      45.412  29.761  34.809  1.00  0.00     0.009 A 
ATOM     77  C   UNL A   1      45.674  27.312  36.124  1.00  0.00     0.001 A 
ATOM     78  C   UNL A   1      46.663  29.153  34.910  1.00  0.00     0.001 A 
ATOM     79  C   UNL A   1      46.794  27.934  35.572  1.00  0.00     0.000 A 
ENDBRANCH  61  74
ENDBRANCH  35  36
ENDBRANCH  28  30
ENDBRANCH  27  28
ENDBRANCH  26  27
ENDBRANCH   1  26
TORSDOF 15
ENDMDL
MODEL 2
REMARK VINA RESULT:     -10.8      5.689      8.163
REMARK SMILES Cc1ccc([C@@H](C)Nc2ccc(N)cc2C(=O)OCCOC(=O)c2ccc(-c3c4nc(c(-c5ccccc5)c5ccc([nH]5)c(-c5ccccc5)c5nc(c(-c6ccccc6)c6ccc3[nH]6)C=C5)C=C4)cc2)cc1F
REMARK SMILES IDX 19 1 18 2 16 3 17 4 15 5 9 6 10 7 11 8 14 9 12 10 8 11 6 13
REMARK SMILES IDX 7 14 5 15 1 16 2 17 3 18 73 19 4 20 72 21 74 22 13 23 20 26
REMARK SMILES IDX 21 27 22 28 23 29 24 30 25 31 71 32 26 33 70 34 27 35 28 36
REMARK SMILES IDX 29 37 64 38 30 39 69 40 63 41 65 42 31 43 68 44 62 45 61 46
REMARK SMILES IDX 32 48 54 49 39 50 53 51 40 52 43 53 52 54 66 55 41 56 42 57
REMARK SMILES IDX 51 59 67 60 44 61 33 62 34 63 38 64 35 65 37 66 36 67 55 68
REMARK SMILES IDX 56 69 60 70 57 71 59 72 58 73 45 74 46 75 50 76 47 77 49 78
REMARK SMILES IDX 48 79
REMARK H PARENT 8 12 13 24 13 25 65 47 43 58
REMARK Flexibility Score: inf
ROOT
ATOM      1  C   UNL A   1      32.070  27.870  27.060  1.00  0.00     0.275 C 
ENDROOT
BRANCH   1   2
ATOM      2  O   UNL A   1      32.312  27.003  25.927  1.00  0.00    -0.458 OA
BRANCH   2   3
ATOM      3  C   UNL A   1      32.300  25.670  26.172  1.00  0.00     0.340 C 
ATOM      4  O   UNL A   1      31.503  25.068  26.875  1.00  0.00    -0.246 OA
BRANCH   3   5
ATOM      5  C   UNL A   1      33.316  24.981  25.355  1.00  0.00     0.085 A 
ATOM      6  C   UNL A   1      33.345  24.926  23.953  1.00  0.00     0.049 A 
ATOM      7  C   UNL A   1      34.401  24.162  23.399  1.00  0.00     0.029 A 
ATOM      8  C   UNL A   1      35.361  23.494  24.170  1.00  0.00     0.027 A 
ATOM      9  C   UNL A   1      34.325  24.349  26.127  1.00  0.00     0.043 A 
ATOM     10  C   UNL A   1      35.319  23.565  25.551  1.00  0.00     0.032 A 
BRANCH   6  11
ATOM     11  N   UNL A   1      32.565  25.569  23.020  1.00  0.00    -0.378 N 
ATOM     12  H   UNL A   1      31.913  24.954  22.612  1.00  0.00     0.161 HD
BRANCH  11  13
ATOM     13  C   UNL A   1      32.443  26.914  22.469  1.00  0.00     0.106 C 
ATOM     14  C   UNL A   1      33.683  27.792  22.576  1.00  0.00     0.036 C 
BRANCH  13  15
ATOM     15  C   UNL A   1      31.101  27.561  22.784  1.00  0.00    -0.023 A 
ATOM     16  C   UNL A   1      27.138  29.283  23.127  1.00  0.00     0.047 C 
ATOM     17  C   UNL A   1      28.525  28.724  23.047  1.00  0.00    -0.015 A 
ATOM     18  C   UNL A   1      29.582  29.459  22.503  1.00  0.00     0.007 A 
ATOM     19  C   UNL A   1      28.779  27.430  23.497  1.00  0.00     0.126 A 
ATOM     20  C   UNL A   1      30.853  28.885  22.375  1.00  0.00     0.006 A 
ATOM     21  C   UNL A   1      30.040  26.852  23.372  1.00  0.00     0.045 A 
ATOM     22  F   UNL A   1      27.785  26.705  24.030  1.00  0.00    -0.207 F 
ENDBRANCH  13  15
ENDBRANCH  11  13
ENDBRANCH   6  11
BRANCH  10  23
ATOM     23  N   UNL A   1      36.305  22.974  26.318  1.00  0.00    -0.399 N 
ATOM     24  H   UNL A   1      37.184  22.776  25.923  1.00  0.00     0.156 HD
ATOM     25  H   UNL A   1      36.128  22.751  27.261  1.00  0.00     0.156 HD
ENDBRANCH  10  23
ENDBRANCH   3   5
ENDBRANCH   2   3
ENDBRANCH   1   2
BRANCH   1  26
ATOM     26  C   UNL A   1      32.847  29.169  26.904  1.00  0.00     0.275 C 
BRANCH  26  27
ATOM     27  O   UNL A   1      34.046  29.039  27.679  1.00  0.00    -0.458 OA
BRANCH  27  28
ATOM     28  C   UNL A   1      34.642  30.192  28.046  1.00  0.00     0.338 C 
ATOM     29  O   UNL A   1      34.145  31.285  28.228  1.00  0.00    -0.246 OA
BRANCH  28  30
ATOM     30  C   UNL A   1      36.052  29.878  28.289  1.00  0.00     0.060 A 
ATOM     31  C   UNL A   1      36.964  30.078  27.251  1.00  0.00     0.016 A 
ATOM     32  C   UNL A   1      36.455  29.328  29.502  1.00  0.00     0.016 A 
ATOM     33  C   UNL A   1      38.289  29.682  27.398  1.00  0.00     0.010 A 
ATOM     34  C   UNL A   1      37.794  28.971  29.666  1.00  0.00     0.010 A 
ATOM     35  C   UNL A   1      38.711  29.114  28.605  1.00  0.00    -0.014 A 
BRANCH  35  36
ATOM     36  C   UNL A   1      40.072  28.542  28.743  1.00  0.00     0.031 A 
ATOM     37  C   UNL A   1      41.195  29.449  29.157  1.00  0.00     0.074 A 
ATOM     38  C   UNL A   1      40.316  27.242  28.498  1.00  0.00     0.049 A 
ATOM     39  N   UNL A   1      42.485  29.261  29.077  1.00  0.00    -0.248 NA
ATOM     40  C   UNL A   1      40.805  30.751  29.726  1.00  0.00     0.031 C 
ATOM     41  C   UNL A   1      39.310  26.229  28.178  1.00  0.00     0.029 A 
ATOM     42  N   UNL A   1      41.505  26.556  28.471  1.00  0.00    -0.354 N 
ATOM     43  C   UNL A   1      43.062  30.447  29.513  1.00  0.00     0.074 A 
ATOM     44  C   UNL A   1      41.983  31.339  29.878  1.00  0.00     0.031 C 
ATOM     45  C   UNL A   1      39.925  25.048  27.994  1.00  0.00     0.029 A 
ATOM     46  C   UNL A   1      41.367  25.241  28.104  1.00  0.00     0.049 A 
ATOM     47  H   UNL A   1      42.370  26.969  28.693  1.00  0.00     0.167 HD
ATOM     48  C   UNL A   1      44.374  30.769  29.582  1.00  0.00     0.031 A 
ATOM     49  C   UNL A   1      42.303  24.312  27.834  1.00  0.00     0.031 A 
ATOM     50  C   UNL A   1      45.442  29.864  29.252  1.00  0.00     0.049 A 
ATOM     51  C   UNL A   1      43.756  24.694  27.886  1.00  0.00     0.074 A 
ATOM     52  C   UNL A   1      46.806  30.093  29.263  1.00  0.00     0.029 A 
ATOM     53  N   UNL A   1      45.258  28.544  28.873  1.00  0.00    -0.354 N 
ATOM     54  N   UNL A   1      44.295  25.849  28.198  1.00  0.00    -0.248 NA
ATOM     55  C   UNL A   1      44.728  23.651  27.527  1.00  0.00     0.031 C 
ATOM     56  C   UNL A   1      47.448  28.913  28.869  1.00  0.00     0.029 A 
ATOM     57  C   UNL A   1      46.482  27.943  28.649  1.00  0.00     0.049 A 
ATOM     58  H   UNL A   1      44.384  28.099  28.777  1.00  0.00     0.167 HD
ATOM     59  C   UNL A   1      45.667  25.671  28.074  1.00  0.00     0.074 A 
ATOM     60  C   UNL A   1      45.878  24.292  27.682  1.00  0.00     0.031 C 
ATOM     61  C   UNL A   1      46.664  26.569  28.261  1.00  0.00     0.031 A 
BRANCH  48  62
ATOM     62  C   UNL A   1      44.716  32.176  29.973  1.00  0.00    -0.014 A 
ATOM     63  C   UNL A   1      44.802  33.203  29.023  1.00  0.00     0.009 A 
ATOM     64  C   UNL A   1      44.958  32.473  31.323  1.00  0.00     0.009 A 
ATOM     65  C   UNL A   1      45.153  34.497  29.415  1.00  0.00     0.001 A 
ATOM     66  C   UNL A   1      45.287  33.772  31.715  1.00  0.00     0.001 A 
ATOM     67  C   UNL A   1      45.393  34.780  30.760  1.00  0.00     0.000 A 
ENDBRANCH  48  62
BRANCH  49  68
ATOM     68  C   UNL A   1      41.892  22.945  27.423  1.00  0.00    -0.014 A 
ATOM     69  C   UNL A   1      41.839  22.595  26.065  1.00  0.00     0.009 A 
ATOM     70  C   UNL A   1      41.555  21.982  28.387  1.00  0.00     0.009 A 
ATOM     71  C   UNL A   1      41.445  21.311  25.682  1.00  0.00     0.001 A 
ATOM     72  C   UNL A   1      41.185  20.692  28.002  1.00  0.00     0.001 A 
ATOM     73  C   UNL A   1      41.125  20.359  26.650  1.00  0.00     0.000 A 
ENDBRANCH  49  68
BRANCH  61  74
ATOM     74  C   UNL A   1      48.067  26.077  28.071  1.00  0.00    -0.014 A 
ATOM     75  C   UNL A   1      48.674  26.100  26.806  1.00  0.00     0.009 A 
ATOM     76  C   UNL A   1      48.801  25.624  29.178  1.00  0.00     0.009 A 
ATOM     77  C   UNL A   1      49.987  25.653  26.651  1.00  0.00     0.001 A 
ATOM     78  C   UNL A   1      50.118  25.194  29.021  1.00  0.00     0.001 A 
ATOM     79  C   UNL A   1      50.708  25.203  27.758  1.00  0.00     0.000 A 
ENDBRANCH  61  74
ENDBRANCH  35  36
ENDBRANCH  28  30
ENDBRANCH  27  28
ENDBRANCH  26  27
ENDBRANCH   1  26
TORSDOF 15
ENDMDL
MODEL 3
REMARK VINA RESULT:     -10.8      5.551      8.007
REMARK SMILES Cc1ccc([C@@H](C)Nc2ccc(N)cc2C(=O)OCCOC(=O)c2ccc(-c3c4nc(c(-c5ccccc5)c5ccc([nH]5)c(-c5ccccc5)c5nc(c(-c6ccccc6)c6ccc3[nH]6)C=C5)C=C4)cc2)cc1F
REMARK SMILES IDX 19 1 18 2 16 3 17 4 15 5 9 6 10 7 11 8 14 9 12 10 8 11 6 13
REMARK SMILES IDX 7 14 5 15 1 16 2 17 3 18 73 19 4 20 72 21 74 22 13 23 20 26
REMARK SMILES IDX 21 27 22 28 23 29 24 30 25 31 71 32 26 33 70 34 27 35 28 36
REMARK SMILES IDX 29 37 64 38 30 39 69 40 63 41 65 42 31 43 68 44 62 45 61 46
REMARK SMILES IDX 32 48 54 49 39 50 53 51 40 52 43 53 52 54 66 55 41 56 42 57
REMARK SMILES IDX 51 59 67 60 44 61 33 62 34 63 38 64 35 65 37 66 36 67 55 68
REMARK SMILES IDX 56 69 60 70 57 71 59 72 58 73 45 74 46 75 50 76 47 77 49 78
REMARK SMILES IDX 48 79
REMARK H PARENT 8 12 13 24 13 25 65 47 43 58
REMARK Flexibility Score: inf
ROOT
ATOM      1  C   UNL A   1      32.538  29.055  27.580  1.00  0.00     0.275 C 
ENDROOT
BRANCH   1   2
ATOM      2  O   UNL A   1      31.489  28.645  26.672  1.00  0.00    -0.458 OA
BRANCH   2   3
ATOM      3  C   UNL A   1      31.412  27.320  26.396  1.00  0.00     0.340 C 
ATOM      4  O   UNL A   1      31.396  26.409  27.210  1.00  0.00    -0.246 OA
BRANCH   3   5
ATOM      5  C   UNL A   1      31.206  27.099  24.953  1.00  0.00     0.085 A 
ATOM      6  C   UNL A   1      30.749  25.912  24.360  1.00  0.00     0.049 A 
ATOM      7  C   UNL A   1      30.676  25.930  22.946  1.00  0.00     0.029 A 
ATOM      8  C   UNL A   1      31.033  27.038  22.167  1.00  0.00     0.027 A 
ATOM      9  C   UNL A   1      31.512  28.235  24.160  1.00  0.00     0.043 A 
ATOM     10  C   UNL A   1      31.477  28.202  22.770  1.00  0.00     0.032 A 
BRANCH   6  11
ATOM     11  N   UNL A   1      30.270  24.756  24.934  1.00  0.00    -0.378 N 
ATOM     12  H   UNL A   1      29.292  24.785  25.035  1.00  0.00     0.161 HD
BRANCH  11  13
ATOM     13  C   UNL A   1      30.820  23.500  25.433  1.00  0.00     0.106 C 
ATOM     14  C   UNL A   1      30.446  23.133  26.863  1.00  0.00     0.036 C 
BRANCH  13  15
ATOM     15  C   UNL A   1      32.266  23.280  25.010  1.00  0.00    -0.023 A 
ATOM     16  C   UNL A   1      36.330  23.148  23.507  1.00  0.00     0.047 C 
ATOM     17  C   UNL A   1      34.926  23.138  24.028  1.00  0.00    -0.015 A 
ATOM     18  C   UNL A   1      33.858  22.680  23.251  1.00  0.00     0.007 A 
ATOM     19  C   UNL A   1      34.657  23.619  25.308  1.00  0.00     0.126 A 
ATOM     20  C   UNL A   1      32.546  22.749  23.738  1.00  0.00     0.006 A 
ATOM     21  C   UNL A   1      33.355  23.691  25.798  1.00  0.00     0.045 A 
ATOM     22  F   UNL A   1      35.663  24.057  26.078  1.00  0.00    -0.207 F 
ENDBRANCH  13  15
ENDBRANCH  11  13
ENDBRANCH   6  11
BRANCH  10  23
ATOM     23  N   UNL A   1      31.758  29.325  22.016  1.00  0.00    -0.399 N 
ATOM     24  H   UNL A   1      32.238  30.083  22.422  1.00  0.00     0.156 HD
ATOM     25  H   UNL A   1      31.480  29.368  21.073  1.00  0.00     0.156 HD
ENDBRANCH  10  23
ENDBRANCH   3   5
ENDBRANCH   2   3
ENDBRANCH   1   2
BRANCH   1  26
ATOM     26  C   UNL A   1      32.936  30.498  27.308  1.00  0.00     0.275 C 
BRANCH  26  27
ATOM     27  O   UNL A   1      34.367  30.533  27.222  1.00  0.00    -0.458 OA
BRANCH  27  28
ATOM     28  C   UNL A   1      35.018  30.917  28.338  1.00  0.00     0.338 C 
ATOM     29  O   UNL A   1      34.658  31.683  29.208  1.00  0.00    -0.246 OA
BRANCH  28  30
ATOM     30  C   UNL A   1      36.266  30.149  28.381  1.00  0.00     0.060 A 
ATOM     31  C   UNL A   1      36.649  29.577  29.596  1.00  0.00     0.016 A 
ATOM     32  C   UNL A   1      37.078  30.056  27.256  1.00  0.00     0.016 A 
ATOM     33  C   UNL A   1      37.881  28.943  29.711  1.00  0.00     0.010 A 
ATOM     34  C   UNL A   1      38.295  29.382  27.360  1.00  0.00     0.010 A 
ATOM     35  C   UNL A   1      38.720  28.851  28.595  1.00  0.00    -0.014 A 
BRANCH  35  36
ATOM     36  C   UNL A   1      40.099  28.321  28.719  1.00  0.00     0.031 A 
ATOM     37  C   UNL A   1      41.199  29.263  29.116  1.00  0.00     0.074 A 
ATOM     38  C   UNL A   1      40.378  27.027  28.478  1.00  0.00     0.049 A 
ATOM     39  N   UNL A   1      42.493  29.112  29.022  1.00  0.00    -0.248 NA
ATOM     40  C   UNL A   1      40.778  30.556  29.683  1.00  0.00     0.031 C 
ATOM     41  C   UNL A   1      39.399  25.983  28.176  1.00  0.00     0.029 A 
ATOM     42  N   UNL A   1      41.586  26.376  28.441  1.00  0.00    -0.354 N 
ATOM     43  C   UNL A   1      43.040  30.317  29.445  1.00  0.00     0.074 A 
ATOM     44  C   UNL A   1      41.939  31.179  29.818  1.00  0.00     0.031 C 
ATOM     45  C   UNL A   1      40.046  24.820  27.990  1.00  0.00     0.029 A 
ATOM     46  C   UNL A   1      41.483  25.055  28.083  1.00  0.00     0.049 A 
ATOM     47  H   UNL A   1      42.441  26.815  28.651  1.00  0.00     0.167 HD
ATOM     48  C   UNL A   1      44.343  30.677  29.497  1.00  0.00     0.031 A 
ATOM     49  C   UNL A   1      42.442  24.153  27.807  1.00  0.00     0.031 A 
ATOM     50  C   UNL A   1      45.433  29.802  29.159  1.00  0.00     0.049 A 
ATOM     51  C   UNL A   1      43.884  24.578  27.840  1.00  0.00     0.074 A 
ATOM     52  C   UNL A   1      46.789  30.071  29.154  1.00  0.00     0.029 A 
ATOM     53  N   UNL A   1      45.283  28.475  28.789  1.00  0.00    -0.354 N 
ATOM     54  N   UNL A   1      44.393  25.749  28.139  1.00  0.00    -0.248 NA
ATOM     55  C   UNL A   1      44.882  23.562  27.475  1.00  0.00     0.031 C 
ATOM     56  C   UNL A   1      47.462  28.908  28.758  1.00  0.00     0.029 A 
ATOM     57  C   UNL A   1      46.522  27.909  28.554  1.00  0.00     0.049 A 
ATOM     58  H   UNL A   1      44.422  28.005  28.706  1.00  0.00     0.167 HD
ATOM     59  C   UNL A   1      45.767  25.611  28.001  1.00  0.00     0.074 A 
ATOM     60  C   UNL A   1      46.015  24.237  27.613  1.00  0.00     0.031 C 
ATOM     61  C   UNL A   1      46.740  26.540  28.172  1.00  0.00     0.031 A 
BRANCH  48  62
ATOM     62  C   UNL A   1      44.648  32.096  29.877  1.00  0.00    -0.014 A 
ATOM     63  C   UNL A   1      44.902  32.464  31.205  1.00  0.00     0.009 A 
ATOM     64  C   UNL A   1      44.679  33.082  28.877  1.00  0.00     0.009 A 
ATOM     65  C   UNL A   1      45.152  33.799  31.530  1.00  0.00     0.001 A 
ATOM     66  C   UNL A   1      44.951  34.411  29.202  1.00  0.00     0.001 A 
ATOM     67  C   UNL A   1      45.178  34.770  30.529  1.00  0.00     0.000 A 
ENDBRANCH  48  62
BRANCH  49  68
ATOM     68  C   UNL A   1      42.067  22.772  27.408  1.00  0.00    -0.014 A 
ATOM     69  C   UNL A   1      42.134  22.376  26.063  1.00  0.00     0.009 A 
ATOM     70  C   UNL A   1      41.644  21.842  28.370  1.00  0.00     0.009 A 
ATOM     71  C   UNL A   1      41.773  21.080  25.690  1.00  0.00     0.001 A 
ATOM     72  C   UNL A   1      41.307  20.540  27.998  1.00  0.00     0.001 A 
ATOM     73  C   UNL A   1      41.366  20.161  26.658  1.00  0.00     0.000 A 
ENDBRANCH  49  68
BRANCH  61  74
ATOM     74  C   UNL A   1      48.155  26.087  27.967  1.00  0.00    -0.014 A 
ATOM     75  C   UNL A   1      48.925  25.620  29.043  1.00  0.00     0.009 A 
ATOM     76  C   UNL A   1      48.706  26.092  26.677  1.00  0.00     0.009 A 
ATOM     77  C   UNL A   1      50.235  25.188  28.831  1.00  0.00     0.001 A 
ATOM     78  C   UNL A   1      50.010  25.643  26.468  1.00  0.00     0.001 A 
ATOM     79  C   UNL A   1      50.775  25.197  27.544  1.00  0.00     0.000 A 
ENDBRANCH  61  74
ENDBRANCH  35  36
ENDBRANCH  28  30
ENDBRANCH  27  28
ENDBRANCH  26  27
ENDBRANCH   1  26
TORSDOF 15
ENDMDL
