MODEL 1
REMARK VINA RESULT:      -9.8      0.000      0.000
REMARK SMILES C[C@H](NC(=O)OCc1ccccc1)C(=O)NCC(=O)N1CCC[C@H]1C(=O)OCCOC(=O)c1ccc(-c2c3nc(c(-c4ccccc4)c4ccc([nH]4)c(-c4ccccc4)c4nc(c(-c5ccccc5)c5ccc2[nH]5)C=C4)C=C3)cc1
REMARK SMILES IDX 20 1 21 2 22 3 23 4 24 5 18 6 19 7 17 8 16 9 14 10 15 11
REMARK SMILES IDX 2 13 1 14 3 15 4 16 5 18 6 19 7 20 8 21 9 22 13 23 10 24
REMARK SMILES IDX 12 25 11 26 25 27 26 28 27 29 28 30 29 31 30 32 31 33 32 34
REMARK SMILES IDX 33 35 34 36 80 37 35 38 79 39 36 40 37 41 38 42 73 43 39 44
REMARK SMILES IDX 78 45 72 46 74 47 40 48 77 49 71 50 70 51 41 53 63 54 48 55
REMARK SMILES IDX 62 56 49 57 52 58 61 59 75 60 50 61 51 62 60 64 76 65 53 66
REMARK SMILES IDX 42 67 43 68 47 69 44 70 46 71 45 72 64 73 65 74 69 75 66 76
REMARK SMILES IDX 68 77 67 78 54 79 55 80 59 81 56 82 58 83 57 84
REMARK H PARENT 16 12 3 17 74 52 52 63
REMARK Flexibility Score: inf
ROOT
ATOM      1  N   UNL A   1      31.885  22.582  25.656  1.00  0.00    -0.327 N 
ATOM      2  C   UNL A   1      30.556  22.887  26.152  1.00  0.00     0.120 C 
ATOM      3  C   UNL A   1      30.569  24.394  26.282  1.00  0.00     0.024 C 
ATOM      4  C   UNL A   1      31.987  24.692  26.731  1.00  0.00     0.039 C 
ATOM      5  C   UNL A   1      32.846  23.486  26.292  1.00  0.00     0.195 C 
ENDROOT
BRANCH   1   6
ATOM      6  C   UNL A   1      32.338  21.694  24.716  1.00  0.00     0.242 C 
ATOM      7  O   UNL A   1      31.742  20.623  24.537  1.00  0.00    -0.273 OA
BRANCH   6   8
ATOM      8  C   UNL A   1      33.622  21.923  23.899  1.00  0.00     0.216 C 
BRANCH   8   9
ATOM      9  N   UNL A   1      33.588  22.375  22.528  1.00  0.00    -0.345 N 
ATOM     10  C   UNL A   1      33.167  23.542  21.977  1.00  0.00     0.242 C 
ATOM     11  O   UNL A   1      33.268  23.630  20.747  1.00  0.00    -0.273 OA
ATOM     12  H   UNL A   1      33.930  21.720  21.878  1.00  0.00     0.164 HD
BRANCH  10  13
ATOM     13  C   UNL A   1      32.621  24.740  22.786  1.00  0.00     0.171 C 
ATOM     14  C   UNL A   1      31.105  24.726  22.876  1.00  0.00     0.042 C 
BRANCH  13  15
ATOM     15  N   UNL A   1      33.253  26.023  22.492  1.00  0.00    -0.310 N 
ATOM     16  C   UNL A   1      33.197  27.234  23.105  1.00  0.00     0.408 C 
ATOM     17  H   UNL A   1      33.831  26.007  21.696  1.00  0.00     0.167 HD
ATOM     18  O   UNL A   1      33.683  28.219  22.570  1.00  0.00    -0.225 OA
BRANCH  16  19
ATOM     19  O   UNL A   1      32.566  27.208  24.298  1.00  0.00    -0.445 OA
BRANCH  19  20
ATOM     20  C   UNL A   1      31.949  28.441  24.700  1.00  0.00     0.270 C 
BRANCH  20  21
ATOM     21  C   UNL A   1      32.724  29.169  25.770  1.00  0.00    -0.011 A 
ATOM     22  C   UNL A   1      32.337  30.438  26.221  1.00  0.00     0.007 A 
ATOM     23  C   UNL A   1      33.870  28.574  26.316  1.00  0.00     0.007 A 
ATOM     24  C   UNL A   1      33.060  31.080  27.229  1.00  0.00     0.000 A 
ATOM     25  C   UNL A   1      34.595  29.220  27.318  1.00  0.00     0.000 A 
ATOM     26  C   UNL A   1      34.185  30.469  27.779  1.00  0.00     0.000 A 
ENDBRANCH  20  21
ENDBRANCH  19  20
ENDBRANCH  16  19
ENDBRANCH  13  15
ENDBRANCH  10  13
ENDBRANCH   8   9
ENDBRANCH   6   8
ENDBRANCH   1   6
BRANCH   5  27
ATOM     27  C   UNL A   1      33.506  22.821  27.515  1.00  0.00     0.328 C 
ATOM     28  O   UNL A   1      32.881  22.309  28.438  1.00  0.00    -0.250 OA
BRANCH  27  29
ATOM     29  O   UNL A   1      34.862  22.862  27.423  1.00  0.00    -0.461 OA
BRANCH  29  30
ATOM     30  C   UNL A   1      35.428  23.513  26.271  1.00  0.00     0.274 C 
BRANCH  30  31
ATOM     31  C   UNL A   1      36.588  22.674  25.732  1.00  0.00     0.275 C 
BRANCH  31  32
ATOM     32  O   UNL A   1      37.760  23.495  25.539  1.00  0.00    -0.458 OA
BRANCH  32  33
ATOM     33  C   UNL A   1      38.830  23.147  26.291  1.00  0.00     0.338 C 
ATOM     34  O   UNL A   1      39.368  22.055  26.367  1.00  0.00    -0.246 OA
BRANCH  33  35
ATOM     35  C   UNL A   1      39.417  24.349  26.898  1.00  0.00     0.060 A 
ATOM     36  C   UNL A   1      39.077  24.600  28.221  1.00  0.00     0.016 A 
ATOM     37  C   UNL A   1      40.150  25.285  26.182  1.00  0.00     0.016 A 
ATOM     38  C   UNL A   1      39.415  25.796  28.842  1.00  0.00     0.010 A 
ATOM     39  C   UNL A   1      40.547  26.472  26.820  1.00  0.00     0.010 A 
ATOM     40  C   UNL A   1      40.170  26.748  28.152  1.00  0.00    -0.014 A 
BRANCH  40  41
ATOM     41  C   UNL A   1      40.522  28.038  28.808  1.00  0.00     0.031 A 
ATOM     42  C   UNL A   1      41.889  28.225  29.410  1.00  0.00     0.074 A 
ATOM     43  C   UNL A   1      39.634  29.054  28.848  1.00  0.00     0.049 A 
ATOM     44  N   UNL A   1      42.327  29.183  30.188  1.00  0.00    -0.248 NA
ATOM     45  C   UNL A   1      42.895  27.197  29.097  1.00  0.00     0.031 C 
ATOM     46  C   UNL A   1      38.307  29.052  28.228  1.00  0.00     0.029 A 
ATOM     47  N   UNL A   1      39.715  30.289  29.446  1.00  0.00    -0.354 N 
ATOM     48  C   UNL A   1      43.644  28.857  30.485  1.00  0.00     0.074 A 
ATOM     49  C   UNL A   1      43.929  27.603  29.820  1.00  0.00     0.031 C 
ATOM     50  C   UNL A   1      37.702  30.224  28.476  1.00  0.00     0.029 A 
ATOM     51  C   UNL A   1      38.558  31.025  29.343  1.00  0.00     0.049 A 
ATOM     52  H   UNL A   1      40.524  30.616  29.903  1.00  0.00     0.167 HD
ATOM     53  C   UNL A   1      44.536  29.540  31.242  1.00  0.00     0.031 A 
ATOM     54  C   UNL A   1      38.197  32.183  29.929  1.00  0.00     0.031 A 
ATOM     55  C   UNL A   1      44.253  30.792  31.894  1.00  0.00     0.049 A 
ATOM     56  C   UNL A   1      39.164  32.862  30.861  1.00  0.00     0.074 A 
ATOM     57  C   UNL A   1      45.081  31.549  32.706  1.00  0.00     0.029 A 
ATOM     58  N   UNL A   1      43.050  31.474  31.803  1.00  0.00    -0.354 N 
ATOM     59  N   UNL A   1      40.389  32.519  31.176  1.00  0.00    -0.248 NA
ATOM     60  C   UNL A   1      38.692  34.085  31.528  1.00  0.00     0.031 C 
ATOM     61  C   UNL A   1      44.361  32.662  33.147  1.00  0.00     0.029 A 
ATOM     62  C   UNL A   1      43.108  32.634  32.558  1.00  0.00     0.049 A 
ATOM     63  H   UNL A   1      42.271  31.179  31.279  1.00  0.00     0.167 HD
ATOM     64  C   UNL A   1      40.842  33.498  32.052  1.00  0.00     0.074 A 
ATOM     65  C   UNL A   1      39.771  34.460  32.200  1.00  0.00     0.031 C 
ATOM     66  C   UNL A   1      42.038  33.588  32.683  1.00  0.00     0.031 A 
BRANCH  53  67
ATOM     67  C   UNL A   1      45.898  28.933  31.436  1.00  0.00    -0.014 A 
ATOM     68  C   UNL A   1      46.969  29.247  30.585  1.00  0.00     0.009 A 
ATOM     69  C   UNL A   1      46.127  28.071  32.522  1.00  0.00     0.009 A 
ATOM     70  C   UNL A   1      48.231  28.688  30.800  1.00  0.00     0.001 A 
ATOM     71  C   UNL A   1      47.396  27.538  32.753  1.00  0.00     0.001 A 
ATOM     72  C   UNL A   1      48.445  27.840  31.887  1.00  0.00     0.000 A 
ENDBRANCH  53  67
BRANCH  54  73
ATOM     73  C   UNL A   1      36.829  32.739  29.730  1.00  0.00    -0.014 A 
ATOM     74  C   UNL A   1      36.520  33.514  28.602  1.00  0.00     0.009 A 
ATOM     75  C   UNL A   1      35.835  32.541  30.703  1.00  0.00     0.009 A 
ATOM     76  C   UNL A   1      35.263  34.111  28.474  1.00  0.00     0.001 A 
ATOM     77  C   UNL A   1      34.566  33.104  30.552  1.00  0.00     0.001 A 
ATOM     78  C   UNL A   1      34.287  33.903  29.446  1.00  0.00     0.000 A 
ENDBRANCH  54  73
BRANCH  66  79
ATOM     79  C   UNL A   1      42.270  34.795  33.549  1.00  0.00    -0.014 A 
ATOM     80  C   UNL A   1      42.833  35.972  33.030  1.00  0.00     0.009 A 
ATOM     81  C   UNL A   1      41.880  34.766  34.897  1.00  0.00     0.009 A 
ATOM     82  C   UNL A   1      43.029  37.083  33.854  1.00  0.00     0.001 A 
ATOM     83  C   UNL A   1      42.046  35.888  35.710  1.00  0.00     0.001 A 
ATOM     84  C   UNL A   1      42.630  37.042  35.189  1.00  0.00     0.000 A 
ENDBRANCH  66  79
ENDBRANCH  40  41
ENDBRANCH  33  35
ENDBRANCH  32  33
ENDBRANCH  31  32
ENDBRANCH  30  31
ENDBRANCH  29  30
ENDBRANCH  27  29
ENDBRANCH   5  27
TORSDOF 19
ENDMDL
MODEL 2
REMARK VINA RESULT:      -9.7      1.522      2.464
REMARK SMILES C[C@H](NC(=O)OCc1ccccc1)C(=O)NCC(=O)N1CCC[C@H]1C(=O)OCCOC(=O)c1ccc(-c2c3nc(c(-c4ccccc4)c4ccc([nH]4)c(-c4ccccc4)c4nc(c(-c5ccccc5)c5ccc2[nH]5)C=C4)C=C3)cc1
REMARK SMILES IDX 20 1 21 2 22 3 23 4 24 5 18 6 19 7 17 8 16 9 14 10 15 11
REMARK SMILES IDX 2 13 1 14 3 15 4 16 5 18 6 19 7 20 8 21 9 22 13 23 10 24
REMARK SMILES IDX 12 25 11 26 25 27 26 28 27 29 28 30 29 31 30 32 31 33 32 34
REMARK SMILES IDX 33 35 34 36 80 37 35 38 79 39 36 40 37 41 38 42 73 43 39 44
REMARK SMILES IDX 78 45 72 46 74 47 40 48 77 49 71 50 70 51 41 53 63 54 48 55
REMARK SMILES IDX 62 56 49 57 52 58 61 59 75 60 50 61 51 62 60 64 76 65 53 66
REMARK SMILES IDX 42 67 43 68 47 69 44 70 46 71 45 72 64 73 65 74 69 75 66 76
REMARK SMILES IDX 68 77 67 78 54 79 55 80 59 81 56 82 58 83 57 84
REMARK H PARENT 16 12 3 17 74 52 52 63
REMARK Flexibility Score: inf
ROOT
ATOM      1  N   UNL A   1      32.488  21.558  24.684  1.00  0.00    -0.327 N 
ATOM      2  C   UNL A   1      32.698  20.788  23.472  1.00  0.00     0.120 C 
ATOM      3  C   UNL A   1      32.546  19.357  23.937  1.00  0.00     0.024 C 
ATOM      4  C   UNL A   1      33.154  19.376  25.327  1.00  0.00     0.039 C 
ATOM      5  C   UNL A   1      33.090  20.842  25.809  1.00  0.00     0.195 C 
ENDROOT
BRANCH   1   6
ATOM      6  C   UNL A   1      31.814  22.726  24.930  1.00  0.00     0.242 C 
ATOM      7  O   UNL A   1      31.724  23.157  26.089  1.00  0.00    -0.273 OA
BRANCH   6   8
ATOM      8  C   UNL A   1      31.081  23.516  23.833  1.00  0.00     0.216 C 
BRANCH   8   9
ATOM      9  N   UNL A   1      31.780  24.103  22.714  1.00  0.00    -0.345 N 
ATOM     10  C   UNL A   1      32.804  24.993  22.661  1.00  0.00     0.242 C 
ATOM     11  O   UNL A   1      33.192  25.308  21.529  1.00  0.00    -0.273 OA
ATOM     12  H   UNL A   1      31.456  23.806  21.834  1.00  0.00     0.164 HD
BRANCH  10  13
ATOM     13  C   UNL A   1      33.510  25.582  23.903  1.00  0.00     0.171 C 
ATOM     14  C   UNL A   1      34.705  24.748  24.332  1.00  0.00     0.042 C 
BRANCH  13  15
ATOM     15  N   UNL A   1      32.615  26.047  24.959  1.00  0.00    -0.310 N 
ATOM     16  C   UNL A   1      31.889  27.185  25.109  1.00  0.00     0.408 C 
ATOM     17  H   UNL A   1      32.521  25.414  25.705  1.00  0.00     0.167 HD
ATOM     18  O   UNL A   1      31.340  27.431  26.173  1.00  0.00    -0.225 OA
BRANCH  16  19
ATOM     19  O   UNL A   1      31.864  27.961  24.005  1.00  0.00    -0.445 OA
BRANCH  19  20
ATOM     20  C   UNL A   1      31.464  29.324  24.214  1.00  0.00     0.270 C 
BRANCH  20  21
ATOM     21  C   UNL A   1      30.070  29.615  23.714  1.00  0.00    -0.011 A 
ATOM     22  C   UNL A   1      29.474  30.872  23.890  1.00  0.00     0.007 A 
ATOM     23  C   UNL A   1      29.343  28.602  23.074  1.00  0.00     0.007 A 
ATOM     24  C   UNL A   1      28.192  31.120  23.397  1.00  0.00     0.000 A 
ATOM     25  C   UNL A   1      28.058  28.850  22.589  1.00  0.00     0.000 A 
ATOM     26  C   UNL A   1      27.487  30.111  22.744  1.00  0.00     0.000 A 
ENDBRANCH  20  21
ENDBRANCH  19  20
ENDBRANCH  16  19
ENDBRANCH  13  15
ENDBRANCH  10  13
ENDBRANCH   8   9
ENDBRANCH   6   8
ENDBRANCH   1   6
BRANCH   5  27
ATOM     27  C   UNL A   1      34.506  21.372  26.109  1.00  0.00     0.328 C 
ATOM     28  O   UNL A   1      34.746  22.280  26.897  1.00  0.00    -0.250 OA
BRANCH  27  29
ATOM     29  O   UNL A   1      35.445  20.689  25.401  1.00  0.00    -0.461 OA
BRANCH  29  30
ATOM     30  C   UNL A   1      36.376  21.462  24.620  1.00  0.00     0.274 C 
BRANCH  30  31
ATOM     31  C   UNL A   1      37.736  21.474  25.318  1.00  0.00     0.275 C 
BRANCH  31  32
ATOM     32  O   UNL A   1      38.061  22.807  25.769  1.00  0.00    -0.458 OA
BRANCH  32  33
ATOM     33  C   UNL A   1      39.309  22.949  26.276  1.00  0.00     0.338 C 
ATOM     34  O   UNL A   1      40.272  22.220  26.109  1.00  0.00    -0.246 OA
BRANCH  33  35
ATOM     35  C   UNL A   1      39.425  24.255  26.938  1.00  0.00     0.060 A 
ATOM     36  C   UNL A   1      40.119  25.238  26.245  1.00  0.00     0.016 A 
ATOM     37  C   UNL A   1      39.013  24.489  28.243  1.00  0.00     0.016 A 
ATOM     38  C   UNL A   1      40.455  26.447  26.842  1.00  0.00     0.010 A 
ATOM     39  C   UNL A   1      39.297  25.731  28.835  1.00  0.00     0.010 A 
ATOM     40  C   UNL A   1      40.035  26.717  28.147  1.00  0.00    -0.014 A 
BRANCH  40  41
ATOM     41  C   UNL A   1      40.406  28.005  28.798  1.00  0.00     0.031 A 
ATOM     42  C   UNL A   1      41.769  28.169  29.414  1.00  0.00     0.074 A 
ATOM     43  C   UNL A   1      39.537  29.038  28.821  1.00  0.00     0.049 A 
ATOM     44  N   UNL A   1      42.217  29.124  30.191  1.00  0.00    -0.248 NA
ATOM     45  C   UNL A   1      42.758  27.120  29.119  1.00  0.00     0.031 C 
ATOM     46  C   UNL A   1      38.218  29.058  28.186  1.00  0.00     0.029 A 
ATOM     47  N   UNL A   1      39.637  30.276  29.411  1.00  0.00    -0.354 N 
ATOM     48  C   UNL A   1      43.525  28.773  30.505  1.00  0.00     0.074 A 
ATOM     49  C   UNL A   1      43.792  27.510  29.852  1.00  0.00     0.031 C 
ATOM     50  C   UNL A   1      37.633  30.243  28.419  1.00  0.00     0.029 A 
ATOM     51  C   UNL A   1      38.495  31.033  29.291  1.00  0.00     0.049 A 
ATOM     52  H   UNL A   1      40.446  30.590  29.876  1.00  0.00     0.167 HD
ATOM     53  C   UNL A   1      44.421  29.444  31.268  1.00  0.00     0.031 A 
ATOM     54  C   UNL A   1      38.150  32.203  29.865  1.00  0.00     0.031 A 
ATOM     55  C   UNL A   1      44.156  30.706  31.908  1.00  0.00     0.049 A 
ATOM     56  C   UNL A   1      39.120  32.869  30.803  1.00  0.00     0.074 A 
ATOM     57  C   UNL A   1      44.989  31.452  32.724  1.00  0.00     0.029 A 
ATOM     58  N   UNL A   1      42.967  31.411  31.799  1.00  0.00    -0.354 N 
ATOM     59  N   UNL A   1      40.335  32.504  31.134  1.00  0.00    -0.248 NA
ATOM     60  C   UNL A   1      38.665  34.106  31.457  1.00  0.00     0.031 C 
ATOM     61  C   UNL A   1      44.286  32.583  33.150  1.00  0.00     0.029 A 
ATOM     62  C   UNL A   1      43.040  32.575  32.546  1.00  0.00     0.049 A 
ATOM     63  H   UNL A   1      42.188  31.128  31.267  1.00  0.00     0.167 HD
ATOM     64  C   UNL A   1      40.797  33.480  32.009  1.00  0.00     0.074 A 
ATOM     65  C   UNL A   1      39.743  34.463  32.138  1.00  0.00     0.031 C 
ATOM     66  C   UNL A   1      41.987  33.551  32.653  1.00  0.00     0.031 A 
BRANCH  53  67
ATOM     67  C   UNL A   1      45.769  28.812  31.481  1.00  0.00    -0.014 A 
ATOM     68  C   UNL A   1      46.851  29.086  30.631  1.00  0.00     0.009 A 
ATOM     69  C   UNL A   1      45.973  27.966  32.585  1.00  0.00     0.009 A 
ATOM     70  C   UNL A   1      48.099  28.504  30.864  1.00  0.00     0.001 A 
ATOM     71  C   UNL A   1      47.229  27.410  32.833  1.00  0.00     0.001 A 
ATOM     72  C   UNL A   1      48.289  27.673  31.968  1.00  0.00     0.000 A 
ENDBRANCH  53  67
BRANCH  54  73
ATOM     73  C   UNL A   1      36.796  32.783  29.646  1.00  0.00    -0.014 A 
ATOM     74  C   UNL A   1      35.770  32.600  30.586  1.00  0.00     0.009 A 
ATOM     75  C   UNL A   1      36.507  33.481  28.462  1.00  0.00     0.009 A 
ATOM     76  C   UNL A   1      34.478  33.065  30.325  1.00  0.00     0.001 A 
ATOM     77  C   UNL A   1      35.225  33.981  28.222  1.00  0.00     0.001 A 
ATOM     78  C   UNL A   1      34.208  33.758  29.147  1.00  0.00     0.000 A 
ENDBRANCH  54  73
BRANCH  66  79
ATOM     79  C   UNL A   1      42.234  34.759  33.513  1.00  0.00    -0.014 A 
ATOM     80  C   UNL A   1      42.856  35.909  33.001  1.00  0.00     0.009 A 
ATOM     81  C   UNL A   1      41.797  34.760  34.848  1.00  0.00     0.009 A 
ATOM     82  C   UNL A   1      43.065  37.022  33.820  1.00  0.00     0.001 A 
ATOM     83  C   UNL A   1      41.975  35.885  35.653  1.00  0.00     0.001 A 
ATOM     84  C   UNL A   1      42.618  37.011  35.141  1.00  0.00     0.000 A 
ENDBRANCH  66  79
ENDBRANCH  40  41
ENDBRANCH  33  35
ENDBRANCH  32  33
ENDBRANCH  31  32
ENDBRANCH  30  31
ENDBRANCH  29  30
ENDBRANCH  27  29
ENDBRANCH   5  27
TORSDOF 19
ENDMDL
MODEL 3
REMARK VINA RESULT:      -9.6      2.651      7.976
REMARK SMILES C[C@H](NC(=O)OCc1ccccc1)C(=O)NCC(=O)N1CCC[C@H]1C(=O)OCCOC(=O)c1ccc(-c2c3nc(c(-c4ccccc4)c4ccc([nH]4)c(-c4ccccc4)c4nc(c(-c5ccccc5)c5ccc2[nH]5)C=C4)C=C3)cc1
REMARK SMILES IDX 20 1 21 2 22 3 23 4 24 5 18 6 19 7 17 8 16 9 14 10 15 11
REMARK SMILES IDX 2 13 1 14 3 15 4 16 5 18 6 19 7 20 8 21 9 22 13 23 10 24
REMARK SMILES IDX 12 25 11 26 25 27 26 28 27 29 28 30 29 31 30 32 31 33 32 34
REMARK SMILES IDX 33 35 34 36 80 37 35 38 79 39 36 40 37 41 38 42 73 43 39 44
REMARK SMILES IDX 78 45 72 46 74 47 40 48 77 49 71 50 70 51 41 53 63 54 48 55
REMARK SMILES IDX 62 56 49 57 52 58 61 59 75 60 50 61 51 62 60 64 76 65 53 66
REMARK SMILES IDX 42 67 43 68 47 69 44 70 46 71 45 72 64 73 65 74 69 75 66 76
REMARK SMILES IDX 68 77 67 78 54 79 55 80 59 81 56 82 58 83 57 84
REMARK H PARENT 16 12 3 17 74 52 52 63
REMARK Flexibility Score: inf
ROOT
ATOM      1  N   UNL A   1      31.280  26.436  23.326  1.00  0.00    -0.327 N 
ATOM      2  C   UNL A   1      31.735  26.711  21.975  1.00  0.00     0.120 C 
ATOM      3  C   UNL A   1      33.239  26.789  22.123  1.00  0.00     0.024 C 
ATOM      4  C   UNL A   1      33.421  27.440  23.481  1.00  0.00     0.039 C 
ATOM      5  C   UNL A   1      32.118  27.180  24.268  1.00  0.00     0.195 C 
ENDROOT
BRANCH   1   6
ATOM      6  C   UNL A   1      30.307  25.609  23.821  1.00  0.00     0.242 C 
ATOM      7  O   UNL A   1      29.401  26.071  24.530  1.00  0.00    -0.273 OA
BRANCH   6   8
ATOM      8  C   UNL A   1      30.314  24.086  23.604  1.00  0.00     0.216 C 
BRANCH   8   9
ATOM      9  N   UNL A   1      31.284  23.437  22.754  1.00  0.00    -0.345 N 
ATOM     10  C   UNL A   1      32.213  22.483  23.017  1.00  0.00     0.242 C 
ATOM     11  O   UNL A   1      32.909  22.124  22.059  1.00  0.00    -0.273 OA
ATOM     12  H   UNL A   1      31.268  23.740  21.818  1.00  0.00     0.164 HD
BRANCH  10  13
ATOM     13  C   UNL A   1      32.414  21.820  24.398  1.00  0.00     0.171 C 
ATOM     14  C   UNL A   1      32.260  20.310  24.336  1.00  0.00     0.042 C 
BRANCH  13  15
ATOM     15  N   UNL A   1      31.763  22.504  25.511  1.00  0.00    -0.310 N 
ATOM     16  C   UNL A   1      32.215  23.401  26.427  1.00  0.00     0.408 C 
ATOM     17  H   UNL A   1      30.813  22.271  25.620  1.00  0.00     0.167 HD
ATOM     18  O   UNL A   1      31.521  23.709  27.384  1.00  0.00    -0.225 OA
BRANCH  16  19
ATOM     19  O   UNL A   1      33.454  23.866  26.162  1.00  0.00    -0.445 OA
BRANCH  19  20
ATOM     20  C   UNL A   1      34.488  23.420  27.053  1.00  0.00     0.270 C 
BRANCH  20  21
ATOM     21  C   UNL A   1      35.661  22.800  26.334  1.00  0.00    -0.011 A 
ATOM     22  C   UNL A   1      35.597  21.503  25.807  1.00  0.00     0.007 A 
ATOM     23  C   UNL A   1      36.853  23.528  26.205  1.00  0.00     0.007 A 
ATOM     24  C   UNL A   1      36.690  20.962  25.128  1.00  0.00     0.000 A 
ATOM     25  C   UNL A   1      37.947  22.983  25.532  1.00  0.00     0.000 A 
ATOM     26  C   UNL A   1      37.862  21.704  24.987  1.00  0.00     0.000 A 
ENDBRANCH  20  21
ENDBRANCH  19  20
ENDBRANCH  16  19
ENDBRANCH  13  15
ENDBRANCH  10  13
ENDBRANCH   8   9
ENDBRANCH   6   8
ENDBRANCH   1   6
BRANCH   5  27
ATOM     27  C   UNL A   1      31.455  28.513  24.665  1.00  0.00     0.328 C 
ATOM     28  O   UNL A   1      31.023  29.332  23.860  1.00  0.00    -0.250 OA
BRANCH  27  29
ATOM     29  O   UNL A   1      31.396  28.649  26.017  1.00  0.00    -0.461 OA
BRANCH  29  30
ATOM     30  C   UNL A   1      32.010  29.817  26.592  1.00  0.00     0.274 C 
BRANCH  30  31
ATOM     31  C   UNL A   1      33.530  29.708  26.464  1.00  0.00     0.275 C 
BRANCH  31  32
ATOM     32  O   UNL A   1      34.127  29.423  27.747  1.00  0.00    -0.458 OA
BRANCH  32  33
ATOM     33  C   UNL A   1      34.761  30.470  28.326  1.00  0.00     0.338 C 
ATOM     34  O   UNL A   1      34.270  31.510  28.733  1.00  0.00    -0.246 OA
BRANCH  33  35
ATOM     35  C   UNL A   1      36.161  30.113  28.591  1.00  0.00     0.060 A 
ATOM     36  C   UNL A   1      37.040  30.230  27.523  1.00  0.00     0.016 A 
ATOM     37  C   UNL A   1      36.590  29.542  29.782  1.00  0.00     0.016 A 
ATOM     38  C   UNL A   1      38.341  29.747  27.597  1.00  0.00     0.010 A 
ATOM     39  C   UNL A   1      37.921  29.104  29.885  1.00  0.00     0.010 A 
ATOM     40  C   UNL A   1      38.806  29.187  28.789  1.00  0.00    -0.014 A 
BRANCH  40  41
ATOM     41  C   UNL A   1      40.195  28.653  28.870  1.00  0.00     0.031 A 
ATOM     42  C   UNL A   1      41.327  29.565  29.259  1.00  0.00     0.074 A 
ATOM     43  C   UNL A   1      40.446  27.351  28.619  1.00  0.00     0.049 A 
ATOM     44  N   UNL A   1      42.618  29.354  29.200  1.00  0.00    -0.248 NA
ATOM     45  C   UNL A   1      40.958  30.890  29.783  1.00  0.00     0.031 C 
ATOM     46  C   UNL A   1      39.440  26.330  28.320  1.00  0.00     0.029 A 
ATOM     47  N   UNL A   1      41.636  26.664  28.571  1.00  0.00    -0.354 N 
ATOM     48  C   UNL A   1      43.215  30.528  29.644  1.00  0.00     0.074 A 
ATOM     49  C   UNL A   1      42.146  31.454  29.951  1.00  0.00     0.031 C 
ATOM     50  C   UNL A   1      40.051  25.152  28.121  1.00  0.00     0.029 A 
ATOM     51  C   UNL A   1      41.494  25.350  28.191  1.00  0.00     0.049 A 
ATOM     52  H   UNL A   1      42.505  27.073  28.787  1.00  0.00     0.167 HD
ATOM     53  C   UNL A   1      44.533  30.807  29.785  1.00  0.00     0.031 A 
ATOM     54  C   UNL A   1      42.418  24.422  27.872  1.00  0.00     0.031 A 
ATOM     55  C   UNL A   1      45.593  29.880  29.488  1.00  0.00     0.049 A 
ATOM     56  C   UNL A   1      43.875  24.795  27.921  1.00  0.00     0.074 A 
ATOM     57  C   UNL A   1      46.961  30.077  29.571  1.00  0.00     0.029 A 
ATOM     58  N   UNL A   1      45.403  28.576  29.057  1.00  0.00    -0.354 N 
ATOM     59  N   UNL A   1      44.428  25.924  28.294  1.00  0.00    -0.248 NA
ATOM     60  C   UNL A   1      44.837  23.767  27.496  1.00  0.00     0.031 C 
ATOM     61  C   UNL A   1      47.598  28.910  29.141  1.00  0.00     0.029 A 
ATOM     62  C   UNL A   1      46.628  27.963  28.854  1.00  0.00     0.049 A 
ATOM     63  H   UNL A   1      44.527  28.148  28.918  1.00  0.00     0.167 HD
ATOM     64  C   UNL A   1      45.799  25.730  28.175  1.00  0.00     0.074 A 
ATOM     65  C   UNL A   1      45.994  24.370  27.720  1.00  0.00     0.031 C 
ATOM     66  C   UNL A   1      46.807  26.605  28.415  1.00  0.00     0.031 A 
BRANCH  53  67
ATOM     67  C   UNL A   1      44.909  32.186  30.251  1.00  0.00    -0.014 A 
ATOM     68  C   UNL A   1      45.104  32.473  31.611  1.00  0.00     0.009 A 
ATOM     69  C   UNL A   1      45.122  33.205  29.307  1.00  0.00     0.009 A 
ATOM     70  C   UNL A   1      45.476  33.757  32.017  1.00  0.00     0.001 A 
ATOM     71  C   UNL A   1      45.524  34.479  29.713  1.00  0.00     0.001 A 
ATOM     72  C   UNL A   1      45.692  34.756  31.068  1.00  0.00     0.000 A 
ENDBRANCH  53  67
BRANCH  54  73
ATOM     73  C   UNL A   1      42.003  23.074  27.391  1.00  0.00    -0.014 A 
ATOM     74  C   UNL A   1      41.347  22.172  28.243  1.00  0.00     0.009 A 
ATOM     75  C   UNL A   1      42.315  22.661  26.085  1.00  0.00     0.009 A 
ATOM     76  C   UNL A   1      41.050  20.877  27.811  1.00  0.00     0.001 A 
ATOM     77  C   UNL A   1      41.980  21.380  25.642  1.00  0.00     0.001 A 
ATOM     78  C   UNL A   1      41.363  20.483  26.511  1.00  0.00     0.000 A 
ENDBRANCH  54  73
BRANCH  66  79
ATOM     79  C   UNL A   1      48.212  26.100  28.242  1.00  0.00    -0.014 A 
ATOM     80  C   UNL A   1      48.848  26.118  26.990  1.00  0.00     0.009 A 
ATOM     81  C   UNL A   1      48.924  25.638  29.360  1.00  0.00     0.009 A 
ATOM     82  C   UNL A   1      50.159  25.651  26.859  1.00  0.00     0.001 A 
ATOM     83  C   UNL A   1      50.245  25.205  29.232  1.00  0.00     0.001 A 
ATOM     84  C   UNL A   1      50.856  25.203  27.980  1.00  0.00     0.000 A 
ENDBRANCH  66  79
ENDBRANCH  40  41
ENDBRANCH  33  35
ENDBRANCH  32  33
ENDBRANCH  31  32
ENDBRANCH  30  31
ENDBRANCH  29  30
ENDBRANCH  27  29
ENDBRANCH   5  27
TORSDOF 19
ENDMDL
