MODEL 1
REMARK VINA RESULT:     -11.2      0.000      0.000
REMARK SMILES C[C@H]1[C@@H](C(=O)OCCOC(=O)c2ccc(-c3c4nc(c(-c5ccccc5)c5ccc([nH]5)c(-c5ccccc5)c5nc(c(-c6ccccc6)c6ccc3[nH]6)C=C5)C=C4)cc2)CCN1C(=O)N[C@@H]1CC[N@@H+]2CCCC[C@H]12
REMARK SMILES IDX 7 1 6 2 4 3 5 4 3 5 1 6 2 7 62 8 60 9 61 10 63 11 64 12
REMARK SMILES IDX 65 13 66 15 67 16 74 17 68 18 69 19 73 20 70 21 72 23 71 24
REMARK SMILES IDX 8 25 9 26 10 27 11 28 12 29 13 30 59 31 14 32 58 33 15 34
REMARK SMILES IDX 16 35 17 36 52 37 18 38 57 39 51 40 53 41 19 42 56 43 50 44
REMARK SMILES IDX 49 45 20 47 42 48 27 49 41 50 28 51 31 52 40 53 54 54 29 55
REMARK SMILES IDX 30 56 39 58 55 59 32 60 21 61 22 62 26 63 23 64 25 65 24 66
REMARK SMILES IDX 43 67 44 68 48 69 45 70 47 71 46 72 33 73 34 74 38 75 35 76
REMARK SMILES IDX 37 77 36 78
REMARK H PARENT 65 14 69 22 53 46 31 57
REMARK Flexibility Score: inf
ROOT
ATOM      1  C   UNL A   1      31.812  30.085  26.703  1.00  0.00     0.274 C 
ENDROOT
BRANCH   1   2
ATOM      2  O   UNL A   1      31.620  30.074  25.270  1.00  0.00    -0.462 OA
BRANCH   2   3
ATOM      3  C   UNL A   1      31.429  28.845  24.710  1.00  0.00     0.311 C 
ATOM      4  O   UNL A   1      30.592  28.599  23.852  1.00  0.00    -0.252 OA
BRANCH   3   5
ATOM      5  C   UNL A   1      32.390  27.821  25.310  1.00  0.00     0.123 C 
ATOM      6  C   UNL A   1      34.161  28.573  23.628  1.00  0.00     0.032 C 
ATOM      7  C   UNL A   1      33.577  27.400  24.404  1.00  0.00     0.098 C 
ATOM      8  N   UNL A   1      33.073  26.248  23.624  1.00  0.00    -0.321 N 
ATOM      9  C   UNL A   1      31.637  26.510  25.501  1.00  0.00     0.039 C 
ATOM     10  C   UNL A   1      31.759  25.853  24.136  1.00  0.00     0.122 C 
BRANCH   8  11
ATOM     11  C   UNL A   1      33.623  25.382  22.733  1.00  0.00     0.318 C 
ATOM     12  O   UNL A   1      33.497  25.564  21.515  1.00  0.00    -0.249 OA
ATOM     13  N   UNL A   1      34.303  24.275  23.040  1.00  0.00    -0.329 N 
ATOM     14  H   UNL A   1      34.448  23.720  22.240  1.00  0.00     0.165 HD
BRANCH  13  15
ATOM     15  C   UNL A   1      34.890  23.654  24.212  1.00  0.00     0.147 C 
ATOM     16  C   UNL A   1      36.064  22.775  23.803  1.00  0.00     0.092 C 
ATOM     17  C   UNL A   1      33.996  22.665  25.013  1.00  0.00     0.207 C 
ATOM     18  C   UNL A   1      36.222  21.844  24.983  1.00  0.00     0.264 C 
ATOM     19  N   UNL A   1      34.854  21.499  25.376  1.00  0.00    -0.331 N 
ATOM     20  C   UNL A   1      32.666  22.269  24.353  1.00  0.00     0.067 C 
ATOM     21  C   UNL A   1      34.415  20.247  24.748  1.00  0.00     0.262 C 
ATOM     22  H   UNL A   1      34.790  21.323  26.379  1.00  0.00     0.348 HD
ATOM     23  C   UNL A   1      32.041  21.107  25.118  1.00  0.00     0.012 C 
ATOM     24  C   UNL A   1      32.982  19.901  25.157  1.00  0.00     0.062 C 
ENDBRANCH  13  15
ENDBRANCH   8  11
ENDBRANCH   3   5
ENDBRANCH   2   3
ENDBRANCH   1   2
BRANCH   1  25
ATOM     25  C   UNL A   1      32.965  31.012  27.080  1.00  0.00     0.275 C 
BRANCH  25  26
ATOM     26  O   UNL A   1      34.047  30.234  27.618  1.00  0.00    -0.458 OA
BRANCH  26  27
ATOM     27  C   UNL A   1      34.851  30.897  28.481  1.00  0.00     0.338 C 
ATOM     28  O   UNL A   1      34.566  31.915  29.090  1.00  0.00    -0.246 OA
BRANCH  27  29
ATOM     29  C   UNL A   1      36.153  30.199  28.631  1.00  0.00     0.060 A 
ATOM     30  C   UNL A   1      36.596  29.701  29.861  1.00  0.00     0.016 A 
ATOM     31  C   UNL A   1      36.995  30.124  27.519  1.00  0.00     0.016 A 
ATOM     32  C   UNL A   1      37.904  29.228  29.999  1.00  0.00     0.010 A 
ATOM     33  C   UNL A   1      38.265  29.554  27.638  1.00  0.00     0.010 A 
ATOM     34  C   UNL A   1      38.754  29.134  28.886  1.00  0.00    -0.014 A 
BRANCH  34  35
ATOM     35  C   UNL A   1      40.142  28.599  28.995  1.00  0.00     0.031 A 
ATOM     36  C   UNL A   1      41.305  29.519  29.277  1.00  0.00     0.074 A 
ATOM     37  C   UNL A   1      40.381  27.288  28.798  1.00  0.00     0.049 A 
ATOM     38  N   UNL A   1      42.590  29.259  29.267  1.00  0.00    -0.248 NA
ATOM     39  C   UNL A   1      40.986  30.910  29.638  1.00  0.00     0.031 C 
ATOM     40  C   UNL A   1      39.367  26.256  28.579  1.00  0.00     0.029 A 
ATOM     41  N   UNL A   1      41.572  26.605  28.713  1.00  0.00    -0.354 N 
ATOM     42  C   UNL A   1      43.222  30.436  29.648  1.00  0.00     0.074 A 
ATOM     43  C   UNL A   1      42.188  31.426  29.851  1.00  0.00     0.031 C 
ATOM     44  C   UNL A   1      39.974  25.079  28.369  1.00  0.00     0.029 A 
ATOM     45  C   UNL A   1      41.417  25.290  28.345  1.00  0.00     0.049 A 
ATOM     46  H   UNL A   1      42.447  27.016  28.899  1.00  0.00     0.167 HD
ATOM     47  C   UNL A   1      44.543  30.678  29.818  1.00  0.00     0.031 A 
ATOM     48  C   UNL A   1      42.318  24.372  27.950  1.00  0.00     0.031 A 
ATOM     49  C   UNL A   1      45.586  29.731  29.539  1.00  0.00     0.049 A 
ATOM     50  C   UNL A   1      43.771  24.738  27.886  1.00  0.00     0.074 A 
ATOM     51  C   UNL A   1      46.956  29.894  29.656  1.00  0.00     0.029 A 
ATOM     52  N   UNL A   1      45.374  28.454  29.048  1.00  0.00    -0.354 N 
ATOM     53  N   UNL A   1      44.356  25.850  28.259  1.00  0.00    -0.248 NA
ATOM     54  C   UNL A   1      44.685  23.732  27.327  1.00  0.00     0.031 C 
ATOM     55  C   UNL A   1      47.575  28.740  29.163  1.00  0.00     0.029 A 
ATOM     56  C   UNL A   1      46.589  27.840  28.796  1.00  0.00     0.049 A 
ATOM     57  H   UNL A   1      44.492  28.044  28.900  1.00  0.00     0.167 HD
ATOM     58  C   UNL A   1      45.709  25.669  28.003  1.00  0.00     0.074 A 
ATOM     59  C   UNL A   1      45.858  24.342  27.441  1.00  0.00     0.031 C 
ATOM     60  C   UNL A   1      46.733  26.526  28.228  1.00  0.00     0.031 A 
BRANCH  47  61
ATOM     61  C   UNL A   1      44.940  32.046  30.292  1.00  0.00    -0.014 A 
ATOM     62  C   UNL A   1      45.177  33.083  29.377  1.00  0.00     0.009 A 
ATOM     63  C   UNL A   1      45.029  32.314  31.667  1.00  0.00     0.009 A 
ATOM     64  C   UNL A   1      45.516  34.360  29.831  1.00  0.00     0.001 A 
ATOM     65  C   UNL A   1      45.353  33.595  32.117  1.00  0.00     0.001 A 
ATOM     66  C   UNL A   1      45.600  34.615  31.200  1.00  0.00     0.000 A 
ENDBRANCH  47  61
BRANCH  48  67
ATOM     67  C   UNL A   1      41.843  23.045  27.477  1.00  0.00    -0.014 A 
ATOM     68  C   UNL A   1      41.577  22.816  26.121  1.00  0.00     0.009 A 
ATOM     69  C   UNL A   1      41.685  21.989  28.391  1.00  0.00     0.009 A 
ATOM     70  C   UNL A   1      41.159  21.554  25.691  1.00  0.00     0.001 A 
ATOM     71  C   UNL A   1      41.297  20.722  27.954  1.00  0.00     0.001 A 
ATOM     72  C   UNL A   1      41.029  20.507  26.605  1.00  0.00     0.000 A 
ENDBRANCH  48  67
BRANCH  60  73
ATOM     73  C   UNL A   1      48.116  26.053  27.895  1.00  0.00    -0.014 A 
ATOM     74  C   UNL A   1      48.676  26.278  26.629  1.00  0.00     0.009 A 
ATOM     75  C   UNL A   1      48.890  25.423  28.883  1.00  0.00     0.009 A 
ATOM     76  C   UNL A   1      49.982  25.866  26.354  1.00  0.00     0.001 A 
ATOM     77  C   UNL A   1      50.201  25.033  28.613  1.00  0.00     0.001 A 
ATOM     78  C   UNL A   1      50.744  25.250  27.347  1.00  0.00     0.000 A 
ENDBRANCH  60  73
ENDBRANCH  34  35
ENDBRANCH  27  29
ENDBRANCH  26  27
ENDBRANCH  25  26
ENDBRANCH   1  25
TORSDOF 13
ENDMDL
MODEL 2
REMARK VINA RESULT:     -11.0      3.622      8.683
REMARK SMILES C[C@H]1[C@@H](C(=O)OCCOC(=O)c2ccc(-c3c4nc(c(-c5ccccc5)c5ccc([nH]5)c(-c5ccccc5)c5nc(c(-c6ccccc6)c6ccc3[nH]6)C=C5)C=C4)cc2)CCN1C(=O)N[C@@H]1CC[N@@H+]2CCCC[C@H]12
REMARK SMILES IDX 7 1 6 2 4 3 5 4 3 5 1 6 2 7 62 8 60 9 61 10 63 11 64 12
REMARK SMILES IDX 65 13 66 15 67 16 74 17 68 18 69 19 73 20 70 21 72 23 71 24
REMARK SMILES IDX 8 25 9 26 10 27 11 28 12 29 13 30 59 31 14 32 58 33 15 34
REMARK SMILES IDX 16 35 17 36 52 37 18 38 57 39 51 40 53 41 19 42 56 43 50 44
REMARK SMILES IDX 49 45 20 47 42 48 27 49 41 50 28 51 31 52 40 53 54 54 29 55
REMARK SMILES IDX 30 56 39 58 55 59 32 60 21 61 22 62 26 63 23 64 25 65 24 66
REMARK SMILES IDX 43 67 44 68 48 69 45 70 47 71 46 72 33 73 34 74 38 75 35 76
REMARK SMILES IDX 37 77 36 78
REMARK H PARENT 65 14 69 22 53 46 31 57
REMARK Flexibility Score: inf
ROOT
ATOM      1  C   UNL A   1      36.945  21.469  24.489  1.00  0.00     0.274 C 
ENDROOT
BRANCH   1   2
ATOM      2  O   UNL A   1      35.913  20.580  24.973  1.00  0.00    -0.462 OA
BRANCH   2   3
ATOM      3  C   UNL A   1      34.654  21.104  25.011  1.00  0.00     0.311 C 
ATOM      4  O   UNL A   1      33.631  20.439  25.109  1.00  0.00    -0.252 OA
BRANCH   3   5
ATOM      5  C   UNL A   1      34.697  22.627  24.901  1.00  0.00     0.123 C 
ATOM      6  C   UNL A   1      34.654  22.762  27.453  1.00  0.00     0.032 C 
ATOM      7  C   UNL A   1      34.204  23.406  26.148  1.00  0.00     0.098 C 
ATOM      8  N   UNL A   1      32.750  23.582  25.939  1.00  0.00    -0.321 N 
ATOM      9  C   UNL A   1      33.707  23.059  23.826  1.00  0.00     0.039 C 
ATOM     10  C   UNL A   1      32.395  23.132  24.591  1.00  0.00     0.122 C 
BRANCH   8  11
ATOM     11  C   UNL A   1      31.760  24.236  26.602  1.00  0.00     0.318 C 
ATOM     12  O   UNL A   1      30.911  23.610  27.248  1.00  0.00    -0.249 OA
ATOM     13  N   UNL A   1      31.572  25.558  26.613  1.00  0.00    -0.329 N 
ATOM     14  H   UNL A   1      30.698  25.784  27.008  1.00  0.00     0.165 HD
BRANCH  13  15
ATOM     15  C   UNL A   1      32.283  26.757  26.213  1.00  0.00     0.147 C 
ATOM     16  C   UNL A   1      31.740  27.962  26.970  1.00  0.00     0.092 C 
ATOM     17  C   UNL A   1      32.140  27.203  24.730  1.00  0.00     0.207 C 
ATOM     18  C   UNL A   1      32.179  29.129  26.116  1.00  0.00     0.264 C 
ATOM     19  N   UNL A   1      31.968  28.686  24.735  1.00  0.00    -0.331 N 
ATOM     20  C   UNL A   1      31.080  26.464  23.899  1.00  0.00     0.067 C 
ATOM     21  C   UNL A   1      30.659  29.113  24.230  1.00  0.00     0.262 C 
ATOM     22  H   UNL A   1      32.644  29.114  24.102  1.00  0.00     0.348 HD
ATOM     23  C   UNL A   1      30.875  27.185  22.571  1.00  0.00     0.012 C 
ATOM     24  C   UNL A   1      30.445  28.637  22.791  1.00  0.00     0.062 C 
ENDBRANCH  13  15
ENDBRANCH   8  11
ENDBRANCH   3   5
ENDBRANCH   2   3
ENDBRANCH   1   2
BRANCH   1  25
ATOM     25  C   UNL A   1      38.113  21.515  25.470  1.00  0.00     0.275 C 
BRANCH  25  26
ATOM     26  O   UNL A   1      38.427  22.884  25.776  1.00  0.00    -0.458 OA
BRANCH  26  27
ATOM     27  C   UNL A   1      39.694  23.097  26.201  1.00  0.00     0.338 C 
ATOM     28  O   UNL A   1      40.633  22.329  26.071  1.00  0.00    -0.246 OA
BRANCH  27  29
ATOM     29  C   UNL A   1      39.819  24.433  26.836  1.00  0.00     0.060 A 
ATOM     30  C   UNL A   1      40.618  25.445  26.294  1.00  0.00     0.016 A 
ATOM     31  C   UNL A   1      39.187  24.643  28.064  1.00  0.00     0.016 A 
ATOM     32  C   UNL A   1      40.862  26.614  27.021  1.00  0.00     0.010 A 
ATOM     33  C   UNL A   1      39.352  25.856  28.739  1.00  0.00     0.010 A 
ATOM     34  C   UNL A   1      40.222  26.843  28.248  1.00  0.00    -0.014 A 
BRANCH  34  35
ATOM     35  C   UNL A   1      40.435  28.095  29.028  1.00  0.00     0.031 A 
ATOM     36  C   UNL A   1      41.584  28.215  30.001  1.00  0.00     0.074 A 
ATOM     37  C   UNL A   1      39.573  29.125  28.908  1.00  0.00     0.049 A 
ATOM     38  N   UNL A   1      41.844  29.167  30.864  1.00  0.00    -0.248 NA
ATOM     39  C   UNL A   1      42.585  27.137  29.988  1.00  0.00     0.031 C 
ATOM     40  C   UNL A   1      38.451  29.196  27.972  1.00  0.00     0.029 A 
ATOM     41  N   UNL A   1      39.491  30.303  29.615  1.00  0.00    -0.354 N 
ATOM     42  C   UNL A   1      43.046  28.817  31.469  1.00  0.00     0.074 A 
ATOM     43  C   UNL A   1      43.451  27.550  30.902  1.00  0.00     0.031 C 
ATOM     44  C   UNL A   1      37.783  30.342  28.171  1.00  0.00     0.029 A 
ATOM     45  C   UNL A   1      38.373  31.040  29.308  1.00  0.00     0.049 A 
ATOM     46  H   UNL A   1      40.165  30.588  30.272  1.00  0.00     0.167 HD
ATOM     47  C   UNL A   1      43.753  29.486  32.408  1.00  0.00     0.031 A 
ATOM     48  C   UNL A   1      37.828  32.111  29.915  1.00  0.00     0.031 A 
ATOM     49  C   UNL A   1      43.321  30.701  33.041  1.00  0.00     0.049 A 
ATOM     50  C   UNL A   1      38.487  32.688  31.133  1.00  0.00     0.074 A 
ATOM     51  C   UNL A   1      43.958  31.438  34.025  1.00  0.00     0.029 A 
ATOM     52  N   UNL A   1      42.119  31.336  32.779  1.00  0.00    -0.354 N 
ATOM     53  N   UNL A   1      39.626  32.355  31.687  1.00  0.00    -0.248 NA
ATOM     54  C   UNL A   1      37.775  33.774  31.821  1.00  0.00     0.031 C 
ATOM     55  C   UNL A   1      43.105  32.479  34.410  1.00  0.00     0.029 A 
ATOM     56  C   UNL A   1      41.966  32.420  33.626  1.00  0.00     0.049 A 
ATOM     57  H   UNL A   1      41.470  31.058  32.093  1.00  0.00     0.167 HD
ATOM     58  C   UNL A   1      39.780  33.205  32.774  1.00  0.00     0.074 A 
ATOM     59  C   UNL A   1      38.617  34.068  32.803  1.00  0.00     0.031 C 
ATOM     60  C   UNL A   1      40.804  33.268  33.659  1.00  0.00     0.031 A 
BRANCH  47  61
ATOM     61  C   UNL A   1      45.059  28.889  32.846  1.00  0.00    -0.014 A 
ATOM     62  C   UNL A   1      46.260  29.241  32.209  1.00  0.00     0.009 A 
ATOM     63  C   UNL A   1      45.097  28.007  33.936  1.00  0.00     0.009 A 
ATOM     64  C   UNL A   1      47.473  28.703  32.644  1.00  0.00     0.001 A 
ATOM     65  C   UNL A   1      46.313  27.483  34.379  1.00  0.00     0.001 A 
ATOM     66  C   UNL A   1      47.499  27.828  33.730  1.00  0.00     0.000 A 
ENDBRANCH  47  61
BRANCH  48  67
ATOM     67  C   UNL A   1      36.522  32.631  29.434  1.00  0.00    -0.014 A 
ATOM     68  C   UNL A   1      35.315  32.144  29.953  1.00  0.00     0.009 A 
ATOM     69  C   UNL A   1      36.485  33.651  28.467  1.00  0.00     0.009 A 
ATOM     70  C   UNL A   1      34.098  32.666  29.510  1.00  0.00     0.001 A 
ATOM     71  C   UNL A   1      35.269  34.191  28.048  1.00  0.00     0.001 A 
ATOM     72  C   UNL A   1      34.076  33.694  28.566  1.00  0.00     0.000 A 
ENDBRANCH  48  67
BRANCH  60  73
ATOM     73  C   UNL A   1      40.735  34.323  34.722  1.00  0.00    -0.014 A 
ATOM     74  C   UNL A   1      41.309  35.588  34.528  1.00  0.00     0.009 A 
ATOM     75  C   UNL A   1      40.035  34.064  35.911  1.00  0.00     0.009 A 
ATOM     76  C   UNL A   1      41.197  36.570  35.516  1.00  0.00     0.001 A 
ATOM     77  C   UNL A   1      39.905  35.054  36.885  1.00  0.00     0.001 A 
ATOM     78  C   UNL A   1      40.491  36.304  36.689  1.00  0.00     0.000 A 
ENDBRANCH  60  73
ENDBRANCH  34  35
ENDBRANCH  27  29
ENDBRANCH  26  27
ENDBRANCH  25  26
ENDBRANCH   1  25
TORSDOF 13
ENDMDL
MODEL 3
REMARK VINA RESULT:     -10.9      3.842      7.749
REMARK SMILES C[C@H]1[C@@H](C(=O)OCCOC(=O)c2ccc(-c3c4nc(c(-c5ccccc5)c5ccc([nH]5)c(-c5ccccc5)c5nc(c(-c6ccccc6)c6ccc3[nH]6)C=C5)C=C4)cc2)CCN1C(=O)N[C@@H]1CC[N@@H+]2CCCC[C@H]12
REMARK SMILES IDX 7 1 6 2 4 3 5 4 3 5 1 6 2 7 62 8 60 9 61 10 63 11 64 12
REMARK SMILES IDX 65 13 66 15 67 16 74 17 68 18 69 19 73 20 70 21 72 23 71 24
REMARK SMILES IDX 8 25 9 26 10 27 11 28 12 29 13 30 59 31 14 32 58 33 15 34
REMARK SMILES IDX 16 35 17 36 52 37 18 38 57 39 51 40 53 41 19 42 56 43 50 44
REMARK SMILES IDX 49 45 20 47 42 48 27 49 41 50 28 51 31 52 40 53 54 54 29 55
REMARK SMILES IDX 30 56 39 58 55 59 32 60 21 61 22 62 26 63 23 64 25 65 24 66
REMARK SMILES IDX 43 67 44 68 48 69 45 70 47 71 46 72 33 73 34 74 38 75 35 76
REMARK SMILES IDX 37 77 36 78
REMARK H PARENT 65 14 69 22 53 46 31 57
REMARK Flexibility Score: inf
ROOT
ATOM      1  C   UNL A   1      36.347  21.043  24.998  1.00  0.00     0.274 C 
ENDROOT
BRANCH   1   2
ATOM      2  O   UNL A   1      35.167  20.208  24.988  1.00  0.00    -0.462 OA
BRANCH   2   3
ATOM      3  C   UNL A   1      33.979  20.865  25.122  1.00  0.00     0.311 C 
ATOM      4  O   UNL A   1      32.895  20.313  25.262  1.00  0.00    -0.252 OA
BRANCH   3   5
ATOM      5  C   UNL A   1      34.185  22.377  25.057  1.00  0.00     0.123 C 
ATOM      6  C   UNL A   1      33.953  22.466  27.601  1.00  0.00     0.032 C 
ATOM      7  C   UNL A   1      33.677  23.179  26.283  1.00  0.00     0.098 C 
ATOM      8  N   UNL A   1      32.269  23.508  25.968  1.00  0.00    -0.321 N 
ATOM      9  C   UNL A   1      33.333  22.930  23.921  1.00  0.00     0.039 C 
ATOM     10  C   UNL A   1      31.979  23.124  24.585  1.00  0.00     0.122 C 
BRANCH   8  11
ATOM     11  C   UNL A   1      31.302  24.249  26.570  1.00  0.00     0.318 C 
ATOM     12  O   UNL A   1      30.364  23.701  27.163  1.00  0.00    -0.249 OA
ATOM     13  N   UNL A   1      31.229  25.582  26.572  1.00  0.00    -0.329 N 
ATOM     14  H   UNL A   1      30.356  25.884  26.913  1.00  0.00     0.165 HD
BRANCH  13  15
ATOM     15  C   UNL A   1      32.065  26.713  26.218  1.00  0.00     0.147 C 
ATOM     16  C   UNL A   1      31.624  27.949  26.990  1.00  0.00     0.092 C 
ATOM     17  C   UNL A   1      32.005  27.203  24.743  1.00  0.00     0.207 C 
ATOM     18  C   UNL A   1      32.197  29.086  26.175  1.00  0.00     0.264 C 
ATOM     19  N   UNL A   1      31.980  28.695  24.780  1.00  0.00    -0.331 N 
ATOM     20  C   UNL A   1      30.899  26.590  23.870  1.00  0.00     0.067 C 
ATOM     21  C   UNL A   1      30.732  29.260  24.254  1.00  0.00     0.262 C 
ATOM     22  H   UNL A   1      32.711  29.067  24.173  1.00  0.00     0.348 HD
ATOM     23  C   UNL A   1      30.800  27.357  22.555  1.00  0.00     0.012 C 
ATOM     24  C   UNL A   1      30.510  28.839  22.800  1.00  0.00     0.062 C 
ENDBRANCH  13  15
ENDBRANCH   8  11
ENDBRANCH   3   5
ENDBRANCH   2   3
ENDBRANCH   1   2
BRANCH   1  25
ATOM     25  C   UNL A   1      37.608  20.185  24.931  1.00  0.00     0.275 C 
BRANCH  25  26
ATOM     26  O   UNL A   1      38.716  20.922  25.475  1.00  0.00    -0.458 OA
BRANCH  26  27
ATOM     27  C   UNL A   1      39.823  20.184  25.723  1.00  0.00     0.338 C 
ATOM     28  O   UNL A   1      39.909  18.970  25.646  1.00  0.00    -0.246 OA
BRANCH  27  29
ATOM     29  C   UNL A   1      40.969  21.058  26.081  1.00  0.00     0.060 A 
ATOM     30  C   UNL A   1      42.292  20.607  26.041  1.00  0.00     0.016 A 
ATOM     31  C   UNL A   1      40.697  22.342  26.560  1.00  0.00     0.016 A 
ATOM     32  C   UNL A   1      43.320  21.394  26.570  1.00  0.00     0.010 A 
ATOM     33  C   UNL A   1      41.741  23.165  26.992  1.00  0.00     0.010 A 
ATOM     34  C   UNL A   1      43.062  22.690  27.040  1.00  0.00    -0.014 A 
BRANCH  34  35
ATOM     35  C   UNL A   1      44.143  23.566  27.576  1.00  0.00     0.031 A 
ATOM     36  C   UNL A   1      44.261  23.831  29.058  1.00  0.00     0.074 A 
ATOM     37  C   UNL A   1      45.006  24.172  26.736  1.00  0.00     0.049 A 
ATOM     38  N   UNL A   1      45.044  24.670  29.691  1.00  0.00    -0.248 NA
ATOM     39  C   UNL A   1      43.405  23.033  29.950  1.00  0.00     0.031 C 
ATOM     40  C   UNL A   1      45.068  23.975  25.287  1.00  0.00     0.029 A 
ATOM     41  N   UNL A   1      45.977  25.113  26.985  1.00  0.00    -0.354 N 
ATOM     42  C   UNL A   1      44.796  24.479  31.045  1.00  0.00     0.074 A 
ATOM     43  C   UNL A   1      43.766  23.469  31.148  1.00  0.00     0.031 C 
ATOM     44  C   UNL A   1      46.011  24.779  24.774  1.00  0.00     0.029 A 
ATOM     45  C   UNL A   1      46.552  25.613  25.842  1.00  0.00     0.049 A 
ATOM     46  H   UNL A   1      46.235  25.398  27.891  1.00  0.00     0.167 HD
ATOM     47  C   UNL A   1      45.370  25.084  32.110  1.00  0.00     0.031 A 
ATOM     48  C   UNL A   1      47.359  26.673  25.650  1.00  0.00     0.031 A 
ATOM     49  C   UNL A   1      46.331  26.148  32.022  1.00  0.00     0.049 A 
ATOM     50  C   UNL A   1      47.780  27.507  26.825  1.00  0.00     0.074 A 
ATOM     51  C   UNL A   1      46.950  26.842  33.048  1.00  0.00     0.029 A 
ATOM     52  N   UNL A   1      46.783  26.699  30.835  1.00  0.00    -0.354 N 
ATOM     53  N   UNL A   1      47.546  27.309  28.099  1.00  0.00    -0.248 NA
ATOM     54  C   UNL A   1      48.555  28.720  26.533  1.00  0.00     0.031 C 
ATOM     55  C   UNL A   1      47.720  27.864  32.480  1.00  0.00     0.029 A 
ATOM     56  C   UNL A   1      47.624  27.766  31.102  1.00  0.00     0.049 A 
ATOM     57  H   UNL A   1      46.543  26.380  29.936  1.00  0.00     0.167 HD
ATOM     58  C   UNL A   1      48.167  28.359  28.763  1.00  0.00     0.074 A 
ATOM     59  C   UNL A   1      48.784  29.192  27.752  1.00  0.00     0.031 C 
ATOM     60  C   UNL A   1      48.226  28.598  30.095  1.00  0.00     0.031 A 
BRANCH  47  61
ATOM     61  C   UNL A   1      44.938  24.636  33.476  1.00  0.00    -0.014 A 
ATOM     62  C   UNL A   1      45.643  23.635  34.162  1.00  0.00     0.009 A 
ATOM     63  C   UNL A   1      43.846  25.255  34.105  1.00  0.00     0.009 A 
ATOM     64  C   UNL A   1      45.250  23.248  35.445  1.00  0.00     0.001 A 
ATOM     65  C   UNL A   1      43.466  24.877  35.394  1.00  0.00     0.001 A 
ATOM     66  C   UNL A   1      44.165  23.871  36.060  1.00  0.00     0.000 A 
ENDBRANCH  47  61
BRANCH  48  67
ATOM     67  C   UNL A   1      47.727  27.065  24.265  1.00  0.00    -0.014 A 
ATOM     68  C   UNL A   1      46.948  27.976  23.541  1.00  0.00     0.009 A 
ATOM     69  C   UNL A   1      48.891  26.542  23.673  1.00  0.00     0.009 A 
ATOM     70  C   UNL A   1      47.326  28.355  22.250  1.00  0.00     0.001 A 
ATOM     71  C   UNL A   1      49.282  26.944  22.396  1.00  0.00     0.001 A 
ATOM     72  C   UNL A   1      48.496  27.846  21.684  1.00  0.00     0.000 A 
ENDBRANCH  48  67
BRANCH  60  73
ATOM     73  C   UNL A   1      49.008  29.794  30.549  1.00  0.00    -0.014 A 
ATOM     74  C   UNL A   1      48.386  31.035  30.749  1.00  0.00     0.009 A 
ATOM     75  C   UNL A   1      50.376  29.660  30.834  1.00  0.00     0.009 A 
ATOM     76  C   UNL A   1      49.126  32.126  31.211  1.00  0.00     0.001 A 
ATOM     77  C   UNL A   1      51.107  30.745  31.317  1.00  0.00     0.001 A 
ATOM     78  C   UNL A   1      50.483  31.978  31.500  1.00  0.00     0.000 A 
ENDBRANCH  60  73
ENDBRANCH  34  35
ENDBRANCH  27  29
ENDBRANCH  26  27
ENDBRANCH  25  26
ENDBRANCH   1  25
TORSDOF 13
ENDMDL
