MODEL 1
REMARK VINA RESULT:     -11.0      0.000      0.000
REMARK SMILES CCOc1ccc(C(=O)NC(=S)Nc2cccc(C(=O)OCCOC(=O)c3ccc(-c4c5nc(c(-c6ccccc6)c6ccc([nH]6)c(-c6ccccc6)c6nc(c(-c7ccccc7)c7ccc4[nH]7)C=C6)C=C5)cc3)c2C)cc1Br
REMARK SMILES IDX 19 1 20 2 18 3 14 4 15 5 75 6 16 7 76 8 17 9 13 10 11 12
REMARK SMILES IDX 12 13 10 14 8 15 9 16 7 18 4 19 5 20 78 21 6 22 77 23 79 24
REMARK SMILES IDX 3 25 2 26 1 27 21 28 22 29 23 30 24 31 25 32 26 33 27 34
REMARK SMILES IDX 28 35 74 36 29 37 73 38 30 39 31 40 32 41 67 42 33 43 72 44
REMARK SMILES IDX 66 45 68 46 34 47 71 48 65 49 64 50 35 52 57 53 42 54 56 55
REMARK SMILES IDX 43 56 46 57 55 58 69 59 44 60 45 61 54 63 70 64 47 65 36 66
REMARK SMILES IDX 37 67 41 68 38 69 40 70 39 71 58 72 59 73 63 74 60 75 62 76
REMARK SMILES IDX 61 77 48 78 49 79 53 80 50 81 52 82 51 83
REMARK H PARENT 13 11 10 17 68 51 46 62
REMARK Flexibility Score: inf
ROOT
ATOM      1  C   UNL A   1      35.866  21.429  25.577  1.00  0.00     0.338 C 
ATOM      2  O   UNL A   1      35.889  21.876  26.716  1.00  0.00    -0.246 OA
ENDROOT
BRANCH   1   3
ATOM      3  C   UNL A   1      34.380  21.226  24.816  1.00  0.00     0.065 A 
ATOM      4  C   UNL A   1      32.706  23.025  22.944  1.00  0.00     0.044 A 
ATOM      5  C   UNL A   1      31.912  21.622  22.141  1.00  0.00     0.026 A 
ATOM      6  C   UNL A   1      33.993  22.861  24.147  1.00  0.00    -0.013 A 
ATOM      7  C   UNL A   1      32.158  19.950  22.685  1.00  0.00     0.003 A 
ATOM      8  C   UNL A   1      34.534  24.150  24.695  1.00  0.00     0.047 C 
ATOM      9  C   UNL A   1      33.309  19.655  24.049  1.00  0.00     0.016 A 
BRANCH   4  10
ATOM     10  N   UNL A   1      31.690  23.901  23.512  1.00  0.00    -0.332 N 
ATOM     11  H   UNL A   1      31.040  23.432  24.085  1.00  0.00     0.169 HD
BRANCH  10  12
ATOM     12  C   UNL A   1      31.455  25.262  23.407  1.00  0.00     0.177 C 
ATOM     13  S   UNL A   1      29.951  25.772  23.974  1.00  0.00    -0.040 S 
BRANCH  12  14
ATOM     14  N   UNL A   1      32.329  26.308  22.929  1.00  0.00    -0.299 N 
ATOM     15  C   UNL A   1      33.030  27.654  23.041  1.00  0.00     0.257 C 
ATOM     16  O   UNL A   1      33.736  28.051  22.121  1.00  0.00    -0.269 OA
ATOM     17  H   UNL A   1      32.641  25.963  22.062  1.00  0.00     0.172 HD
BRANCH  15  18
ATOM     18  C   UNL A   1      32.769  28.531  24.218  1.00  0.00     0.041 A 
ATOM     19  C   UNL A   1      33.342  30.641  27.271  1.00  0.00     0.133 A 
ATOM     20  C   UNL A   1      31.808  30.654  26.328  1.00  0.00     0.048 A 
ATOM     21  C   UNL A   1      34.627  29.476  26.750  1.00  0.00     0.060 A 
ATOM     22  C   UNL A   1      31.575  29.653  24.825  1.00  0.00     0.018 A 
ATOM     23  C   UNL A   1      34.155  28.353  25.143  1.00  0.00     0.033 A 
ATOM     24  Br  UNL A   1      36.089  29.492  28.106  1.00  0.00    -0.047 Br
BRANCH  19  25
ATOM     25  O   UNL A   1      33.574  31.468  28.330  1.00  0.00    -0.493 OA
BRANCH  25  26
ATOM     26  C   UNL A   1      34.098  32.738  27.920  1.00  0.00     0.226 C 
ATOM     27  C   UNL A   1      33.192  33.964  28.050  1.00  0.00     0.049 C 
ENDBRANCH  25  26
ENDBRANCH  19  25
ENDBRANCH  15  18
ENDBRANCH  12  14
ENDBRANCH  10  12
ENDBRANCH   4  10
ENDBRANCH   1   3
BRANCH   1  28
ATOM     28  O   UNL A   1      37.042  21.252  24.919  1.00  0.00    -0.458 OA
BRANCH  28  29
ATOM     29  C   UNL A   1      38.366  21.306  25.555  1.00  0.00     0.275 C 
BRANCH  29  30
ATOM     30  C   UNL A   1      39.407  20.159  25.827  1.00  0.00     0.275 C 
BRANCH  30  31
ATOM     31  O   UNL A   1      40.680  20.169  26.535  1.00  0.00    -0.458 OA
BRANCH  31  32
ATOM     32  C   UNL A   1      41.870  20.691  26.184  1.00  0.00     0.338 C 
ATOM     33  O   UNL A   1      42.771  20.072  25.644  1.00  0.00    -0.246 OA
BRANCH  32  34
ATOM     34  C   UNL A   1      42.017  22.064  26.618  1.00  0.00     0.060 A 
ATOM     35  C   UNL A   1      42.285  23.053  25.662  1.00  0.00     0.016 A 
ATOM     36  C   UNL A   1      41.694  22.343  27.943  1.00  0.00     0.016 A 
ATOM     37  C   UNL A   1      42.112  24.377  25.994  1.00  0.00     0.010 A 
ATOM     38  C   UNL A   1      41.405  23.635  28.255  1.00  0.00     0.010 A 
ATOM     39  C   UNL A   1      41.706  24.628  27.303  1.00  0.00    -0.014 A 
BRANCH  39  40
ATOM     40  C   UNL A   1      42.166  25.806  27.994  1.00  0.00     0.031 A 
ATOM     41  C   UNL A   1      41.253  26.956  28.005  1.00  0.00     0.074 A 
ATOM     42  C   UNL A   1      43.279  25.443  28.687  1.00  0.00     0.049 A 
ATOM     43  N   UNL A   1      41.599  28.188  27.873  1.00  0.00    -0.248 NA
ATOM     44  C   UNL A   1      39.784  26.795  28.020  1.00  0.00     0.031 C 
ATOM     45  C   UNL A   1      43.952  25.951  29.861  1.00  0.00     0.029 A 
ATOM     46  N   UNL A   1      44.095  24.346  28.388  1.00  0.00    -0.354 N 
ATOM     47  C   UNL A   1      40.518  28.894  28.366  1.00  0.00     0.074 A 
ATOM     48  C   UNL A   1      39.365  28.061  28.133  1.00  0.00     0.031 C 
ATOM     49  C   UNL A   1      45.199  25.418  29.909  1.00  0.00     0.029 A 
ATOM     50  C   UNL A   1      45.401  24.595  28.714  1.00  0.00     0.049 A 
ATOM     51  H   UNL A   1      43.772  23.504  27.993  1.00  0.00     0.167 HD
ATOM     52  C   UNL A   1      40.730  29.809  29.358  1.00  0.00     0.031 A 
ATOM     53  C   UNL A   1      46.265  24.846  27.682  1.00  0.00     0.031 A 
ATOM     54  C   UNL A   1      42.131  29.752  29.783  1.00  0.00     0.049 A 
ATOM     55  C   UNL A   1      46.494  26.338  27.638  1.00  0.00     0.074 A 
ATOM     56  C   UNL A   1      42.728  29.142  30.874  1.00  0.00     0.029 A 
ATOM     57  N   UNL A   1      43.143  29.973  28.854  1.00  0.00    -0.354 N 
ATOM     58  N   UNL A   1      45.568  27.234  27.864  1.00  0.00    -0.248 NA
ATOM     59  C   UNL A   1      47.825  26.906  27.479  1.00  0.00     0.031 C 
ATOM     60  C   UNL A   1      44.109  28.982  30.582  1.00  0.00     0.029 A 
ATOM     61  C   UNL A   1      44.334  29.422  29.289  1.00  0.00     0.049 A 
ATOM     62  H   UNL A   1      43.026  30.456  28.005  1.00  0.00     0.167 HD
ATOM     63  C   UNL A   1      46.175  28.448  28.041  1.00  0.00     0.074 A 
ATOM     64  C   UNL A   1      47.578  28.200  27.741  1.00  0.00     0.031 C 
ATOM     65  C   UNL A   1      45.541  29.570  28.490  1.00  0.00     0.031 A 
BRANCH  52  66
ATOM     66  C   UNL A   1      39.639  30.420  30.210  1.00  0.00    -0.014 A 
ATOM     67  C   UNL A   1      38.894  31.505  29.709  1.00  0.00     0.009 A 
ATOM     68  C   UNL A   1      39.266  29.949  31.482  1.00  0.00     0.009 A 
ATOM     69  C   UNL A   1      37.878  32.124  30.448  1.00  0.00     0.001 A 
ATOM     70  C   UNL A   1      38.261  30.577  32.237  1.00  0.00     0.001 A 
ATOM     71  C   UNL A   1      37.568  31.667  31.720  1.00  0.00     0.000 A 
ENDBRANCH  52  66
BRANCH  53  72
ATOM     72  C   UNL A   1      46.134  23.966  26.460  1.00  0.00    -0.014 A 
ATOM     73  C   UNL A   1      46.607  24.450  25.217  1.00  0.00     0.009 A 
ATOM     74  C   UNL A   1      45.740  22.619  26.510  1.00  0.00     0.009 A 
ATOM     75  C   UNL A   1      46.765  23.611  24.105  1.00  0.00     0.001 A 
ATOM     76  C   UNL A   1      45.876  21.781  25.385  1.00  0.00     0.001 A 
ATOM     77  C   UNL A   1      46.408  22.271  24.191  1.00  0.00     0.000 A 
ENDBRANCH  53  72
BRANCH  65  78
ATOM     78  C   UNL A   1      46.072  30.962  28.295  1.00  0.00    -0.014 A 
ATOM     79  C   UNL A   1      45.911  31.683  27.109  1.00  0.00     0.009 A 
ATOM     80  C   UNL A   1      46.607  31.659  29.402  1.00  0.00     0.009 A 
ATOM     81  C   UNL A   1      46.338  33.008  27.005  1.00  0.00     0.001 A 
ATOM     82  C   UNL A   1      46.959  33.003  29.326  1.00  0.00     0.001 A 
ATOM     83  C   UNL A   1      46.848  33.671  28.117  1.00  0.00     0.000 A 
ENDBRANCH  65  78
ENDBRANCH  39  40
ENDBRANCH  32  34
ENDBRANCH  31  32
ENDBRANCH  30  31
ENDBRANCH  29  30
ENDBRANCH  28  29
ENDBRANCH   1  28
TORSDOF 17
ENDMDL
MODEL 2
REMARK VINA RESULT:     -10.0      4.664      9.762
REMARK SMILES CCOc1ccc(C(=O)NC(=S)Nc2cccc(C(=O)OCCOC(=O)c3ccc(-c4c5nc(c(-c6ccccc6)c6ccc([nH]6)c(-c6ccccc6)c6nc(c(-c7ccccc7)c7ccc4[nH]7)C=C6)C=C5)cc3)c2C)cc1Br
REMARK SMILES IDX 19 1 20 2 18 3 14 4 15 5 75 6 16 7 76 8 17 9 13 10 11 12
REMARK SMILES IDX 12 13 10 14 8 15 9 16 7 18 4 19 5 20 78 21 6 22 77 23 79 24
REMARK SMILES IDX 3 25 2 26 1 27 21 28 22 29 23 30 24 31 25 32 26 33 27 34
REMARK SMILES IDX 28 35 74 36 29 37 73 38 30 39 31 40 32 41 67 42 33 43 72 44
REMARK SMILES IDX 66 45 68 46 34 47 71 48 65 49 64 50 35 52 57 53 42 54 56 55
REMARK SMILES IDX 43 56 46 57 55 58 69 59 44 60 45 61 54 63 70 64 47 65 36 66
REMARK SMILES IDX 37 67 41 68 38 69 40 70 39 71 58 72 59 73 63 74 60 75 62 76
REMARK SMILES IDX 61 77 48 78 49 79 53 80 50 81 52 82 51 83
REMARK H PARENT 13 11 10 17 68 51 46 62
REMARK Flexibility Score: inf
ROOT
ATOM      1  C   UNL A   1      39.243  32.126  34.942  1.00  0.00     0.338 C 
ATOM      2  O   UNL A   1      38.691  31.380  35.739  1.00  0.00    -0.246 OA
ENDROOT
BRANCH   1   3
ATOM      3  C   UNL A   1      38.879  31.978  33.306  1.00  0.00     0.065 A 
ATOM      4  C   UNL A   1      36.950  33.495  31.430  1.00  0.00     0.044 A 
ATOM      5  C   UNL A   1      37.948  33.159  29.969  1.00  0.00     0.026 A 
ATOM      6  C   UNL A   1      37.441  33.048  33.071  1.00  0.00    -0.013 A 
ATOM      7  C   UNL A   1      39.378  32.108  30.014  1.00  0.00     0.003 A 
ATOM      8  C   UNL A   1      36.476  33.423  34.158  1.00  0.00     0.047 C 
ATOM      9  C   UNL A   1      39.882  31.417  31.609  1.00  0.00     0.016 A 
BRANCH   4  10
ATOM     10  N   UNL A   1      35.601  32.987  31.227  1.00  0.00    -0.332 N 
ATOM     11  H   UNL A   1      35.214  32.563  32.026  1.00  0.00     0.169 HD
BRANCH  10  12
ATOM     12  C   UNL A   1      34.752  32.981  30.131  1.00  0.00     0.177 C 
ATOM     13  S   UNL A   1      33.950  34.436  29.843  1.00  0.00    -0.040 S 
BRANCH  12  14
ATOM     14  N   UNL A   1      34.497  31.928  29.176  1.00  0.00    -0.299 N 
ATOM     15  C   UNL A   1      34.900  30.730  28.330  1.00  0.00     0.257 C 
ATOM     16  O   UNL A   1      34.086  30.219  27.568  1.00  0.00    -0.269 OA
ATOM     17  H   UNL A   1      33.547  32.053  28.951  1.00  0.00     0.172 HD
BRANCH  15  18
ATOM     18  C   UNL A   1      36.312  30.249  28.349  1.00  0.00     0.041 A 
ATOM     19  C   UNL A   1      39.419  28.397  29.356  1.00  0.00     0.133 A 
ATOM     20  C   UNL A   1      39.232  29.236  27.774  1.00  0.00     0.048 A 
ATOM     21  C   UNL A   1      38.057  28.544  30.540  1.00  0.00     0.060 A 
ATOM     22  C   UNL A   1      37.696  30.089  27.294  1.00  0.00     0.018 A 
ATOM     23  C   UNL A   1      36.485  29.629  29.897  1.00  0.00     0.033 A 
ATOM     24  Br  UNL A   1      38.634  27.748  32.275  1.00  0.00    -0.047 Br
BRANCH  19  25
ATOM     25  O   UNL A   1      40.518  27.659  29.683  1.00  0.00    -0.493 OA
BRANCH  25  26
ATOM     26  C   UNL A   1      40.701  26.542  28.801  1.00  0.00     0.226 C 
ATOM     27  C   UNL A   1      39.497  25.636  28.534  1.00  0.00     0.049 C 
ENDBRANCH  25  26
ENDBRANCH  19  25
ENDBRANCH  15  18
ENDBRANCH  12  14
ENDBRANCH  10  12
ENDBRANCH   4  10
ENDBRANCH   1   3
BRANCH   1  28
ATOM     28  O   UNL A   1      40.015  33.138  35.418  1.00  0.00    -0.458 OA
BRANCH  28  29
ATOM     29  C   UNL A   1      40.347  33.332  36.837  1.00  0.00     0.275 C 
BRANCH  29  30
ATOM     30  C   UNL A   1      41.463  32.661  37.719  1.00  0.00     0.275 C 
BRANCH  30  31
ATOM     31  O   UNL A   1      41.957  31.291  37.760  1.00  0.00    -0.458 OA
BRANCH  31  32
ATOM     32  C   UNL A   1      43.176  30.795  37.479  1.00  0.00     0.338 C 
ATOM     33  O   UNL A   1      44.074  30.650  38.291  1.00  0.00    -0.246 OA
BRANCH  32  34
ATOM     34  C   UNL A   1      43.355  30.545  36.064  1.00  0.00     0.060 A 
ATOM     35  C   UNL A   1      42.316  29.935  35.346  1.00  0.00     0.016 A 
ATOM     36  C   UNL A   1      44.482  31.099  35.465  1.00  0.00     0.016 A 
ATOM     37  C   UNL A   1      42.331  29.980  33.971  1.00  0.00     0.010 A 
ATOM     38  C   UNL A   1      44.456  31.255  34.113  1.00  0.00     0.010 A 
ATOM     39  C   UNL A   1      43.428  30.616  33.394  1.00  0.00    -0.014 A 
BRANCH  39  40
ATOM     40  C   UNL A   1      43.965  30.147  32.141  1.00  0.00     0.031 A 
ATOM     41  C   UNL A   1      43.545  30.875  30.937  1.00  0.00     0.074 A 
ATOM     42  C   UNL A   1      44.949  29.259  32.445  1.00  0.00     0.049 A 
ATOM     43  N   UNL A   1      43.259  30.342  29.801  1.00  0.00    -0.248 NA
ATOM     44  C   UNL A   1      43.256  32.324  30.953  1.00  0.00     0.031 C 
ATOM     45  C   UNL A   1      46.124  28.775  31.758  1.00  0.00     0.029 A 
ATOM     46  N   UNL A   1      45.061  28.559  33.652  1.00  0.00    -0.354 N 
ATOM     47  C   UNL A   1      43.348  31.392  28.907  1.00  0.00     0.074 A 
ATOM     48  C   UNL A   1      43.024  32.578  29.659  1.00  0.00     0.031 C 
ATOM     49  C   UNL A   1      46.557  27.650  32.381  1.00  0.00     0.029 A 
ATOM     50  C   UNL A   1      45.622  27.325  33.461  1.00  0.00     0.049 A 
ATOM     51  H   UNL A   1      44.774  28.909  34.526  1.00  0.00     0.167 HD
ATOM     52  C   UNL A   1      44.166  31.262  27.821  1.00  0.00     0.031 A 
ATOM     53  C   UNL A   1      44.784  26.244  33.523  1.00  0.00     0.031 A 
ATOM     54  C   UNL A   1      44.900  29.997  27.914  1.00  0.00     0.049 A 
ATOM     55  C   UNL A   1      44.507  25.806  32.104  1.00  0.00     0.074 A 
ATOM     56  C   UNL A   1      46.196  29.725  28.322  1.00  0.00     0.029 A 
ATOM     57  N   UNL A   1      44.202  28.797  27.996  1.00  0.00    -0.354 N 
ATOM     58  N   UNL A   1      44.338  26.625  31.099  1.00  0.00    -0.248 NA
ATOM     59  C   UNL A   1      44.548  24.404  31.712  1.00  0.00     0.031 C 
ATOM     60  C   UNL A   1      46.262  28.349  28.671  1.00  0.00     0.029 A 
ATOM     61  C   UNL A   1      44.994  27.808  28.547  1.00  0.00     0.049 A 
ATOM     62  H   UNL A   1      43.271  28.671  27.702  1.00  0.00     0.167 HD
ATOM     63  C   UNL A   1      44.411  25.905  29.938  1.00  0.00     0.074 A 
ATOM     64  C   UNL A   1      44.492  24.518  30.375  1.00  0.00     0.031 C 
ATOM     65  C   UNL A   1      44.478  26.455  28.690  1.00  0.00     0.031 A 
BRANCH  52  66
ATOM     66  C   UNL A   1      44.612  32.407  26.940  1.00  0.00    -0.014 A 
ATOM     67  C   UNL A   1      45.804  33.093  27.244  1.00  0.00     0.009 A 
ATOM     68  C   UNL A   1      43.936  32.826  25.780  1.00  0.00     0.009 A 
ATOM     69  C   UNL A   1      46.268  34.168  26.477  1.00  0.00     0.001 A 
ATOM     70  C   UNL A   1      44.387  33.917  25.016  1.00  0.00     0.001 A 
ATOM     71  C   UNL A   1      45.552  34.589  25.366  1.00  0.00     0.000 A 
ENDBRANCH  52  66
BRANCH  53  72
ATOM     72  C   UNL A   1      43.759  26.244  34.633  1.00  0.00    -0.014 A 
ATOM     73  C   UNL A   1      44.193  26.464  35.962  1.00  0.00     0.009 A 
ATOM     74  C   UNL A   1      42.373  26.223  34.412  1.00  0.00     0.009 A 
ATOM     75  C   UNL A   1      43.292  26.741  37.001  1.00  0.00     0.001 A 
ATOM     76  C   UNL A   1      41.466  26.478  35.461  1.00  0.00     0.001 A 
ATOM     77  C   UNL A   1      41.927  26.757  36.749  1.00  0.00     0.000 A 
ENDBRANCH  53  72
BRANCH  65  78
ATOM     78  C   UNL A   1      44.143  25.707  27.431  1.00  0.00    -0.014 A 
ATOM     79  C   UNL A   1      44.815  25.905  26.222  1.00  0.00     0.009 A 
ATOM     80  C   UNL A   1      43.232  24.628  27.489  1.00  0.00     0.009 A 
ATOM     81  C   UNL A   1      44.533  25.121  25.102  1.00  0.00     0.001 A 
ATOM     82  C   UNL A   1      43.008  23.793  26.399  1.00  0.00     0.001 A 
ATOM     83  C   UNL A   1      43.641  24.057  25.195  1.00  0.00     0.000 A 
ENDBRANCH  65  78
ENDBRANCH  39  40
ENDBRANCH  32  34
ENDBRANCH  31  32
ENDBRANCH  30  31
ENDBRANCH  29  30
ENDBRANCH  28  29
ENDBRANCH   1  28
TORSDOF 17
ENDMDL
MODEL 3
REMARK VINA RESULT:      -9.9      7.884     14.923
REMARK SMILES CCOc1ccc(C(=O)NC(=S)Nc2cccc(C(=O)OCCOC(=O)c3ccc(-c4c5nc(c(-c6ccccc6)c6ccc([nH]6)c(-c6ccccc6)c6nc(c(-c7ccccc7)c7ccc4[nH]7)C=C6)C=C5)cc3)c2C)cc1Br
REMARK SMILES IDX 19 1 20 2 18 3 14 4 15 5 75 6 16 7 76 8 17 9 13 10 11 12
REMARK SMILES IDX 12 13 10 14 8 15 9 16 7 18 4 19 5 20 78 21 6 22 77 23 79 24
REMARK SMILES IDX 3 25 2 26 1 27 21 28 22 29 23 30 24 31 25 32 26 33 27 34
REMARK SMILES IDX 28 35 74 36 29 37 73 38 30 39 31 40 32 41 67 42 33 43 72 44
REMARK SMILES IDX 66 45 68 46 34 47 71 48 65 49 64 50 35 52 57 53 42 54 56 55
REMARK SMILES IDX 43 56 46 57 55 58 69 59 44 60 45 61 54 63 70 64 47 65 36 66
REMARK SMILES IDX 37 67 41 68 38 69 40 70 39 71 58 72 59 73 63 74 60 75 62 76
REMARK SMILES IDX 61 77 48 78 49 79 53 80 50 81 52 82 51 83
REMARK H PARENT 13 11 10 17 68 51 46 62
REMARK Flexibility Score: inf
ROOT
ATOM      1  C   UNL A   1      45.199  27.912  37.282  1.00  0.00     0.338 C 
ATOM      2  O   UNL A   1      44.569  28.154  38.302  1.00  0.00    -0.246 OA
ENDROOT
BRANCH   1   3
ATOM      3  C   UNL A   1      44.651  26.694  36.259  1.00  0.00     0.065 A 
ATOM      4  C   UNL A   1      45.035  23.630  36.235  1.00  0.00     0.044 A 
ATOM      5  C   UNL A   1      43.473  23.340  35.387  1.00  0.00     0.026 A 
ATOM      6  C   UNL A   1      45.567  25.226  36.782  1.00  0.00    -0.013 A 
ATOM      7  C   UNL A   1      42.459  24.665  34.782  1.00  0.00     0.003 A 
ATOM      8  C   UNL A   1      46.897  25.260  37.478  1.00  0.00     0.047 C 
ATOM      9  C   UNL A   1      42.991  26.365  35.102  1.00  0.00     0.016 A 
BRANCH   4  10
ATOM     10  N   UNL A   1      46.124  23.050  35.461  1.00  0.00    -0.332 N 
ATOM     11  H   UNL A   1      46.464  23.643  34.752  1.00  0.00     0.169 HD
BRANCH  10  12
ATOM     12  C   UNL A   1      46.778  21.829  35.524  1.00  0.00     0.177 C 
ATOM     13  S   UNL A   1      48.412  21.916  35.932  1.00  0.00    -0.040 S 
BRANCH  12  14
ATOM     14  N   UNL A   1      46.251  20.498  35.339  1.00  0.00    -0.299 N 
ATOM     15  C   UNL A   1      45.765  19.145  35.836  1.00  0.00     0.257 C 
ATOM     16  O   UNL A   1      45.422  18.286  35.030  1.00  0.00    -0.269 OA
ATOM     17  H   UNL A   1      46.150  20.428  34.362  1.00  0.00     0.172 HD
BRANCH  15  18
ATOM     18  C   UNL A   1      45.810  18.829  37.293  1.00  0.00     0.041 A 
ATOM     19  C   UNL A   1      45.304  17.045  40.558  1.00  0.00     0.133 A 
ATOM     20  C   UNL A   1      46.481  18.389  40.333  1.00  0.00     0.048 A 
ATOM     21  C   UNL A   1      44.260  16.609  39.143  1.00  0.00     0.060 A 
ATOM     22  C   UNL A   1      46.737  19.206  38.726  1.00  0.00     0.018 A 
ATOM     23  C   UNL A   1      44.587  17.699  37.479  1.00  0.00     0.033 A 
ATOM     24  Br  UNL A   1      42.895  15.285  39.743  1.00  0.00    -0.047 Br
BRANCH  19  25
ATOM     25  O   UNL A   1      45.182  16.347  41.723  1.00  0.00    -0.493 OA
BRANCH  25  26
ATOM     26  C   UNL A   1      44.288  16.987  42.645  1.00  0.00     0.226 C 
ATOM     27  C   UNL A   1      44.694  17.038  44.119  1.00  0.00     0.049 C 
ENDBRANCH  25  26
ENDBRANCH  19  25
ENDBRANCH  15  18
ENDBRANCH  12  14
ENDBRANCH  10  12
ENDBRANCH   4  10
ENDBRANCH   1   3
BRANCH   1  28
ATOM     28  O   UNL A   1      46.231  28.728  36.940  1.00  0.00    -0.458 OA
BRANCH  28  29
ATOM     29  C   UNL A   1      46.702  29.857  37.755  1.00  0.00     0.275 C 
BRANCH  29  30
ATOM     30  C   UNL A   1      46.318  31.381  37.696  1.00  0.00     0.275 C 
BRANCH  30  31
ATOM     31  O   UNL A   1      45.044  32.038  37.441  1.00  0.00    -0.458 OA
BRANCH  31  32
ATOM     32  C   UNL A   1      43.788  31.656  37.742  1.00  0.00     0.338 C 
ATOM     33  O   UNL A   1      43.407  31.327  38.852  1.00  0.00    -0.246 OA
BRANCH  32  34
ATOM     34  C   UNL A   1      42.944  31.569  36.569  1.00  0.00     0.060 A 
ATOM     35  C   UNL A   1      42.538  32.752  35.936  1.00  0.00     0.016 A 
ATOM     36  C   UNL A   1      42.743  30.301  36.032  1.00  0.00     0.016 A 
ATOM     37  C   UNL A   1      42.018  32.691  34.664  1.00  0.00     0.010 A 
ATOM     38  C   UNL A   1      42.340  30.231  34.734  1.00  0.00     0.010 A 
ATOM     39  C   UNL A   1      41.904  31.417  34.113  1.00  0.00    -0.014 A 
BRANCH  39  40
ATOM     40  C   UNL A   1      40.807  31.100  33.233  1.00  0.00     0.031 A 
ATOM     41  C   UNL A   1      41.146  30.877  31.821  1.00  0.00     0.074 A 
ATOM     42  C   UNL A   1      39.730  30.847  34.024  1.00  0.00     0.049 A 
ATOM     43  N   UNL A   1      40.453  31.278  30.813  1.00  0.00    -0.248 NA
ATOM     44  C   UNL A   1      42.432  30.282  31.404  1.00  0.00     0.031 C 
ATOM     45  C   UNL A   1      38.510  30.090  33.864  1.00  0.00     0.029 A 
ATOM     46  N   UNL A   1      39.569  31.304  35.338  1.00  0.00    -0.354 N 
ATOM     47  C   UNL A   1      40.904  30.496  29.766  1.00  0.00     0.074 A 
ATOM     48  C   UNL A   1      42.272  30.169  30.080  1.00  0.00     0.031 C 
ATOM     49  C   UNL A   1      37.641  30.460  34.838  1.00  0.00     0.029 A 
ATOM     50  C   UNL A   1      38.251  31.534  35.625  1.00  0.00     0.049 A 
ATOM     51  H   UNL A   1      40.309  31.441  35.973  1.00  0.00     0.167 HD
ATOM     52  C   UNL A   1      39.993  29.777  29.045  1.00  0.00     0.031 A 
ATOM     53  C   UNL A   1      37.845  32.840  35.685  1.00  0.00     0.031 A 
ATOM     54  C   UNL A   1      38.668  29.918  29.656  1.00  0.00     0.049 A 
ATOM     55  C   UNL A   1      37.119  33.146  34.395  1.00  0.00     0.074 A 
ATOM     56  C   UNL A   1      37.957  29.074  30.492  1.00  0.00     0.029 A 
ATOM     57  N   UNL A   1      38.107  31.182  29.803  1.00  0.00    -0.354 N 
ATOM     58  N   UNL A   1      37.476  32.691  33.222  1.00  0.00    -0.248 NA
ATOM     59  C   UNL A   1      35.855  33.869  34.379  1.00  0.00     0.031 C 
ATOM     60  C   UNL A   1      36.973  29.851  31.160  1.00  0.00     0.029 A 
ATOM     61  C   UNL A   1      37.137  31.174  30.788  1.00  0.00     0.049 A 
ATOM     62  H   UNL A   1      38.366  31.973  29.278  1.00  0.00     0.167 HD
ATOM     63  C   UNL A   1      36.448  32.906  32.344  1.00  0.00     0.074 A 
ATOM     64  C   UNL A   1      35.481  33.688  33.102  1.00  0.00     0.031 C 
ATOM     65  C   UNL A   1      36.388  32.385  31.084  1.00  0.00     0.031 A 
BRANCH  52  66
ATOM     66  C   UNL A   1      40.344  28.653  28.097  1.00  0.00    -0.014 A 
ATOM     67  C   UNL A   1      41.038  28.941  26.905  1.00  0.00     0.009 A 
ATOM     68  C   UNL A   1      40.065  27.295  28.336  1.00  0.00     0.009 A 
ATOM     69  C   UNL A   1      41.384  27.950  25.979  1.00  0.00     0.001 A 
ATOM     70  C   UNL A   1      40.393  26.297  27.402  1.00  0.00     0.001 A 
ATOM     71  C   UNL A   1      41.051  26.626  26.222  1.00  0.00     0.000 A 
ENDBRANCH  52  66
BRANCH  53  72
ATOM     72  C   UNL A   1      38.766  33.804  36.395  1.00  0.00    -0.014 A 
ATOM     73  C   UNL A   1      39.331  34.875  35.661  1.00  0.00     0.009 A 
ATOM     74  C   UNL A   1      38.956  33.818  37.786  1.00  0.00     0.009 A 
ATOM     75  C   UNL A   1      39.973  35.951  36.292  1.00  0.00     0.001 A 
ATOM     76  C   UNL A   1      39.622  34.887  38.418  1.00  0.00     0.001 A 
ATOM     77  C   UNL A   1      40.111  35.962  37.673  1.00  0.00     0.000 A 
ENDBRANCH  53  72
BRANCH  65  78
ATOM     78  C   UNL A   1      35.506  32.934  29.998  1.00  0.00    -0.014 A 
ATOM     79  C   UNL A   1      35.554  34.263  29.571  1.00  0.00     0.009 A 
ATOM     80  C   UNL A   1      34.710  32.045  29.239  1.00  0.00     0.009 A 
ATOM     81  C   UNL A   1      34.784  34.704  28.494  1.00  0.00     0.001 A 
ATOM     82  C   UNL A   1      34.004  32.464  28.116  1.00  0.00     0.001 A 
ATOM     83  C   UNL A   1      34.021  33.802  27.759  1.00  0.00     0.000 A 
ENDBRANCH  65  78
ENDBRANCH  39  40
ENDBRANCH  32  34
ENDBRANCH  31  32
ENDBRANCH  30  31
ENDBRANCH  29  30
ENDBRANCH  28  29
ENDBRANCH   1  28
TORSDOF 17
ENDMDL
