MODEL 1
REMARK VINA RESULT:     -11.3      0.000      0.000
REMARK SMILES CO[C@@H]1C[NH2+][C@@H](O[C@@H]2C[C@@H](C(=O)OCCOC(=O)c3ccc(-c4c5nc(c(-c6ccccc6)c6ccc([nH]6)c(-c6ccccc6)c6nc(c(-c7ccccc7)c7ccc4[nH]7)C=C6)C=C5)cc3)N(C(=O)OC(C)(C)C)C2)c2cc(Cl)ccc21
REMARK SMILES IDX 14 1 13 2 11 3 12 4 10 5 8 6 9 7 75 8 67 9 7 10 6 11 3 12
REMARK SMILES IDX 4 13 82 14 5 15 76 16 81 17 77 20 80 21 78 22 79 23 2 24
REMARK SMILES IDX 1 25 68 26 69 27 70 28 71 29 72 30 73 31 74 32 15 33 16 34
REMARK SMILES IDX 17 35 18 36 19 37 20 38 66 39 21 40 65 41 22 42 23 43 24 44
REMARK SMILES IDX 59 45 25 46 64 47 58 48 60 49 26 50 63 51 57 52 56 53 27 55
REMARK SMILES IDX 49 56 34 57 48 58 35 59 38 60 47 61 61 62 36 63 37 64 46 66
REMARK SMILES IDX 62 67 39 68 28 69 29 70 33 71 30 72 32 73 31 74 50 75 51 76
REMARK SMILES IDX 55 77 52 78 54 79 53 80 40 81 41 82 45 83 42 84 44 85 43 86
REMARK H PARENT 5 18 5 19 60 54 38 65
REMARK Flexibility Score: inf
ROOT
ATOM      1  C   UNL A   1      36.447  21.729  25.520  1.00  0.00     0.274 C 
ENDROOT
BRANCH   1   2
ATOM      2  O   UNL A   1      35.562  22.328  24.530  1.00  0.00    -0.461 OA
BRANCH   2   3
ATOM      3  C   UNL A   1      34.763  23.296  25.035  1.00  0.00     0.329 C 
ATOM      4  O   UNL A   1      35.211  24.366  25.457  1.00  0.00    -0.250 OA
BRANCH   3   5
ATOM      5  C   UNL A   1      33.262  22.995  25.211  1.00  0.00     0.201 C 
ATOM      6  C   UNL A   1      31.430  23.564  26.721  1.00  0.00     0.147 C 
ATOM      7  C   UNL A   1      32.916  23.769  26.505  1.00  0.00     0.071 C 
ATOM      8  C   UNL A   1      31.154  22.212  26.057  1.00  0.00     0.156 C 
ATOM      9  N   UNL A   1      32.383  21.818  25.352  1.00  0.00    -0.292 N 
BRANCH   6  10
ATOM     10  O   UNL A   1      30.529  24.634  26.479  1.00  0.00    -0.320 OA
BRANCH  10  11
ATOM     11  C   UNL A   1      30.498  25.562  25.401  1.00  0.00     0.354 C 
ATOM     12  C   UNL A   1      31.955  25.501  22.817  1.00  0.00     0.203 C 
ATOM     13  C   UNL A   1      30.870  24.484  23.258  1.00  0.00     0.300 C 
ATOM     14  C   UNL A   1      32.406  26.415  23.944  1.00  0.00    -0.002 A 
ATOM     15  N   UNL A   1      29.895  24.998  24.205  1.00  0.00    -0.315 N 
ATOM     16  C   UNL A   1      31.695  26.456  25.160  1.00  0.00     0.046 A 
ATOM     17  C   UNL A   1      33.537  27.236  23.777  1.00  0.00     0.009 A 
ATOM     18  H   UNL A   1      29.280  24.232  24.484  1.00  0.00     0.349 HD
ATOM     19  H   UNL A   1      29.388  25.748  23.739  1.00  0.00     0.349 HD
ATOM     20  C   UNL A   1      32.095  27.370  26.154  1.00  0.00     0.033 A 
ATOM     21  C   UNL A   1      33.957  28.092  24.798  1.00  0.00     0.021 A 
ATOM     22  C   UNL A   1      33.228  28.164  25.978  1.00  0.00     0.041 A 
ATOM     23  Cl  UNL A   1      33.738  29.219  27.240  1.00  0.00    -0.084 Cl
BRANCH  12  24
ATOM     24  O   UNL A   1      31.609  26.333  21.707  1.00  0.00    -0.371 OA
ATOM     25  C   UNL A   1      32.187  25.951  20.469  1.00  0.00     0.196 C 
ENDBRANCH  12  24
ENDBRANCH  10  11
ENDBRANCH   6  10
BRANCH   9  26
ATOM     26  C   UNL A   1      32.248  20.764  24.452  1.00  0.00     0.411 C 
ATOM     27  O   UNL A   1      32.190  20.955  23.239  1.00  0.00    -0.224 OA
BRANCH  26  28
ATOM     28  O   UNL A   1      32.125  19.540  25.016  1.00  0.00    -0.444 OA
BRANCH  28  29
ATOM     29  C   UNL A   1      32.870  18.389  24.493  1.00  0.00     0.106 C 
ATOM     30  C   UNL A   1      32.631  17.140  25.347  1.00  0.00     0.056 C 
ATOM     31  C   UNL A   1      32.534  18.148  23.015  1.00  0.00     0.056 C 
ATOM     32  C   UNL A   1      34.382  18.682  24.603  1.00  0.00     0.056 C 
ENDBRANCH  28  29
ENDBRANCH  26  28
ENDBRANCH   9  26
ENDBRANCH   3   5
ENDBRANCH   2   3
ENDBRANCH   1   2
BRANCH   1  33
ATOM     33  C   UNL A   1      37.929  22.168  25.414  1.00  0.00     0.275 C 
BRANCH  33  34
ATOM     34  O   UNL A   1      38.254  23.473  25.970  1.00  0.00    -0.458 OA
BRANCH  34  35
ATOM     35  C   UNL A   1      39.519  23.507  26.416  1.00  0.00     0.338 C 
ATOM     36  O   UNL A   1      40.361  22.676  26.130  1.00  0.00    -0.246 OA
BRANCH  35  37
ATOM     37  C   UNL A   1      39.983  24.596  27.270  1.00  0.00     0.060 A 
ATOM     38  C   UNL A   1      40.678  25.683  26.727  1.00  0.00     0.016 A 
ATOM     39  C   UNL A   1      39.265  24.747  28.456  1.00  0.00     0.016 A 
ATOM     40  C   UNL A   1      40.679  26.913  27.400  1.00  0.00     0.010 A 
ATOM     41  C   UNL A   1      39.223  25.984  29.093  1.00  0.00     0.010 A 
ATOM     42  C   UNL A   1      39.961  27.066  28.595  1.00  0.00    -0.014 A 
BRANCH  42  43
ATOM     43  C   UNL A   1      40.202  28.218  29.498  1.00  0.00     0.031 A 
ATOM     44  C   UNL A   1      39.230  29.361  29.382  1.00  0.00     0.074 A 
ATOM     45  C   UNL A   1      41.231  28.289  30.364  1.00  0.00     0.049 A 
ATOM     46  N   UNL A   1      39.141  30.455  30.090  1.00  0.00    -0.248 NA
ATOM     47  C   UNL A   1      38.238  29.268  28.293  1.00  0.00     0.031 C 
ATOM     48  C   UNL A   1      42.284  27.290  30.525  1.00  0.00     0.029 A 
ATOM     49  N   UNL A   1      41.550  29.260  31.286  1.00  0.00    -0.354 N 
ATOM     50  C   UNL A   1      38.067  31.148  29.548  1.00  0.00     0.074 A 
ATOM     51  C   UNL A   1      37.631  30.435  28.374  1.00  0.00     0.031 C 
ATOM     52  C   UNL A   1      43.110  27.679  31.514  1.00  0.00     0.029 A 
ATOM     53  C   UNL A   1      42.646  28.955  32.060  1.00  0.00     0.049 A 
ATOM     54  H   UNL A   1      41.041  30.097  31.382  1.00  0.00     0.167 HD
ATOM     55  C   UNL A   1      37.434  32.240  30.025  1.00  0.00     0.031 A 
ATOM     56  C   UNL A   1      43.183  29.613  33.109  1.00  0.00     0.031 A 
ATOM     57  C   UNL A   1      37.879  32.963  31.175  1.00  0.00     0.049 A 
ATOM     58  C   UNL A   1      42.519  30.880  33.597  1.00  0.00     0.074 A 
ATOM     59  C   UNL A   1      37.327  34.087  31.751  1.00  0.00     0.029 A 
ATOM     60  N   UNL A   1      39.003  32.627  31.916  1.00  0.00    -0.354 N 
ATOM     61  N   UNL A   1      41.435  31.468  33.146  1.00  0.00    -0.248 NA
ATOM     62  C   UNL A   1      43.133  31.564  34.746  1.00  0.00     0.031 C 
ATOM     63  C   UNL A   1      38.152  34.469  32.811  1.00  0.00     0.029 A 
ATOM     64  C   UNL A   1      39.179  33.541  32.934  1.00  0.00     0.049 A 
ATOM     65  H   UNL A   1      39.586  31.854  31.742  1.00  0.00     0.167 HD
ATOM     66  C   UNL A   1      41.226  32.573  33.965  1.00  0.00     0.074 A 
ATOM     67  C   UNL A   1      42.288  32.567  34.950  1.00  0.00     0.031 C 
ATOM     68  C   UNL A   1      40.245  33.507  33.906  1.00  0.00     0.031 A 
BRANCH  55  69
ATOM     69  C   UNL A   1      36.192  32.667  29.298  1.00  0.00    -0.014 A 
ATOM     70  C   UNL A   1      34.934  32.213  29.711  1.00  0.00     0.009 A 
ATOM     71  C   UNL A   1      36.271  33.575  28.224  1.00  0.00     0.009 A 
ATOM     72  C   UNL A   1      33.777  32.675  29.080  1.00  0.00     0.001 A 
ATOM     73  C   UNL A   1      35.112  34.065  27.623  1.00  0.00     0.001 A 
ATOM     74  C   UNL A   1      33.866  33.611  28.050  1.00  0.00     0.000 A 
ENDBRANCH  55  69
BRANCH  56  75
ATOM     75  C   UNL A   1      44.362  29.038  33.820  1.00  0.00    -0.014 A 
ATOM     76  C   UNL A   1      45.673  29.345  33.417  1.00  0.00     0.009 A 
ATOM     77  C   UNL A   1      44.183  28.132  34.877  1.00  0.00     0.009 A 
ATOM     78  C   UNL A   1      46.771  28.738  34.037  1.00  0.00     0.001 A 
ATOM     79  C   UNL A   1      45.282  27.545  35.511  1.00  0.00     0.001 A 
ATOM     80  C   UNL A   1      46.575  27.839  35.084  1.00  0.00     0.000 A 
ENDBRANCH  56  75
BRANCH  68  81
ATOM     81  C   UNL A   1      40.245  34.621  34.914  1.00  0.00    -0.014 A 
ATOM     82  C   UNL A   1      41.159  35.680  34.776  1.00  0.00     0.009 A 
ATOM     83  C   UNL A   1      39.495  34.516  36.094  1.00  0.00     0.009 A 
ATOM     84  C   UNL A   1      41.355  36.585  35.820  1.00  0.00     0.001 A 
ATOM     85  C   UNL A   1      39.673  35.441  37.124  1.00  0.00     0.001 A 
ATOM     86  C   UNL A   1      40.615  36.462  36.994  1.00  0.00     0.000 A 
ENDBRANCH  68  81
ENDBRANCH  42  43
ENDBRANCH  35  37
ENDBRANCH  34  35
ENDBRANCH  33  34
ENDBRANCH   1  33
TORSDOF 17
ENDMDL
MODEL 2
REMARK VINA RESULT:     -11.2      3.572      8.399
REMARK SMILES CO[C@@H]1C[NH2+][C@@H](O[C@@H]2C[C@@H](C(=O)OCCOC(=O)c3ccc(-c4c5nc(c(-c6ccccc6)c6ccc([nH]6)c(-c6ccccc6)c6nc(c(-c7ccccc7)c7ccc4[nH]7)C=C6)C=C5)cc3)N(C(=O)OC(C)(C)C)C2)c2cc(Cl)ccc21
REMARK SMILES IDX 14 1 13 2 11 3 12 4 10 5 8 6 9 7 75 8 67 9 7 10 6 11 3 12
REMARK SMILES IDX 4 13 82 14 5 15 76 16 81 17 77 20 80 21 78 22 79 23 2 24
REMARK SMILES IDX 1 25 68 26 69 27 70 28 71 29 72 30 73 31 74 32 15 33 16 34
REMARK SMILES IDX 17 35 18 36 19 37 20 38 66 39 21 40 65 41 22 42 23 43 24 44
REMARK SMILES IDX 59 45 25 46 64 47 58 48 60 49 26 50 63 51 57 52 56 53 27 55
REMARK SMILES IDX 49 56 34 57 48 58 35 59 38 60 47 61 61 62 36 63 37 64 46 66
REMARK SMILES IDX 62 67 39 68 28 69 29 70 33 71 30 72 32 73 31 74 50 75 51 76
REMARK SMILES IDX 55 77 52 78 54 79 53 80 40 81 41 82 45 83 42 84 44 85 43 86
REMARK H PARENT 5 18 5 19 60 54 38 65
REMARK Flexibility Score: inf
ROOT
ATOM      1  C   UNL A   1      32.218  28.516  26.372  1.00  0.00     0.274 C 
ENDROOT
BRANCH   1   2
ATOM      2  O   UNL A   1      33.088  27.530  25.745  1.00  0.00    -0.461 OA
BRANCH   2   3
ATOM      3  C   UNL A   1      33.313  27.766  24.432  1.00  0.00     0.329 C 
ATOM      4  O   UNL A   1      34.044  28.681  24.043  1.00  0.00    -0.250 OA
BRANCH   3   5
ATOM      5  C   UNL A   1      32.522  26.950  23.391  1.00  0.00     0.201 C 
ATOM      6  C   UNL A   1      32.933  25.645  21.369  1.00  0.00     0.147 C 
ATOM      7  C   UNL A   1      33.628  26.505  22.406  1.00  0.00     0.071 C 
ATOM      8  C   UNL A   1      31.502  26.189  21.354  1.00  0.00     0.156 C 
ATOM      9  N   UNL A   1      31.392  27.148  22.463  1.00  0.00    -0.292 N 
BRANCH   6  10
ATOM     10  O   UNL A   1      33.122  24.238  21.380  1.00  0.00    -0.320 OA
BRANCH  10  11
ATOM     11  C   UNL A   1      32.887  23.302  22.425  1.00  0.00     0.354 C 
ATOM     12  C   UNL A   1      31.454  23.669  24.997  1.00  0.00     0.203 C 
ATOM     13  C   UNL A   1      30.804  23.741  23.590  1.00  0.00     0.300 C 
ATOM     14  C   UNL A   1      32.972  23.642  24.949  1.00  0.00    -0.002 A 
ATOM     15  N   UNL A   1      31.480  22.970  22.561  1.00  0.00    -0.315 N 
ATOM     16  C   UNL A   1      33.646  23.444  23.728  1.00  0.00     0.046 A 
ATOM     17  C   UNL A   1      33.719  23.807  26.131  1.00  0.00     0.009 A 
ATOM     18  H   UNL A   1      31.018  23.147  21.668  1.00  0.00     0.349 HD
ATOM     19  H   UNL A   1      31.426  21.989  22.834  1.00  0.00     0.349 HD
ATOM     20  C   UNL A   1      35.052  23.347  23.731  1.00  0.00     0.033 A 
ATOM     21  C   UNL A   1      35.115  23.771  26.107  1.00  0.00     0.021 A 
ATOM     22  C   UNL A   1      35.775  23.529  24.909  1.00  0.00     0.041 A 
ATOM     23  Cl  UNL A   1      37.496  23.480  24.871  1.00  0.00    -0.084 Cl
BRANCH  12  24
ATOM     24  O   UNL A   1      31.034  22.577  25.818  1.00  0.00    -0.371 OA
ATOM     25  C   UNL A   1      30.183  22.931  26.897  1.00  0.00     0.196 C 
ENDBRANCH  12  24
ENDBRANCH  10  11
ENDBRANCH   6  10
BRANCH   9  26
ATOM     26  C   UNL A   1      30.096  27.535  22.796  1.00  0.00     0.411 C 
ATOM     27  O   UNL A   1      29.502  27.046  23.755  1.00  0.00    -0.224 OA
BRANCH  26  28
ATOM     28  O   UNL A   1      29.532  28.433  21.955  1.00  0.00    -0.444 OA
BRANCH  28  29
ATOM     29  C   UNL A   1      28.874  29.640  22.470  1.00  0.00     0.106 C 
ATOM     30  C   UNL A   1      28.803  30.732  21.397  1.00  0.00     0.056 C 
ATOM     31  C   UNL A   1      27.491  29.305  23.042  1.00  0.00     0.056 C 
ATOM     32  C   UNL A   1      29.736  30.232  23.606  1.00  0.00     0.056 C 
ENDBRANCH  28  29
ENDBRANCH  26  28
ENDBRANCH   9  26
ENDBRANCH   3   5
ENDBRANCH   2   3
ENDBRANCH   1   2
BRANCH   1  33
ATOM     33  C   UNL A   1      32.959  29.629  27.155  1.00  0.00     0.275 C 
BRANCH  33  34
ATOM     34  O   UNL A   1      34.413  29.578  27.122  1.00  0.00    -0.458 OA
BRANCH  34  35
ATOM     35  C   UNL A   1      34.947  30.429  28.013  1.00  0.00     0.338 C 
ATOM     36  O   UNL A   1      34.342  31.363  28.504  1.00  0.00    -0.246 OA
BRANCH  35  37
ATOM     37  C   UNL A   1      36.316  30.254  28.486  1.00  0.00     0.060 A 
ATOM     38  C   UNL A   1      36.578  29.581  29.684  1.00  0.00     0.016 A 
ATOM     39  C   UNL A   1      37.285  30.300  27.483  1.00  0.00     0.016 A 
ATOM     40  C   UNL A   1      37.830  28.983  29.887  1.00  0.00     0.010 A 
ATOM     41  C   UNL A   1      38.507  29.659  27.665  1.00  0.00     0.010 A 
ATOM     42  C   UNL A   1      38.807  29.031  28.881  1.00  0.00    -0.014 A 
BRANCH  42  43
ATOM     43  C   UNL A   1      40.228  28.717  29.170  1.00  0.00     0.031 A 
ATOM     44  C   UNL A   1      40.672  27.317  28.849  1.00  0.00     0.074 A 
ATOM     45  C   UNL A   1      41.094  29.596  29.711  1.00  0.00     0.049 A 
ATOM     46  N   UNL A   1      41.862  26.783  28.917  1.00  0.00    -0.248 NA
ATOM     47  C   UNL A   1      39.618  26.378  28.418  1.00  0.00     0.031 C 
ATOM     48  C   UNL A   1      40.778  30.957  30.137  1.00  0.00     0.029 A 
ATOM     49  N   UNL A   1      42.436  29.464  29.988  1.00  0.00    -0.354 N 
ATOM     50  C   UNL A   1      41.691  25.468  28.506  1.00  0.00     0.074 A 
ATOM     51  C   UNL A   1      40.279  25.242  28.332  1.00  0.00     0.031 C 
ATOM     52  C   UNL A   1      41.902  31.548  30.584  1.00  0.00     0.029 A 
ATOM     53  C   UNL A   1      43.020  30.610  30.475  1.00  0.00     0.049 A 
ATOM     54  H   UNL A   1      42.933  28.625  29.849  1.00  0.00     0.167 HD
ATOM     55  C   UNL A   1      42.628  24.542  28.213  1.00  0.00     0.031 A 
ATOM     56  C   UNL A   1      44.312  30.877  30.762  1.00  0.00     0.031 A 
ATOM     57  C   UNL A   1      44.028  24.755  28.407  1.00  0.00     0.049 A 
ATOM     58  C   UNL A   1      45.354  29.812  30.506  1.00  0.00     0.074 A 
ATOM     59  C   UNL A   1      45.073  23.893  28.155  1.00  0.00     0.029 A 
ATOM     60  N   UNL A   1      44.571  25.925  28.920  1.00  0.00    -0.354 N 
ATOM     61  N   UNL A   1      45.195  28.607  30.009  1.00  0.00    -0.248 NA
ATOM     62  C   UNL A   1      46.751  30.146  30.827  1.00  0.00     0.031 C 
ATOM     63  C   UNL A   1      46.250  24.519  28.570  1.00  0.00     0.029 A 
ATOM     64  C   UNL A   1      45.941  25.798  29.017  1.00  0.00     0.049 A 
ATOM     65  H   UNL A   1      44.057  26.724  29.176  1.00  0.00     0.167 HD
ATOM     66  C   UNL A   1      46.467  28.048  29.939  1.00  0.00     0.074 A 
ATOM     67  C   UNL A   1      47.390  29.051  30.431  1.00  0.00     0.031 C 
ATOM     68  C   UNL A   1      46.837  26.817  29.507  1.00  0.00     0.031 A 
BRANCH  55  69
ATOM     69  C   UNL A   1      42.134  23.248  27.632  1.00  0.00    -0.014 A 
ATOM     70  C   UNL A   1      41.749  22.194  28.469  1.00  0.00     0.009 A 
ATOM     71  C   UNL A   1      42.000  23.098  26.239  1.00  0.00     0.009 A 
ATOM     72  C   UNL A   1      41.217  21.023  27.924  1.00  0.00     0.001 A 
ATOM     73  C   UNL A   1      41.431  21.943  25.701  1.00  0.00     0.001 A 
ATOM     74  C   UNL A   1      41.044  20.906  26.545  1.00  0.00     0.000 A 
ENDBRANCH  55  69
BRANCH  56  75
ATOM     75  C   UNL A   1      44.700  32.236  31.239  1.00  0.00    -0.014 A 
ATOM     76  C   UNL A   1      44.651  32.568  32.604  1.00  0.00     0.009 A 
ATOM     77  C   UNL A   1      45.073  33.232  30.323  1.00  0.00     0.009 A 
ATOM     78  C   UNL A   1      44.938  33.867  33.034  1.00  0.00     0.001 A 
ATOM     79  C   UNL A   1      45.383  34.525  30.757  1.00  0.00     0.001 A 
ATOM     80  C   UNL A   1      45.305  34.845  32.111  1.00  0.00     0.000 A 
ENDBRANCH  56  75
BRANCH  68  81
ATOM     81  C   UNL A   1      48.293  26.447  29.539  1.00  0.00    -0.014 A 
ATOM     82  C   UNL A   1      48.849  25.922  30.718  1.00  0.00     0.009 A 
ATOM     83  C   UNL A   1      49.145  26.807  28.485  1.00  0.00     0.009 A 
ATOM     84  C   UNL A   1      50.232  25.809  30.859  1.00  0.00     0.001 A 
ATOM     85  C   UNL A   1      50.527  26.664  28.618  1.00  0.00     0.001 A 
ATOM     86  C   UNL A   1      51.069  26.183  29.810  1.00  0.00     0.000 A 
ENDBRANCH  68  81
ENDBRANCH  42  43
ENDBRANCH  35  37
ENDBRANCH  34  35
ENDBRANCH  33  34
ENDBRANCH   1  33
TORSDOF 17
ENDMDL
MODEL 3
REMARK VINA RESULT:     -11.2      1.462      1.896
REMARK SMILES CO[C@@H]1C[NH2+][C@@H](O[C@@H]2C[C@@H](C(=O)OCCOC(=O)c3ccc(-c4c5nc(c(-c6ccccc6)c6ccc([nH]6)c(-c6ccccc6)c6nc(c(-c7ccccc7)c7ccc4[nH]7)C=C6)C=C5)cc3)N(C(=O)OC(C)(C)C)C2)c2cc(Cl)ccc21
REMARK SMILES IDX 14 1 13 2 11 3 12 4 10 5 8 6 9 7 75 8 67 9 7 10 6 11 3 12
REMARK SMILES IDX 4 13 82 14 5 15 76 16 81 17 77 20 80 21 78 22 79 23 2 24
REMARK SMILES IDX 1 25 68 26 69 27 70 28 71 29 72 30 73 31 74 32 15 33 16 34
REMARK SMILES IDX 17 35 18 36 19 37 20 38 66 39 21 40 65 41 22 42 23 43 24 44
REMARK SMILES IDX 59 45 25 46 64 47 58 48 60 49 26 50 63 51 57 52 56 53 27 55
REMARK SMILES IDX 49 56 34 57 48 58 35 59 38 60 47 61 61 62 36 63 37 64 46 66
REMARK SMILES IDX 62 67 39 68 28 69 29 70 33 71 30 72 32 73 31 74 50 75 51 76
REMARK SMILES IDX 55 77 52 78 54 79 53 80 40 81 41 82 45 83 42 84 44 85 43 86
REMARK H PARENT 5 18 5 19 60 54 38 65
REMARK Flexibility Score: inf
ROOT
ATOM      1  C   UNL A   1      36.324  21.535  25.367  1.00  0.00     0.274 C 
ENDROOT
BRANCH   1   2
ATOM      2  O   UNL A   1      35.513  22.356  24.478  1.00  0.00    -0.461 OA
BRANCH   2   3
ATOM      3  C   UNL A   1      34.740  23.256  25.128  1.00  0.00     0.329 C 
ATOM      4  O   UNL A   1      35.216  24.244  25.695  1.00  0.00    -0.250 OA
BRANCH   3   5
ATOM      5  C   UNL A   1      33.235  22.962  25.279  1.00  0.00     0.201 C 
ATOM      6  C   UNL A   1      31.401  23.461  26.812  1.00  0.00     0.147 C 
ATOM      7  C   UNL A   1      32.891  23.661  26.615  1.00  0.00     0.071 C 
ATOM      8  C   UNL A   1      31.114  22.155  26.066  1.00  0.00     0.156 C 
ATOM      9  N   UNL A   1      32.342  21.790  25.344  1.00  0.00    -0.292 N 
BRANCH   6  10
ATOM     10  O   UNL A   1      30.514  24.554  26.630  1.00  0.00    -0.320 OA
BRANCH  10  11
ATOM     11  C   UNL A   1      30.480  25.527  25.593  1.00  0.00     0.354 C 
ATOM     12  C   UNL A   1      31.815  25.506  22.943  1.00  0.00     0.203 C 
ATOM     13  C   UNL A   1      30.702  24.524  23.394  1.00  0.00     0.300 C 
ATOM     14  C   UNL A   1      32.360  26.350  24.083  1.00  0.00    -0.002 A 
ATOM     15  N   UNL A   1      29.798  25.042  24.406  1.00  0.00    -0.315 N 
ATOM     16  C   UNL A   1      31.707  26.373  25.331  1.00  0.00     0.046 A 
ATOM     17  C   UNL A   1      33.521  27.123  23.896  1.00  0.00     0.009 A 
ATOM     18  H   UNL A   1      29.159  24.295  24.682  1.00  0.00     0.349 HD
ATOM     19  H   UNL A   1      29.307  25.835  23.994  1.00  0.00     0.349 HD
ATOM     20  C   UNL A   1      32.196  27.225  26.342  1.00  0.00     0.033 A 
ATOM     21  C   UNL A   1      34.028  27.915  24.928  1.00  0.00     0.021 A 
ATOM     22  C   UNL A   1      33.357  27.972  26.144  1.00  0.00     0.041 A 
ATOM     23  Cl  UNL A   1      33.973  28.948  27.421  1.00  0.00    -0.084 Cl
BRANCH  12  24
ATOM     24  O   UNL A   1      31.460  26.399  21.884  1.00  0.00    -0.371 OA
ATOM     25  C   UNL A   1      31.999  26.067  20.615  1.00  0.00     0.196 C 
ENDBRANCH  12  24
ENDBRANCH  10  11
ENDBRANCH   6  10
BRANCH   9  26
ATOM     26  C   UNL A   1      32.200  20.794  24.382  1.00  0.00     0.411 C 
ATOM     27  O   UNL A   1      32.214  21.051  23.180  1.00  0.00    -0.224 OA
BRANCH  26  28
ATOM     28  O   UNL A   1      31.985  19.550  24.870  1.00  0.00    -0.444 OA
BRANCH  28  29
ATOM     29  C   UNL A   1      32.804  18.414  24.431  1.00  0.00     0.106 C 
ATOM     30  C   UNL A   1      32.422  17.971  23.015  1.00  0.00     0.056 C 
ATOM     31  C   UNL A   1      34.298  18.742  24.548  1.00  0.00     0.056 C 
ATOM     32  C   UNL A   1      32.504  17.202  25.340  1.00  0.00     0.056 C 
ENDBRANCH  28  29
ENDBRANCH  26  28
ENDBRANCH   9  26
ENDBRANCH   3   5
ENDBRANCH   2   3
ENDBRANCH   1   2
BRANCH   1  33
ATOM     33  C   UNL A   1      37.849  21.786  25.268  1.00  0.00     0.275 C 
BRANCH  33  34
ATOM     34  O   UNL A   1      38.318  23.082  25.736  1.00  0.00    -0.458 OA
BRANCH  34  35
ATOM     35  C   UNL A   1      39.420  22.953  26.493  1.00  0.00     0.338 C 
ATOM     36  O   UNL A   1      39.935  21.885  26.762  1.00  0.00    -0.246 OA
BRANCH  35  37
ATOM     37  C   UNL A   1      40.104  24.128  27.024  1.00  0.00     0.060 A 
ATOM     38  C   UNL A   1      40.522  25.156  26.172  1.00  0.00     0.016 A 
ATOM     39  C   UNL A   1      39.836  24.396  28.366  1.00  0.00     0.016 A 
ATOM     40  C   UNL A   1      40.706  26.450  26.682  1.00  0.00     0.010 A 
ATOM     41  C   UNL A   1      39.966  25.693  28.857  1.00  0.00     0.010 A 
ATOM     42  C   UNL A   1      40.440  26.721  28.032  1.00  0.00    -0.014 A 
BRANCH  42  43
ATOM     43  C   UNL A   1      40.930  27.962  28.681  1.00  0.00     0.031 A 
ATOM     44  C   UNL A   1      39.936  29.085  28.792  1.00  0.00     0.074 A 
ATOM     45  C   UNL A   1      42.189  28.125  29.132  1.00  0.00     0.049 A 
ATOM     46  N   UNL A   1      40.052  30.247  29.376  1.00  0.00    -0.248 NA
ATOM     47  C   UNL A   1      38.637  28.878  28.122  1.00  0.00     0.031 C 
ATOM     48  C   UNL A   1      43.270  27.148  29.021  1.00  0.00     0.029 A 
ATOM     49  N   UNL A   1      42.766  29.187  29.789  1.00  0.00    -0.354 N 
ATOM     50  C   UNL A   1      38.833  30.879  29.168  1.00  0.00     0.074 A 
ATOM     51  C   UNL A   1      38.052  30.046  28.290  1.00  0.00     0.031 C 
ATOM     52  C   UNL A   1      44.368  27.640  29.625  1.00  0.00     0.029 A 
ATOM     53  C   UNL A   1      44.070  28.966  30.169  1.00  0.00     0.049 A 
ATOM     54  H   UNL A   1      42.289  30.029  29.971  1.00  0.00     0.167 HD
ATOM     55  C   UNL A   1      38.361  32.015  29.723  1.00  0.00     0.031 A 
ATOM     56  C   UNL A   1      44.907  29.731  30.901  1.00  0.00     0.031 A 
ATOM     57  C   UNL A   1      39.142  32.855  30.575  1.00  0.00     0.049 A 
ATOM     58  C   UNL A   1      44.402  31.042  31.460  1.00  0.00     0.074 A 
ATOM     59  C   UNL A   1      38.778  34.033  31.191  1.00  0.00     0.029 A 
ATOM     60  N   UNL A   1      40.463  32.599  30.916  1.00  0.00    -0.354 N 
ATOM     61  N   UNL A   1      43.208  31.578  31.350  1.00  0.00    -0.248 NA
ATOM     62  C   UNL A   1      45.344  31.843  32.257  1.00  0.00     0.031 C 
ATOM     63  C   UNL A   1      39.899  34.524  31.862  1.00  0.00     0.029 A 
ATOM     64  C   UNL A   1      40.940  33.615  31.718  1.00  0.00     0.049 A 
ATOM     65  H   UNL A   1      40.980  31.813  30.631  1.00  0.00     0.167 HD
ATOM     66  C   UNL A   1      43.250  32.763  32.078  1.00  0.00     0.074 A 
ATOM     67  C   UNL A   1      44.582  32.861  32.637  1.00  0.00     0.031 C 
ATOM     68  C   UNL A   1      42.272  33.685  32.266  1.00  0.00     0.031 A 
BRANCH  55  69
ATOM     69  C   UNL A   1      36.930  32.362  29.424  1.00  0.00    -0.014 A 
ATOM     70  C   UNL A   1      35.910  31.998  30.312  1.00  0.00     0.009 A 
ATOM     71  C   UNL A   1      36.602  33.107  28.276  1.00  0.00     0.009 A 
ATOM     72  C   UNL A   1      34.593  32.392  30.068  1.00  0.00     0.001 A 
ATOM     73  C   UNL A   1      35.292  33.532  28.056  1.00  0.00     0.001 A 
ATOM     74  C   UNL A   1      34.288  33.171  28.952  1.00  0.00     0.000 A 
ENDBRANCH  55  69
BRANCH  56  75
ATOM     75  C   UNL A   1      46.277  29.235  31.220  1.00  0.00    -0.014 A 
ATOM     76  C   UNL A   1      47.361  29.496  30.365  1.00  0.00     0.009 A 
ATOM     77  C   UNL A   1      46.501  28.448  32.361  1.00  0.00     0.009 A 
ATOM     78  C   UNL A   1      48.625  28.958  30.629  1.00  0.00     0.001 A 
ATOM     79  C   UNL A   1      47.771  27.931  32.636  1.00  0.00     0.001 A 
ATOM     80  C   UNL A   1      48.830  28.177  31.765  1.00  0.00     0.000 A 
ENDBRANCH  56  75
BRANCH  68  81
ATOM     81  C   UNL A   1      42.575  34.898  33.099  1.00  0.00    -0.014 A 
ATOM     82  C   UNL A   1      42.025  35.008  34.388  1.00  0.00     0.009 A 
ATOM     83  C   UNL A   1      43.222  36.007  32.536  1.00  0.00     0.009 A 
ATOM     84  C   UNL A   1      42.076  36.220  35.077  1.00  0.00     0.001 A 
ATOM     85  C   UNL A   1      43.298  37.209  33.242  1.00  0.00     0.001 A 
ATOM     86  C   UNL A   1      42.710  37.320  34.502  1.00  0.00     0.000 A 
ENDBRANCH  68  81
ENDBRANCH  42  43
ENDBRANCH  35  37
ENDBRANCH  34  35
ENDBRANCH  33  34
ENDBRANCH   1  33
TORSDOF 17
ENDMDL
