MODEL 1
REMARK VINA RESULT:     -11.4      0.000      0.000
REMARK SMILES CC(=O)NS(=O)(=O)c1ccc(-c2ccn(C(F)F)c(=O)c2)cc1C(=O)OCCOC(=O)c1ccc(-c2c3nc(c(-c4ccccc4)c4ccc([nH]4)c(-c4ccccc4)c4nc(c(-c5ccccc5)c5ccc2[nH]5)C=C4)C=C3)cc1
REMARK SMILES IDX 27 1 26 2 24 3 25 4 23 5 8 6 9 7 10 8 22 9 11 10 5 11 6 12
REMARK SMILES IDX 7 13 4 14 1 15 2 16 3 17 12 19 13 20 21 21 14 22 19 23 15 24
REMARK SMILES IDX 20 25 16 26 17 27 18 28 28 29 29 30 30 31 31 32 32 33 33 34
REMARK SMILES IDX 79 35 34 36 78 37 35 38 36 39 37 40 72 41 38 42 77 43 71 44
REMARK SMILES IDX 73 45 39 46 76 47 70 48 69 49 40 51 62 52 47 53 61 54 48 55
REMARK SMILES IDX 51 56 60 57 74 58 49 59 50 60 59 62 75 63 52 64 41 65 42 66
REMARK SMILES IDX 46 67 43 68 45 69 44 70 63 71 64 72 68 73 65 74 67 75 66 76
REMARK SMILES IDX 53 77 54 78 58 79 55 80 57 81 56 82
REMARK H PARENT 4 18 73 50 51 61
REMARK Flexibility Score: inf
ROOT
ATOM      1  C   UNL A   1      36.576  23.092  23.621  1.00  0.00     0.275 C 
ENDROOT
BRANCH   1   2
ATOM      2  O   UNL A   1      35.598  23.907  24.304  1.00  0.00    -0.458 OA
BRANCH   2   3
ATOM      3  C   UNL A   1      34.429  24.040  23.647  1.00  0.00     0.339 C 
ATOM      4  O   UNL A   1      34.188  23.713  22.496  1.00  0.00    -0.246 OA
BRANCH   3   5
ATOM      5  C   UNL A   1      33.407  24.735  24.440  1.00  0.00     0.081 A 
ATOM      6  C   UNL A   1      32.530  24.050  25.279  1.00  0.00     0.102 A 
ATOM      7  C   UNL A   1      31.717  24.769  26.169  1.00  0.00     0.024 A 
ATOM      8  C   UNL A   1      31.902  26.144  26.339  1.00  0.00     0.010 A 
ATOM      9  C   UNL A   1      33.568  26.123  24.603  1.00  0.00     0.025 A 
ATOM     10  C   UNL A   1      32.897  26.817  25.621  1.00  0.00    -0.017 A 
BRANCH   6  11
ATOM     11  S   UNL A   1      32.557  22.287  25.458  1.00  0.00     0.264 S 
ATOM     12  O   UNL A   1      31.310  21.917  26.088  1.00  0.00    -0.201 OA
ATOM     13  O   UNL A   1      33.830  21.935  26.047  1.00  0.00    -0.201 OA
BRANCH  11  14
ATOM     14  N   UNL A   1      32.540  21.630  23.945  1.00  0.00    -0.249 N 
ATOM     15  C   UNL A   1      32.572  19.183  24.501  1.00  0.00     0.115 C 
ATOM     16  C   UNL A   1      32.371  20.304  23.522  1.00  0.00     0.230 C 
ATOM     17  O   UNL A   1      32.124  20.098  22.341  1.00  0.00    -0.274 OA
ATOM     18  H   UNL A   1      32.670  22.279  23.216  1.00  0.00     0.183 HD
ENDBRANCH  11  14
ENDBRANCH   6  11
BRANCH  10  19
ATOM     19  C   UNL A   1      33.422  28.131  26.076  1.00  0.00    -0.011 A 
ATOM     20  C   UNL A   1      34.762  28.366  26.585  1.00  0.00     0.027 A 
ATOM     21  C   UNL A   1      32.522  29.129  26.179  1.00  0.00     0.080 A 
ATOM     22  C   UNL A   1      35.080  29.534  27.164  1.00  0.00     0.095 A 
ATOM     23  C   UNL A   1      32.869  30.446  26.775  1.00  0.00     0.255 A 
ATOM     24  N   UNL A   1      34.153  30.556  27.273  1.00  0.00    -0.258 N 
ATOM     25  O   UNL A   1      32.003  31.314  26.806  1.00  0.00    -0.269 OA
BRANCH  24  26
ATOM     26  C   UNL A   1      34.493  31.807  27.905  1.00  0.00     0.451 C 
ATOM     27  F   UNL A   1      34.269  31.745  29.241  1.00  0.00    -0.185 F 
ATOM     28  F   UNL A   1      35.802  32.106  27.716  1.00  0.00    -0.185 F 
ENDBRANCH  24  26
ENDBRANCH  10  19
ENDBRANCH   3   5
ENDBRANCH   2   3
ENDBRANCH   1   2
BRANCH   1  29
ATOM     29  C   UNL A   1      36.894  21.779  24.340  1.00  0.00     0.275 C 
BRANCH  29  30
ATOM     30  O   UNL A   1      37.263  21.988  25.715  1.00  0.00    -0.458 OA
BRANCH  30  31
ATOM     31  C   UNL A   1      38.579  21.834  25.971  1.00  0.00     0.338 C 
ATOM     32  O   UNL A   1      39.312  20.933  25.593  1.00  0.00    -0.246 OA
BRANCH  31  33
ATOM     33  C   UNL A   1      39.100  22.957  26.760  1.00  0.00     0.060 A 
ATOM     34  C   UNL A   1      38.575  24.230  26.544  1.00  0.00     0.016 A 
ATOM     35  C   UNL A   1      40.263  22.792  27.506  1.00  0.00     0.016 A 
ATOM     36  C   UNL A   1      39.280  25.356  26.947  1.00  0.00     0.010 A 
ATOM     37  C   UNL A   1      40.919  23.922  28.000  1.00  0.00     0.010 A 
ATOM     38  C   UNL A   1      40.463  25.215  27.674  1.00  0.00    -0.014 A 
BRANCH  38  39
ATOM     39  C   UNL A   1      41.279  26.399  28.032  1.00  0.00     0.031 A 
ATOM     40  C   UNL A   1      40.703  27.437  28.953  1.00  0.00     0.074 A 
ATOM     41  C   UNL A   1      42.523  26.552  27.545  1.00  0.00     0.049 A 
ATOM     42  N   UNL A   1      41.105  28.660  29.175  1.00  0.00    -0.248 NA
ATOM     43  C   UNL A   1      39.509  27.046  29.722  1.00  0.00     0.031 C 
ATOM     44  C   UNL A   1      43.248  25.579  26.727  1.00  0.00     0.029 A 
ATOM     45  N   UNL A   1      43.395  27.605  27.660  1.00  0.00    -0.354 N 
ATOM     46  C   UNL A   1      40.170  29.213  30.042  1.00  0.00     0.074 A 
ATOM     47  C   UNL A   1      39.199  28.181  30.334  1.00  0.00     0.031 C 
ATOM     48  C   UNL A   1      44.454  26.076  26.417  1.00  0.00     0.029 A 
ATOM     49  C   UNL A   1      44.547  27.437  26.931  1.00  0.00     0.049 A 
ATOM     50  H   UNL A   1      43.214  28.402  28.210  1.00  0.00     0.167 HD
ATOM     51  C   UNL A   1      40.118  30.476  30.524  1.00  0.00     0.031 A 
ATOM     52  C   UNL A   1      45.534  28.305  26.644  1.00  0.00     0.031 A 
ATOM     53  C   UNL A   1      41.103  31.484  30.245  1.00  0.00     0.049 A 
ATOM     54  C   UNL A   1      45.430  29.716  27.143  1.00  0.00     0.074 A 
ATOM     55  C   UNL A   1      41.139  32.801  30.667  1.00  0.00     0.029 A 
ATOM     56  N   UNL A   1      42.239  31.277  29.477  1.00  0.00    -0.354 N 
ATOM     57  N   UNL A   1      44.494  30.263  27.879  1.00  0.00    -0.248 NA
ATOM     58  C   UNL A   1      46.507  30.634  26.750  1.00  0.00     0.031 C 
ATOM     59  C   UNL A   1      42.288  33.398  30.135  1.00  0.00     0.029 A 
ATOM     60  C   UNL A   1      42.983  32.441  29.413  1.00  0.00     0.049 A 
ATOM     61  H   UNL A   1      42.480  30.428  29.042  1.00  0.00     0.167 HD
ATOM     62  C   UNL A   1      44.870  31.589  28.044  1.00  0.00     0.074 A 
ATOM     63  C   UNL A   1      46.128  31.758  27.344  1.00  0.00     0.031 C 
ATOM     64  C   UNL A   1      44.232  32.579  28.712  1.00  0.00     0.031 A 
BRANCH  51  65
ATOM     65  C   UNL A   1      38.921  30.850  31.349  1.00  0.00    -0.014 A 
ATOM     66  C   UNL A   1      38.915  30.712  32.744  1.00  0.00     0.009 A 
ATOM     67  C   UNL A   1      37.783  31.371  30.711  1.00  0.00     0.009 A 
ATOM     68  C   UNL A   1      37.780  31.061  33.482  1.00  0.00     0.001 A 
ATOM     69  C   UNL A   1      36.660  31.739  31.452  1.00  0.00     0.001 A 
ATOM     70  C   UNL A   1      36.657  31.576  32.837  1.00  0.00     0.000 A 
ENDBRANCH  51  65
BRANCH  52  71
ATOM     71  C   UNL A   1      46.656  27.879  25.772  1.00  0.00    -0.014 A 
ATOM     72  C   UNL A   1      47.821  27.330  26.326  1.00  0.00     0.009 A 
ATOM     73  C   UNL A   1      46.556  28.000  24.375  1.00  0.00     0.009 A 
ATOM     74  C   UNL A   1      48.867  26.916  25.498  1.00  0.00     0.001 A 
ATOM     75  C   UNL A   1      47.593  27.561  23.551  1.00  0.00     0.001 A 
ATOM     76  C   UNL A   1      48.750  27.025  24.112  1.00  0.00     0.000 A 
ENDBRANCH  52  71
BRANCH  64  77
ATOM     77  C   UNL A   1      44.906  33.917  28.748  1.00  0.00    -0.014 A 
ATOM     78  C   UNL A   1      44.670  34.874  27.750  1.00  0.00     0.009 A 
ATOM     79  C   UNL A   1      45.760  34.233  29.815  1.00  0.00     0.009 A 
ATOM     80  C   UNL A   1      45.297  36.119  27.810  1.00  0.00     0.001 A 
ATOM     81  C   UNL A   1      46.369  35.486  29.882  1.00  0.00     0.001 A 
ATOM     82  C   UNL A   1      46.142  36.425  28.876  1.00  0.00     0.000 A 
ENDBRANCH  64  77
ENDBRANCH  38  39
ENDBRANCH  31  33
ENDBRANCH  30  31
ENDBRANCH  29  30
ENDBRANCH   1  29
TORSDOF 15
ENDMDL
MODEL 2
REMARK VINA RESULT:     -11.4      1.967      2.479
REMARK SMILES CC(=O)NS(=O)(=O)c1ccc(-c2ccn(C(F)F)c(=O)c2)cc1C(=O)OCCOC(=O)c1ccc(-c2c3nc(c(-c4ccccc4)c4ccc([nH]4)c(-c4ccccc4)c4nc(c(-c5ccccc5)c5ccc2[nH]5)C=C4)C=C3)cc1
REMARK SMILES IDX 27 1 26 2 24 3 25 4 23 5 8 6 9 7 10 8 22 9 11 10 5 11 6 12
REMARK SMILES IDX 7 13 4 14 1 15 2 16 3 17 12 19 13 20 21 21 14 22 19 23 15 24
REMARK SMILES IDX 20 25 16 26 17 27 18 28 28 29 29 30 30 31 31 32 32 33 33 34
REMARK SMILES IDX 79 35 34 36 78 37 35 38 36 39 37 40 72 41 38 42 77 43 71 44
REMARK SMILES IDX 73 45 39 46 76 47 70 48 69 49 40 51 62 52 47 53 61 54 48 55
REMARK SMILES IDX 51 56 60 57 74 58 49 59 50 60 59 62 75 63 52 64 41 65 42 66
REMARK SMILES IDX 46 67 43 68 45 69 44 70 63 71 64 72 68 73 65 74 67 75 66 76
REMARK SMILES IDX 53 77 54 78 58 79 55 80 57 81 56 82
REMARK H PARENT 4 18 73 50 51 61
REMARK Flexibility Score: inf
ROOT
ATOM      1  C   UNL A   1      36.725  22.949  23.535  1.00  0.00     0.275 C 
ENDROOT
BRANCH   1   2
ATOM      2  O   UNL A   1      35.318  23.079  23.234  1.00  0.00    -0.458 OA
BRANCH   2   3
ATOM      3  C   UNL A   1      34.664  23.969  24.005  1.00  0.00     0.339 C 
ATOM      4  O   UNL A   1      35.090  24.541  24.995  1.00  0.00    -0.246 OA
BRANCH   3   5
ATOM      5  C   UNL A   1      33.266  24.158  23.595  1.00  0.00     0.081 A 
ATOM      6  C   UNL A   1      32.286  23.200  23.845  1.00  0.00     0.102 A 
ATOM      7  C   UNL A   1      30.936  23.514  23.625  1.00  0.00     0.024 A 
ATOM      8  C   UNL A   1      30.558  24.825  23.321  1.00  0.00     0.010 A 
ATOM      9  C   UNL A   1      32.876  25.469  23.267  1.00  0.00     0.025 A 
ATOM     10  C   UNL A   1      31.523  25.835  23.232  1.00  0.00    -0.017 A 
BRANCH   6  11
ATOM     11  S   UNL A   1      32.632  21.668  24.665  1.00  0.00     0.264 S 
ATOM     12  O   UNL A   1      33.400  20.867  23.739  1.00  0.00    -0.201 OA
ATOM     13  O   UNL A   1      31.386  21.186  25.219  1.00  0.00    -0.201 OA
BRANCH  11  14
ATOM     14  N   UNL A   1      33.620  21.996  25.945  1.00  0.00    -0.249 N 
ATOM     15  C   UNL A   1      32.171  23.569  27.259  1.00  0.00     0.115 C 
ATOM     16  C   UNL A   1      33.369  22.672  27.148  1.00  0.00     0.230 C 
ATOM     17  O   UNL A   1      34.180  22.555  28.059  1.00  0.00    -0.274 OA
ATOM     18  H   UNL A   1      34.541  21.662  25.847  1.00  0.00     0.183 HD
ENDBRANCH  11  14
ENDBRANCH   6  11
BRANCH  10  19
ATOM     19  C   UNL A   1      31.151  27.269  23.359  1.00  0.00    -0.011 A 
ATOM     20  C   UNL A   1      31.464  28.116  24.498  1.00  0.00     0.027 A 
ATOM     21  C   UNL A   1      30.316  27.755  22.420  1.00  0.00     0.080 A 
ATOM     22  C   UNL A   1      30.912  29.334  24.617  1.00  0.00     0.095 A 
ATOM     23  C   UNL A   1      29.732  29.119  22.512  1.00  0.00     0.255 A 
ATOM     24  N   UNL A   1      30.051  29.829  23.653  1.00  0.00    -0.258 N 
ATOM     25  O   UNL A   1      29.004  29.500  21.601  1.00  0.00    -0.269 OA
BRANCH  24  26
ATOM     26  C   UNL A   1      29.450  31.134  23.789  1.00  0.00     0.451 C 
ATOM     27  F   UNL A   1      28.114  31.027  23.990  1.00  0.00    -0.185 F 
ATOM     28  F   UNL A   1      29.978  31.803  24.843  1.00  0.00    -0.185 F 
ENDBRANCH  24  26
ENDBRANCH  10  19
ENDBRANCH   3   5
ENDBRANCH   2   3
ENDBRANCH   1   2
BRANCH   1  29
ATOM     29  C   UNL A   1      37.074  21.676  24.309  1.00  0.00     0.275 C 
BRANCH  29  30
ATOM     30  O   UNL A   1      37.393  21.947  25.686  1.00  0.00    -0.458 OA
BRANCH  30  31
ATOM     31  C   UNL A   1      38.697  21.796  25.998  1.00  0.00     0.338 C 
ATOM     32  O   UNL A   1      39.438  20.878  25.681  1.00  0.00    -0.246 OA
BRANCH  31  33
ATOM     33  C   UNL A   1      39.194  22.942  26.768  1.00  0.00     0.060 A 
ATOM     34  C   UNL A   1      38.707  24.213  26.469  1.00  0.00     0.016 A 
ATOM     35  C   UNL A   1      40.310  22.790  27.586  1.00  0.00     0.016 A 
ATOM     36  C   UNL A   1      39.410  25.344  26.864  1.00  0.00     0.010 A 
ATOM     37  C   UNL A   1      40.959  23.929  28.068  1.00  0.00     0.010 A 
ATOM     38  C   UNL A   1      40.548  25.214  27.663  1.00  0.00    -0.014 A 
BRANCH  38  39
ATOM     39  C   UNL A   1      41.365  26.399  28.016  1.00  0.00     0.031 A 
ATOM     40  C   UNL A   1      40.801  27.425  28.958  1.00  0.00     0.074 A 
ATOM     41  C   UNL A   1      42.599  26.562  27.507  1.00  0.00     0.049 A 
ATOM     42  N   UNL A   1      41.203  28.648  29.184  1.00  0.00    -0.248 NA
ATOM     43  C   UNL A   1      39.624  27.022  29.746  1.00  0.00     0.031 C 
ATOM     44  C   UNL A   1      43.312  25.600  26.667  1.00  0.00     0.029 A 
ATOM     45  N   UNL A   1      43.468  27.618  27.617  1.00  0.00    -0.354 N 
ATOM     46  C   UNL A   1      40.282  29.188  30.073  1.00  0.00     0.074 A 
ATOM     47  C   UNL A   1      39.321  28.149  30.374  1.00  0.00     0.031 C 
ATOM     48  C   UNL A   1      44.510  26.105  26.339  1.00  0.00     0.029 A 
ATOM     49  C   UNL A   1      44.607  27.461  26.864  1.00  0.00     0.049 A 
ATOM     50  H   UNL A   1      43.294  28.409  28.177  1.00  0.00     0.167 HD
ATOM     51  C   UNL A   1      40.233  30.447  30.568  1.00  0.00     0.031 A 
ATOM     52  C   UNL A   1      45.584  28.337  26.568  1.00  0.00     0.031 A 
ATOM     53  C   UNL A   1      41.209  31.462  30.280  1.00  0.00     0.049 A 
ATOM     54  C   UNL A   1      45.484  29.743  27.082  1.00  0.00     0.074 A 
ATOM     55  C   UNL A   1      41.247  32.775  30.715  1.00  0.00     0.029 A 
ATOM     56  N   UNL A   1      42.331  31.267  29.490  1.00  0.00    -0.354 N 
ATOM     57  N   UNL A   1      44.559  30.278  27.840  1.00  0.00    -0.248 NA
ATOM     58  C   UNL A   1      46.549  30.670  26.677  1.00  0.00     0.031 C 
ATOM     59  C   UNL A   1      42.382  33.381  30.166  1.00  0.00     0.029 A 
ATOM     60  C   UNL A   1      43.068  32.435  29.423  1.00  0.00     0.049 A 
ATOM     61  H   UNL A   1      42.567  30.423  29.042  1.00  0.00     0.167 HD
ATOM     62  C   UNL A   1      44.933  31.604  28.010  1.00  0.00     0.074 A 
ATOM     63  C   UNL A   1      46.177  31.786  27.288  1.00  0.00     0.031 C 
ATOM     64  C   UNL A   1      44.303  32.585  28.700  1.00  0.00     0.031 A 
BRANCH  51  65
ATOM     65  C   UNL A   1      39.050  30.807  31.419  1.00  0.00    -0.014 A 
ATOM     66  C   UNL A   1      39.058  30.621  32.809  1.00  0.00     0.009 A 
ATOM     67  C   UNL A   1      37.912  31.364  30.813  1.00  0.00     0.009 A 
ATOM     68  C   UNL A   1      37.936  30.959  33.571  1.00  0.00     0.001 A 
ATOM     69  C   UNL A   1      36.803  31.721  31.579  1.00  0.00     0.001 A 
ATOM     70  C   UNL A   1      36.812  31.511  32.957  1.00  0.00     0.000 A 
ENDBRANCH  51  65
BRANCH  52  71
ATOM     71  C   UNL A   1      46.692  27.925  25.670  1.00  0.00    -0.014 A 
ATOM     72  C   UNL A   1      47.881  27.403  26.198  1.00  0.00     0.009 A 
ATOM     73  C   UNL A   1      46.554  28.030  24.275  1.00  0.00     0.009 A 
ATOM     74  C   UNL A   1      48.914  27.002  25.347  1.00  0.00     0.001 A 
ATOM     75  C   UNL A   1      47.577  27.603  23.428  1.00  0.00     0.001 A 
ATOM     76  C   UNL A   1      48.758  27.095  23.964  1.00  0.00     0.000 A 
ENDBRANCH  52  71
BRANCH  64  77
ATOM     77  C   UNL A   1      44.972  33.926  28.735  1.00  0.00    -0.014 A 
ATOM     78  C   UNL A   1      44.674  34.909  27.781  1.00  0.00     0.009 A 
ATOM     79  C   UNL A   1      45.884  34.217  29.761  1.00  0.00     0.009 A 
ATOM     80  C   UNL A   1      45.297  36.157  27.841  1.00  0.00     0.001 A 
ATOM     81  C   UNL A   1      46.490  35.471  29.829  1.00  0.00     0.001 A 
ATOM     82  C   UNL A   1      46.201  36.437  28.866  1.00  0.00     0.000 A 
ENDBRANCH  64  77
ENDBRANCH  38  39
ENDBRANCH  31  33
ENDBRANCH  30  31
ENDBRANCH  29  30
ENDBRANCH   1  29
TORSDOF 15
ENDMDL
MODEL 3
REMARK VINA RESULT:     -11.4      4.059      8.773
REMARK SMILES CC(=O)NS(=O)(=O)c1ccc(-c2ccn(C(F)F)c(=O)c2)cc1C(=O)OCCOC(=O)c1ccc(-c2c3nc(c(-c4ccccc4)c4ccc([nH]4)c(-c4ccccc4)c4nc(c(-c5ccccc5)c5ccc2[nH]5)C=C4)C=C3)cc1
REMARK SMILES IDX 27 1 26 2 24 3 25 4 23 5 8 6 9 7 10 8 22 9 11 10 5 11 6 12
REMARK SMILES IDX 7 13 4 14 1 15 2 16 3 17 12 19 13 20 21 21 14 22 19 23 15 24
REMARK SMILES IDX 20 25 16 26 17 27 18 28 28 29 29 30 30 31 31 32 32 33 33 34
REMARK SMILES IDX 79 35 34 36 78 37 35 38 36 39 37 40 72 41 38 42 77 43 71 44
REMARK SMILES IDX 73 45 39 46 76 47 70 48 69 49 40 51 62 52 47 53 61 54 48 55
REMARK SMILES IDX 51 56 60 57 74 58 49 59 50 60 59 62 75 63 52 64 41 65 42 66
REMARK SMILES IDX 46 67 43 68 45 69 44 70 63 71 64 72 68 73 65 74 67 75 66 76
REMARK SMILES IDX 53 77 54 78 58 79 55 80 57 81 56 82
REMARK H PARENT 4 18 73 50 51 61
REMARK Flexibility Score: inf
ROOT
ATOM      1  C   UNL A   1      32.386  27.699  26.590  1.00  0.00     0.275 C 
ENDROOT
BRANCH   1   2
ATOM      2  O   UNL A   1      32.414  27.087  25.283  1.00  0.00    -0.458 OA
BRANCH   2   3
ATOM      3  C   UNL A   1      33.649  26.935  24.765  1.00  0.00     0.339 C 
ATOM      4  O   UNL A   1      34.473  27.811  24.554  1.00  0.00    -0.246 OA
BRANCH   3   5
ATOM      5  C   UNL A   1      33.931  25.552  24.364  1.00  0.00     0.081 A 
ATOM      6  C   UNL A   1      33.657  25.083  23.081  1.00  0.00     0.102 A 
ATOM      7  C   UNL A   1      34.135  23.824  22.684  1.00  0.00     0.024 A 
ATOM      8  C   UNL A   1      35.021  23.117  23.502  1.00  0.00     0.010 A 
ATOM      9  C   UNL A   1      34.806  24.819  25.188  1.00  0.00     0.025 A 
ATOM     10  C   UNL A   1      35.437  23.657  24.724  1.00  0.00    -0.017 A 
BRANCH   6  11
ATOM     11  S   UNL A   1      32.934  26.102  21.824  1.00  0.00     0.264 S 
ATOM     12  O   UNL A   1      32.716  25.251  20.677  1.00  0.00    -0.201 OA
ATOM     13  O   UNL A   1      33.738  27.301  21.728  1.00  0.00    -0.201 OA
BRANCH  11  14
ATOM     14  N   UNL A   1      31.446  26.575  22.357  1.00  0.00    -0.249 N 
ATOM     15  C   UNL A   1      30.553  24.397  23.230  1.00  0.00     0.115 C 
ATOM     16  C   UNL A   1      30.485  25.893  23.117  1.00  0.00     0.230 C 
ATOM     17  O   UNL A   1      29.575  26.542  23.618  1.00  0.00    -0.274 OA
ATOM     18  H   UNL A   1      31.190  27.489  22.098  1.00  0.00     0.183 HD
ENDBRANCH  11  14
ENDBRANCH   6  11
BRANCH  10  19
ATOM     19  C   UNL A   1      36.676  23.182  25.394  1.00  0.00    -0.011 A 
ATOM     20  C   UNL A   1      37.594  24.020  26.147  1.00  0.00     0.027 A 
ATOM     21  C   UNL A   1      37.049  21.914  25.130  1.00  0.00     0.080 A 
ATOM     22  C   UNL A   1      38.788  23.548  26.539  1.00  0.00     0.095 A 
ATOM     23  C   UNL A   1      38.347  21.360  25.596  1.00  0.00     0.255 A 
ATOM     24  N   UNL A   1      39.171  22.247  26.262  1.00  0.00    -0.258 N 
ATOM     25  O   UNL A   1      38.602  20.187  25.341  1.00  0.00    -0.269 OA
BRANCH  24  26
ATOM     26  C   UNL A   1      40.459  21.745  26.674  1.00  0.00     0.451 C 
ATOM     27  F   UNL A   1      41.381  21.931  25.698  1.00  0.00    -0.185 F 
ATOM     28  F   UNL A   1      40.894  22.385  27.787  1.00  0.00    -0.185 F 
ENDBRANCH  24  26
ENDBRANCH  10  19
ENDBRANCH   3   5
ENDBRANCH   2   3
ENDBRANCH   1   2
BRANCH   1  29
ATOM     29  C   UNL A   1      31.857  29.135  26.587  1.00  0.00     0.275 C 
BRANCH  29  30
ATOM     30  O   UNL A   1      32.839  30.075  26.114  1.00  0.00    -0.458 OA
BRANCH  30  31
ATOM     31  C   UNL A   1      33.233  30.982  27.032  1.00  0.00     0.338 C 
ATOM     32  O   UNL A   1      32.547  31.827  27.588  1.00  0.00    -0.246 OA
BRANCH  31  33
ATOM     33  C   UNL A   1      34.653  30.818  27.365  1.00  0.00     0.060 A 
ATOM     34  C   UNL A   1      35.169  29.528  27.481  1.00  0.00     0.016 A 
ATOM     35  C   UNL A   1      35.387  31.913  27.809  1.00  0.00     0.016 A 
ATOM     36  C   UNL A   1      36.355  29.308  28.169  1.00  0.00     0.010 A 
ATOM     37  C   UNL A   1      36.630  31.700  28.410  1.00  0.00     0.010 A 
ATOM     38  C   UNL A   1      37.096  30.391  28.646  1.00  0.00    -0.014 A 
BRANCH  38  39
ATOM     39  C   UNL A   1      38.314  30.176  29.462  1.00  0.00     0.031 A 
ATOM     40  C   UNL A   1      39.453  29.383  28.887  1.00  0.00     0.074 A 
ATOM     41  C   UNL A   1      38.410  30.681  30.705  1.00  0.00     0.049 A 
ATOM     42  N   UNL A   1      40.473  28.838  29.496  1.00  0.00    -0.248 NA
ATOM     43  C   UNL A   1      39.439  29.171  27.429  1.00  0.00     0.031 C 
ATOM     44  C   UNL A   1      37.429  31.555  31.351  1.00  0.00     0.029 A 
ATOM     45  N   UNL A   1      39.386  30.515  31.655  1.00  0.00    -0.354 N 
ATOM     46  C   UNL A   1      41.174  28.149  28.515  1.00  0.00     0.074 A 
ATOM     47  C   UNL A   1      40.485  28.374  27.263  1.00  0.00     0.031 C 
ATOM     48  C   UNL A   1      37.853  31.851  32.588  1.00  0.00     0.029 A 
ATOM     49  C   UNL A   1      39.080  31.111  32.854  1.00  0.00     0.049 A 
ATOM     50  H   UNL A   1      40.220  30.017  31.494  1.00  0.00     0.167 HD
ATOM     51  C   UNL A   1      42.277  27.378  28.658  1.00  0.00     0.031 A 
ATOM     52  C   UNL A   1      39.681  31.015  34.055  1.00  0.00     0.031 A 
ATOM     53  C   UNL A   1      42.966  27.184  29.904  1.00  0.00     0.049 A 
ATOM     54  C   UNL A   1      40.870  30.113  34.205  1.00  0.00     0.074 A 
ATOM     55  C   UNL A   1      44.083  26.410  30.165  1.00  0.00     0.029 A 
ATOM     56  N   UNL A   1      42.605  27.786  31.100  1.00  0.00    -0.354 N 
ATOM     57  N   UNL A   1      41.470  29.383  33.296  1.00  0.00    -0.248 NA
ATOM     58  C   UNL A   1      41.446  30.002  35.551  1.00  0.00     0.031 C 
ATOM     59  C   UNL A   1      44.383  26.526  31.527  1.00  0.00     0.029 A 
ATOM     60  C   UNL A   1      43.476  27.401  32.102  1.00  0.00     0.049 A 
ATOM     61  H   UNL A   1      41.842  28.395  31.217  1.00  0.00     0.167 HD
ATOM     62  C   UNL A   1      42.501  28.731  33.958  1.00  0.00     0.074 A 
ATOM     63  C   UNL A   1      42.452  29.164  35.341  1.00  0.00     0.031 C 
ATOM     64  C   UNL A   1      43.406  27.850  33.468  1.00  0.00     0.031 A 
BRANCH  51  65
ATOM     65  C   UNL A   1      42.763  26.639  27.445  1.00  0.00    -0.014 A 
ATOM     66  C   UNL A   1      42.197  25.419  27.049  1.00  0.00     0.009 A 
ATOM     67  C   UNL A   1      43.799  27.192  26.674  1.00  0.00     0.009 A 
ATOM     68  C   UNL A   1      42.680  24.752  25.920  1.00  0.00     0.001 A 
ATOM     69  C   UNL A   1      44.263  26.535  25.535  1.00  0.00     0.001 A 
ATOM     70  C   UNL A   1      43.709  25.311  25.162  1.00  0.00     0.000 A 
ENDBRANCH  51  65
BRANCH  52  71
ATOM     71  C   UNL A   1      39.106  31.729  35.222  1.00  0.00    -0.014 A 
ATOM     72  C   UNL A   1      38.280  31.057  36.134  1.00  0.00     0.009 A 
ATOM     73  C   UNL A   1      39.403  33.085  35.442  1.00  0.00     0.009 A 
ATOM     74  C   UNL A   1      37.755  31.731  37.239  1.00  0.00     0.001 A 
ATOM     75  C   UNL A   1      38.899  33.747  36.562  1.00  0.00     0.001 A 
ATOM     76  C   UNL A   1      38.071  33.072  37.456  1.00  0.00     0.000 A 
ENDBRANCH  52  71
BRANCH  64  77
ATOM     77  C   UNL A   1      44.435  27.332  34.425  1.00  0.00    -0.014 A 
ATOM     78  C   UNL A   1      44.223  26.147  35.146  1.00  0.00     0.009 A 
ATOM     79  C   UNL A   1      45.647  28.021  34.578  1.00  0.00     0.009 A 
ATOM     80  C   UNL A   1      45.201  25.674  36.021  1.00  0.00     0.001 A 
ATOM     81  C   UNL A   1      46.630  27.535  35.439  1.00  0.00     0.001 A 
ATOM     82  C   UNL A   1      46.404  26.365  36.165  1.00  0.00     0.000 A 
ENDBRANCH  64  77
ENDBRANCH  38  39
ENDBRANCH  31  33
ENDBRANCH  30  31
ENDBRANCH  29  30
ENDBRANCH   1  29
TORSDOF 15
ENDMDL
