MODEL 1
REMARK VINA RESULT:     -13.8      0.000      0.000
REMARK SMILES O=C(OCCOC(=O)[C@@H](Cc1ccc(O)cc1)Nc1c2ccccc2nc2ccccc12)c1ccc(-c2c3nc(c(-c4ccccc4)c4ccc([nH]4)c(-c4ccccc4)c4nc(c(-c5ccccc5)c5ccc2[nH]5)C=C4)C=C3)cc1
REMARK SMILES IDX 5 1 4 2 3 3 2 4 1 5 33 6 34 7 80 8 35 9 79 10 36 11 37 12
REMARK SMILES IDX 38 13 73 14 39 15 78 16 72 17 74 18 40 19 77 20 71 21 70 22
REMARK SMILES IDX 41 24 63 25 48 26 62 27 49 28 52 29 61 30 75 31 50 32 51 33
REMARK SMILES IDX 60 35 76 36 53 37 42 38 43 39 47 40 44 41 46 42 45 43 64 44
REMARK SMILES IDX 65 45 69 46 66 47 68 48 67 49 54 50 55 51 59 52 56 53 58 54
REMARK SMILES IDX 57 55 6 56 7 57 8 58 9 59 10 60 11 61 12 62 17 63 13 64
REMARK SMILES IDX 16 65 14 66 15 67 18 69 19 71 20 72 32 73 21 74 25 75 27 76
REMARK SMILES IDX 31 77 22 78 24 79 26 80 28 81 30 82 23 83 29 84
REMARK H PARENT 74 23 52 34 15 68 18 70
REMARK Flexibility Score: inf
ROOT
ATOM      1  C   UNL A   1      33.782  33.051  27.815  1.00  0.00     0.274 C 
ENDROOT
BRANCH   1   2
ATOM      2  C   UNL A   1      33.560  33.886  29.087  1.00  0.00     0.275 C 
BRANCH   2   3
ATOM      3  O   UNL A   1      34.702  33.835  29.940  1.00  0.00    -0.458 OA
BRANCH   3   4
ATOM      4  C   UNL A   1      35.011  32.833  30.773  1.00  0.00     0.338 C 
ATOM      5  O   UNL A   1      34.197  32.474  31.621  1.00  0.00    -0.246 OA
BRANCH   4   6
ATOM      6  C   UNL A   1      36.334  32.143  30.797  1.00  0.00     0.060 A 
ATOM      7  C   UNL A   1      37.364  31.554  32.200  1.00  0.00     0.016 A 
ATOM      8  C   UNL A   1      36.845  31.715  29.095  1.00  0.00     0.016 A 
ATOM      9  C   UNL A   1      38.726  30.362  31.892  1.00  0.00     0.010 A 
ATOM     10  C   UNL A   1      38.231  30.621  28.812  1.00  0.00     0.010 A 
ATOM     11  C   UNL A   1      39.216  29.950  30.158  1.00  0.00    -0.014 A 
BRANCH  11  12
ATOM     12  C   UNL A   1      40.590  29.390  29.860  1.00  0.00     0.031 A 
ATOM     13  C   UNL A   1      40.727  27.976  29.290  1.00  0.00     0.074 A 
ATOM     14  C   UNL A   1      41.590  30.280  29.709  1.00  0.00     0.049 A 
ATOM     15  N   UNL A   1      41.720  27.458  28.600  1.00  0.00    -0.248 NA
ATOM     16  C   UNL A   1      39.605  27.037  29.448  1.00  0.00     0.031 C 
ATOM     17  C   UNL A   1      41.531  31.675  30.135  1.00  0.00     0.029 A 
ATOM     18  N   UNL A   1      42.779  30.192  29.028  1.00  0.00    -0.354 N 
ATOM     19  C   UNL A   1      41.322  26.162  28.265  1.00  0.00     0.074 A 
ATOM     20  C   UNL A   1      40.022  25.950  28.830  1.00  0.00     0.031 C 
ATOM     21  C   UNL A   1      42.529  32.355  29.555  1.00  0.00     0.029 A 
ATOM     22  C   UNL A   1      43.377  31.418  28.826  1.00  0.00     0.049 A 
ATOM     23  H   UNL A   1      43.164  29.342  28.716  1.00  0.00     0.167 HD
ATOM     24  C   UNL A   1      41.957  25.216  27.537  1.00  0.00     0.031 A 
ATOM     25  C   UNL A   1      44.485  31.752  28.135  1.00  0.00     0.031 A 
ATOM     26  C   UNL A   1      43.261  25.401  26.983  1.00  0.00     0.049 A 
ATOM     27  C   UNL A   1      45.250  30.648  27.461  1.00  0.00     0.074 A 
ATOM     28  C   UNL A   1      44.079  24.476  26.366  1.00  0.00     0.029 A 
ATOM     29  N   UNL A   1      43.934  26.609  26.992  1.00  0.00    -0.354 N 
ATOM     30  N   UNL A   1      44.892  29.402  27.250  1.00  0.00    -0.248 NA
ATOM     31  C   UNL A   1      46.595  30.981  26.972  1.00  0.00     0.031 C 
ATOM     32  C   UNL A   1      45.284  25.115  26.060  1.00  0.00     0.029 A 
ATOM     33  C   UNL A   1      45.180  26.450  26.424  1.00  0.00     0.049 A 
ATOM     34  H   UNL A   1      43.577  27.454  27.349  1.00  0.00     0.167 HD
ATOM     35  C   UNL A   1      45.978  28.797  26.633  1.00  0.00     0.074 A 
ATOM     36  C   UNL A   1      46.982  29.825  26.449  1.00  0.00     0.031 C 
ATOM     37  C   UNL A   1      46.150  27.501  26.274  1.00  0.00     0.031 A 
BRANCH  24  38
ATOM     38  C   UNL A   1      41.281  23.876  27.408  1.00  0.00    -0.014 A 
ATOM     39  C   UNL A   1      41.700  22.757  28.145  1.00  0.00     0.009 A 
ATOM     40  C   UNL A   1      40.232  23.726  26.488  1.00  0.00     0.009 A 
ATOM     41  C   UNL A   1      41.101  21.509  27.939  1.00  0.00     0.001 A 
ATOM     42  C   UNL A   1      39.621  22.485  26.299  1.00  0.00     0.001 A 
ATOM     43  C   UNL A   1      40.061  21.376  27.019  1.00  0.00     0.000 A 
ENDBRANCH  24  38
BRANCH  25  44
ATOM     44  C   UNL A   1      44.983  33.161  28.129  1.00  0.00    -0.014 A 
ATOM     45  C   UNL A   1      45.777  33.673  29.168  1.00  0.00     0.009 A 
ATOM     46  C   UNL A   1      44.643  34.021  27.069  1.00  0.00     0.009 A 
ATOM     47  C   UNL A   1      46.208  35.006  29.145  1.00  0.00     0.001 A 
ATOM     48  C   UNL A   1      45.112  35.335  27.024  1.00  0.00     0.001 A 
ATOM     49  C   UNL A   1      45.886  35.830  28.067  1.00  0.00     0.000 A 
ENDBRANCH  25  44
BRANCH  37  50
ATOM     50  C   UNL A   1      47.468  27.130  25.668  1.00  0.00    -0.014 A 
ATOM     51  C   UNL A   1      47.684  27.259  24.288  1.00  0.00     0.009 A 
ATOM     52  C   UNL A   1      48.522  26.713  26.494  1.00  0.00     0.009 A 
ATOM     53  C   UNL A   1      48.926  26.944  23.740  1.00  0.00     0.001 A 
ATOM     54  C   UNL A   1      49.773  26.429  25.947  1.00  0.00     0.001 A 
ATOM     55  C   UNL A   1      49.970  26.536  24.570  1.00  0.00     0.000 A 
ENDBRANCH  37  50
ENDBRANCH  11  12
ENDBRANCH   4   6
ENDBRANCH   3   4
ENDBRANCH   2   3
ENDBRANCH   1   2
BRANCH   1  56
ATOM     56  O   UNL A   1      33.239  31.709  27.904  1.00  0.00    -0.461 OA
BRANCH  56  57
ATOM     57  C   UNL A   1      32.300  31.335  26.978  1.00  0.00     0.329 C 
ATOM     58  O   UNL A   1      31.386  32.064  26.617  1.00  0.00    -0.250 OA
BRANCH  57  59
ATOM     59  C   UNL A   1      32.605  29.930  26.337  1.00  0.00     0.194 C 
BRANCH  59  60
ATOM     60  C   UNL A   1      31.887  28.371  27.024  1.00  0.00     0.072 C 
BRANCH  60  61
ATOM     61  C   UNL A   1      31.540  26.346  26.358  1.00  0.00    -0.045 A 
ATOM     62  C   UNL A   1      30.180  25.655  25.991  1.00  0.00     0.007 A 
ATOM     63  C   UNL A   1      32.424  25.118  26.425  1.00  0.00     0.007 A 
ATOM     64  C   UNL A   1      29.792  24.300  25.932  1.00  0.00     0.046 A 
ATOM     65  C   UNL A   1      32.012  23.738  26.449  1.00  0.00     0.046 A 
ATOM     66  C   UNL A   1      30.703  23.351  26.263  1.00  0.00     0.115 A 
BRANCH  66  67
ATOM     67  O   UNL A   1      30.334  22.054  26.416  1.00  0.00    -0.508 OA
ATOM     68  H   UNL A   1      29.791  21.642  25.773  1.00  0.00     0.293 HD
ENDBRANCH  66  67
ENDBRANCH  60  61
ENDBRANCH  59  60
BRANCH  59  69
ATOM     69  N   UNL A   1      32.514  29.956  24.860  1.00  0.00    -0.371 N 
ATOM     70  H   UNL A   1      33.163  30.536  24.398  1.00  0.00     0.161 HD
BRANCH  69  71
ATOM     71  C   UNL A   1      31.623  29.259  24.035  1.00  0.00     0.054 A 
ATOM     72  C   UNL A   1      30.297  29.714  23.715  1.00  0.00     0.024 A 
ATOM     73  C   UNL A   1      32.090  28.038  23.448  1.00  0.00     0.024 A 
ATOM     74  C   UNL A   1      29.676  30.918  24.152  1.00  0.00     0.012 A 
ATOM     75  C   UNL A   1      29.547  28.923  22.816  1.00  0.00     0.073 A 
ATOM     76  C   UNL A   1      31.226  27.360  22.569  1.00  0.00     0.073 A 
ATOM     77  C   UNL A   1      33.367  27.458  23.689  1.00  0.00     0.012 A 
ATOM     78  C   UNL A   1      28.397  31.307  23.742  1.00  0.00     0.001 A 
ATOM     79  C   UNL A   1      28.277  29.323  22.420  1.00  0.00     0.029 A 
ATOM     80  N   UNL A   1      30.000  27.791  22.273  1.00  0.00    -0.248 NA
ATOM     81  C   UNL A   1      31.649  26.188  21.957  1.00  0.00     0.029 A 
ATOM     82  C   UNL A   1      33.776  26.282  23.058  1.00  0.00     0.001 A 
ATOM     83  C   UNL A   1      27.693  30.503  22.870  1.00  0.00     0.002 A 
ATOM     84  C   UNL A   1      32.912  25.646  22.185  1.00  0.00     0.002 A 
ENDBRANCH  69  71
ENDBRANCH  59  69
ENDBRANCH  57  59
ENDBRANCH  56  57
ENDBRANCH   1  56
TORSDOF 16
ENDMDL
MODEL 2
REMARK VINA RESULT:     -13.7      0.436      2.272
REMARK SMILES O=C(OCCOC(=O)[C@@H](Cc1ccc(O)cc1)Nc1c2ccccc2nc2ccccc12)c1ccc(-c2c3nc(c(-c4ccccc4)c4ccc([nH]4)c(-c4ccccc4)c4nc(c(-c5ccccc5)c5ccc2[nH]5)C=C4)C=C3)cc1
REMARK SMILES IDX 5 1 4 2 3 3 2 4 1 5 33 6 34 7 80 8 35 9 79 10 36 11 37 12
REMARK SMILES IDX 38 13 73 14 39 15 78 16 72 17 74 18 40 19 77 20 71 21 70 22
REMARK SMILES IDX 41 24 63 25 48 26 62 27 49 28 52 29 61 30 75 31 50 32 51 33
REMARK SMILES IDX 60 35 76 36 53 37 42 38 43 39 47 40 44 41 46 42 45 43 64 44
REMARK SMILES IDX 65 45 69 46 66 47 68 48 67 49 54 50 55 51 59 52 56 53 58 54
REMARK SMILES IDX 57 55 6 56 7 57 8 58 9 59 10 60 11 61 12 62 17 63 13 64
REMARK SMILES IDX 16 65 14 66 15 67 18 69 19 71 20 72 32 73 21 74 25 75 27 76
REMARK SMILES IDX 31 77 22 78 24 79 26 80 28 81 30 82 23 83 29 84
REMARK H PARENT 74 23 52 34 15 68 18 70
REMARK Flexibility Score: inf
ROOT
ATOM      1  C   UNL A   1      33.692  33.239  27.720  1.00  0.00     0.274 C 
ENDROOT
BRANCH   1   2
ATOM      2  C   UNL A   1      33.425  33.853  29.105  1.00  0.00     0.275 C 
BRANCH   2   3
ATOM      3  O   UNL A   1      34.600  33.825  29.913  1.00  0.00    -0.458 OA
BRANCH   3   4
ATOM      4  C   UNL A   1      34.939  32.847  30.764  1.00  0.00     0.338 C 
ATOM      5  O   UNL A   1      34.143  32.491  31.630  1.00  0.00    -0.246 OA
BRANCH   4   6
ATOM      6  C   UNL A   1      36.276  32.185  30.785  1.00  0.00     0.060 A 
ATOM      7  C   UNL A   1      37.345  31.666  32.186  1.00  0.00     0.016 A 
ATOM      8  C   UNL A   1      36.761  31.705  29.089  1.00  0.00     0.016 A 
ATOM      9  C   UNL A   1      38.724  30.491  31.894  1.00  0.00     0.010 A 
ATOM     10  C   UNL A   1      38.162  30.629  28.817  1.00  0.00     0.010 A 
ATOM     11  C   UNL A   1      39.188  30.025  30.165  1.00  0.00    -0.014 A 
BRANCH  11  12
ATOM     12  C   UNL A   1      40.566  29.482  29.859  1.00  0.00     0.031 A 
ATOM     13  C   UNL A   1      40.715  28.082  29.258  1.00  0.00     0.074 A 
ATOM     14  C   UNL A   1      41.561  30.381  29.732  1.00  0.00     0.049 A 
ATOM     15  N   UNL A   1      41.713  27.586  28.559  1.00  0.00    -0.248 NA
ATOM     16  C   UNL A   1      39.599  27.132  29.390  1.00  0.00     0.031 C 
ATOM     17  C   UNL A   1      41.491  31.766  30.189  1.00  0.00     0.029 A 
ATOM     18  N   UNL A   1      42.752  30.317  29.053  1.00  0.00    -0.354 N 
ATOM     19  C   UNL A   1      41.325  26.296  28.194  1.00  0.00     0.074 A 
ATOM     20  C   UNL A   1      40.025  26.062  28.749  1.00  0.00     0.031 C 
ATOM     21  C   UNL A   1      42.486  32.467  29.628  1.00  0.00     0.029 A 
ATOM     22  C   UNL A   1      43.342  31.552  28.880  1.00  0.00     0.049 A 
ATOM     23  H   UNL A   1      43.144  29.478  28.723  1.00  0.00     0.167 HD
ATOM     24  C   UNL A   1      41.969  25.371  27.446  1.00  0.00     0.031 A 
ATOM     25  C   UNL A   1      44.451  31.909  28.201  1.00  0.00     0.031 A 
ATOM     26  C   UNL A   1      43.273  25.577  26.901  1.00  0.00     0.049 A 
ATOM     27  C   UNL A   1      45.226  30.825  27.505  1.00  0.00     0.074 A 
ATOM     28  C   UNL A   1      44.100  24.672  26.266  1.00  0.00     0.029 A 
ATOM     29  N   UNL A   1      43.938  26.790  26.940  1.00  0.00    -0.354 N 
ATOM     30  N   UNL A   1      44.876  29.583  27.264  1.00  0.00    -0.248 NA
ATOM     31  C   UNL A   1      46.569  31.179  27.028  1.00  0.00     0.031 C 
ATOM     32  C   UNL A   1      45.301  25.327  25.978  1.00  0.00     0.029 A 
ATOM     33  C   UNL A   1      45.187  26.652  26.373  1.00  0.00     0.049 A 
ATOM     34  H   UNL A   1      43.574  27.624  27.315  1.00  0.00     0.167 HD
ATOM     35  C   UNL A   1      45.969  28.999  26.637  1.00  0.00     0.074 A 
ATOM     36  C   UNL A   1      46.966  30.038  26.481  1.00  0.00     0.031 C 
ATOM     37  C   UNL A   1      46.150  27.713  26.250  1.00  0.00     0.031 A 
BRANCH  24  38
ATOM     38  C   UNL A   1      41.303  24.030  27.285  1.00  0.00    -0.014 A 
ATOM     39  C   UNL A   1      40.184  23.849  26.456  1.00  0.00     0.009 A 
ATOM     40  C   UNL A   1      41.783  22.937  28.023  1.00  0.00     0.009 A 
ATOM     41  C   UNL A   1      39.543  22.606  26.396  1.00  0.00     0.001 A 
ATOM     42  C   UNL A   1      41.155  21.692  27.944  1.00  0.00     0.001 A 
ATOM     43  C   UNL A   1      40.031  21.530  27.137  1.00  0.00     0.000 A 
ENDBRANCH  24  38
BRANCH  25  44
ATOM     44  C   UNL A   1      44.939  33.321  28.229  1.00  0.00    -0.014 A 
ATOM     45  C   UNL A   1      45.756  33.804  29.263  1.00  0.00     0.009 A 
ATOM     46  C   UNL A   1      44.566  34.213  27.207  1.00  0.00     0.009 A 
ATOM     47  C   UNL A   1      46.177  35.141  29.274  1.00  0.00     0.001 A 
ATOM     48  C   UNL A   1      45.025  35.531  27.193  1.00  0.00     0.001 A 
ATOM     49  C   UNL A   1      45.822  35.998  28.232  1.00  0.00     0.000 A 
ENDBRANCH  25  44
BRANCH  37  50
ATOM     50  C   UNL A   1      47.473  27.364  25.639  1.00  0.00    -0.014 A 
ATOM     51  C   UNL A   1      48.524  26.880  26.433  1.00  0.00     0.009 A 
ATOM     52  C   UNL A   1      47.645  27.458  24.251  1.00  0.00     0.009 A 
ATOM     53  C   UNL A   1      49.738  26.526  25.848  1.00  0.00     0.001 A 
ATOM     54  C   UNL A   1      48.850  27.074  23.665  1.00  0.00     0.001 A 
ATOM     55  C   UNL A   1      49.898  26.618  24.465  1.00  0.00     0.000 A 
ENDBRANCH  37  50
ENDBRANCH  11  12
ENDBRANCH   4   6
ENDBRANCH   3   4
ENDBRANCH   2   3
ENDBRANCH   1   2
BRANCH   1  56
ATOM     56  O   UNL A   1      33.403  31.819  27.652  1.00  0.00    -0.461 OA
BRANCH  56  57
ATOM     57  C   UNL A   1      32.303  31.423  26.939  1.00  0.00     0.329 C 
ATOM     58  O   UNL A   1      31.327  32.140  26.756  1.00  0.00    -0.250 OA
BRANCH  57  59
ATOM     59  C   UNL A   1      32.487  30.009  26.272  1.00  0.00     0.194 C 
BRANCH  59  60
ATOM     60  C   UNL A   1      31.605  28.513  26.905  1.00  0.00     0.072 C 
BRANCH  60  61
ATOM     61  C   UNL A   1      31.528  26.400  26.461  1.00  0.00    -0.045 A 
ATOM     62  C   UNL A   1      32.701  25.357  26.458  1.00  0.00     0.007 A 
ATOM     63  C   UNL A   1      30.469  25.574  25.761  1.00  0.00     0.007 A 
ATOM     64  C   UNL A   1      32.849  24.102  25.831  1.00  0.00     0.046 A 
ATOM     65  C   UNL A   1      30.648  24.334  25.050  1.00  0.00     0.046 A 
ATOM     66  C   UNL A   1      31.842  23.648  25.045  1.00  0.00     0.115 A 
BRANCH  66  67
ATOM     67  O   UNL A   1      32.007  22.549  24.264  1.00  0.00    -0.508 OA
ATOM     68  H   UNL A   1      31.621  21.734  24.515  1.00  0.00     0.293 HD
ENDBRANCH  66  67
ENDBRANCH  60  61
ENDBRANCH  59  60
BRANCH  59  69
ATOM     69  N   UNL A   1      32.439  30.075  24.794  1.00  0.00    -0.371 N 
ATOM     70  H   UNL A   1      33.003  30.766  24.375  1.00  0.00     0.161 HD
BRANCH  69  71
ATOM     71  C   UNL A   1      31.693  29.279  23.917  1.00  0.00     0.054 A 
ATOM     72  C   UNL A   1      32.171  28.056  23.333  1.00  0.00     0.024 A 
ATOM     73  C   UNL A   1      30.355  29.703  23.624  1.00  0.00     0.024 A 
ATOM     74  C   UNL A   1      33.440  27.445  23.543  1.00  0.00     0.012 A 
ATOM     75  C   UNL A   1      31.268  27.339  22.517  1.00  0.00     0.073 A 
ATOM     76  C   UNL A   1      29.574  28.879  22.793  1.00  0.00     0.073 A 
ATOM     77  C   UNL A   1      29.756  30.898  24.114  1.00  0.00     0.012 A 
ATOM     78  C   UNL A   1      33.799  26.220  22.974  1.00  0.00     0.001 A 
ATOM     79  C   UNL A   1      31.640  26.123  21.957  1.00  0.00     0.029 A 
ATOM     80  N   UNL A   1      30.023  27.744  22.259  1.00  0.00    -0.248 NA
ATOM     81  C   UNL A   1      28.264  29.238  22.506  1.00  0.00     0.029 A 
ATOM     82  C   UNL A   1      28.435  31.237  23.819  1.00  0.00     0.001 A 
ATOM     83  C   UNL A   1      32.891  25.554  22.175  1.00  0.00     0.002 A 
ATOM     84  C   UNL A   1      27.684  30.400  23.013  1.00  0.00     0.002 A 
ENDBRANCH  69  71
ENDBRANCH  59  69
ENDBRANCH  57  59
ENDBRANCH  56  57
ENDBRANCH   1  56
TORSDOF 16
ENDMDL
MODEL 3
REMARK VINA RESULT:     -13.6      2.037      3.651
REMARK SMILES O=C(OCCOC(=O)[C@@H](Cc1ccc(O)cc1)Nc1c2ccccc2nc2ccccc12)c1ccc(-c2c3nc(c(-c4ccccc4)c4ccc([nH]4)c(-c4ccccc4)c4nc(c(-c5ccccc5)c5ccc2[nH]5)C=C4)C=C3)cc1
REMARK SMILES IDX 5 1 4 2 3 3 2 4 1 5 33 6 34 7 80 8 35 9 79 10 36 11 37 12
REMARK SMILES IDX 38 13 73 14 39 15 78 16 72 17 74 18 40 19 77 20 71 21 70 22
REMARK SMILES IDX 41 24 63 25 48 26 62 27 49 28 52 29 61 30 75 31 50 32 51 33
REMARK SMILES IDX 60 35 76 36 53 37 42 38 43 39 47 40 44 41 46 42 45 43 64 44
REMARK SMILES IDX 65 45 69 46 66 47 68 48 67 49 54 50 55 51 59 52 56 53 58 54
REMARK SMILES IDX 57 55 6 56 7 57 8 58 9 59 10 60 11 61 12 62 17 63 13 64
REMARK SMILES IDX 16 65 14 66 15 67 18 69 19 71 20 72 32 73 21 74 25 75 27 76
REMARK SMILES IDX 31 77 22 78 24 79 26 80 28 81 30 82 23 83 29 84
REMARK H PARENT 74 23 52 34 15 68 18 70
REMARK Flexibility Score: inf
ROOT
ATOM      1  C   UNL A   1      32.353  30.013  27.241  1.00  0.00     0.274 C 
ENDROOT
BRANCH   1   2
ATOM      2  C   UNL A   1      33.832  30.356  27.491  1.00  0.00     0.275 C 
BRANCH   2   3
ATOM      3  O   UNL A   1      33.962  31.611  28.155  1.00  0.00    -0.458 OA
BRANCH   3   4
ATOM      4  C   UNL A   1      34.759  31.863  29.201  1.00  0.00     0.338 C 
ATOM      5  O   UNL A   1      34.516  32.817  29.937  1.00  0.00    -0.246 OA
BRANCH   4   6
ATOM      6  C   UNL A   1      35.998  31.091  29.512  1.00  0.00     0.060 A 
ATOM      7  C   UNL A   1      36.487  30.142  31.007  1.00  0.00     0.016 A 
ATOM      8  C   UNL A   1      37.065  31.002  28.031  1.00  0.00     0.016 A 
ATOM      9  C   UNL A   1      37.880  28.949  30.915  1.00  0.00     0.010 A 
ATOM     10  C   UNL A   1      38.471  29.897  27.990  1.00  0.00     0.010 A 
ATOM     11  C   UNL A   1      38.939  28.884  29.400  1.00  0.00    -0.014 A 
BRANCH  11  12
ATOM     12  C   UNL A   1      40.335  28.305  29.463  1.00  0.00     0.031 A 
ATOM     13  C   UNL A   1      40.592  26.885  28.951  1.00  0.00     0.074 A 
ATOM     14  C   UNL A   1      41.353  29.180  29.569  1.00  0.00     0.049 A 
ATOM     15  N   UNL A   1      41.720  26.349  28.538  1.00  0.00    -0.248 NA
ATOM     16  C   UNL A   1      39.454  25.962  28.821  1.00  0.00     0.031 C 
ATOM     17  C   UNL A   1      41.208  30.579  29.961  1.00  0.00     0.029 A 
ATOM     18  N   UNL A   1      42.675  29.072  29.213  1.00  0.00    -0.354 N 
ATOM     19  C   UNL A   1      41.401  25.057  28.116  1.00  0.00     0.074 A 
ATOM     20  C   UNL A   1      39.998  24.866  28.333  1.00  0.00     0.031 C 
ATOM     21  C   UNL A   1      42.330  31.242  29.652  1.00  0.00     0.029 A 
ATOM     22  C   UNL A   1      43.322  30.289  29.165  1.00  0.00     0.049 A 
ATOM     23  H   UNL A   1      43.114  28.216  29.011  1.00  0.00     0.167 HD
ATOM     24  C   UNL A   1      42.187  24.098  27.576  1.00  0.00     0.031 A 
ATOM     25  C   UNL A   1      44.575  30.604  28.778  1.00  0.00     0.031 A 
ATOM     26  C   UNL A   1      43.591  24.262  27.372  1.00  0.00     0.049 A 
ATOM     27  C   UNL A   1      45.470  29.485  28.324  1.00  0.00     0.074 A 
ATOM     28  C   UNL A   1      44.527  23.322  26.986  1.00  0.00     0.029 A 
ATOM     29  N   UNL A   1      44.257  25.461  27.548  1.00  0.00    -0.354 N 
ATOM     30  N   UNL A   1      45.159  28.243  28.032  1.00  0.00    -0.248 NA
ATOM     31  C   UNL A   1      46.899  29.797  28.193  1.00  0.00     0.031 C 
ATOM     32  C   UNL A   1      45.778  23.944  26.994  1.00  0.00     0.029 A 
ATOM     33  C   UNL A   1      45.605  25.282  27.316  1.00  0.00     0.049 A 
ATOM     34  H   UNL A   1      43.834  26.313  27.800  1.00  0.00     0.167 HD
ATOM     35  C   UNL A   1      46.357  27.619  27.714  1.00  0.00     0.074 A 
ATOM     36  C   UNL A   1      47.389  28.633  27.789  1.00  0.00     0.031 C 
ATOM     37  C   UNL A   1      46.596  26.319  27.415  1.00  0.00     0.031 A 
BRANCH  24  38
ATOM     38  C   UNL A   1      41.547  22.766  27.284  1.00  0.00    -0.014 A 
ATOM     39  C   UNL A   1      41.807  21.628  28.064  1.00  0.00     0.009 A 
ATOM     40  C   UNL A   1      40.702  22.645  26.170  1.00  0.00     0.009 A 
ATOM     41  C   UNL A   1      41.258  20.390  27.713  1.00  0.00     0.001 A 
ATOM     42  C   UNL A   1      40.137  21.412  25.834  1.00  0.00     0.001 A 
ATOM     43  C   UNL A   1      40.422  20.284  26.601  1.00  0.00     0.000 A 
ENDBRANCH  24  38
BRANCH  25  44
ATOM     44  C   UNL A   1      45.078  32.006  28.895  1.00  0.00    -0.014 A 
ATOM     45  C   UNL A   1      45.634  32.499  30.086  1.00  0.00     0.009 A 
ATOM     46  C   UNL A   1      44.985  32.879  27.796  1.00  0.00     0.009 A 
ATOM     47  C   UNL A   1      46.074  33.826  30.171  1.00  0.00     0.001 A 
ATOM     48  C   UNL A   1      45.468  34.186  27.866  1.00  0.00     0.001 A 
ATOM     49  C   UNL A   1      46.003  34.664  29.058  1.00  0.00     0.000 A 
ENDBRANCH  25  44
BRANCH  37  50
ATOM     50  C   UNL A   1      48.020  25.927  27.164  1.00  0.00    -0.014 A 
ATOM     51  C   UNL A   1      48.625  26.181  25.925  1.00  0.00     0.009 A 
ATOM     52  C   UNL A   1      48.778  25.361  28.199  1.00  0.00     0.009 A 
ATOM     53  C   UNL A   1      49.961  25.843  25.716  1.00  0.00     0.001 A 
ATOM     54  C   UNL A   1      50.123  25.053  27.997  1.00  0.00     0.001 A 
ATOM     55  C   UNL A   1      50.709  25.286  26.753  1.00  0.00     0.000 A 
ENDBRANCH  37  50
ENDBRANCH  11  12
ENDBRANCH   4   6
ENDBRANCH   3   4
ENDBRANCH   2   3
ENDBRANCH   1   2
BRANCH   1  56
ATOM     56  O   UNL A   1      32.025  28.629  27.526  1.00  0.00    -0.461 OA
BRANCH  56  57
ATOM     57  C   UNL A   1      31.761  27.803  26.466  1.00  0.00     0.329 C 
ATOM     58  O   UNL A   1      31.046  28.123  25.525  1.00  0.00    -0.250 OA
BRANCH  57  59
ATOM     59  C   UNL A   1      32.579  26.459  26.525  1.00  0.00     0.194 C 
BRANCH  59  60
ATOM     60  C   UNL A   1      31.744  24.810  26.514  1.00  0.00     0.072 C 
BRANCH  60  61
ATOM     61  C   UNL A   1      32.267  22.760  26.079  1.00  0.00    -0.045 A 
ATOM     62  C   UNL A   1      33.245  21.812  26.858  1.00  0.00     0.007 A 
ATOM     63  C   UNL A   1      32.095  21.942  24.815  1.00  0.00     0.007 A 
ATOM     64  C   UNL A   1      33.944  20.649  26.473  1.00  0.00     0.046 A 
ATOM     65  C   UNL A   1      32.871  20.805  24.391  1.00  0.00     0.046 A 
ATOM     66  C   UNL A   1      33.820  20.213  25.194  1.00  0.00     0.115 A 
BRANCH  66  67
ATOM     67  O   UNL A   1      34.616  19.224  24.714  1.00  0.00    -0.508 OA
ATOM     68  H   UNL A   1      34.409  18.328  24.892  1.00  0.00     0.293 HD
ENDBRANCH  66  67
ENDBRANCH  60  61
ENDBRANCH  59  60
BRANCH  59  69
ATOM     69  N   UNL A   1      33.748  26.474  25.617  1.00  0.00    -0.371 N 
ATOM     70  H   UNL A   1      34.397  27.201  25.761  1.00  0.00     0.161 HD
BRANCH  69  71
ATOM     71  C   UNL A   1      34.048  25.584  24.579  1.00  0.00     0.054 A 
ATOM     72  C   UNL A   1      35.020  24.529  24.676  1.00  0.00     0.024 A 
ATOM     73  C   UNL A   1      33.301  25.719  23.362  1.00  0.00     0.024 A 
ATOM     74  C   UNL A   1      35.818  24.202  25.809  1.00  0.00     0.012 A 
ATOM     75  C   UNL A   1      35.158  23.678  23.557  1.00  0.00     0.073 A 
ATOM     76  C   UNL A   1      33.550  24.791  22.334  1.00  0.00     0.073 A 
ATOM     77  C   UNL A   1      32.324  26.724  23.117  1.00  0.00     0.012 A 
ATOM     78  C   UNL A   1      36.701  23.119  25.831  1.00  0.00     0.001 A 
ATOM     79  C   UNL A   1      36.041  22.607  23.594  1.00  0.00     0.029 A 
ATOM     80  N   UNL A   1      34.449  23.814  22.434  1.00  0.00    -0.248 NA
ATOM     81  C   UNL A   1      32.829  24.869  21.150  1.00  0.00     0.029 A 
ATOM     82  C   UNL A   1      31.605  26.781  21.922  1.00  0.00     0.001 A 
ATOM     83  C   UNL A   1      36.813  22.316  24.714  1.00  0.00     0.002 A 
ATOM     84  C   UNL A   1      31.858  25.846  20.935  1.00  0.00     0.002 A 
ENDBRANCH  69  71
ENDBRANCH  59  69
ENDBRANCH  57  59
ENDBRANCH  56  57
ENDBRANCH   1  56
TORSDOF 16
ENDMDL
