MODEL 1
REMARK VINA RESULT:     -11.4      0.000      0.000
REMARK SMILES CC(C)c1ccc(C(=O)NC[C@H]2CC[C@@H](C(=O)OCCOC(=O)c3ccc(-c4c5nc(c(-c6ccccc6)c6ccc([nH]6)c(-c6ccccc6)c6nc(c(-c7ccccc7)c7ccc4[nH]7)C=C6)C=C5)cc3)O2)cc1
REMARK SMILES IDX 19 1 18 2 16 3 17 4 15 5 12 6 13 7 72 8 14 9 11 10 10 11
REMARK SMILES IDX 8 12 9 13 7 15 4 16 5 17 74 18 6 19 73 20 2 21 1 22 3 23
REMARK SMILES IDX 20 24 21 25 22 26 23 27 24 28 25 29 71 30 26 31 70 32 27 33
REMARK SMILES IDX 28 34 29 35 64 36 30 37 69 38 63 39 65 40 31 41 68 42 62 43
REMARK SMILES IDX 61 44 32 46 54 47 39 48 53 49 40 50 43 51 52 52 66 53 41 54
REMARK SMILES IDX 42 55 51 57 67 58 44 59 33 60 34 61 38 62 35 63 37 64 36 65
REMARK SMILES IDX 55 66 56 67 60 68 57 69 59 70 58 71 45 72 46 73 50 74 47 75
REMARK SMILES IDX 49 76 48 77
REMARK H PARENT 10 14 65 45 43 56
REMARK Flexibility Score: inf
ROOT
ATOM      1  C   UNL A   1      35.520  20.565  25.042  1.00  0.00     0.274 C 
ENDROOT
BRANCH   1   2
ATOM      2  O   UNL A   1      35.174  21.514  26.072  1.00  0.00    -0.460 OA
BRANCH   2   3
ATOM      3  C   UNL A   1      34.355  22.519  25.647  1.00  0.00     0.335 C 
ATOM      4  O   UNL A   1      33.941  23.404  26.383  1.00  0.00    -0.249 OA
BRANCH   3   5
ATOM      5  C   UNL A   1      33.981  22.381  24.168  1.00  0.00     0.228 C 
ATOM      6  C   UNL A   1      32.084  23.101  22.973  1.00  0.00     0.138 C 
ATOM      7  C   UNL A   1      33.159  24.143  22.729  1.00  0.00     0.037 C 
ATOM      8  O   UNL A   1      32.552  22.285  24.048  1.00  0.00    -0.361 OA
ATOM      9  C   UNL A   1      34.428  23.544  23.299  1.00  0.00     0.047 C 
BRANCH   6  10
ATOM     10  C   UNL A   1      30.713  23.724  23.308  1.00  0.00     0.148 C 
BRANCH  10  11
ATOM     11  N   UNL A   1      30.629  24.237  24.668  1.00  0.00    -0.349 N 
ATOM     12  C   UNL A   1      30.379  25.459  25.240  1.00  0.00     0.251 C 
ATOM     13  O   UNL A   1      30.327  25.459  26.475  1.00  0.00    -0.269 OA
ATOM     14  H   UNL A   1      30.791  23.536  25.341  1.00  0.00     0.163 HD
BRANCH  12  15
ATOM     15  C   UNL A   1      30.164  26.756  24.523  1.00  0.00     0.039 A 
ATOM     16  C   UNL A   1      29.451  29.209  23.242  1.00  0.00    -0.045 A 
ATOM     17  C   UNL A   1      28.633  28.079  23.135  1.00  0.00     0.005 A 
ATOM     18  C   UNL A   1      30.651  29.074  23.944  1.00  0.00     0.005 A 
ATOM     19  C   UNL A   1      28.987  26.876  23.763  1.00  0.00     0.014 A 
ATOM     20  C   UNL A   1      30.990  27.872  24.587  1.00  0.00     0.014 A 
BRANCH  16  21
ATOM     21  C   UNL A   1      29.016  30.528  22.626  1.00  0.00     0.013 C 
ATOM     22  C   UNL A   1      28.134  30.356  21.381  1.00  0.00     0.012 C 
ATOM     23  C   UNL A   1      28.314  31.406  23.661  1.00  0.00     0.012 C 
ENDBRANCH  16  21
ENDBRANCH  12  15
ENDBRANCH  10  11
ENDBRANCH   6  10
ENDBRANCH   3   5
ENDBRANCH   2   3
ENDBRANCH   1   2
BRANCH   1  24
ATOM     24  C   UNL A   1      37.012  20.222  24.994  1.00  0.00     0.275 C 
BRANCH  24  25
ATOM     25  O   UNL A   1      37.856  21.370  25.205  1.00  0.00    -0.458 OA
BRANCH  25  26
ATOM     26  C   UNL A   1      38.971  21.128  25.926  1.00  0.00     0.338 C 
ATOM     27  O   UNL A   1      39.582  20.075  26.021  1.00  0.00    -0.246 OA
BRANCH  26  28
ATOM     28  C   UNL A   1      39.471  22.367  26.540  1.00  0.00     0.060 A 
ATOM     29  C   UNL A   1      38.911  23.567  26.107  1.00  0.00     0.016 A 
ATOM     30  C   UNL A   1      40.593  22.370  27.369  1.00  0.00     0.016 A 
ATOM     31  C   UNL A   1      39.502  24.781  26.444  1.00  0.00     0.010 A 
ATOM     32  C   UNL A   1      41.168  23.594  27.739  1.00  0.00     0.010 A 
ATOM     33  C   UNL A   1      40.648  24.806  27.249  1.00  0.00    -0.014 A 
BRANCH  33  34
ATOM     34  C   UNL A   1      41.331  26.100  27.495  1.00  0.00     0.031 A 
ATOM     35  C   UNL A   1      40.727  27.104  28.441  1.00  0.00     0.074 A 
ATOM     36  C   UNL A   1      42.536  26.347  26.948  1.00  0.00     0.049 A 
ATOM     37  N   UNL A   1      41.152  28.302  28.757  1.00  0.00    -0.248 NA
ATOM     38  C   UNL A   1      39.491  26.702  29.131  1.00  0.00     0.031 C 
ATOM     39  C   UNL A   1      43.280  25.430  26.083  1.00  0.00     0.029 A 
ATOM     40  N   UNL A   1      43.357  27.441  27.062  1.00  0.00    -0.354 N 
ATOM     41  C   UNL A   1      40.225  28.805  29.662  1.00  0.00     0.074 A 
ATOM     42  C   UNL A   1      39.215  27.785  29.843  1.00  0.00     0.031 C 
ATOM     43  C   UNL A   1      44.463  25.987  25.772  1.00  0.00     0.029 A 
ATOM     44  C   UNL A   1      44.536  27.317  26.372  1.00  0.00     0.049 A 
ATOM     45  H   UNL A   1      43.122  28.238  27.589  1.00  0.00     0.167 HD
ATOM     46  C   UNL A   1      40.213  30.007  30.286  1.00  0.00     0.031 A 
ATOM     47  C   UNL A   1      45.555  28.184  26.221  1.00  0.00     0.031 A 
ATOM     48  C   UNL A   1      41.215  31.026  30.123  1.00  0.00     0.049 A 
ATOM     49  C   UNL A   1      45.479  29.541  26.858  1.00  0.00     0.074 A 
ATOM     50  C   UNL A   1      41.264  32.289  30.691  1.00  0.00     0.029 A 
ATOM     51  N   UNL A   1      42.351  30.893  29.343  1.00  0.00    -0.354 N 
ATOM     52  N   UNL A   1      44.559  30.031  27.651  1.00  0.00    -0.248 NA
ATOM     53  C   UNL A   1      46.578  30.472  26.560  1.00  0.00     0.031 C 
ATOM     54  C   UNL A   1      42.423  32.929  30.234  1.00  0.00     0.029 A 
ATOM     55  C   UNL A   1      43.103  32.053  29.405  1.00  0.00     0.049 A 
ATOM     56  H   UNL A   1      42.588  30.092  28.823  1.00  0.00     0.167 HD
ATOM     57  C   UNL A   1      44.965  31.325  27.945  1.00  0.00     0.074 A 
ATOM     58  C   UNL A   1      46.224  31.540  27.262  1.00  0.00     0.031 C 
ATOM     59  C   UNL A   1      44.346  32.255  28.711  1.00  0.00     0.031 A 
BRANCH  46  60
ATOM     60  C   UNL A   1      39.047  30.297  31.182  1.00  0.00    -0.014 A 
ATOM     61  C   UNL A   1      39.097  30.006  32.553  1.00  0.00     0.009 A 
ATOM     62  C   UNL A   1      37.892  30.890  30.649  1.00  0.00     0.009 A 
ATOM     63  C   UNL A   1      37.999  30.281  33.370  1.00  0.00     0.001 A 
ATOM     64  C   UNL A   1      36.802  31.177  31.472  1.00  0.00     0.001 A 
ATOM     65  C   UNL A   1      36.854  30.866  32.830  1.00  0.00     0.000 A 
ENDBRANCH  46  60
BRANCH  47  66
ATOM     66  C   UNL A   1      46.729  27.806  25.400  1.00  0.00    -0.014 A 
ATOM     67  C   UNL A   1      47.856  27.226  25.998  1.00  0.00     0.009 A 
ATOM     68  C   UNL A   1      46.728  28.027  24.015  1.00  0.00     0.009 A 
ATOM     69  C   UNL A   1      48.966  26.883  25.224  1.00  0.00     0.001 A 
ATOM     70  C   UNL A   1      47.832  27.668  23.241  1.00  0.00     0.001 A 
ATOM     71  C   UNL A   1      48.952  27.100  23.846  1.00  0.00     0.000 A 
ENDBRANCH  47  66
BRANCH  59  72
ATOM     72  C   UNL A   1      45.025  33.584  28.849  1.00  0.00    -0.014 A 
ATOM     73  C   UNL A   1      44.777  34.613  27.928  1.00  0.00     0.009 A 
ATOM     74  C   UNL A   1      45.899  33.819  29.921  1.00  0.00     0.009 A 
ATOM     75  C   UNL A   1      45.411  35.850  28.067  1.00  0.00     0.001 A 
ATOM     76  C   UNL A   1      46.521  35.060  30.064  1.00  0.00     0.001 A 
ATOM     77  C   UNL A   1      46.281  36.072  29.135  1.00  0.00     0.000 A 
ENDBRANCH  59  72
ENDBRANCH  33  34
ENDBRANCH  26  28
ENDBRANCH  25  26
ENDBRANCH  24  25
ENDBRANCH   1  24
TORSDOF 15
ENDMDL
MODEL 2
REMARK VINA RESULT:     -11.1      4.029      7.280
REMARK SMILES CC(C)c1ccc(C(=O)NC[C@H]2CC[C@@H](C(=O)OCCOC(=O)c3ccc(-c4c5nc(c(-c6ccccc6)c6ccc([nH]6)c(-c6ccccc6)c6nc(c(-c7ccccc7)c7ccc4[nH]7)C=C6)C=C5)cc3)O2)cc1
REMARK SMILES IDX 19 1 18 2 16 3 17 4 15 5 12 6 13 7 72 8 14 9 11 10 10 11
REMARK SMILES IDX 8 12 9 13 7 15 4 16 5 17 74 18 6 19 73 20 2 21 1 22 3 23
REMARK SMILES IDX 20 24 21 25 22 26 23 27 24 28 25 29 71 30 26 31 70 32 27 33
REMARK SMILES IDX 28 34 29 35 64 36 30 37 69 38 63 39 65 40 31 41 68 42 62 43
REMARK SMILES IDX 61 44 32 46 54 47 39 48 53 49 40 50 43 51 52 52 66 53 41 54
REMARK SMILES IDX 42 55 51 57 67 58 44 59 33 60 34 61 38 62 35 63 37 64 36 65
REMARK SMILES IDX 55 66 56 67 60 68 57 69 59 70 58 71 45 72 46 73 50 74 47 75
REMARK SMILES IDX 49 76 48 77
REMARK H PARENT 10 14 65 45 43 56
REMARK Flexibility Score: inf
ROOT
ATOM      1  C   UNL A   1      31.767  30.334  25.706  1.00  0.00     0.274 C 
ENDROOT
BRANCH   1   2
ATOM      2  O   UNL A   1      32.741  29.306  25.428  1.00  0.00    -0.460 OA
BRANCH   2   3
ATOM      3  C   UNL A   1      32.325  28.380  24.518  1.00  0.00     0.335 C 
ATOM      4  O   UNL A   1      32.849  28.232  23.423  1.00  0.00    -0.249 OA
BRANCH   3   5
ATOM      5  C   UNL A   1      31.106  27.589  25.006  1.00  0.00     0.228 C 
ATOM      6  C   UNL A   1      30.269  25.481  24.373  1.00  0.00     0.138 C 
ATOM      7  C   UNL A   1      31.074  25.255  25.640  1.00  0.00     0.037 C 
ATOM      8  O   UNL A   1      30.592  26.797  23.923  1.00  0.00    -0.361 OA
ATOM      9  C   UNL A   1      31.395  26.642  26.157  1.00  0.00     0.047 C 
BRANCH   6  10
ATOM     10  C   UNL A   1      30.568  24.433  23.282  1.00  0.00     0.148 C 
BRANCH  10  11
ATOM     11  N   UNL A   1      31.539  24.888  22.295  1.00  0.00    -0.349 N 
ATOM     12  C   UNL A   1      32.907  24.875  22.191  1.00  0.00     0.251 C 
ATOM     13  O   UNL A   1      33.355  25.314  21.125  1.00  0.00    -0.269 OA
ATOM     14  H   UNL A   1      31.108  25.306  21.514  1.00  0.00     0.163 HD
BRANCH  12  15
ATOM     15  C   UNL A   1      33.880  24.388  23.219  1.00  0.00     0.039 A 
ATOM     16  C   UNL A   1      35.913  23.354  24.941  1.00  0.00    -0.045 A 
ATOM     17  C   UNL A   1      35.471  22.623  23.833  1.00  0.00     0.005 A 
ATOM     18  C   UNL A   1      35.283  24.573  25.204  1.00  0.00     0.005 A 
ATOM     19  C   UNL A   1      34.472  23.132  22.991  1.00  0.00     0.014 A 
ATOM     20  C   UNL A   1      34.296  25.086  24.346  1.00  0.00     0.014 A 
BRANCH  16  21
ATOM     21  C   UNL A   1      37.053  22.829  25.796  1.00  0.00     0.013 C 
ATOM     22  C   UNL A   1      37.877  21.734  25.106  1.00  0.00     0.012 C 
ATOM     23  C   UNL A   1      37.960  23.971  26.254  1.00  0.00     0.012 C 
ENDBRANCH  16  21
ENDBRANCH  12  15
ENDBRANCH  10  11
ENDBRANCH   6  10
ENDBRANCH   3   5
ENDBRANCH   2   3
ENDBRANCH   1   2
BRANCH   1  24
ATOM     24  C   UNL A   1      32.127  31.220  26.903  1.00  0.00     0.275 C 
BRANCH  24  25
ATOM     25  O   UNL A   1      33.301  30.764  27.601  1.00  0.00    -0.458 OA
BRANCH  25  26
ATOM     26  C   UNL A   1      34.166  31.739  27.953  1.00  0.00     0.338 C 
ATOM     27  O   UNL A   1      33.911  32.909  28.193  1.00  0.00    -0.246 OA
BRANCH  26  28
ATOM     28  C   UNL A   1      35.518  31.193  28.136  1.00  0.00     0.060 A 
ATOM     29  C   UNL A   1      35.631  29.822  28.356  1.00  0.00     0.016 A 
ATOM     30  C   UNL A   1      36.628  32.024  28.284  1.00  0.00     0.016 A 
ATOM     31  C   UNL A   1      36.834  29.275  28.790  1.00  0.00     0.010 A 
ATOM     32  C   UNL A   1      37.852  31.469  28.687  1.00  0.00     0.010 A 
ATOM     33  C   UNL A   1      37.953  30.097  28.979  1.00  0.00    -0.014 A 
BRANCH  33  34
ATOM     34  C   UNL A   1      39.189  29.515  29.557  1.00  0.00     0.031 A 
ATOM     35  C   UNL A   1      39.749  30.058  30.845  1.00  0.00     0.074 A 
ATOM     36  C   UNL A   1      39.766  28.441  28.985  1.00  0.00     0.049 A 
ATOM     37  N   UNL A   1      40.836  29.709  31.487  1.00  0.00    -0.248 NA
ATOM     38  C   UNL A   1      38.977  31.125  31.504  1.00  0.00     0.031 C 
ATOM     39  C   UNL A   1      39.283  27.756  27.785  1.00  0.00     0.029 A 
ATOM     40  N   UNL A   1      40.875  27.725  29.357  1.00  0.00    -0.354 N 
ATOM     41  C   UNL A   1      40.891  30.527  32.609  1.00  0.00     0.074 A 
ATOM     42  C   UNL A   1      39.731  31.391  32.560  1.00  0.00     0.031 C 
ATOM     43  C   UNL A   1      40.073  26.698  27.540  1.00  0.00     0.029 A 
ATOM     44  C   UNL A   1      41.145  26.662  28.532  1.00  0.00     0.049 A 
ATOM     45  H   UNL A   1      41.425  27.951  30.141  1.00  0.00     0.167 HD
ATOM     46  C   UNL A   1      41.823  30.559  33.591  1.00  0.00     0.031 A 
ATOM     47  C   UNL A   1      42.153  25.770  28.558  1.00  0.00     0.031 A 
ATOM     48  C   UNL A   1      42.975  29.700  33.658  1.00  0.00     0.049 A 
ATOM     49  C   UNL A   1      43.217  25.878  29.611  1.00  0.00     0.074 A 
ATOM     50  C   UNL A   1      43.990  29.687  34.601  1.00  0.00     0.029 A 
ATOM     51  N   UNL A   1      43.258  28.694  32.751  1.00  0.00    -0.354 N 
ATOM     52  N   UNL A   1      43.296  26.706  30.622  1.00  0.00    -0.248 NA
ATOM     53  C   UNL A   1      44.343  24.937  29.510  1.00  0.00     0.031 C 
ATOM     54  C   UNL A   1      44.901  28.684  34.248  1.00  0.00     0.029 A 
ATOM     55  C   UNL A   1      44.436  28.059  33.103  1.00  0.00     0.049 A 
ATOM     56  H   UNL A   1      42.703  28.464  31.971  1.00  0.00     0.167 HD
ATOM     57  C   UNL A   1      44.478  26.388  31.278  1.00  0.00     0.074 A 
ATOM     58  C   UNL A   1      45.074  25.280  30.562  1.00  0.00     0.031 C 
ATOM     59  C   UNL A   1      45.022  26.967  32.374  1.00  0.00     0.031 A 
BRANCH  46  60
ATOM     60  C   UNL A   1      41.647  31.593  34.662  1.00  0.00    -0.014 A 
ATOM     61  C   UNL A   1      42.141  32.895  34.499  1.00  0.00     0.009 A 
ATOM     62  C   UNL A   1      40.959  31.263  35.841  1.00  0.00     0.009 A 
ATOM     63  C   UNL A   1      41.969  33.843  35.510  1.00  0.00     0.001 A 
ATOM     64  C   UNL A   1      40.777  32.217  36.842  1.00  0.00     0.001 A 
ATOM     65  C   UNL A   1      41.288  33.505  36.678  1.00  0.00     0.000 A 
ENDBRANCH  46  60
BRANCH  47  66
ATOM     66  C   UNL A   1      42.224  24.708  27.526  1.00  0.00    -0.014 A 
ATOM     67  C   UNL A   1      41.575  23.482  27.724  1.00  0.00     0.009 A 
ATOM     68  C   UNL A   1      42.944  24.917  26.341  1.00  0.00     0.009 A 
ATOM     69  C   UNL A   1      41.655  22.478  26.757  1.00  0.00     0.001 A 
ATOM     70  C   UNL A   1      43.008  23.919  25.367  1.00  0.00     0.001 A 
ATOM     71  C   UNL A   1      42.367  22.699  25.579  1.00  0.00     0.000 A 
ENDBRANCH  47  66
BRANCH  59  72
ATOM     72  C   UNL A   1      46.325  26.409  32.863  1.00  0.00    -0.014 A 
ATOM     73  C   UNL A   1      46.349  25.352  33.784  1.00  0.00     0.009 A 
ATOM     74  C   UNL A   1      47.536  26.926  32.379  1.00  0.00     0.009 A 
ATOM     75  C   UNL A   1      47.567  24.836  34.231  1.00  0.00     0.001 A 
ATOM     76  C   UNL A   1      48.751  26.399  32.817  1.00  0.00     0.001 A 
ATOM     77  C   UNL A   1      48.767  25.359  33.746  1.00  0.00     0.000 A 
ENDBRANCH  59  72
ENDBRANCH  33  34
ENDBRANCH  26  28
ENDBRANCH  25  26
ENDBRANCH  24  25
ENDBRANCH   1  24
TORSDOF 15
ENDMDL
MODEL 3
REMARK VINA RESULT:     -11.1      5.868     10.202
REMARK SMILES CC(C)c1ccc(C(=O)NC[C@H]2CC[C@@H](C(=O)OCCOC(=O)c3ccc(-c4c5nc(c(-c6ccccc6)c6ccc([nH]6)c(-c6ccccc6)c6nc(c(-c7ccccc7)c7ccc4[nH]7)C=C6)C=C5)cc3)O2)cc1
REMARK SMILES IDX 19 1 18 2 16 3 17 4 15 5 12 6 13 7 72 8 14 9 11 10 10 11
REMARK SMILES IDX 8 12 9 13 7 15 4 16 5 17 74 18 6 19 73 20 2 21 1 22 3 23
REMARK SMILES IDX 20 24 21 25 22 26 23 27 24 28 25 29 71 30 26 31 70 32 27 33
REMARK SMILES IDX 28 34 29 35 64 36 30 37 69 38 63 39 65 40 31 41 68 42 62 43
REMARK SMILES IDX 61 44 32 46 54 47 39 48 53 49 40 50 43 51 52 52 66 53 41 54
REMARK SMILES IDX 42 55 51 57 67 58 44 59 33 60 34 61 38 62 35 63 37 64 36 65
REMARK SMILES IDX 55 66 56 67 60 68 57 69 59 70 58 71 45 72 46 73 50 74 47 75
REMARK SMILES IDX 49 76 48 77
REMARK H PARENT 10 14 65 45 43 56
REMARK Flexibility Score: inf
ROOT
ATOM      1  C   UNL A   1      34.075  34.715  28.171  1.00  0.00     0.274 C 
ENDROOT
BRANCH   1   2
ATOM      2  O   UNL A   1      34.320  35.633  29.258  1.00  0.00    -0.460 OA
BRANCH   2   3
ATOM      3  C   UNL A   1      33.313  36.530  29.463  1.00  0.00     0.335 C 
ATOM      4  O   UNL A   1      32.924  37.310  28.604  1.00  0.00    -0.249 OA
BRANCH   3   5
ATOM      5  C   UNL A   1      32.769  36.480  30.894  1.00  0.00     0.228 C 
ATOM      6  C   UNL A   1      33.276  35.053  32.697  1.00  0.00     0.138 C 
ATOM      7  C   UNL A   1      34.082  36.320  32.920  1.00  0.00     0.037 C 
ATOM      8  O   UNL A   1      32.784  35.120  31.358  1.00  0.00    -0.361 OA
ATOM      9  C   UNL A   1      33.561  37.305  31.893  1.00  0.00     0.047 C 
BRANCH   6  10
ATOM     10  C   UNL A   1      34.105  33.772  32.920  1.00  0.00     0.148 C 
BRANCH  10  11
ATOM     11  N   UNL A   1      34.713  33.700  34.241  1.00  0.00    -0.349 N 
ATOM     12  C   UNL A   1      35.983  33.834  34.743  1.00  0.00     0.251 C 
ATOM     13  O   UNL A   1      36.070  33.766  35.975  1.00  0.00    -0.269 OA
ATOM     14  H   UNL A   1      34.052  33.507  34.945  1.00  0.00     0.163 HD
BRANCH  12  15
ATOM     15  C   UNL A   1      37.238  34.055  33.957  1.00  0.00     0.039 A 
ATOM     16  C   UNL A   1      39.757  34.236  32.620  1.00  0.00    -0.045 A 
ATOM     17  C   UNL A   1      39.692  34.038  34.003  1.00  0.00     0.005 A 
ATOM     18  C   UNL A   1      38.552  34.401  31.933  1.00  0.00     0.005 A 
ATOM     19  C   UNL A   1      38.454  33.951  34.657  1.00  0.00     0.014 A 
ATOM     20  C   UNL A   1      37.315  34.295  32.590  1.00  0.00     0.014 A 
BRANCH  16  21
ATOM     21  C   UNL A   1      41.102  34.245  31.913  1.00  0.00     0.013 C 
ATOM     22  C   UNL A   1      40.992  34.490  30.402  1.00  0.00     0.012 C 
ATOM     23  C   UNL A   1      42.045  35.263  32.552  1.00  0.00     0.012 C 
ENDBRANCH  16  21
ENDBRANCH  12  15
ENDBRANCH  10  11
ENDBRANCH   6  10
ENDBRANCH   3   5
ENDBRANCH   2   3
ENDBRANCH   1   2
BRANCH   1  24
ATOM     24  C   UNL A   1      35.094  33.575  28.083  1.00  0.00     0.275 C 
BRANCH  24  25
ATOM     25  O   UNL A   1      34.726  32.435  28.882  1.00  0.00    -0.458 OA
BRANCH  25  26
ATOM     26  C   UNL A   1      34.633  31.273  28.202  1.00  0.00     0.338 C 
ATOM     27  O   UNL A   1      33.756  30.936  27.421  1.00  0.00    -0.246 OA
BRANCH  26  28
ATOM     28  C   UNL A   1      35.824  30.441  28.427  1.00  0.00     0.060 A 
ATOM     29  C   UNL A   1      35.904  29.751  29.634  1.00  0.00     0.016 A 
ATOM     30  C   UNL A   1      36.922  30.491  27.569  1.00  0.00     0.016 A 
ATOM     31  C   UNL A   1      37.100  29.158  30.027  1.00  0.00     0.010 A 
ATOM     32  C   UNL A   1      38.117  29.863  27.947  1.00  0.00     0.010 A 
ATOM     33  C   UNL A   1      38.225  29.224  29.196  1.00  0.00    -0.014 A 
BRANCH  33  34
ATOM     34  C   UNL A   1      39.520  28.691  29.687  1.00  0.00     0.031 A 
ATOM     35  C   UNL A   1      40.176  29.300  30.897  1.00  0.00     0.074 A 
ATOM     36  C   UNL A   1      40.070  27.606  29.110  1.00  0.00     0.049 A 
ATOM     37  N   UNL A   1      41.323  29.000  31.455  1.00  0.00    -0.248 NA
ATOM     38  C   UNL A   1      39.440  30.378  31.577  1.00  0.00     0.031 C 
ATOM     39  C   UNL A   1      39.500  26.861  27.986  1.00  0.00     0.029 A 
ATOM     40  N   UNL A   1      41.223  26.928  29.412  1.00  0.00    -0.354 N 
ATOM     41  C   UNL A   1      41.456  29.865  32.534  1.00  0.00     0.074 A 
ATOM     42  C   UNL A   1      40.277  30.703  32.552  1.00  0.00     0.031 C 
ATOM     43  C   UNL A   1      40.291  25.809  27.716  1.00  0.00     0.029 A 
ATOM     44  C   UNL A   1      41.445  25.837  28.610  1.00  0.00     0.049 A 
ATOM     45  H   UNL A   1      41.834  27.198  30.136  1.00  0.00     0.167 HD
ATOM     46  C   UNL A   1      42.469  29.957  33.429  1.00  0.00     0.031 A 
ATOM     47  C   UNL A   1      42.472  24.967  28.584  1.00  0.00     0.031 A 
ATOM     48  C   UNL A   1      43.641  29.125  33.429  1.00  0.00     0.049 A 
ATOM     49  C   UNL A   1      43.621  25.140  29.535  1.00  0.00     0.074 A 
ATOM     50  C   UNL A   1      44.734  29.172  34.280  1.00  0.00     0.029 A 
ATOM     51  N   UNL A   1      43.868  28.087  32.542  1.00  0.00    -0.354 N 
ATOM     52  N   UNL A   1      43.768  26.012  30.501  1.00  0.00    -0.248 NA
ATOM     53  C   UNL A   1      44.755  24.218  29.374  1.00  0.00     0.031 C 
ATOM     54  C   UNL A   1      45.635  28.173  33.889  1.00  0.00     0.029 A 
ATOM     55  C   UNL A   1      45.087  27.491  32.816  1.00  0.00     0.049 A 
ATOM     56  H   UNL A   1      43.253  27.814  31.824  1.00  0.00     0.167 HD
ATOM     57  C   UNL A   1      45.009  25.745  31.063  1.00  0.00     0.074 A 
ATOM     58  C   UNL A   1      45.567  24.619  30.343  1.00  0.00     0.031 C 
ATOM     59  C   UNL A   1      45.633  26.380  32.083  1.00  0.00     0.031 A 
BRANCH  46  60
ATOM     60  C   UNL A   1      42.362  31.032  34.469  1.00  0.00    -0.014 A 
ATOM     61  C   UNL A   1      43.085  32.228  34.350  1.00  0.00     0.009 A 
ATOM     62  C   UNL A   1      41.510  30.852  35.569  1.00  0.00     0.009 A 
ATOM     63  C   UNL A   1      42.974  33.216  35.331  1.00  0.00     0.001 A 
ATOM     64  C   UNL A   1      41.391  31.848  36.540  1.00  0.00     0.001 A 
ATOM     65  C   UNL A   1      42.128  33.026  36.423  1.00  0.00     0.000 A 
ENDBRANCH  46  60
BRANCH  47  66
ATOM     66  C   UNL A   1      42.478  23.863  27.594  1.00  0.00    -0.014 A 
ATOM     67  C   UNL A   1      42.978  24.073  26.302  1.00  0.00     0.009 A 
ATOM     68  C   UNL A   1      41.980  22.598  27.938  1.00  0.00     0.009 A 
ATOM     69  C   UNL A   1      42.971  23.036  25.367  1.00  0.00     0.001 A 
ATOM     70  C   UNL A   1      41.989  21.559  27.007  1.00  0.00     0.001 A 
ATOM     71  C   UNL A   1      42.480  21.780  25.721  1.00  0.00     0.000 A 
ENDBRANCH  47  66
BRANCH  59  72
ATOM     72  C   UNL A   1      46.985  25.869  32.478  1.00  0.00    -0.014 A 
ATOM     73  C   UNL A   1      47.129  24.985  33.557  1.00  0.00     0.009 A 
ATOM     74  C   UNL A   1      48.121  26.254  31.750  1.00  0.00     0.009 A 
ATOM     75  C   UNL A   1      48.392  24.511  33.916  1.00  0.00     0.001 A 
ATOM     76  C   UNL A   1      49.381  25.768  32.103  1.00  0.00     0.001 A 
ATOM     77  C   UNL A   1      49.517  24.902  33.188  1.00  0.00     0.000 A 
ENDBRANCH  59  72
ENDBRANCH  33  34
ENDBRANCH  26  28
ENDBRANCH  25  26
ENDBRANCH  24  25
ENDBRANCH   1  24
TORSDOF 15
ENDMDL
