MODEL 1
REMARK VINA RESULT:      -9.9      0.000      0.000
REMARK SMILES C[C@H](O)C[C@@H](Cc1cccc(Br)c1)C(=O)OCCOC(=O)c1ccc(-c2c3nc(c(-c4ccccc4)c4ccc([nH]4)c(-c4ccccc4)c4nc(c(-c5ccccc5)c5ccc2[nH]5)C=C4)C=C3)cc1
REMARK SMILES IDX 17 1 16 2 14 3 15 4 5 5 4 6 2 7 1 8 3 9 6 11 7 12 8 13 13 14
REMARK SMILES IDX 9 15 11 16 10 17 12 18 18 19 19 20 20 21 21 22 22 23 23 24
REMARK SMILES IDX 69 25 24 26 68 27 25 28 26 29 27 30 62 31 28 32 67 33 61 34
REMARK SMILES IDX 63 35 29 36 66 37 60 38 59 39 30 41 52 42 37 43 51 44 38 45
REMARK SMILES IDX 41 46 50 47 64 48 39 49 40 50 49 52 65 53 42 54 31 55 32 56
REMARK SMILES IDX 36 57 33 58 35 59 34 60 53 61 54 62 58 63 55 64 57 65 56 66
REMARK SMILES IDX 43 67 44 68 48 69 45 70 47 71 46 72
REMARK H PARENT 3 10 63 40 41 51
REMARK Flexibility Score: inf
ROOT
ATOM      1  C   UNL A   1      35.122  21.155  25.081  1.00  0.00     0.274 C 
ENDROOT
BRANCH   1   2
ATOM      2  O   UNL A   1      35.298  22.578  25.219  1.00  0.00    -0.462 OA
BRANCH   2   3
ATOM      3  C   UNL A   1      34.688  23.355  24.287  1.00  0.00     0.309 C 
ATOM      4  O   UNL A   1      35.017  23.429  23.108  1.00  0.00    -0.252 OA
BRANCH   3   5
ATOM      5  C   UNL A   1      33.555  24.187  24.863  1.00  0.00     0.106 C 
BRANCH   5   6
ATOM      6  C   UNL A   1      33.122  23.752  26.277  1.00  0.00     0.047 C 
BRANCH   6   7
ATOM      7  C   UNL A   1      31.745  23.083  26.335  1.00  0.00     0.112 C 
ATOM      8  C   UNL A   1      30.966  23.315  25.047  1.00  0.00     0.038 C 
BRANCH   7   9
ATOM      9  O   UNL A   1      30.992  23.640  27.410  1.00  0.00    -0.393 OA
ATOM     10  H   UNL A   1      30.965  23.009  28.146  1.00  0.00     0.210 HD
ENDBRANCH   7   9
ENDBRANCH   6   7
ENDBRANCH   5   6
BRANCH   5  11
ATOM     11  C   UNL A   1      33.834  25.683  24.626  1.00  0.00     0.051 C 
BRANCH  11  12
ATOM     12  C   UNL A   1      33.303  26.712  25.601  1.00  0.00    -0.046 A 
ATOM     13  C   UNL A   1      31.949  26.834  25.934  1.00  0.00     0.004 A 
ATOM     14  C   UNL A   1      34.201  27.645  26.149  1.00  0.00     0.019 A 
ATOM     15  C   UNL A   1      31.510  27.810  26.832  1.00  0.00     0.001 A 
ATOM     16  C   UNL A   1      33.755  28.635  27.028  1.00  0.00     0.018 A 
ATOM     17  C   UNL A   1      32.413  28.713  27.383  1.00  0.00     0.016 A 
ATOM     18  Br  UNL A   1      34.985  29.886  27.731  1.00  0.00    -0.051 Br
ENDBRANCH  11  12
ENDBRANCH   5  11
ENDBRANCH   3   5
ENDBRANCH   2   3
ENDBRANCH   1   2
BRANCH   1  19
ATOM     19  C   UNL A   1      36.465  20.429  24.989  1.00  0.00     0.275 C 
BRANCH  19  20
ATOM     20  O   UNL A   1      37.558  21.364  24.944  1.00  0.00    -0.458 OA
BRANCH  20  21
ATOM     21  C   UNL A   1      38.661  20.984  25.623  1.00  0.00     0.338 C 
ATOM     22  O   UNL A   1      39.126  19.854  25.719  1.00  0.00    -0.246 OA
BRANCH  21  23
ATOM     23  C   UNL A   1      39.339  22.169  26.157  1.00  0.00     0.060 A 
ATOM     24  C   UNL A   1      38.682  23.400  26.077  1.00  0.00     0.016 A 
ATOM     25  C   UNL A   1      40.641  22.089  26.652  1.00  0.00     0.016 A 
ATOM     26  C   UNL A   1      39.326  24.565  26.472  1.00  0.00     0.010 A 
ATOM     27  C   UNL A   1      41.288  23.261  27.058  1.00  0.00     0.010 A 
ATOM     28  C   UNL A   1      40.639  24.504  26.954  1.00  0.00    -0.014 A 
BRANCH  28  29
ATOM     29  C   UNL A   1      41.346  25.758  27.288  1.00  0.00     0.031 A 
ATOM     30  C   UNL A   1      40.708  26.743  28.221  1.00  0.00     0.074 A 
ATOM     31  C   UNL A   1      42.570  25.992  26.783  1.00  0.00     0.049 A 
ATOM     32  N   UNL A   1      41.125  27.930  28.580  1.00  0.00    -0.248 NA
ATOM     33  C   UNL A   1      39.433  26.339  28.834  1.00  0.00     0.031 C 
ATOM     34  C   UNL A   1      43.318  25.077  25.919  1.00  0.00     0.029 A 
ATOM     35  N   UNL A   1      43.401  27.072  26.929  1.00  0.00    -0.354 N 
ATOM     36  C   UNL A   1      40.154  28.424  29.441  1.00  0.00     0.074 A 
ATOM     37  C   UNL A   1      39.122  27.415  29.543  1.00  0.00     0.031 C 
ATOM     38  C   UNL A   1      44.500  25.637  25.613  1.00  0.00     0.029 A 
ATOM     39  C   UNL A   1      44.570  26.962  26.220  1.00  0.00     0.049 A 
ATOM     40  H   UNL A   1      43.179  27.852  27.489  1.00  0.00     0.167 HD
ATOM     41  C   UNL A   1      40.126  29.615  30.084  1.00  0.00     0.031 A 
ATOM     42  C   UNL A   1      45.573  27.845  26.057  1.00  0.00     0.031 A 
ATOM     43  C   UNL A   1      41.153  30.615  29.982  1.00  0.00     0.049 A 
ATOM     44  C   UNL A   1      45.485  29.187  26.726  1.00  0.00     0.074 A 
ATOM     45  C   UNL A   1      41.216  31.857  30.591  1.00  0.00     0.029 A 
ATOM     46  N   UNL A   1      42.303  30.486  29.218  1.00  0.00    -0.354 N 
ATOM     47  N   UNL A   1      44.551  29.654  27.519  1.00  0.00    -0.248 NA
ATOM     48  C   UNL A   1      46.586  30.125  26.473  1.00  0.00     0.031 C 
ATOM     49  C   UNL A   1      42.386  32.493  30.164  1.00  0.00     0.029 A 
ATOM     50  C   UNL A   1      43.072  31.631  29.325  1.00  0.00     0.049 A 
ATOM     51  H   UNL A   1      42.538  29.694  28.680  1.00  0.00     0.167 HD
ATOM     52  C   UNL A   1      44.959  30.933  27.872  1.00  0.00     0.074 A 
ATOM     53  C   UNL A   1      46.232  31.163  27.220  1.00  0.00     0.031 C 
ATOM     54  C   UNL A   1      44.334  31.838  28.664  1.00  0.00     0.031 A 
BRANCH  41  55
ATOM     55  C   UNL A   1      38.917  29.912  30.924  1.00  0.00    -0.014 A 
ATOM     56  C   UNL A   1      38.879  29.591  32.289  1.00  0.00     0.009 A 
ATOM     57  C   UNL A   1      37.807  30.541  30.340  1.00  0.00     0.009 A 
ATOM     58  C   UNL A   1      37.739  29.867  33.047  1.00  0.00     0.001 A 
ATOM     59  C   UNL A   1      36.677  30.836  31.104  1.00  0.00     0.001 A 
ATOM     60  C   UNL A   1      36.641  30.492  32.455  1.00  0.00     0.000 A 
ENDBRANCH  41  55
BRANCH  42  61
ATOM     61  C   UNL A   1      46.731  27.500  25.193  1.00  0.00    -0.014 A 
ATOM     62  C   UNL A   1      47.789  26.727  25.691  1.00  0.00     0.009 A 
ATOM     63  C   UNL A   1      46.781  27.948  23.864  1.00  0.00     0.009 A 
ATOM     64  C   UNL A   1      48.884  26.425  24.879  1.00  0.00     0.001 A 
ATOM     65  C   UNL A   1      47.865  27.623  23.047  1.00  0.00     0.001 A 
ATOM     66  C   UNL A   1      48.919  26.868  23.557  1.00  0.00     0.000 A 
ENDBRANCH  42  61
BRANCH  54  67
ATOM     67  C   UNL A   1      45.037  33.145  28.887  1.00  0.00    -0.014 A 
ATOM     68  C   UNL A   1      45.966  33.300  29.927  1.00  0.00     0.009 A 
ATOM     69  C   UNL A   1      44.789  34.224  28.024  1.00  0.00     0.009 A 
ATOM     70  C   UNL A   1      46.615  34.523  30.114  1.00  0.00     0.001 A 
ATOM     71  C   UNL A   1      45.456  35.436  28.200  1.00  0.00     0.001 A 
ATOM     72  C   UNL A   1      46.362  35.588  29.249  1.00  0.00     0.000 A 
ENDBRANCH  54  67
ENDBRANCH  28  29
ENDBRANCH  21  23
ENDBRANCH  20  21
ENDBRANCH  19  20
ENDBRANCH   1  19
TORSDOF 16
ENDMDL
MODEL 2
REMARK VINA RESULT:      -9.8      0.988      1.757
REMARK SMILES C[C@H](O)C[C@@H](Cc1cccc(Br)c1)C(=O)OCCOC(=O)c1ccc(-c2c3nc(c(-c4ccccc4)c4ccc([nH]4)c(-c4ccccc4)c4nc(c(-c5ccccc5)c5ccc2[nH]5)C=C4)C=C3)cc1
REMARK SMILES IDX 17 1 16 2 14 3 15 4 5 5 4 6 2 7 1 8 3 9 6 11 7 12 8 13 13 14
REMARK SMILES IDX 9 15 11 16 10 17 12 18 18 19 19 20 20 21 21 22 22 23 23 24
REMARK SMILES IDX 69 25 24 26 68 27 25 28 26 29 27 30 62 31 28 32 67 33 61 34
REMARK SMILES IDX 63 35 29 36 66 37 60 38 59 39 30 41 52 42 37 43 51 44 38 45
REMARK SMILES IDX 41 46 50 47 64 48 39 49 40 50 49 52 65 53 42 54 31 55 32 56
REMARK SMILES IDX 36 57 33 58 35 59 34 60 53 61 54 62 58 63 55 64 57 65 56 66
REMARK SMILES IDX 43 67 44 68 48 69 45 70 47 71 46 72
REMARK H PARENT 3 10 63 40 41 51
REMARK Flexibility Score: inf
ROOT
ATOM      1  C   UNL A   1      35.080  22.265  24.199  1.00  0.00     0.274 C 
ENDROOT
BRANCH   1   2
ATOM      2  O   UNL A   1      35.360  23.656  24.447  1.00  0.00    -0.462 OA
BRANCH   2   3
ATOM      3  C   UNL A   1      34.533  24.294  25.313  1.00  0.00     0.309 C 
ATOM      4  O   UNL A   1      34.286  23.921  26.455  1.00  0.00    -0.252 OA
BRANCH   3   5
ATOM      5  C   UNL A   1      33.884  25.528  24.709  1.00  0.00     0.106 C 
BRANCH   5   6
ATOM      6  C   UNL A   1      33.579  25.396  23.204  1.00  0.00     0.047 C 
BRANCH   6   7
ATOM      7  C   UNL A   1      33.209  26.715  22.519  1.00  0.00     0.112 C 
ATOM      8  C   UNL A   1      31.706  26.953  22.559  1.00  0.00     0.038 C 
BRANCH   7   9
ATOM      9  O   UNL A   1      33.610  26.668  21.152  1.00  0.00    -0.393 OA
ATOM     10  H   UNL A   1      34.535  26.952  21.077  1.00  0.00     0.210 HD
ENDBRANCH   7   9
ENDBRANCH   6   7
ENDBRANCH   5   6
BRANCH   5  11
ATOM     11  C   UNL A   1      32.754  26.026  25.630  1.00  0.00     0.051 C 
BRANCH  11  12
ATOM     12  C   UNL A   1      32.837  27.407  26.243  1.00  0.00    -0.046 A 
ATOM     13  C   UNL A   1      31.733  28.257  26.386  1.00  0.00     0.004 A 
ATOM     14  C   UNL A   1      34.098  27.899  26.624  1.00  0.00     0.019 A 
ATOM     15  C   UNL A   1      31.868  29.529  26.948  1.00  0.00     0.001 A 
ATOM     16  C   UNL A   1      34.233  29.180  27.165  1.00  0.00     0.018 A 
ATOM     17  C   UNL A   1      33.118  29.994  27.341  1.00  0.00     0.016 A 
ATOM     18  Br  UNL A   1      35.944  29.818  27.650  1.00  0.00    -0.051 Br
ENDBRANCH  11  12
ENDBRANCH   5  11
ENDBRANCH   3   5
ENDBRANCH   2   3
ENDBRANCH   1   2
BRANCH   1  19
ATOM     19  C   UNL A   1      36.285  21.382  24.528  1.00  0.00     0.275 C 
BRANCH  19  20
ATOM     20  O   UNL A   1      36.913  21.796  25.755  1.00  0.00    -0.458 OA
BRANCH  20  21
ATOM     21  C   UNL A   1      38.230  21.515  25.846  1.00  0.00     0.338 C 
ATOM     22  O   UNL A   1      38.807  20.508  25.450  1.00  0.00    -0.246 OA
BRANCH  21  23
ATOM     23  C   UNL A   1      38.941  22.674  26.392  1.00  0.00     0.060 A 
ATOM     24  C   UNL A   1      38.485  23.950  26.053  1.00  0.00     0.016 A 
ATOM     25  C   UNL A   1      40.095  22.512  27.159  1.00  0.00     0.016 A 
ATOM     26  C   UNL A   1      39.189  25.076  26.460  1.00  0.00     0.010 A 
ATOM     27  C   UNL A   1      40.800  23.645  27.576  1.00  0.00     0.010 A 
ATOM     28  C   UNL A   1      40.359  24.930  27.214  1.00  0.00    -0.014 A 
BRANCH  28  29
ATOM     29  C   UNL A   1      41.148  26.129  27.565  1.00  0.00     0.031 A 
ATOM     30  C   UNL A   1      40.577  27.142  28.512  1.00  0.00     0.074 A 
ATOM     31  C   UNL A   1      42.386  26.287  27.063  1.00  0.00     0.049 A 
ATOM     32  N   UNL A   1      41.071  28.293  28.887  1.00  0.00    -0.248 NA
ATOM     33  C   UNL A   1      39.276  26.815  29.118  1.00  0.00     0.031 C 
ATOM     34  C   UNL A   1      43.071  25.337  26.186  1.00  0.00     0.029 A 
ATOM     35  N   UNL A   1      43.287  27.308  27.225  1.00  0.00    -0.354 N 
ATOM     36  C   UNL A   1      40.135  28.839  29.755  1.00  0.00     0.074 A 
ATOM     37  C   UNL A   1      39.038  27.900  29.843  1.00  0.00     0.031 C 
ATOM     38  C   UNL A   1      44.289  25.821  25.889  1.00  0.00     0.029 A 
ATOM     39  C   UNL A   1      44.447  27.129  26.514  1.00  0.00     0.049 A 
ATOM     40  H   UNL A   1      43.117  28.093  27.795  1.00  0.00     0.167 HD
ATOM     41  C   UNL A   1      40.186  30.020  30.415  1.00  0.00     0.031 A 
ATOM     42  C   UNL A   1      45.506  27.945  26.364  1.00  0.00     0.031 A 
ATOM     43  C   UNL A   1      41.279  30.950  30.327  1.00  0.00     0.049 A 
ATOM     44  C   UNL A   1      45.508  29.281  27.051  1.00  0.00     0.074 A 
ATOM     45  C   UNL A   1      41.424  32.176  30.953  1.00  0.00     0.029 A 
ATOM     46  N   UNL A   1      42.418  30.755  29.561  1.00  0.00    -0.354 N 
ATOM     47  N   UNL A   1      44.606  29.799  27.851  1.00  0.00    -0.248 NA
ATOM     48  C   UNL A   1      46.670  30.147  26.812  1.00  0.00     0.031 C 
ATOM     49  C   UNL A   1      42.634  32.739  30.535  1.00  0.00     0.029 A 
ATOM     50  C   UNL A   1      43.262  31.844  29.684  1.00  0.00     0.049 A 
ATOM     51  H   UNL A   1      42.600  29.957  29.012  1.00  0.00     0.167 HD
ATOM     52  C   UNL A   1      45.099  31.042  28.222  1.00  0.00     0.074 A 
ATOM     53  C   UNL A   1      46.385  31.195  27.573  1.00  0.00     0.031 C 
ATOM     54  C   UNL A   1      44.536  31.976  29.026  1.00  0.00     0.031 A 
BRANCH  41  55
ATOM     55  C   UNL A   1      39.000  30.385  31.259  1.00  0.00    -0.014 A 
ATOM     56  C   UNL A   1      38.936  30.043  32.618  1.00  0.00     0.009 A 
ATOM     57  C   UNL A   1      37.938  31.101  30.685  1.00  0.00     0.009 A 
ATOM     58  C   UNL A   1      37.816  30.385  33.380  1.00  0.00     0.001 A 
ATOM     59  C   UNL A   1      36.829  31.460  31.454  1.00  0.00     0.001 A 
ATOM     60  C   UNL A   1      36.766  31.095  32.798  1.00  0.00     0.000 A 
ENDBRANCH  41  55
BRANCH  42  61
ATOM     61  C   UNL A   1      46.639  27.536  25.495  1.00  0.00    -0.014 A 
ATOM     62  C   UNL A   1      46.671  27.901  24.142  1.00  0.00     0.009 A 
ATOM     63  C   UNL A   1      47.696  26.775  26.020  1.00  0.00     0.009 A 
ATOM     64  C   UNL A   1      47.729  27.495  23.326  1.00  0.00     0.001 A 
ATOM     65  C   UNL A   1      48.765  26.392  25.208  1.00  0.00     0.001 A 
ATOM     66  C   UNL A   1      48.778  26.746  23.861  1.00  0.00     0.000 A 
ENDBRANCH  42  61
BRANCH  54  67
ATOM     67  C   UNL A   1      45.324  33.230  29.268  1.00  0.00    -0.014 A 
ATOM     68  C   UNL A   1      45.156  34.359  28.453  1.00  0.00     0.009 A 
ATOM     69  C   UNL A   1      46.220  33.292  30.346  1.00  0.00     0.009 A 
ATOM     70  C   UNL A   1      45.893  35.519  28.697  1.00  0.00     0.001 A 
ATOM     71  C   UNL A   1      46.938  34.460  30.601  1.00  0.00     0.001 A 
ATOM     72  C   UNL A   1      46.780  35.570  29.772  1.00  0.00     0.000 A 
ENDBRANCH  54  67
ENDBRANCH  28  29
ENDBRANCH  21  23
ENDBRANCH  20  21
ENDBRANCH  19  20
ENDBRANCH   1  19
TORSDOF 16
ENDMDL
MODEL 3
REMARK VINA RESULT:      -9.8      3.874      8.669
REMARK SMILES C[C@H](O)C[C@@H](Cc1cccc(Br)c1)C(=O)OCCOC(=O)c1ccc(-c2c3nc(c(-c4ccccc4)c4ccc([nH]4)c(-c4ccccc4)c4nc(c(-c5ccccc5)c5ccc2[nH]5)C=C4)C=C3)cc1
REMARK SMILES IDX 17 1 16 2 14 3 15 4 5 5 4 6 2 7 1 8 3 9 6 11 7 12 8 13 13 14
REMARK SMILES IDX 9 15 11 16 10 17 12 18 18 19 19 20 20 21 21 22 22 23 23 24
REMARK SMILES IDX 69 25 24 26 68 27 25 28 26 29 27 30 62 31 28 32 67 33 61 34
REMARK SMILES IDX 63 35 29 36 66 37 60 38 59 39 30 41 52 42 37 43 51 44 38 45
REMARK SMILES IDX 41 46 50 47 64 48 39 49 40 50 49 52 65 53 42 54 31 55 32 56
REMARK SMILES IDX 36 57 33 58 35 59 34 60 53 61 54 62 58 63 55 64 57 65 56 66
REMARK SMILES IDX 43 67 44 68 48 69 45 70 47 71 46 72
REMARK H PARENT 3 10 63 40 41 51
REMARK Flexibility Score: inf
ROOT
ATOM      1  C   UNL A   1      31.456  28.040  25.197  1.00  0.00     0.274 C 
ENDROOT
BRANCH   1   2
ATOM      2  O   UNL A   1      31.791  27.124  26.257  1.00  0.00    -0.462 OA
BRANCH   2   3
ATOM      3  C   UNL A   1      31.611  25.804  25.994  1.00  0.00     0.309 C 
ATOM      4  O   UNL A   1      30.574  25.307  25.569  1.00  0.00    -0.252 OA
BRANCH   3   5
ATOM      5  C   UNL A   1      32.832  24.964  26.329  1.00  0.00     0.106 C 
BRANCH   5   6
ATOM      6  C   UNL A   1      32.558  23.447  26.338  1.00  0.00     0.047 C 
BRANCH   6   7
ATOM      7  C   UNL A   1      33.187  22.703  27.520  1.00  0.00     0.112 C 
ATOM      8  C   UNL A   1      34.018  21.519  27.046  1.00  0.00     0.038 C 
BRANCH   7   9
ATOM      9  O   UNL A   1      32.155  22.203  28.368  1.00  0.00    -0.393 OA
ATOM     10  H   UNL A   1      31.856  21.341  28.039  1.00  0.00     0.210 HD
ENDBRANCH   7   9
ENDBRANCH   6   7
ENDBRANCH   5   6
BRANCH   5  11
ATOM     11  C   UNL A   1      34.047  25.470  25.528  1.00  0.00     0.051 C 
BRANCH  11  12
ATOM     12  C   UNL A   1      35.000  24.477  24.900  1.00  0.00    -0.046 A 
ATOM     13  C   UNL A   1      34.778  23.874  23.655  1.00  0.00     0.004 A 
ATOM     14  C   UNL A   1      36.133  24.078  25.630  1.00  0.00     0.019 A 
ATOM     15  C   UNL A   1      35.686  22.952  23.126  1.00  0.00     0.001 A 
ATOM     16  C   UNL A   1      37.026  23.139  25.108  1.00  0.00     0.018 A 
ATOM     17  C   UNL A   1      36.813  22.583  23.851  1.00  0.00     0.016 A 
ATOM     18  Br  UNL A   1      38.530  22.610  26.124  1.00  0.00    -0.051 Br
ENDBRANCH  11  12
ENDBRANCH   5  11
ENDBRANCH   3   5
ENDBRANCH   2   3
ENDBRANCH   1   2
BRANCH   1  19
ATOM     19  C   UNL A   1      31.514  29.493  25.671  1.00  0.00     0.275 C 
BRANCH  19  20
ATOM     20  O   UNL A   1      32.872  29.959  25.753  1.00  0.00    -0.458 OA
BRANCH  20  21
ATOM     21  C   UNL A   1      33.092  30.917  26.678  1.00  0.00     0.338 C 
ATOM     22  O   UNL A   1      32.322  31.802  27.033  1.00  0.00    -0.246 OA
BRANCH  21  23
ATOM     23  C   UNL A   1      34.386  30.683  27.326  1.00  0.00     0.060 A 
ATOM     24  C   UNL A   1      34.748  29.367  27.625  1.00  0.00     0.016 A 
ATOM     25  C   UNL A   1      35.197  31.750  27.716  1.00  0.00     0.016 A 
ATOM     26  C   UNL A   1      35.914  29.106  28.333  1.00  0.00     0.010 A 
ATOM     27  C   UNL A   1      36.374  31.487  28.422  1.00  0.00     0.010 A 
ATOM     28  C   UNL A   1      36.728  30.165  28.747  1.00  0.00    -0.014 A 
BRANCH  28  29
ATOM     29  C   UNL A   1      37.918  29.882  29.577  1.00  0.00     0.031 A 
ATOM     30  C   UNL A   1      39.019  29.024  29.026  1.00  0.00     0.074 A 
ATOM     31  C   UNL A   1      38.025  30.423  30.803  1.00  0.00     0.049 A 
ATOM     32  N   UNL A   1      40.104  28.595  29.615  1.00  0.00    -0.248 NA
ATOM     33  C   UNL A   1      38.879  28.593  27.626  1.00  0.00     0.031 C 
ATOM     34  C   UNL A   1      37.050  31.325  31.417  1.00  0.00     0.029 A 
ATOM     35  N   UNL A   1      39.007  30.292  31.750  1.00  0.00    -0.354 N 
ATOM     36  C   UNL A   1      40.767  27.826  28.668  1.00  0.00     0.074 A 
ATOM     37  C   UNL A   1      39.957  27.837  27.469  1.00  0.00     0.031 C 
ATOM     38  C   UNL A   1      37.486  31.669  32.641  1.00  0.00     0.029 A 
ATOM     39  C   UNL A   1      38.741  30.976  32.910  1.00  0.00     0.049 A 
ATOM     40  H   UNL A   1      39.824  29.758  31.612  1.00  0.00     0.167 HD
ATOM     41  C   UNL A   1      41.943  27.167  28.791  1.00  0.00     0.031 A 
ATOM     42  C   UNL A   1      39.423  31.014  34.069  1.00  0.00     0.031 A 
ATOM     43  C   UNL A   1      42.746  27.159  29.983  1.00  0.00     0.049 A 
ATOM     44  C   UNL A   1      40.690  30.217  34.204  1.00  0.00     0.074 A 
ATOM     45  C   UNL A   1      43.952  26.518  30.209  1.00  0.00     0.029 A 
ATOM     46  N   UNL A   1      42.423  27.827  31.153  1.00  0.00    -0.354 N 
ATOM     47  N   UNL A   1      41.295  29.473  33.309  1.00  0.00    -0.248 NA
ATOM     48  C   UNL A   1      41.364  30.262  35.508  1.00  0.00     0.031 C 
ATOM     49  C   UNL A   1      44.338  26.768  31.530  1.00  0.00     0.029 A 
ATOM     50  C   UNL A   1      43.395  27.600  32.111  1.00  0.00     0.049 A 
ATOM     51  H   UNL A   1      41.620  28.383  31.283  1.00  0.00     0.167 HD
ATOM     52  C   UNL A   1      42.428  28.975  33.937  1.00  0.00     0.074 A 
ATOM     53  C   UNL A   1      42.435  29.512  35.282  1.00  0.00     0.031 C 
ATOM     54  C   UNL A   1      43.379  28.143  33.444  1.00  0.00     0.031 A 
BRANCH  41  55
ATOM     55  C   UNL A   1      42.405  26.364  27.609  1.00  0.00    -0.014 A 
ATOM     56  C   UNL A   1      42.006  25.031  27.430  1.00  0.00     0.009 A 
ATOM     57  C   UNL A   1      43.238  26.961  26.650  1.00  0.00     0.009 A 
ATOM     58  C   UNL A   1      42.458  24.301  26.328  1.00  0.00     0.001 A 
ATOM     59  C   UNL A   1      43.671  26.237  25.538  1.00  0.00     0.001 A 
ATOM     60  C   UNL A   1      43.287  24.905  25.382  1.00  0.00     0.000 A 
ENDBRANCH  41  55
BRANCH  42  61
ATOM     61  C   UNL A   1      38.900  31.808  35.211  1.00  0.00    -0.014 A 
ATOM     62  C   UNL A   1      38.154  31.194  36.227  1.00  0.00     0.009 A 
ATOM     63  C   UNL A   1      39.145  33.188  35.285  1.00  0.00     0.009 A 
ATOM     64  C   UNL A   1      37.648  31.950  37.285  1.00  0.00     0.001 A 
ATOM     65  C   UNL A   1      38.659  33.938  36.358  1.00  0.00     0.001 A 
ATOM     66  C   UNL A   1      37.905  33.320  37.353  1.00  0.00     0.000 A 
ENDBRANCH  42  61
BRANCH  54  67
ATOM     67  C   UNL A   1      44.514  27.791  34.359  1.00  0.00    -0.014 A 
ATOM     68  C   UNL A   1      45.669  28.585  34.420  1.00  0.00     0.009 A 
ATOM     69  C   UNL A   1      44.411  26.668  35.196  1.00  0.00     0.009 A 
ATOM     70  C   UNL A   1      46.713  28.245  35.283  1.00  0.00     0.001 A 
ATOM     71  C   UNL A   1      45.445  26.345  36.073  1.00  0.00     0.001 A 
ATOM     72  C   UNL A   1      46.599  27.128  36.111  1.00  0.00     0.000 A 
ENDBRANCH  54  67
ENDBRANCH  28  29
ENDBRANCH  21  23
ENDBRANCH  20  21
ENDBRANCH  19  20
ENDBRANCH   1  19
TORSDOF 16
ENDMDL
