MODEL 1
REMARK VINA RESULT:     -10.7      0.000      0.000
REMARK SMILES O=C(OCCOC(=O)[C@H]1O[C@@H](Oc2c(-c3cc(O)c(O)c(O)c3)oc3cc(O)cc(O)c3c2=O)[C@H](O)[C@@H](O)[C@@H]1O)c1ccc(-c2c3nc(c(-c4ccccc4)c4ccc([nH]4)c(-c4ccccc4)c4nc(c(-c5ccccc5)c5ccc2[nH]5)C=C4)C=C3)cc1
REMARK SMILES IDX 5 1 4 2 3 3 2 4 1 5 41 6 42 7 88 8 43 9 87 10 44 11 45 12
REMARK SMILES IDX 46 13 81 14 47 15 86 16 80 17 82 18 48 19 85 20 79 21 78 22
REMARK SMILES IDX 49 24 71 25 56 26 70 27 57 28 60 29 69 30 83 31 58 32 59 33
REMARK SMILES IDX 68 35 84 36 61 37 50 38 51 39 55 40 52 41 54 42 53 43 72 44
REMARK SMILES IDX 73 45 77 46 74 47 76 48 75 49 62 50 63 51 67 52 64 53 66 54
REMARK SMILES IDX 65 55 6 56 7 57 8 58 9 59 10 60 39 61 11 62 37 63 35 64
REMARK SMILES IDX 40 65 12 67 13 68 14 69 33 70 24 71 32 72 34 73 25 74 30 75
REMARK SMILES IDX 26 76 29 77 27 78 15 79 16 80 23 81 17 82 21 83 19 84 18 85
REMARK SMILES IDX 22 87 20 89 31 91 28 93 38 95 36 97
REMARK H PARENT 82 23 60 34 40 66 18 86 22 88 20 90 31 92 28 94 38 96 36 98
REMARK Flexibility Score: inf
ROOT
ATOM      1  C   UNL A   1      32.923  34.691  28.153  1.00  0.00     0.274 C 
ENDROOT
BRANCH   1   2
ATOM      2  C   UNL A   1      34.447  34.402  28.016  1.00  0.00     0.275 C 
BRANCH   2   3
ATOM      3  O   UNL A   1      34.799  33.158  27.382  1.00  0.00    -0.458 OA
BRANCH   3   4
ATOM      4  C   UNL A   1      34.846  31.896  27.895  1.00  0.00     0.338 C 
ATOM      5  O   UNL A   1      33.800  31.376  28.283  1.00  0.00    -0.246 OA
BRANCH   4   6
ATOM      6  C   UNL A   1      36.124  31.178  28.245  1.00  0.00     0.060 A 
ATOM      7  C   UNL A   1      37.419  31.715  28.287  1.00  0.00     0.016 A 
ATOM      8  C   UNL A   1      35.983  29.840  28.636  1.00  0.00     0.016 A 
ATOM      9  C   UNL A   1      38.502  31.008  28.897  1.00  0.00     0.010 A 
ATOM     10  C   UNL A   1      37.051  29.148  29.243  1.00  0.00     0.010 A 
ATOM     11  C   UNL A   1      38.328  29.727  29.438  1.00  0.00    -0.014 A 
BRANCH  11  12
ATOM     12  C   UNL A   1      39.432  28.840  30.004  1.00  0.00     0.031 A 
ATOM     13  C   UNL A   1      40.082  29.380  31.247  1.00  0.00     0.074 A 
ATOM     14  C   UNL A   1      39.971  27.709  29.465  1.00  0.00     0.049 A 
ATOM     15  N   UNL A   1      41.175  28.991  31.854  1.00  0.00    -0.248 NA
ATOM     16  C   UNL A   1      39.393  30.509  31.892  1.00  0.00     0.031 C 
ATOM     17  C   UNL A   1      39.396  26.857  28.435  1.00  0.00     0.029 A 
ATOM     18  N   UNL A   1      41.205  27.101  29.654  1.00  0.00    -0.354 N 
ATOM     19  C   UNL A   1      41.290  29.823  32.959  1.00  0.00     0.074 A 
ATOM     20  C   UNL A   1      40.205  30.774  32.898  1.00  0.00     0.031 C 
ATOM     21  C   UNL A   1      40.335  26.073  27.876  1.00  0.00     0.029 A 
ATOM     22  C   UNL A   1      41.548  26.196  28.657  1.00  0.00     0.049 A 
ATOM     23  H   UNL A   1      41.784  27.295  30.426  1.00  0.00     0.167 HD
ATOM     24  C   UNL A   1      42.256  29.825  33.904  1.00  0.00     0.031 A 
ATOM     25  C   UNL A   1      42.680  25.497  28.417  1.00  0.00     0.031 A 
ATOM     26  C   UNL A   1      43.367  28.912  33.924  1.00  0.00     0.049 A 
ATOM     27  C   UNL A   1      43.748  25.514  29.472  1.00  0.00     0.074 A 
ATOM     28  C   UNL A   1      44.427  28.876  34.811  1.00  0.00     0.029 A 
ATOM     29  N   UNL A   1      43.577  27.877  33.021  1.00  0.00    -0.354 N 
ATOM     30  N   UNL A   1      43.807  26.255  30.550  1.00  0.00    -0.248 NA
ATOM     31  C   UNL A   1      44.858  24.562  29.329  1.00  0.00     0.031 C 
ATOM     32  C   UNL A   1      45.344  27.921  34.359  1.00  0.00     0.029 A 
ATOM     33  C   UNL A   1      44.817  27.306  33.237  1.00  0.00     0.049 A 
ATOM     34  H   UNL A   1      42.936  27.592  32.330  1.00  0.00     0.167 HD
ATOM     35  C   UNL A   1      44.919  25.816  31.251  1.00  0.00     0.074 A 
ATOM     36  C   UNL A   1      45.516  24.755  30.464  1.00  0.00     0.031 C 
ATOM     37  C   UNL A   1      45.386  26.242  32.450  1.00  0.00     0.031 A 
BRANCH  24  38
ATOM     38  C   UNL A   1      42.208  30.968  34.880  1.00  0.00    -0.014 A 
ATOM     39  C   UNL A   1      42.769  32.222  34.591  1.00  0.00     0.009 A 
ATOM     40  C   UNL A   1      41.669  30.743  36.157  1.00  0.00     0.009 A 
ATOM     41  C   UNL A   1      42.853  33.202  35.584  1.00  0.00     0.001 A 
ATOM     42  C   UNL A   1      41.710  31.741  37.129  1.00  0.00     0.001 A 
ATOM     43  C   UNL A   1      42.319  32.961  36.848  1.00  0.00     0.000 A 
ENDBRANCH  24  38
BRANCH  25  44
ATOM     44  C   UNL A   1      42.867  24.672  27.183  1.00  0.00    -0.014 A 
ATOM     45  C   UNL A   1      42.453  23.330  27.127  1.00  0.00     0.009 A 
ATOM     46  C   UNL A   1      43.534  25.207  26.067  1.00  0.00     0.009 A 
ATOM     47  C   UNL A   1      42.720  22.542  25.998  1.00  0.00     0.001 A 
ATOM     48  C   UNL A   1      43.785  24.423  24.934  1.00  0.00     0.001 A 
ATOM     49  C   UNL A   1      43.384  23.088  24.902  1.00  0.00     0.000 A 
ENDBRANCH  25  44
BRANCH  37  50
ATOM     50  C   UNL A   1      46.566  25.514  33.019  1.00  0.00    -0.014 A 
ATOM     51  C   UNL A   1      47.885  25.874  32.710  1.00  0.00     0.009 A 
ATOM     52  C   UNL A   1      46.332  24.460  33.916  1.00  0.00     0.009 A 
ATOM     53  C   UNL A   1      48.951  25.155  33.255  1.00  0.00     0.001 A 
ATOM     54  C   UNL A   1      47.399  23.764  34.479  1.00  0.00     0.001 A 
ATOM     55  C   UNL A   1      48.706  24.104  34.140  1.00  0.00     0.000 A 
ENDBRANCH  37  50
ENDBRANCH  11  12
ENDBRANCH   4   6
ENDBRANCH   3   4
ENDBRANCH   2   3
ENDBRANCH   1   2
BRANCH   1  56
ATOM     56  O   UNL A   1      32.370  35.060  29.443  1.00  0.00    -0.460 OA
BRANCH  56  57
ATOM     57  C   UNL A   1      32.942  36.038  30.244  1.00  0.00     0.338 C 
ATOM     58  O   UNL A   1      32.845  37.226  30.041  1.00  0.00    -0.249 OA
BRANCH  57  59
ATOM     59  C   UNL A   1      33.748  35.301  31.414  1.00  0.00     0.263 C 
ATOM     60  O   UNL A   1      34.989  34.531  31.492  1.00  0.00    -0.322 OA
ATOM     61  C   UNL A   1      34.037  36.435  32.380  1.00  0.00     0.186 C 
ATOM     62  C   UNL A   1      35.286  34.019  32.859  1.00  0.00     0.340 C 
ATOM     63  C   UNL A   1      33.854  35.812  33.734  1.00  0.00     0.181 C 
ATOM     64  C   UNL A   1      35.136  35.068  34.001  1.00  0.00     0.214 C 
BRANCH  61  65
ATOM     65  O   UNL A   1      33.293  37.639  32.354  1.00  0.00    -0.387 OA
ATOM     66  H   UNL A   1      32.505  37.520  31.801  1.00  0.00     0.211 HD
ENDBRANCH  61  65
BRANCH  62  67
ATOM     67  O   UNL A   1      36.532  33.330  33.134  1.00  0.00    -0.454 OA
BRANCH  67  68
ATOM     68  C   UNL A   1      37.765  33.922  33.025  1.00  0.00     0.214 A 
ATOM     69  C   UNL A   1      38.732  33.936  33.976  1.00  0.00     0.181 A 
ATOM     70  C   UNL A   1      38.208  34.243  31.621  1.00  0.00     0.239 A 
ATOM     71  O   UNL A   1      39.999  34.454  33.759  1.00  0.00    -0.452 OA
ATOM     72  C   UNL A   1      39.667  34.417  31.382  1.00  0.00     0.111 A 
ATOM     73  O   UNL A   1      37.384  34.285  30.715  1.00  0.00    -0.285 OA
ATOM     74  C   UNL A   1      40.485  34.520  32.496  1.00  0.00     0.146 A 
ATOM     75  C   UNL A   1      40.272  34.472  30.122  1.00  0.00     0.134 A 
ATOM     76  C   UNL A   1      41.866  34.699  32.392  1.00  0.00     0.094 A 
ATOM     77  C   UNL A   1      41.659  34.659  29.996  1.00  0.00     0.093 A 
ATOM     78  C   UNL A   1      42.444  34.777  31.139  1.00  0.00     0.123 A 
BRANCH  69  79
ATOM     79  C   UNL A   1      38.707  33.437  35.368  1.00  0.00     0.029 A 
ATOM     80  C   UNL A   1      38.333  32.085  35.537  1.00  0.00     0.062 A 
ATOM     81  C   UNL A   1      38.770  34.265  36.499  1.00  0.00     0.062 A 
ATOM     82  C   UNL A   1      38.044  31.572  36.786  1.00  0.00     0.162 A 
ATOM     83  C   UNL A   1      38.502  33.721  37.755  1.00  0.00     0.162 A 
ATOM     84  C   UNL A   1      38.163  32.381  37.896  1.00  0.00     0.200 A 
BRANCH  82  85
ATOM     85  O   UNL A   1      37.606  30.286  36.872  1.00  0.00    -0.504 OA
ATOM     86  H   UNL A   1      38.223  29.582  36.899  1.00  0.00     0.293 HD
ENDBRANCH  82  85
BRANCH  83  87
ATOM     87  O   UNL A   1      38.553  34.514  38.868  1.00  0.00    -0.504 OA
ATOM     88  H   UNL A   1      37.760  34.756  39.306  1.00  0.00     0.293 HD
ENDBRANCH  83  87
BRANCH  84  89
ATOM     89  O   UNL A   1      37.972  31.872  39.142  1.00  0.00    -0.502 OA
ATOM     90  H   UNL A   1      38.198  32.381  39.895  1.00  0.00     0.293 HD
ENDBRANCH  84  89
ENDBRANCH  69  79
BRANCH  75  91
ATOM     91  O   UNL A   1      39.527  34.319  28.989  1.00  0.00    -0.507 OA
ATOM     92  H   UNL A   1      39.375  35.053  28.427  1.00  0.00     0.293 HD
ENDBRANCH  75  91
BRANCH  78  93
ATOM     93  O   UNL A   1      43.791  34.964  31.079  1.00  0.00    -0.508 OA
ATOM     94  H   UNL A   1      44.147  35.829  31.128  1.00  0.00     0.293 HD
ENDBRANCH  78  93
ENDBRANCH  67  68
ENDBRANCH  62  67
BRANCH  63  95
ATOM     95  O   UNL A   1      33.574  36.883  34.591  1.00  0.00    -0.387 OA
ATOM     96  H   UNL A   1      32.976  36.587  35.295  1.00  0.00     0.211 HD
ENDBRANCH  63  95
BRANCH  64  97
ATOM     97  O   UNL A   1      35.094  34.471  35.298  1.00  0.00    -0.384 OA
ATOM     98  H   UNL A   1      34.663  35.078  35.920  1.00  0.00     0.211 HD
ENDBRANCH  64  97
ENDBRANCH  57  59
ENDBRANCH  56  57
ENDBRANCH   1  56
TORSDOF 22
ENDMDL
MODEL 2
REMARK VINA RESULT:     -10.7      0.831      5.574
REMARK SMILES O=C(OCCOC(=O)[C@H]1O[C@@H](Oc2c(-c3cc(O)c(O)c(O)c3)oc3cc(O)cc(O)c3c2=O)[C@H](O)[C@@H](O)[C@@H]1O)c1ccc(-c2c3nc(c(-c4ccccc4)c4ccc([nH]4)c(-c4ccccc4)c4nc(c(-c5ccccc5)c5ccc2[nH]5)C=C4)C=C3)cc1
REMARK SMILES IDX 5 1 4 2 3 3 2 4 1 5 41 6 42 7 88 8 43 9 87 10 44 11 45 12
REMARK SMILES IDX 46 13 81 14 47 15 86 16 80 17 82 18 48 19 85 20 79 21 78 22
REMARK SMILES IDX 49 24 71 25 56 26 70 27 57 28 60 29 69 30 83 31 58 32 59 33
REMARK SMILES IDX 68 35 84 36 61 37 50 38 51 39 55 40 52 41 54 42 53 43 72 44
REMARK SMILES IDX 73 45 77 46 74 47 76 48 75 49 62 50 63 51 67 52 64 53 66 54
REMARK SMILES IDX 65 55 6 56 7 57 8 58 9 59 10 60 39 61 11 62 37 63 35 64
REMARK SMILES IDX 40 65 12 67 13 68 14 69 33 70 24 71 32 72 34 73 25 74 30 75
REMARK SMILES IDX 26 76 29 77 27 78 15 79 16 80 23 81 17 82 21 83 19 84 18 85
REMARK SMILES IDX 22 87 20 89 31 91 28 93 38 95 36 97
REMARK H PARENT 82 23 60 34 40 66 18 86 22 88 20 90 31 92 28 94 38 96 36 98
REMARK Flexibility Score: inf
ROOT
ATOM      1  C   UNL A   1      33.022  34.033  27.915  1.00  0.00     0.274 C 
ENDROOT
BRANCH   1   2
ATOM      2  C   UNL A   1      33.994  32.845  28.183  1.00  0.00     0.275 C 
BRANCH   2   3
ATOM      3  O   UNL A   1      33.635  31.587  27.582  1.00  0.00    -0.458 OA
BRANCH   3   4
ATOM      4  C   UNL A   1      34.353  30.433  27.470  1.00  0.00     0.338 C 
ATOM      5  O   UNL A   1      33.839  29.469  26.903  1.00  0.00    -0.246 OA
BRANCH   4   6
ATOM      6  C   UNL A   1      35.644  30.173  28.203  1.00  0.00     0.060 A 
ATOM      7  C   UNL A   1      35.799  29.658  29.498  1.00  0.00     0.016 A 
ATOM      8  C   UNL A   1      36.816  30.417  27.476  1.00  0.00     0.016 A 
ATOM      9  C   UNL A   1      37.069  29.202  29.973  1.00  0.00     0.010 A 
ATOM     10  C   UNL A   1      38.065  29.960  27.944  1.00  0.00     0.010 A 
ATOM     11  C   UNL A   1      38.223  29.294  29.183  1.00  0.00    -0.014 A 
BRANCH  11  12
ATOM     12  C   UNL A   1      39.639  28.949  29.630  1.00  0.00     0.031 A 
ATOM     13  C   UNL A   1      40.152  27.638  29.102  1.00  0.00     0.074 A 
ATOM     14  C   UNL A   1      40.429  29.606  30.526  1.00  0.00     0.049 A 
ATOM     15  N   UNL A   1      41.213  26.955  29.450  1.00  0.00    -0.248 NA
ATOM     16  C   UNL A   1      39.354  27.025  28.027  1.00  0.00     0.031 C 
ATOM     17  C   UNL A   1      40.293  30.978  30.990  1.00  0.00     0.029 A 
ATOM     18  N   UNL A   1      41.497  29.170  31.300  1.00  0.00    -0.354 N 
ATOM     19  C   UNL A   1      41.213  25.840  28.623  1.00  0.00     0.074 A 
ATOM     20  C   UNL A   1      40.017  25.904  27.814  1.00  0.00     0.031 C 
ATOM     21  C   UNL A   1      40.980  31.176  32.129  1.00  0.00     0.029 A 
ATOM     22  C   UNL A   1      41.800  30.007  32.368  1.00  0.00     0.049 A 
ATOM     23  H   UNL A   1      41.995  28.343  31.108  1.00  0.00     0.167 HD
ATOM     24  C   UNL A   1      42.104  24.826  28.590  1.00  0.00     0.031 A 
ATOM     25  C   UNL A   1      42.671  29.887  33.395  1.00  0.00     0.031 A 
ATOM     26  C   UNL A   1      43.260  24.741  29.442  1.00  0.00     0.049 A 
ATOM     27  C   UNL A   1      43.651  28.751  33.350  1.00  0.00     0.074 A 
ATOM     28  C   UNL A   1      44.190  23.720  29.520  1.00  0.00     0.029 A 
ATOM     29  N   UNL A   1      43.653  25.699  30.367  1.00  0.00    -0.354 N 
ATOM     30  N   UNL A   1      43.680  27.741  32.516  1.00  0.00    -0.248 NA
ATOM     31  C   UNL A   1      44.752  28.766  34.323  1.00  0.00     0.031 C 
ATOM     32  C   UNL A   1      45.052  23.993  30.587  1.00  0.00     0.029 A 
ATOM     33  C   UNL A   1      44.710  25.224  31.121  1.00  0.00     0.049 A 
ATOM     34  H   UNL A   1      43.240  26.587  30.470  1.00  0.00     0.167 HD
ATOM     35  C   UNL A   1      44.836  27.037  32.815  1.00  0.00     0.074 A 
ATOM     36  C   UNL A   1      45.470  27.727  33.922  1.00  0.00     0.031 C 
ATOM     37  C   UNL A   1      45.334  25.932  32.209  1.00  0.00     0.031 A 
BRANCH  24  38
ATOM     38  C   UNL A   1      41.736  23.665  27.708  1.00  0.00    -0.014 A 
ATOM     39  C   UNL A   1      40.913  22.618  28.154  1.00  0.00     0.009 A 
ATOM     40  C   UNL A   1      42.313  23.579  26.431  1.00  0.00     0.009 A 
ATOM     41  C   UNL A   1      40.733  21.479  27.365  1.00  0.00     0.001 A 
ATOM     42  C   UNL A   1      42.089  22.463  25.626  1.00  0.00     0.001 A 
ATOM     43  C   UNL A   1      41.316  21.406  26.102  1.00  0.00     0.000 A 
ENDBRANCH  24  38
BRANCH  25  44
ATOM     44  C   UNL A   1      42.726  30.873  34.518  1.00  0.00    -0.014 A 
ATOM     45  C   UNL A   1      41.821  30.816  35.591  1.00  0.00     0.009 A 
ATOM     46  C   UNL A   1      43.650  31.933  34.486  1.00  0.00     0.009 A 
ATOM     47  C   UNL A   1      41.824  31.803  36.588  1.00  0.00     0.001 A 
ATOM     48  C   UNL A   1      43.662  32.908  35.491  1.00  0.00     0.001 A 
ATOM     49  C   UNL A   1      42.745  32.847  36.539  1.00  0.00     0.000 A 
ENDBRANCH  25  44
BRANCH  37  50
ATOM     50  C   UNL A   1      46.666  25.435  32.684  1.00  0.00    -0.014 A 
ATOM     51  C   UNL A   1      46.789  24.549  33.764  1.00  0.00     0.009 A 
ATOM     52  C   UNL A   1      47.818  25.851  32.000  1.00  0.00     0.009 A 
ATOM     53  C   UNL A   1      48.054  24.127  34.180  1.00  0.00     0.001 A 
ATOM     54  C   UNL A   1      49.075  25.403  32.399  1.00  0.00     0.001 A 
ATOM     55  C   UNL A   1      49.193  24.552  33.495  1.00  0.00     0.000 A 
ENDBRANCH  37  50
ENDBRANCH  11  12
ENDBRANCH   4   6
ENDBRANCH   3   4
ENDBRANCH   2   3
ENDBRANCH   1   2
BRANCH   1  56
ATOM     56  O   UNL A   1      32.387  34.711  29.029  1.00  0.00    -0.460 OA
BRANCH  56  57
ATOM     57  C   UNL A   1      33.009  35.737  29.726  1.00  0.00     0.338 C 
ATOM     58  O   UNL A   1      32.970  36.901  29.402  1.00  0.00    -0.249 OA
BRANCH  57  59
ATOM     59  C   UNL A   1      33.781  35.086  30.968  1.00  0.00     0.263 C 
ATOM     60  O   UNL A   1      35.024  34.334  31.137  1.00  0.00    -0.322 OA
ATOM     61  C   UNL A   1      34.030  36.283  31.867  1.00  0.00     0.186 C 
ATOM     62  C   UNL A   1      35.280  33.916  32.543  1.00  0.00     0.340 C 
ATOM     63  C   UNL A   1      33.806  35.748  33.252  1.00  0.00     0.181 C 
ATOM     64  C   UNL A   1      35.085  35.036  33.609  1.00  0.00     0.214 C 
BRANCH  61  65
ATOM     65  O   UNL A   1      33.277  37.475  31.738  1.00  0.00    -0.387 OA
ATOM     66  H   UNL A   1      32.474  37.411  32.278  1.00  0.00     0.211 HD
ENDBRANCH  61  65
BRANCH  62  67
ATOM     67  O   UNL A   1      36.522  33.259  32.903  1.00  0.00    -0.454 OA
BRANCH  67  68
ATOM     68  C   UNL A   1      37.721  33.915  33.018  1.00  0.00     0.214 A 
ATOM     69  C   UNL A   1      38.499  33.971  34.127  1.00  0.00     0.181 A 
ATOM     70  C   UNL A   1      38.392  34.271  31.716  1.00  0.00     0.239 A 
ATOM     71  O   UNL A   1      39.755  34.556  34.142  1.00  0.00    -0.452 OA
ATOM     72  C   UNL A   1      39.858  34.523  31.744  1.00  0.00     0.111 A 
ATOM     73  O   UNL A   1      37.743  34.278  30.676  1.00  0.00    -0.285 OA
ATOM     74  C   UNL A   1      40.456  34.658  32.987  1.00  0.00     0.146 A 
ATOM     75  C   UNL A   1      40.677  34.620  30.613  1.00  0.00     0.134 A 
ATOM     76  C   UNL A   1      41.822  34.911  33.133  1.00  0.00     0.094 A 
ATOM     77  C   UNL A   1      42.052  34.881  30.740  1.00  0.00     0.093 A 
ATOM     78  C   UNL A   1      42.611  35.029  32.004  1.00  0.00     0.123 A 
BRANCH  69  79
ATOM     79  C   UNL A   1      38.250  33.459  35.493  1.00  0.00     0.029 A 
ATOM     80  C   UNL A   1      38.708  34.272  36.554  1.00  0.00     0.062 A 
ATOM     81  C   UNL A   1      37.846  32.146  35.776  1.00  0.00     0.062 A 
ATOM     82  C   UNL A   1      38.751  33.800  37.851  1.00  0.00     0.162 A 
ATOM     83  C   UNL A   1      37.868  31.698  37.097  1.00  0.00     0.162 A 
ATOM     84  C   UNL A   1      38.298  32.528  38.125  1.00  0.00     0.200 A 
BRANCH  82  85
ATOM     85  O   UNL A   1      39.283  34.602  38.814  1.00  0.00    -0.504 OA
ATOM     86  H   UNL A   1      38.850  34.694  39.639  1.00  0.00     0.293 HD
ENDBRANCH  82  85
BRANCH  83  87
ATOM     87  O   UNL A   1      37.482  30.420  37.392  1.00  0.00    -0.504 OA
ATOM     88  H   UNL A   1      36.595  30.244  37.635  1.00  0.00     0.293 HD
ENDBRANCH  83  87
BRANCH  84  89
ATOM     89  O   UNL A   1      38.245  32.078  39.407  1.00  0.00    -0.502 OA
ATOM     90  H   UNL A   1      37.455  32.165  39.902  1.00  0.00     0.293 HD
ENDBRANCH  84  89
ENDBRANCH  69  79
BRANCH  75  91
ATOM     91  O   UNL A   1      40.157  34.440  29.364  1.00  0.00    -0.507 OA
ATOM     92  H   UNL A   1      40.145  35.150  28.755  1.00  0.00     0.293 HD
ENDBRANCH  75  91
BRANCH  78  93
ATOM     93  O   UNL A   1      43.935  35.287  32.188  1.00  0.00    -0.508 OA
ATOM     94  H   UNL A   1      44.308  36.080  31.856  1.00  0.00     0.293 HD
ENDBRANCH  78  93
ENDBRANCH  67  68
ENDBRANCH  62  67
BRANCH  63  95
ATOM     95  O   UNL A   1      33.490  36.870  34.027  1.00  0.00    -0.387 OA
ATOM     96  H   UNL A   1      34.139  37.572  33.861  1.00  0.00     0.211 HD
ENDBRANCH  63  95
BRANCH  64  97
ATOM     97  O   UNL A   1      35.004  34.524  34.940  1.00  0.00    -0.384 OA
ATOM     98  H   UNL A   1      34.088  34.580  35.253  1.00  0.00     0.211 HD
ENDBRANCH  64  97
ENDBRANCH  57  59
ENDBRANCH  56  57
ENDBRANCH   1  56
TORSDOF 22
ENDMDL
MODEL 3
REMARK VINA RESULT:     -10.7      4.169      8.381
REMARK SMILES O=C(OCCOC(=O)[C@H]1O[C@@H](Oc2c(-c3cc(O)c(O)c(O)c3)oc3cc(O)cc(O)c3c2=O)[C@H](O)[C@@H](O)[C@@H]1O)c1ccc(-c2c3nc(c(-c4ccccc4)c4ccc([nH]4)c(-c4ccccc4)c4nc(c(-c5ccccc5)c5ccc2[nH]5)C=C4)C=C3)cc1
REMARK SMILES IDX 5 1 4 2 3 3 2 4 1 5 41 6 42 7 88 8 43 9 87 10 44 11 45 12
REMARK SMILES IDX 46 13 81 14 47 15 86 16 80 17 82 18 48 19 85 20 79 21 78 22
REMARK SMILES IDX 49 24 71 25 56 26 70 27 57 28 60 29 69 30 83 31 58 32 59 33
REMARK SMILES IDX 68 35 84 36 61 37 50 38 51 39 55 40 52 41 54 42 53 43 72 44
REMARK SMILES IDX 73 45 77 46 74 47 76 48 75 49 62 50 63 51 67 52 64 53 66 54
REMARK SMILES IDX 65 55 6 56 7 57 8 58 9 59 10 60 39 61 11 62 37 63 35 64
REMARK SMILES IDX 40 65 12 67 13 68 14 69 33 70 24 71 32 72 34 73 25 74 30 75
REMARK SMILES IDX 26 76 29 77 27 78 15 79 16 80 23 81 17 82 21 83 19 84 18 85
REMARK SMILES IDX 22 87 20 89 31 91 28 93 38 95 36 97
REMARK H PARENT 82 23 60 34 40 66 18 86 22 88 20 90 31 92 28 94 38 96 36 98
REMARK Flexibility Score: inf
ROOT
ATOM      1  C   UNL A   1      35.998  24.179  25.910  1.00  0.00     0.274 C 
ENDROOT
BRANCH   1   2
ATOM      2  C   UNL A   1      36.794  23.053  25.183  1.00  0.00     0.275 C 
BRANCH   2   3
ATOM      3  O   UNL A   1      37.558  22.173  26.029  1.00  0.00    -0.458 OA
BRANCH   3   4
ATOM      4  C   UNL A   1      38.685  21.457  25.757  1.00  0.00     0.338 C 
ATOM      5  O   UNL A   1      38.572  20.364  25.204  1.00  0.00    -0.246 OA
BRANCH   4   6
ATOM      6  C   UNL A   1      40.048  21.798  26.302  1.00  0.00     0.060 A 
ATOM      7  C   UNL A   1      41.187  20.980  26.323  1.00  0.00     0.016 A 
ATOM      8  C   UNL A   1      40.202  23.106  26.781  1.00  0.00     0.016 A 
ATOM      9  C   UNL A   1      42.484  21.511  26.613  1.00  0.00     0.010 A 
ATOM     10  C   UNL A   1      41.482  23.628  27.059  1.00  0.00     0.010 A 
ATOM     11  C   UNL A   1      42.666  22.862  26.936  1.00  0.00    -0.014 A 
BRANCH  11  12
ATOM     12  C   UNL A   1      43.978  23.506  27.373  1.00  0.00     0.031 A 
ATOM     13  C   UNL A   1      44.104  23.708  28.857  1.00  0.00     0.074 A 
ATOM     14  C   UNL A   1      44.971  24.019  26.592  1.00  0.00     0.049 A 
ATOM     15  N   UNL A   1      44.980  24.406  29.534  1.00  0.00    -0.248 NA
ATOM     16  C   UNL A   1      43.101  23.016  29.684  1.00  0.00     0.031 C 
ATOM     17  C   UNL A   1      45.219  23.754  25.184  1.00  0.00     0.029 A 
ATOM     18  N   UNL A   1      45.948  24.970  26.858  1.00  0.00    -0.354 N 
ATOM     19  C   UNL A   1      44.638  24.221  30.866  1.00  0.00     0.074 A 
ATOM     20  C   UNL A   1      43.442  23.412  30.897  1.00  0.00     0.031 C 
ATOM     21  C   UNL A   1      46.015  24.695  24.646  1.00  0.00     0.029 A 
ATOM     22  C   UNL A   1      46.528  25.518  25.721  1.00  0.00     0.049 A 
ATOM     23  H   UNL A   1      46.205  25.232  27.772  1.00  0.00     0.167 HD
ATOM     24  C   UNL A   1      45.240  24.737  31.960  1.00  0.00     0.031 A 
ATOM     25  C   UNL A   1      47.413  26.526  25.549  1.00  0.00     0.031 A 
ATOM     26  C   UNL A   1      46.396  25.592  31.918  1.00  0.00     0.049 A 
ATOM     27  C   UNL A   1      48.068  27.095  26.774  1.00  0.00     0.074 A 
ATOM     28  C   UNL A   1      47.041  26.209  32.974  1.00  0.00     0.029 A 
ATOM     29  N   UNL A   1      47.084  25.961  30.769  1.00  0.00    -0.354 N 
ATOM     30  N   UNL A   1      47.781  26.855  28.030  1.00  0.00    -0.248 NA
ATOM     31  C   UNL A   1      49.205  28.005  26.575  1.00  0.00     0.031 C 
ATOM     32  C   UNL A   1      48.019  27.062  32.451  1.00  0.00     0.029 A 
ATOM     33  C   UNL A   1      48.039  26.913  31.075  1.00  0.00     0.049 A 
ATOM     34  H   UNL A   1      46.917  25.598  29.870  1.00  0.00     0.167 HD
ATOM     35  C   UNL A   1      48.741  27.527  28.772  1.00  0.00     0.074 A 
ATOM     36  C   UNL A   1      49.607  28.199  27.823  1.00  0.00     0.031 C 
ATOM     37  C   UNL A   1      48.898  27.560  30.117  1.00  0.00     0.031 A 
BRANCH  24  38
ATOM     38  C   UNL A   1      44.528  24.504  33.265  1.00  0.00    -0.014 A 
ATOM     39  C   UNL A   1      44.601  23.280  33.949  1.00  0.00     0.009 A 
ATOM     40  C   UNL A   1      43.687  25.512  33.763  1.00  0.00     0.009 A 
ATOM     41  C   UNL A   1      43.794  23.048  35.065  1.00  0.00     0.001 A 
ATOM     42  C   UNL A   1      42.921  25.294  34.906  1.00  0.00     0.001 A 
ATOM     43  C   UNL A   1      42.960  24.056  35.544  1.00  0.00     0.000 A 
ENDBRANCH  24  38
BRANCH  25  44
ATOM     44  C   UNL A   1      47.796  27.035  24.196  1.00  0.00    -0.014 A 
ATOM     45  C   UNL A   1      47.021  27.996  23.526  1.00  0.00     0.009 A 
ATOM     46  C   UNL A   1      48.914  26.502  23.530  1.00  0.00     0.009 A 
ATOM     47  C   UNL A   1      47.340  28.394  22.219  1.00  0.00     0.001 A 
ATOM     48  C   UNL A   1      49.240  26.912  22.230  1.00  0.00     0.001 A 
ATOM     49  C   UNL A   1      48.450  27.854  21.573  1.00  0.00     0.000 A 
ENDBRANCH  25  44
BRANCH  37  50
ATOM     50  C   UNL A   1      50.092  28.296  30.645  1.00  0.00    -0.014 A 
ATOM     51  C   UNL A   1      50.049  29.663  30.956  1.00  0.00     0.009 A 
ATOM     52  C   UNL A   1      51.278  27.579  30.863  1.00  0.00     0.009 A 
ATOM     53  C   UNL A   1      51.193  30.308  31.431  1.00  0.00     0.001 A 
ATOM     54  C   UNL A   1      52.408  28.219  31.365  1.00  0.00     0.001 A 
ATOM     55  C   UNL A   1      52.369  29.585  31.637  1.00  0.00     0.000 A 
ENDBRANCH  37  50
ENDBRANCH  11  12
ENDBRANCH   4   6
ENDBRANCH   3   4
ENDBRANCH   2   3
ENDBRANCH   1   2
BRANCH   1  56
ATOM     56  O   UNL A   1      34.895  24.835  25.234  1.00  0.00    -0.460 OA
BRANCH  56  57
ATOM     57  C   UNL A   1      33.677  25.070  25.856  1.00  0.00     0.338 C 
ATOM     58  O   UNL A   1      32.911  24.202  26.203  1.00  0.00    -0.249 OA
BRANCH  57  59
ATOM     59  C   UNL A   1      33.490  26.655  25.980  1.00  0.00     0.263 C 
ATOM     60  O   UNL A   1      34.352  27.773  26.362  1.00  0.00    -0.322 OA
ATOM     61  C   UNL A   1      33.089  27.052  24.572  1.00  0.00     0.186 C 
ATOM     62  C   UNL A   1      33.658  29.092  26.344  1.00  0.00     0.340 C 
ATOM     63  C   UNL A   1      32.042  28.108  24.779  1.00  0.00     0.181 C 
ATOM     64  C   UNL A   1      32.810  29.371  25.068  1.00  0.00     0.214 C 
BRANCH  61  65
ATOM     65  O   UNL A   1      32.572  26.106  23.654  1.00  0.00    -0.387 OA
ATOM     66  H   UNL A   1      32.111  26.569  22.937  1.00  0.00     0.211 HD
ENDBRANCH  61  65
BRANCH  62  67
ATOM     67  O   UNL A   1      34.395  30.316  26.589  1.00  0.00    -0.454 OA
BRANCH  67  68
ATOM     68  C   UNL A   1      34.439  30.943  27.809  1.00  0.00     0.214 A 
ATOM     69  C   UNL A   1      35.407  30.799  28.747  1.00  0.00     0.181 A 
ATOM     70  C   UNL A   1      33.554  32.155  27.946  1.00  0.00     0.239 A 
ATOM     71  O   UNL A   1      35.450  31.550  29.912  1.00  0.00    -0.452 OA
ATOM     72  C   UNL A   1      33.897  33.141  29.007  1.00  0.00     0.111 A 
ATOM     73  O   UNL A   1      32.634  32.333  27.155  1.00  0.00    -0.285 OA
ATOM     74  C   UNL A   1      34.841  32.760  29.947  1.00  0.00     0.146 A 
ATOM     75  C   UNL A   1      33.347  34.422  29.119  1.00  0.00     0.134 A 
ATOM     76  C   UNL A   1      35.229  33.598  30.995  1.00  0.00     0.094 A 
ATOM     77  C   UNL A   1      33.719  35.277  30.170  1.00  0.00     0.093 A 
ATOM     78  C   UNL A   1      34.657  34.851  31.105  1.00  0.00     0.123 A 
BRANCH  69  79
ATOM     79  C   UNL A   1      36.580  29.897  28.777  1.00  0.00     0.029 A 
ATOM     80  C   UNL A   1      36.855  29.277  30.017  1.00  0.00     0.062 A 
ATOM     81  C   UNL A   1      37.547  29.836  27.764  1.00  0.00     0.062 A 
ATOM     82  C   UNL A   1      38.043  28.609  30.236  1.00  0.00     0.162 A 
ATOM     83  C   UNL A   1      38.729  29.132  27.995  1.00  0.00     0.162 A 
ATOM     84  C   UNL A   1      38.963  28.508  29.214  1.00  0.00     0.200 A 
BRANCH  82  85
ATOM     85  O   UNL A   1      38.284  28.108  31.479  1.00  0.00    -0.504 OA
ATOM     86  H   UNL A   1      38.596  28.671  32.158  1.00  0.00     0.293 HD
ENDBRANCH  82  85
BRANCH  83  87
ATOM     87  O   UNL A   1      39.687  29.065  27.021  1.00  0.00    -0.504 OA
ATOM     88  H   UNL A   1      40.562  28.815  27.242  1.00  0.00     0.293 HD
ENDBRANCH  83  87
BRANCH  84  89
ATOM     89  O   UNL A   1      40.097  27.778  29.380  1.00  0.00    -0.502 OA
ATOM     90  H   UNL A   1      40.436  27.627  30.240  1.00  0.00     0.293 HD
ENDBRANCH  84  89
ENDBRANCH  69  79
BRANCH  75  91
ATOM     91  O   UNL A   1      32.454  34.876  28.191  1.00  0.00    -0.507 OA
ATOM     92  H   UNL A   1      31.651  34.415  28.051  1.00  0.00     0.293 HD
ENDBRANCH  75  91
BRANCH  78  93
ATOM     93  O   UNL A   1      35.052  35.633  32.146  1.00  0.00    -0.508 OA
ATOM     94  H   UNL A   1      35.964  35.770  32.310  1.00  0.00     0.293 HD
ENDBRANCH  78  93
ENDBRANCH  67  68
ENDBRANCH  62  67
BRANCH  63  95
ATOM     95  O   UNL A   1      31.285  28.104  23.601  1.00  0.00    -0.387 OA
ATOM     96  H   UNL A   1      31.837  28.399  22.860  1.00  0.00     0.211 HD
ENDBRANCH  63  95
BRANCH  64  97
ATOM     97  O   UNL A   1      31.906  30.466  25.233  1.00  0.00    -0.384 OA
ATOM     98  H   UNL A   1      31.168  30.373  24.610  1.00  0.00     0.211 HD
ENDBRANCH  64  97
ENDBRANCH  57  59
ENDBRANCH  56  57
ENDBRANCH   1  56
TORSDOF 22
ENDMDL
