MODEL 1
REMARK VINA RESULT:     -11.7      0.000      0.000
REMARK SMILES NS(=O)(=O)c1ccc(-n2nc(C(F)(F)F)cc2-c2ccc(C(=O)OCCOC(=O)c3ccc(-c4c5nc(c(-c6ccccc6)c6ccc([nH]6)c(-c6ccccc6)c6nc(c(-c7ccccc7)c7ccc4[nH]7)C=C6)C=C5)cc3)cc2)cc1
REMARK SMILES IDX 25 1 24 2 22 3 23 4 21 5 18 6 19 7 79 8 20 9 78 10 17 11
REMARK SMILES IDX 9 12 10 13 11 14 16 15 8 16 5 17 6 18 81 19 7 20 80 21 2 22
REMARK SMILES IDX 3 23 4 24 1 25 12 28 13 29 14 30 15 31 26 32 27 33 28 34
REMARK SMILES IDX 29 35 30 36 31 37 77 38 32 39 76 40 33 41 34 42 35 43 70 44
REMARK SMILES IDX 36 45 75 46 69 47 71 48 37 49 74 50 68 51 67 52 38 54 60 55
REMARK SMILES IDX 45 56 59 57 46 58 49 59 58 60 72 61 47 62 48 63 57 65 73 66
REMARK SMILES IDX 50 67 39 68 40 69 44 70 41 71 43 72 42 73 61 74 62 75 66 76
REMARK SMILES IDX 63 77 65 78 64 79 51 80 52 81 56 82 53 83 55 84 54 85
REMARK H PARENT 1 26 1 27 71 53 49 64
REMARK Flexibility Score: inf
ROOT
ATOM      1  C   UNL A   1      36.164  21.269  25.548  1.00  0.00     0.275 C 
ENDROOT
BRANCH   1   2
ATOM      2  O   UNL A   1      35.254  22.305  25.149  1.00  0.00    -0.458 OA
BRANCH   2   3
ATOM      3  C   UNL A   1      34.500  22.831  26.147  1.00  0.00     0.338 C 
ATOM      4  O   UNL A   1      34.382  22.386  27.278  1.00  0.00    -0.246 OA
BRANCH   3   5
ATOM      5  C   UNL A   1      33.894  24.115  25.714  1.00  0.00     0.060 A 
ATOM      6  C   UNL A   1      32.625  26.488  24.928  1.00  0.00     0.000 A 
ATOM      7  C   UNL A   1      32.193  25.801  26.071  1.00  0.00     0.011 A 
ATOM      8  C   UNL A   1      33.716  25.997  24.200  1.00  0.00     0.011 A 
ATOM      9  C   UNL A   1      32.824  24.619  26.462  1.00  0.00     0.016 A 
ATOM     10  C   UNL A   1      34.355  24.819  24.596  1.00  0.00     0.016 A 
BRANCH   6  11
ATOM     11  C   UNL A   1      31.890  27.657  24.452  1.00  0.00     0.075 A 
ATOM     12  N   UNL A   1      31.900  28.923  25.023  1.00  0.00    -0.233 N 
ATOM     13  N   UNL A   1      30.870  29.685  24.568  1.00  0.00    -0.163 NA
ATOM     14  C   UNL A   1      30.344  28.987  23.543  1.00  0.00     0.167 A 
ATOM     15  C   UNL A   1      30.937  27.706  23.455  1.00  0.00     0.064 A 
BRANCH  12  16
ATOM     16  C   UNL A   1      32.834  29.467  25.946  1.00  0.00     0.065 A 
ATOM     17  C   UNL A   1      34.645  30.523  27.785  1.00  0.00     0.082 A 
ATOM     18  C   UNL A   1      34.980  29.369  27.076  1.00  0.00     0.024 A 
ATOM     19  C   UNL A   1      33.418  31.162  27.570  1.00  0.00     0.024 A 
ATOM     20  C   UNL A   1      34.067  28.832  26.165  1.00  0.00     0.030 A 
ATOM     21  C   UNL A   1      32.522  30.650  26.627  1.00  0.00     0.030 A 
BRANCH  17  22
ATOM     22  S   UNL A   1      35.738  31.207  28.997  1.00  0.00     0.238 S 
ATOM     23  O   UNL A   1      36.524  32.240  28.355  1.00  0.00    -0.207 OA
ATOM     24  O   UNL A   1      36.324  30.122  29.740  1.00  0.00    -0.207 OA
BRANCH  22  25
ATOM     25  N   UNL A   1      34.736  32.021  30.076  1.00  0.00    -0.225 NA
ATOM     26  H   UNL A   1      34.103  31.356  30.519  1.00  0.00     0.137 HD
ATOM     27  H   UNL A   1      34.195  32.724  29.573  1.00  0.00     0.137 HD
ENDBRANCH  22  25
ENDBRANCH  17  22
ENDBRANCH  12  16
BRANCH  14  28
ATOM     28  C   UNL A   1      29.254  29.516  22.652  1.00  0.00     0.435 C 
ATOM     29  F   UNL A   1      29.705  29.924  21.437  1.00  0.00    -0.164 F 
ATOM     30  F   UNL A   1      28.282  28.590  22.430  1.00  0.00    -0.164 F 
ATOM     31  F   UNL A   1      28.630  30.592  23.211  1.00  0.00    -0.164 F 
ENDBRANCH  14  28
ENDBRANCH   6  11
ENDBRANCH   3   5
ENDBRANCH   2   3
ENDBRANCH   1   2
BRANCH   1  32
ATOM     32  C   UNL A   1      37.542  21.489  24.941  1.00  0.00     0.275 C 
BRANCH  32  33
ATOM     33  O   UNL A   1      38.209  22.617  25.509  1.00  0.00    -0.458 OA
BRANCH  33  34
ATOM     34  C   UNL A   1      39.341  22.336  26.191  1.00  0.00     0.338 C 
ATOM     35  O   UNL A   1      39.964  21.287  26.203  1.00  0.00    -0.246 OA
BRANCH  34  36
ATOM     36  C   UNL A   1      39.600  23.418  27.148  1.00  0.00     0.060 A 
ATOM     37  C   UNL A   1      38.696  24.481  27.203  1.00  0.00     0.016 A 
ATOM     38  C   UNL A   1      40.853  23.486  27.775  1.00  0.00     0.016 A 
ATOM     39  C   UNL A   1      39.105  25.667  27.785  1.00  0.00     0.010 A 
ATOM     40  C   UNL A   1      41.267  24.673  28.337  1.00  0.00     0.010 A 
ATOM     41  C   UNL A   1      40.412  25.770  28.282  1.00  0.00    -0.014 A 
BRANCH  41  42
ATOM     42  C   UNL A   1      40.826  27.022  28.884  1.00  0.00     0.031 A 
ATOM     43  C   UNL A   1      41.928  27.685  28.150  1.00  0.00     0.074 A 
ATOM     44  C   UNL A   1      40.196  27.600  29.924  1.00  0.00     0.049 A 
ATOM     45  N   UNL A   1      43.130  27.892  28.568  1.00  0.00    -0.248 NA
ATOM     46  C   UNL A   1      41.709  28.023  26.735  1.00  0.00     0.031 C 
ATOM     47  C   UNL A   1      38.932  27.213  30.556  1.00  0.00     0.029 A 
ATOM     48  N   UNL A   1      40.524  28.749  30.574  1.00  0.00    -0.354 N 
ATOM     49  C   UNL A   1      43.783  28.547  27.529  1.00  0.00     0.074 A 
ATOM     50  C   UNL A   1      42.917  28.461  26.381  1.00  0.00     0.031 C 
ATOM     51  C   UNL A   1      38.490  28.236  31.326  1.00  0.00     0.029 A 
ATOM     52  C   UNL A   1      39.502  29.280  31.352  1.00  0.00     0.049 A 
ATOM     53  H   UNL A   1      41.410  29.170  30.498  1.00  0.00     0.167 HD
ATOM     54  C   UNL A   1      44.881  29.315  27.759  1.00  0.00     0.031 A 
ATOM     55  C   UNL A   1      39.481  30.512  31.918  1.00  0.00     0.031 A 
ATOM     56  C   UNL A   1      45.471  29.028  29.041  1.00  0.00     0.049 A 
ATOM     57  C   UNL A   1      40.878  31.001  31.979  1.00  0.00     0.074 A 
ATOM     58  C   UNL A   1      46.026  27.907  29.627  1.00  0.00     0.029 A 
ATOM     59  N   UNL A   1      45.184  29.890  30.072  1.00  0.00    -0.354 N 
ATOM     60  N   UNL A   1      41.785  30.481  32.753  1.00  0.00    -0.248 NA
ATOM     61  C   UNL A   1      41.383  31.777  30.857  1.00  0.00     0.031 C 
ATOM     62  C   UNL A   1      45.602  27.955  30.987  1.00  0.00     0.029 A 
ATOM     63  C   UNL A   1      44.872  29.131  31.169  1.00  0.00     0.049 A 
ATOM     64  H   UNL A   1      45.200  30.874  30.029  1.00  0.00     0.167 HD
ATOM     65  C   UNL A   1      42.939  30.471  31.982  1.00  0.00     0.074 A 
ATOM     66  C   UNL A   1      42.657  31.374  30.867  1.00  0.00     0.031 C 
ATOM     67  C   UNL A   1      43.898  29.518  32.166  1.00  0.00     0.031 A 
BRANCH  54  68
ATOM     68  C   UNL A   1      45.145  30.606  27.026  1.00  0.00    -0.014 A 
ATOM     69  C   UNL A   1      46.477  31.007  26.830  1.00  0.00     0.009 A 
ATOM     70  C   UNL A   1      44.151  31.575  26.786  1.00  0.00     0.009 A 
ATOM     71  C   UNL A   1      46.799  32.328  26.499  1.00  0.00     0.001 A 
ATOM     72  C   UNL A   1      44.466  32.884  26.415  1.00  0.00     0.001 A 
ATOM     73  C   UNL A   1      45.792  33.269  26.303  1.00  0.00     0.000 A 
ENDBRANCH  54  68
BRANCH  55  74
ATOM     74  C   UNL A   1      38.334  31.415  32.155  1.00  0.00    -0.014 A 
ATOM     75  C   UNL A   1      37.498  31.236  33.270  1.00  0.00     0.009 A 
ATOM     76  C   UNL A   1      38.233  32.628  31.450  1.00  0.00     0.009 A 
ATOM     77  C   UNL A   1      36.627  32.252  33.690  1.00  0.00     0.001 A 
ATOM     78  C   UNL A   1      37.362  33.641  31.868  1.00  0.00     0.001 A 
ATOM     79  C   UNL A   1      36.572  33.460  32.997  1.00  0.00     0.000 A 
ENDBRANCH  55  74
BRANCH  67  80
ATOM     80  C   UNL A   1      43.791  28.626  33.380  1.00  0.00    -0.014 A 
ATOM     81  C   UNL A   1      44.357  28.944  34.627  1.00  0.00     0.009 A 
ATOM     82  C   UNL A   1      42.963  27.498  33.295  1.00  0.00     0.009 A 
ATOM     83  C   UNL A   1      44.125  28.137  35.747  1.00  0.00     0.001 A 
ATOM     84  C   UNL A   1      42.712  26.705  34.416  1.00  0.00     0.001 A 
ATOM     85  C   UNL A   1      43.298  27.020  35.641  1.00  0.00     0.000 A 
ENDBRANCH  67  80
ENDBRANCH  41  42
ENDBRANCH  34  36
ENDBRANCH  33  34
ENDBRANCH  32  33
ENDBRANCH   1  32
TORSDOF 16
ENDMDL
MODEL 2
REMARK VINA RESULT:     -11.6      3.614      8.095
REMARK SMILES NS(=O)(=O)c1ccc(-n2nc(C(F)(F)F)cc2-c2ccc(C(=O)OCCOC(=O)c3ccc(-c4c5nc(c(-c6ccccc6)c6ccc([nH]6)c(-c6ccccc6)c6nc(c(-c7ccccc7)c7ccc4[nH]7)C=C6)C=C5)cc3)cc2)cc1
REMARK SMILES IDX 25 1 24 2 22 3 23 4 21 5 18 6 19 7 79 8 20 9 78 10 17 11
REMARK SMILES IDX 9 12 10 13 11 14 16 15 8 16 5 17 6 18 81 19 7 20 80 21 2 22
REMARK SMILES IDX 3 23 4 24 1 25 12 28 13 29 14 30 15 31 26 32 27 33 28 34
REMARK SMILES IDX 29 35 30 36 31 37 77 38 32 39 76 40 33 41 34 42 35 43 70 44
REMARK SMILES IDX 36 45 75 46 69 47 71 48 37 49 74 50 68 51 67 52 38 54 60 55
REMARK SMILES IDX 45 56 59 57 46 58 49 59 58 60 72 61 47 62 48 63 57 65 73 66
REMARK SMILES IDX 50 67 39 68 40 69 44 70 41 71 43 72 42 73 61 74 62 75 66 76
REMARK SMILES IDX 63 77 65 78 64 79 51 80 52 81 56 82 53 83 55 84 54 85
REMARK H PARENT 1 26 1 27 71 53 49 64
REMARK Flexibility Score: inf
ROOT
ATOM      1  C   UNL A   1      32.271  29.868  25.477  1.00  0.00     0.275 C 
ENDROOT
BRANCH   1   2
ATOM      2  O   UNL A   1      32.167  28.478  25.135  1.00  0.00    -0.458 OA
BRANCH   2   3
ATOM      3  C   UNL A   1      33.084  28.029  24.241  1.00  0.00     0.338 C 
ATOM      4  O   UNL A   1      33.666  28.700  23.403  1.00  0.00    -0.246 OA
BRANCH   3   5
ATOM      5  C   UNL A   1      33.380  26.594  24.479  1.00  0.00     0.060 A 
ATOM      6  C   UNL A   1      33.875  23.855  24.810  1.00  0.00     0.000 A 
ATOM      7  C   UNL A   1      34.004  24.449  23.546  1.00  0.00     0.011 A 
ATOM      8  C   UNL A   1      33.528  24.647  25.911  1.00  0.00     0.011 A 
ATOM      9  C   UNL A   1      33.756  25.812  23.382  1.00  0.00     0.016 A 
ATOM     10  C   UNL A   1      33.290  26.014  25.749  1.00  0.00     0.016 A 
BRANCH   6  11
ATOM     11  C   UNL A   1      34.017  22.409  24.959  1.00  0.00     0.075 A 
ATOM     12  N   UNL A   1      35.205  21.714  25.139  1.00  0.00    -0.233 N 
ATOM     13  N   UNL A   1      35.048  20.384  24.901  1.00  0.00    -0.163 NA
ATOM     14  C   UNL A   1      33.718  20.203  24.795  1.00  0.00     0.167 A 
ATOM     15  C   UNL A   1      33.042  21.445  24.801  1.00  0.00     0.064 A 
BRANCH  12  16
ATOM     16  C   UNL A   1      36.469  22.219  25.548  1.00  0.00     0.065 A 
ATOM     17  C   UNL A   1      38.960  23.211  26.315  1.00  0.00     0.082 A 
ATOM     18  C   UNL A   1      37.827  24.014  26.457  1.00  0.00     0.024 A 
ATOM     19  C   UNL A   1      38.855  21.911  25.808  1.00  0.00     0.024 A 
ATOM     20  C   UNL A   1      36.581  23.521  26.059  1.00  0.00     0.030 A 
ATOM     21  C   UNL A   1      37.603  21.402  25.451  1.00  0.00     0.030 A 
BRANCH  17  22
ATOM     22  S   UNL A   1      40.569  23.811  26.743  1.00  0.00     0.238 S 
ATOM     23  O   UNL A   1      41.537  22.812  26.343  1.00  0.00    -0.207 OA
ATOM     24  O   UNL A   1      40.508  24.357  28.075  1.00  0.00    -0.207 OA
BRANCH  22  25
ATOM     25  N   UNL A   1      40.833  25.118  25.718  1.00  0.00    -0.225 NA
ATOM     26  H   UNL A   1      40.003  25.274  25.145  1.00  0.00     0.137 HD
ATOM     27  H   UNL A   1      41.631  24.921  25.114  1.00  0.00     0.137 HD
ENDBRANCH  22  25
ENDBRANCH  17  22
ENDBRANCH  12  16
BRANCH  14  28
ATOM     28  C   UNL A   1      33.073  18.850  24.659  1.00  0.00     0.435 C 
ATOM     29  F   UNL A   1      33.933  17.886  24.241  1.00  0.00    -0.164 F 
ATOM     30  F   UNL A   1      32.529  18.424  25.830  1.00  0.00    -0.164 F 
ATOM     31  F   UNL A   1      32.052  18.872  23.755  1.00  0.00    -0.164 F 
ENDBRANCH  14  28
ENDBRANCH   6  11
ENDBRANCH   3   5
ENDBRANCH   2   3
ENDBRANCH   1   2
BRANCH   1  32
ATOM     32  C   UNL A   1      32.872  30.046  26.864  1.00  0.00     0.275 C 
BRANCH  32  33
ATOM     33  O   UNL A   1      34.296  30.152  26.825  1.00  0.00    -0.458 OA
BRANCH  33  34
ATOM     34  C   UNL A   1      34.822  31.142  27.579  1.00  0.00     0.338 C 
ATOM     35  O   UNL A   1      34.529  32.326  27.565  1.00  0.00    -0.246 OA
BRANCH  34  36
ATOM     36  C   UNL A   1      36.012  30.633  28.270  1.00  0.00     0.060 A 
ATOM     37  C   UNL A   1      36.860  31.553  28.891  1.00  0.00     0.016 A 
ATOM     38  C   UNL A   1      36.399  29.299  28.066  1.00  0.00     0.016 A 
ATOM     39  C   UNL A   1      38.150  31.162  29.195  1.00  0.00     0.010 A 
ATOM     40  C   UNL A   1      37.689  28.916  28.351  1.00  0.00     0.010 A 
ATOM     41  C   UNL A   1      38.571  29.867  28.856  1.00  0.00    -0.014 A 
BRANCH  41  42
ATOM     42  C   UNL A   1      39.929  29.476  29.178  1.00  0.00     0.031 A 
ATOM     43  C   UNL A   1      40.140  29.241  30.625  1.00  0.00     0.074 A 
ATOM     44  C   UNL A   1      40.875  29.220  28.255  1.00  0.00     0.049 A 
ATOM     45  N   UNL A   1      40.890  29.921  31.424  1.00  0.00    -0.248 NA
ATOM     46  C   UNL A   1      39.308  28.224  31.287  1.00  0.00     0.031 C 
ATOM     47  C   UNL A   1      40.731  29.126  26.800  1.00  0.00     0.029 A 
ATOM     48  N   UNL A   1      42.177  28.878  28.456  1.00  0.00    -0.354 N 
ATOM     49  C   UNL A   1      40.763  29.313  32.669  1.00  0.00     0.074 A 
ATOM     50  C   UNL A   1      39.668  28.383  32.561  1.00  0.00     0.031 C 
ATOM     51  C   UNL A   1      41.830  28.526  26.283  1.00  0.00     0.029 A 
ATOM     52  C   UNL A   1      42.804  28.328  27.345  1.00  0.00     0.049 A 
ATOM     53  H   UNL A   1      42.636  29.010  29.317  1.00  0.00     0.167 HD
ATOM     54  C   UNL A   1      41.722  29.451  33.622  1.00  0.00     0.031 A 
ATOM     55  C   UNL A   1      44.008  27.705  27.328  1.00  0.00     0.031 A 
ATOM     56  C   UNL A   1      42.592  30.564  33.344  1.00  0.00     0.049 A 
ATOM     57  C   UNL A   1      44.744  28.120  28.546  1.00  0.00     0.074 A 
ATOM     58  C   UNL A   1      42.413  31.927  33.203  1.00  0.00     0.029 A 
ATOM     59  N   UNL A   1      43.809  30.282  32.772  1.00  0.00    -0.354 N 
ATOM     60  N   UNL A   1      45.186  29.328  28.738  1.00  0.00    -0.248 NA
ATOM     61  C   UNL A   1      44.598  27.309  29.745  1.00  0.00     0.031 C 
ATOM     62  C   UNL A   1      43.290  32.305  32.145  1.00  0.00     0.029 A 
ATOM     63  C   UNL A   1      44.000  31.171  31.747  1.00  0.00     0.049 A 
ATOM     64  H   UNL A   1      44.432  29.571  33.051  1.00  0.00     0.167 HD
ATOM     65  C   UNL A   1      44.943  29.581  30.080  1.00  0.00     0.074 A 
ATOM     66  C   UNL A   1      44.677  28.270  30.670  1.00  0.00     0.031 C 
ATOM     67  C   UNL A   1      44.698  30.849  30.522  1.00  0.00     0.031 A 
BRANCH  54  68
ATOM     68  C   UNL A   1      42.125  28.330  34.546  1.00  0.00    -0.014 A 
ATOM     69  C   UNL A   1      42.721  27.184  33.991  1.00  0.00     0.009 A 
ATOM     70  C   UNL A   1      41.682  28.230  35.879  1.00  0.00     0.009 A 
ATOM     71  C   UNL A   1      42.786  25.981  34.703  1.00  0.00     0.001 A 
ATOM     72  C   UNL A   1      41.782  27.043  36.607  1.00  0.00     0.001 A 
ATOM     73  C   UNL A   1      42.306  25.909  36.007  1.00  0.00     0.000 A 
ENDBRANCH  54  68
BRANCH  55  74
ATOM     74  C   UNL A   1      44.466  26.571  26.497  1.00  0.00    -0.014 A 
ATOM     75  C   UNL A   1      45.475  26.747  25.535  1.00  0.00     0.009 A 
ATOM     76  C   UNL A   1      44.120  25.254  26.848  1.00  0.00     0.009 A 
ATOM     77  C   UNL A   1      46.144  25.646  24.980  1.00  0.00     0.001 A 
ATOM     78  C   UNL A   1      44.786  24.155  26.293  1.00  0.00     0.001 A 
ATOM     79  C   UNL A   1      45.809  24.351  25.372  1.00  0.00     0.000 A 
ENDBRANCH  55  74
BRANCH  67  80
ATOM     80  C   UNL A   1      44.938  31.993  29.567  1.00  0.00    -0.014 A 
ATOM     81  C   UNL A   1      46.185  32.623  29.408  1.00  0.00     0.009 A 
ATOM     82  C   UNL A   1      43.901  32.348  28.692  1.00  0.00     0.009 A 
ATOM     83  C   UNL A   1      46.377  33.599  28.424  1.00  0.00     0.001 A 
ATOM     84  C   UNL A   1      44.097  33.304  27.695  1.00  0.00     0.001 A 
ATOM     85  C   UNL A   1      45.332  33.934  27.564  1.00  0.00     0.000 A 
ENDBRANCH  67  80
ENDBRANCH  41  42
ENDBRANCH  34  36
ENDBRANCH  33  34
ENDBRANCH  32  33
ENDBRANCH   1  32
TORSDOF 16
ENDMDL
MODEL 3
REMARK VINA RESULT:     -11.6      3.260      5.403
REMARK SMILES NS(=O)(=O)c1ccc(-n2nc(C(F)(F)F)cc2-c2ccc(C(=O)OCCOC(=O)c3ccc(-c4c5nc(c(-c6ccccc6)c6ccc([nH]6)c(-c6ccccc6)c6nc(c(-c7ccccc7)c7ccc4[nH]7)C=C6)C=C5)cc3)cc2)cc1
REMARK SMILES IDX 25 1 24 2 22 3 23 4 21 5 18 6 19 7 79 8 20 9 78 10 17 11
REMARK SMILES IDX 9 12 10 13 11 14 16 15 8 16 5 17 6 18 81 19 7 20 80 21 2 22
REMARK SMILES IDX 3 23 4 24 1 25 12 28 13 29 14 30 15 31 26 32 27 33 28 34
REMARK SMILES IDX 29 35 30 36 31 37 77 38 32 39 76 40 33 41 34 42 35 43 70 44
REMARK SMILES IDX 36 45 75 46 69 47 71 48 37 49 74 50 68 51 67 52 38 54 60 55
REMARK SMILES IDX 45 56 59 57 46 58 49 59 58 60 72 61 47 62 48 63 57 65 73 66
REMARK SMILES IDX 50 67 39 68 40 69 44 70 41 71 43 72 42 73 61 74 62 75 66 76
REMARK SMILES IDX 63 77 65 78 64 79 51 80 52 81 56 82 53 83 55 84 54 85
REMARK H PARENT 1 26 1 27 71 53 49 64
REMARK Flexibility Score: inf
ROOT
ATOM      1  C   UNL A   1      40.545  20.987  26.842  1.00  0.00     0.275 C 
ENDROOT
BRANCH   1   2
ATOM      2  O   UNL A   1      39.576  21.657  26.023  1.00  0.00    -0.458 OA
BRANCH   2   3
ATOM      3  C   UNL A   1      39.073  22.807  26.541  1.00  0.00     0.338 C 
ATOM      4  O   UNL A   1      39.572  23.479  27.430  1.00  0.00    -0.246 OA
BRANCH   3   5
ATOM      5  C   UNL A   1      37.852  23.216  25.802  1.00  0.00     0.060 A 
ATOM      6  C   UNL A   1      35.476  23.975  24.523  1.00  0.00     0.000 A 
ATOM      7  C   UNL A   1      35.754  24.423  25.822  1.00  0.00     0.011 A 
ATOM      8  C   UNL A   1      36.409  23.170  23.858  1.00  0.00     0.011 A 
ATOM      9  C   UNL A   1      36.936  24.045  26.459  1.00  0.00     0.016 A 
ATOM     10  C   UNL A   1      37.598  22.799  24.491  1.00  0.00     0.016 A 
BRANCH   6  11
ATOM     11  C   UNL A   1      34.187  24.271  23.904  1.00  0.00     0.075 A 
ATOM     12  N   UNL A   1      33.264  23.343  23.440  1.00  0.00    -0.233 N 
ATOM     13  N   UNL A   1      32.344  23.918  22.622  1.00  0.00    -0.163 NA
ATOM     14  C   UNL A   1      32.542  25.244  22.749  1.00  0.00     0.167 A 
ATOM     15  C   UNL A   1      33.698  25.504  23.521  1.00  0.00     0.064 A 
BRANCH  12  16
ATOM     16  C   UNL A   1      33.181  21.956  23.742  1.00  0.00     0.065 A 
ATOM     17  C   UNL A   1      33.038  19.228  24.303  1.00  0.00     0.082 A 
ATOM     18  C   UNL A   1      33.789  20.062  25.132  1.00  0.00     0.024 A 
ATOM     19  C   UNL A   1      32.344  19.751  23.205  1.00  0.00     0.024 A 
ATOM     20  C   UNL A   1      33.872  21.427  24.842  1.00  0.00     0.030 A 
ATOM     21  C   UNL A   1      32.391  21.122  22.940  1.00  0.00     0.030 A 
BRANCH  17  22
ATOM     22  S   UNL A   1      32.953  17.484  24.588  1.00  0.00     0.238 S 
ATOM     23  O   UNL A   1      31.733  17.211  25.319  1.00  0.00    -0.207 OA
ATOM     24  O   UNL A   1      34.249  17.035  25.027  1.00  0.00    -0.207 OA
BRANCH  22  25
ATOM     25  N   UNL A   1      32.717  16.806  23.067  1.00  0.00    -0.225 NA
ATOM     26  H   UNL A   1      32.438  15.831  23.169  1.00  0.00     0.137 HD
ATOM     27  H   UNL A   1      33.584  16.858  22.533  1.00  0.00     0.137 HD
ENDBRANCH  22  25
ENDBRANCH  17  22
ENDBRANCH  12  16
BRANCH  14  28
ATOM     28  C   UNL A   1      31.654  26.281  22.118  1.00  0.00     0.435 C 
ATOM     29  F   UNL A   1      32.137  27.545  22.235  1.00  0.00    -0.164 F 
ATOM     30  F   UNL A   1      31.458  26.047  20.793  1.00  0.00    -0.164 F 
ATOM     31  F   UNL A   1      30.415  26.290  22.687  1.00  0.00    -0.164 F 
ENDBRANCH  14  28
ENDBRANCH   6  11
ENDBRANCH   3   5
ENDBRANCH   2   3
ENDBRANCH   1   2
BRANCH   1  32
ATOM     32  C   UNL A   1      41.942  21.117  26.252  1.00  0.00     0.275 C 
BRANCH  32  33
ATOM     33  O   UNL A   1      42.566  22.350  26.609  1.00  0.00    -0.458 OA
BRANCH  33  34
ATOM     34  C   UNL A   1      42.793  23.201  25.583  1.00  0.00     0.338 C 
ATOM     35  O   UNL A   1      43.161  22.926  24.453  1.00  0.00    -0.246 OA
BRANCH  34  36
ATOM     36  C   UNL A   1      42.777  24.576  26.094  1.00  0.00     0.060 A 
ATOM     37  C   UNL A   1      43.477  24.851  27.272  1.00  0.00     0.016 A 
ATOM     38  C   UNL A   1      41.866  25.494  25.550  1.00  0.00     0.016 A 
ATOM     39  C   UNL A   1      43.165  26.002  27.972  1.00  0.00     0.010 A 
ATOM     40  C   UNL A   1      41.542  26.630  26.257  1.00  0.00     0.010 A 
ATOM     41  C   UNL A   1      42.150  26.843  27.491  1.00  0.00    -0.014 A 
BRANCH  41  42
ATOM     42  C   UNL A   1      41.833  28.041  28.241  1.00  0.00     0.031 A 
ATOM     43  C   UNL A   1      42.838  29.116  28.074  1.00  0.00     0.074 A 
ATOM     44  C   UNL A   1      40.682  28.222  28.916  1.00  0.00     0.049 A 
ATOM     45  N   UNL A   1      43.621  29.599  28.978  1.00  0.00    -0.248 NA
ATOM     46  C   UNL A   1      43.106  29.605  26.712  1.00  0.00     0.031 C 
ATOM     47  C   UNL A   1      39.486  27.377  28.927  1.00  0.00     0.029 A 
ATOM     48  N   UNL A   1      40.307  29.292  29.669  1.00  0.00    -0.354 N 
ATOM     49  C   UNL A   1      44.370  30.583  28.341  1.00  0.00     0.074 A 
ATOM     50  C   UNL A   1      44.125  30.436  26.929  1.00  0.00     0.031 C 
ATOM     51  C   UNL A   1      38.452  28.078  29.450  1.00  0.00     0.029 A 
ATOM     52  C   UNL A   1      38.946  29.356  29.937  1.00  0.00     0.049 A 
ATOM     53  H   UNL A   1      40.947  29.964  29.996  1.00  0.00     0.167 HD
ATOM     54  C   UNL A   1      44.948  31.594  29.043  1.00  0.00     0.031 A 
ATOM     55  C   UNL A   1      38.279  30.412  30.465  1.00  0.00     0.031 A 
ATOM     56  C   UNL A   1      45.032  31.285  30.447  1.00  0.00     0.049 A 
ATOM     57  C   UNL A   1      39.275  31.279  31.138  1.00  0.00     0.074 A 
ATOM     58  C   UNL A   1      45.651  30.299  31.191  1.00  0.00     0.029 A 
ATOM     59  N   UNL A   1      44.079  31.837  31.269  1.00  0.00    -0.354 N 
ATOM     60  N   UNL A   1      39.913  30.931  32.218  1.00  0.00    -0.248 NA
ATOM     61  C   UNL A   1      39.891  32.346  30.365  1.00  0.00     0.031 C 
ATOM     62  C   UNL A   1      44.727  29.991  32.232  1.00  0.00     0.029 A 
ATOM     63  C   UNL A   1      43.633  30.847  32.105  1.00  0.00     0.049 A 
ATOM     64  H   UNL A   1      43.775  32.773  31.260  1.00  0.00     0.167 HD
ATOM     65  C   UNL A   1      41.206  31.395  32.026  1.00  0.00     0.074 A 
ATOM     66  C   UNL A   1      41.107  32.345  30.919  1.00  0.00     0.031 C 
ATOM     67  C   UNL A   1      42.272  30.754  32.587  1.00  0.00     0.031 A 
BRANCH  54  68
ATOM     68  C   UNL A   1      45.027  33.008  28.527  1.00  0.00    -0.014 A 
ATOM     69  C   UNL A   1      43.841  33.754  28.426  1.00  0.00     0.009 A 
ATOM     70  C   UNL A   1      46.159  33.527  27.867  1.00  0.00     0.009 A 
ATOM     71  C   UNL A   1      43.770  34.907  27.635  1.00  0.00     0.001 A 
ATOM     72  C   UNL A   1      46.103  34.699  27.111  1.00  0.00     0.001 A 
ATOM     73  C   UNL A   1      44.900  35.372  26.969  1.00  0.00     0.000 A 
ENDBRANCH  54  68
BRANCH  55  74
ATOM     74  C   UNL A   1      36.902  30.879  30.200  1.00  0.00    -0.014 A 
ATOM     75  C   UNL A   1      36.152  31.514  31.205  1.00  0.00     0.009 A 
ATOM     76  C   UNL A   1      36.427  30.966  28.878  1.00  0.00     0.009 A 
ATOM     77  C   UNL A   1      34.997  32.246  30.891  1.00  0.00     0.001 A 
ATOM     78  C   UNL A   1      35.274  31.695  28.565  1.00  0.00     0.001 A 
ATOM     79  C   UNL A   1      34.569  32.349  29.570  1.00  0.00     0.000 A 
ENDBRANCH  55  74
BRANCH  67  80
ATOM     80  C   UNL A   1      41.997  29.681  33.613  1.00  0.00    -0.014 A 
ATOM     81  C   UNL A   1      41.782  28.331  33.284  1.00  0.00     0.009 A 
ATOM     82  C   UNL A   1      42.105  30.024  34.968  1.00  0.00     0.009 A 
ATOM     83  C   UNL A   1      41.649  27.361  34.284  1.00  0.00     0.001 A 
ATOM     84  C   UNL A   1      41.995  29.055  35.966  1.00  0.00     0.001 A 
ATOM     85  C   UNL A   1      41.761  27.724  35.625  1.00  0.00     0.000 A 
ENDBRANCH  67  80
ENDBRANCH  41  42
ENDBRANCH  34  36
ENDBRANCH  33  34
ENDBRANCH  32  33
ENDBRANCH   1  32
TORSDOF 16
ENDMDL
