MODEL 1
REMARK VINA RESULT:      -9.2      0.000      0.000
REMARK SMILES C[NH2+][C@@]1(C(=O)OCCOC(=O)c2ccc(-c3c4nc(c(-c5ccccc5)c5ccc([nH]5)c(-c5ccccc5)c5nc(c(-c6ccccc6)c6ccc3[nH]6)C=C5)C=C4)cc2)CCC[C@@H](Oc2cc(F)cc(F)c2)C1
REMARK SMILES IDX 7 1 6 2 4 3 5 4 3 5 60 6 73 7 61 8 63 9 62 10 2 11 1 12
REMARK SMILES IDX 64 15 65 16 66 17 72 18 67 19 70 20 68 21 69 22 71 23 8 24
REMARK SMILES IDX 9 25 10 26 11 27 12 28 13 29 59 30 14 31 58 32 15 33 16 34
REMARK SMILES IDX 17 35 52 36 18 37 57 38 51 39 53 40 19 41 56 42 50 43 49 44
REMARK SMILES IDX 20 46 42 47 27 48 41 49 28 50 31 51 40 52 54 53 29 54 30 55
REMARK SMILES IDX 39 57 55 58 32 59 21 60 22 61 26 62 23 63 25 64 24 65 43 66
REMARK SMILES IDX 44 67 48 68 45 69 47 70 46 71 33 72 34 73 38 74 35 75 37 76
REMARK SMILES IDX 36 77
REMARK H PARENT 2 13 2 14 53 45 31 56
REMARK Flexibility Score: inf
ROOT
ATOM      1  C   UNL A   1      34.130  34.115  29.740  1.00  0.00     0.274 C 
ENDROOT
BRANCH   1   2
ATOM      2  O   UNL A   1      35.166  34.081  30.744  1.00  0.00    -0.457 OA
BRANCH   2   3
ATOM      3  C   UNL A   1      34.875  33.464  31.922  1.00  0.00     0.368 C 
ATOM      4  O   UNL A   1      33.996  32.617  32.033  1.00  0.00    -0.245 OA
BRANCH   3   5
ATOM      5  C   UNL A   1      35.701  34.049  33.124  1.00  0.00     0.197 C 
ATOM      6  C   UNL A   1      36.854  34.908  32.561  1.00  0.00     0.081 C 
ATOM      7  C   UNL A   1      36.254  32.952  34.077  1.00  0.00     0.126 C 
ATOM      8  C   UNL A   1      38.011  34.080  32.001  1.00  0.00     0.011 C 
ATOM      9  C   UNL A   1      37.485  32.183  33.570  1.00  0.00     0.180 C 
ATOM     10  C   UNL A   1      38.573  33.126  33.049  1.00  0.00     0.046 C 
BRANCH   5  11
ATOM     11  N   UNL A   1      34.812  34.876  34.015  1.00  0.00    -0.334 N 
ATOM     12  C   UNL A   1      34.259  36.103  33.455  1.00  0.00     0.331 C 
ATOM     13  H   UNL A   1      34.029  34.288  34.299  1.00  0.00     0.347 HD
ATOM     14  H   UNL A   1      35.419  35.186  34.775  1.00  0.00     0.347 HD
ENDBRANCH   5  11
BRANCH   9  15
ATOM     15  O   UNL A   1      37.962  31.194  34.508  1.00  0.00    -0.490 OA
BRANCH  15  16
ATOM     16  C   UNL A   1      38.799  30.229  34.030  1.00  0.00     0.125 A 
ATOM     17  C   UNL A   1      38.270  29.220  33.227  1.00  0.00     0.085 A 
ATOM     18  C   UNL A   1      40.124  30.158  34.454  1.00  0.00     0.085 A 
ATOM     19  C   UNL A   1      39.096  28.188  32.794  1.00  0.00     0.129 A 
ATOM     20  C   UNL A   1      40.935  29.124  33.996  1.00  0.00     0.129 A 
ATOM     21  F   UNL A   1      38.590  27.223  32.014  1.00  0.00    -0.207 F 
ATOM     22  C   UNL A   1      40.435  28.135  33.159  1.00  0.00     0.078 A 
ATOM     23  F   UNL A   1      42.219  29.078  34.373  1.00  0.00    -0.207 F 
ENDBRANCH  15  16
ENDBRANCH   9  15
ENDBRANCH   3   5
ENDBRANCH   2   3
ENDBRANCH   1   2
BRANCH   1  24
ATOM     24  C   UNL A   1      34.486  33.202  28.568  1.00  0.00     0.275 C 
BRANCH  24  25
ATOM     25  O   UNL A   1      34.351  31.821  28.948  1.00  0.00    -0.458 OA
BRANCH  25  26
ATOM     26  C   UNL A   1      34.585  30.932  27.957  1.00  0.00     0.338 C 
ATOM     27  O   UNL A   1      33.919  30.742  26.950  1.00  0.00    -0.246 OA
BRANCH  26  28
ATOM     28  C   UNL A   1      35.895  30.306  28.176  1.00  0.00     0.060 A 
ATOM     29  C   UNL A   1      36.148  29.775  29.440  1.00  0.00     0.016 A 
ATOM     30  C   UNL A   1      36.881  30.290  27.189  1.00  0.00     0.016 A 
ATOM     31  C   UNL A   1      37.387  29.215  29.734  1.00  0.00     0.010 A 
ATOM     32  C   UNL A   1      38.132  29.739  27.487  1.00  0.00     0.010 A 
ATOM     33  C   UNL A   1      38.393  29.207  28.763  1.00  0.00    -0.014 A 
BRANCH  33  34
ATOM     34  C   UNL A   1      39.742  28.715  29.121  1.00  0.00     0.031 A 
ATOM     35  C   UNL A   1      40.661  29.593  29.918  1.00  0.00     0.074 A 
ATOM     36  C   UNL A   1      40.126  27.473  28.775  1.00  0.00     0.049 A 
ATOM     37  N   UNL A   1      41.905  29.388  30.266  1.00  0.00    -0.248 NA
ATOM     38  C   UNL A   1      40.102  30.869  30.392  1.00  0.00     0.031 C 
ATOM     39  C   UNL A   1      39.296  26.495  28.073  1.00  0.00     0.029 A 
ATOM     40  N   UNL A   1      41.319  26.825  28.972  1.00  0.00    -0.354 N 
ATOM     41  C   UNL A   1      42.284  30.514  30.984  1.00  0.00     0.074 A 
ATOM     42  C   UNL A   1      41.143  31.403  31.014  1.00  0.00     0.031 C 
ATOM     43  C   UNL A   1      40.008  25.369  27.895  1.00  0.00     0.029 A 
ATOM     44  C   UNL A   1      41.353  25.566  28.427  1.00  0.00     0.049 A 
ATOM     45  H   UNL A   1      42.076  27.224  29.459  1.00  0.00     0.167 HD
ATOM     46  C   UNL A   1      43.478  30.783  31.566  1.00  0.00     0.031 A 
ATOM     47  C   UNL A   1      42.369  24.686  28.337  1.00  0.00     0.031 A 
ATOM     48  C   UNL A   1      44.615  29.904  31.529  1.00  0.00     0.049 A 
ATOM     49  C   UNL A   1      43.713  25.048  28.905  1.00  0.00     0.074 A 
ATOM     50  C   UNL A   1      45.875  30.099  32.068  1.00  0.00     0.029 A 
ATOM     51  N   UNL A   1      44.629  28.661  30.915  1.00  0.00    -0.354 N 
ATOM     52  N   UNL A   1      44.072  26.129  29.554  1.00  0.00    -0.248 NA
ATOM     53  C   UNL A   1      44.795  24.070  28.720  1.00  0.00     0.031 C 
ATOM     54  C   UNL A   1      46.665  28.991  31.744  1.00  0.00     0.029 A 
ATOM     55  C   UNL A   1      45.882  28.086  31.045  1.00  0.00     0.049 A 
ATOM     56  H   UNL A   1      43.863  28.248  30.456  1.00  0.00     0.167 HD
ATOM     57  C   UNL A   1      45.412  25.955  29.870  1.00  0.00     0.074 A 
ATOM     58  C   UNL A   1      45.800  24.657  29.356  1.00  0.00     0.031 C 
ATOM     59  C   UNL A   1      46.250  26.795  30.525  1.00  0.00     0.031 A 
BRANCH  46  60
ATOM     60  C   UNL A   1      43.622  32.111  32.248  1.00  0.00    -0.014 A 
ATOM     61  C   UNL A   1      44.197  33.210  31.594  1.00  0.00     0.009 A 
ATOM     62  C   UNL A   1      43.159  32.267  33.564  1.00  0.00     0.009 A 
ATOM     63  C   UNL A   1      44.334  34.433  32.255  1.00  0.00     0.001 A 
ATOM     64  C   UNL A   1      43.276  33.496  34.215  1.00  0.00     0.001 A 
ATOM     65  C   UNL A   1      43.872  34.575  33.564  1.00  0.00     0.000 A 
ENDBRANCH  46  60
BRANCH  47  66
ATOM     66  C   UNL A   1      42.169  23.390  27.638  1.00  0.00    -0.014 A 
ATOM     67  C   UNL A   1      42.472  23.256  26.275  1.00  0.00     0.009 A 
ATOM     68  C   UNL A   1      41.656  22.283  28.333  1.00  0.00     0.009 A 
ATOM     69  C   UNL A   1      42.242  22.045  25.617  1.00  0.00     0.001 A 
ATOM     70  C   UNL A   1      41.453  21.067  27.679  1.00  0.00     0.001 A 
ATOM     71  C   UNL A   1      41.739  20.951  26.320  1.00  0.00     0.000 A 
ENDBRANCH  47  66
BRANCH  59  72
ATOM     72  C   UNL A   1      47.658  26.322  30.750  1.00  0.00    -0.014 A 
ATOM     73  C   UNL A   1      48.055  25.782  31.983  1.00  0.00     0.009 A 
ATOM     74  C   UNL A   1      48.588  26.383  29.701  1.00  0.00     0.009 A 
ATOM     75  C   UNL A   1      49.365  25.337  32.168  1.00  0.00     0.001 A 
ATOM     76  C   UNL A   1      49.890  25.916  29.882  1.00  0.00     0.001 A 
ATOM     77  C   UNL A   1      50.279  25.400  31.117  1.00  0.00     0.000 A 
ENDBRANCH  59  72
ENDBRANCH  33  34
ENDBRANCH  26  28
ENDBRANCH  25  26
ENDBRANCH  24  25
ENDBRANCH   1  24
TORSDOF 14
ENDMDL
MODEL 2
REMARK VINA RESULT:      -8.9      5.009      9.752
REMARK SMILES C[NH2+][C@@]1(C(=O)OCCOC(=O)c2ccc(-c3c4nc(c(-c5ccccc5)c5ccc([nH]5)c(-c5ccccc5)c5nc(c(-c6ccccc6)c6ccc3[nH]6)C=C5)C=C4)cc2)CCC[C@@H](Oc2cc(F)cc(F)c2)C1
REMARK SMILES IDX 7 1 6 2 4 3 5 4 3 5 60 6 73 7 61 8 63 9 62 10 2 11 1 12
REMARK SMILES IDX 64 15 65 16 66 17 72 18 67 19 70 20 68 21 69 22 71 23 8 24
REMARK SMILES IDX 9 25 10 26 11 27 12 28 13 29 59 30 14 31 58 32 15 33 16 34
REMARK SMILES IDX 17 35 52 36 18 37 57 38 51 39 53 40 19 41 56 42 50 43 49 44
REMARK SMILES IDX 20 46 42 47 27 48 41 49 28 50 31 51 40 52 54 53 29 54 30 55
REMARK SMILES IDX 39 57 55 58 32 59 21 60 22 61 26 62 23 63 25 64 24 65 43 66
REMARK SMILES IDX 44 67 48 68 45 69 47 70 46 71 33 72 34 73 38 74 35 75 37 76
REMARK SMILES IDX 36 77
REMARK H PARENT 2 13 2 14 53 45 31 56
REMARK Flexibility Score: inf
ROOT
ATOM      1  C   UNL A   1      31.713  28.798  27.156  1.00  0.00     0.274 C 
ENDROOT
BRANCH   1   2
ATOM      2  O   UNL A   1      31.328  27.655  26.363  1.00  0.00    -0.457 OA
BRANCH   2   3
ATOM      3  C   UNL A   1      32.291  27.074  25.597  1.00  0.00     0.368 C 
ATOM      4  O   UNL A   1      33.469  27.017  25.933  1.00  0.00    -0.245 OA
BRANCH   3   5
ATOM      5  C   UNL A   1      31.744  26.606  24.200  1.00  0.00     0.197 C 
ATOM      6  C   UNL A   1      32.704  27.105  23.099  1.00  0.00     0.081 C 
ATOM      7  C   UNL A   1      30.294  27.090  23.918  1.00  0.00     0.126 C 
ATOM      8  C   UNL A   1      32.562  28.597  22.799  1.00  0.00     0.011 C 
ATOM      9  C   UNL A   1      30.148  28.565  23.511  1.00  0.00     0.180 C 
ATOM     10  C   UNL A   1      31.133  28.953  22.405  1.00  0.00     0.046 C 
BRANCH   5  11
ATOM     11  N   UNL A   1      31.629  25.104  24.161  1.00  0.00    -0.334 N 
ATOM     12  C   UNL A   1      30.807  24.470  25.184  1.00  0.00     0.331 C 
ATOM     13  H   UNL A   1      31.240  24.850  23.254  1.00  0.00     0.347 HD
ATOM     14  H   UNL A   1      32.575  24.765  24.338  1.00  0.00     0.347 HD
ENDBRANCH   5  11
BRANCH   9  15
ATOM     15  O   UNL A   1      28.781  28.948  23.244  1.00  0.00    -0.490 OA
BRANCH  15  16
ATOM     16  C   UNL A   1      28.569  30.188  22.717  1.00  0.00     0.125 A 
ATOM     17  C   UNL A   1      28.105  30.289  21.407  1.00  0.00     0.085 A 
ATOM     18  C   UNL A   1      28.950  31.334  23.411  1.00  0.00     0.085 A 
ATOM     19  C   UNL A   1      27.956  31.547  20.830  1.00  0.00     0.129 A 
ATOM     20  C   UNL A   1      28.778  32.582  22.818  1.00  0.00     0.129 A 
ATOM     21  F   UNL A   1      27.501  31.645  19.574  1.00  0.00    -0.207 F 
ATOM     22  C   UNL A   1      28.275  32.703  21.531  1.00  0.00     0.078 A 
ATOM     23  F   UNL A   1      29.109  33.685  23.501  1.00  0.00    -0.207 F 
ENDBRANCH  15  16
ENDBRANCH   9  15
ENDBRANCH   3   5
ENDBRANCH   2   3
ENDBRANCH   1   2
BRANCH   1  24
ATOM     24  C   UNL A   1      31.850  30.042  26.278  1.00  0.00     0.275 C 
BRANCH  24  25
ATOM     25  O   UNL A   1      33.226  30.452  26.201  1.00  0.00    -0.458 OA
BRANCH  25  26
ATOM     26  C   UNL A   1      33.570  31.453  27.043  1.00  0.00     0.338 C 
ATOM     27  O   UNL A   1      32.906  32.433  27.348  1.00  0.00    -0.246 OA
BRANCH  26  28
ATOM     28  C   UNL A   1      34.837  31.112  27.700  1.00  0.00     0.060 A 
ATOM     29  C   UNL A   1      35.025  29.782  28.077  1.00  0.00     0.016 A 
ATOM     30  C   UNL A   1      35.798  32.078  28.001  1.00  0.00     0.016 A 
ATOM     31  C   UNL A   1      36.179  29.398  28.752  1.00  0.00     0.010 A 
ATOM     32  C   UNL A   1      36.953  31.695  28.692  1.00  0.00     0.010 A 
ATOM     33  C   UNL A   1      37.145  30.356  29.077  1.00  0.00    -0.014 A 
BRANCH  33  34
ATOM     34  C   UNL A   1      38.312  29.959  29.896  1.00  0.00     0.031 A 
ATOM     35  C   UNL A   1      39.379  29.095  29.291  1.00  0.00     0.074 A 
ATOM     36  C   UNL A   1      38.441  30.408  31.158  1.00  0.00     0.049 A 
ATOM     37  N   UNL A   1      40.437  28.571  29.855  1.00  0.00    -0.248 NA
ATOM     38  C   UNL A   1      39.239  28.785  27.860  1.00  0.00     0.031 C 
ATOM     39  C   UNL A   1      37.515  31.319  31.831  1.00  0.00     0.029 A 
ATOM     40  N   UNL A   1      39.408  30.154  32.097  1.00  0.00    -0.354 N 
ATOM     41  C   UNL A   1      41.080  27.856  28.854  1.00  0.00     0.074 A 
ATOM     42  C   UNL A   1      40.289  28.004  27.651  1.00  0.00     0.031 C 
ATOM     43  C   UNL A   1      37.960  31.545  33.078  1.00  0.00     0.029 A 
ATOM     44  C   UNL A   1      39.170  30.760  33.305  1.00  0.00     0.049 A 
ATOM     45  H   UNL A   1      40.197  29.592  31.919  1.00  0.00     0.167 HD
ATOM     46  C   UNL A   1      42.226  27.138  28.931  1.00  0.00     0.031 A 
ATOM     47  C   UNL A   1      39.835  30.663  34.471  1.00  0.00     0.031 A 
ATOM     48  C   UNL A   1      43.007  26.984  30.128  1.00  0.00     0.049 A 
ATOM     49  C   UNL A   1      41.051  29.781  34.557  1.00  0.00     0.074 A 
ATOM     50  C   UNL A   1      44.171  26.257  30.311  1.00  0.00     0.029 A 
ATOM     51  N   UNL A   1      42.701  27.565  31.348  1.00  0.00    -0.354 N 
ATOM     52  N   UNL A   1      41.633  29.083  33.613  1.00  0.00    -0.248 NA
ATOM     53  C   UNL A   1      41.696  29.670  35.874  1.00  0.00     0.031 C 
ATOM     54  C   UNL A   1      44.547  26.365  31.655  1.00  0.00     0.029 A 
ATOM     55  C   UNL A   1      43.643  27.198  32.295  1.00  0.00     0.049 A 
ATOM     56  H   UNL A   1      41.930  28.153  31.517  1.00  0.00     0.167 HD
ATOM     57  C   UNL A   1      42.721  28.465  34.216  1.00  0.00     0.074 A 
ATOM     58  C   UNL A   1      42.728  28.883  35.603  1.00  0.00     0.031 C 
ATOM     59  C   UNL A   1      43.632  27.623  33.670  1.00  0.00     0.031 A 
BRANCH  46  60
ATOM     60  C   UNL A   1      42.671  26.425  27.688  1.00  0.00    -0.014 A 
ATOM     61  C   UNL A   1      43.539  27.034  26.769  1.00  0.00     0.009 A 
ATOM     62  C   UNL A   1      42.226  25.118  27.442  1.00  0.00     0.009 A 
ATOM     63  C   UNL A   1      43.927  26.356  25.611  1.00  0.00     0.001 A 
ATOM     64  C   UNL A   1      42.633  24.434  26.296  1.00  0.00     0.001 A 
ATOM     65  C   UNL A   1      43.476  25.057  25.377  1.00  0.00     0.000 A 
ENDBRANCH  46  60
BRANCH  47  66
ATOM     66  C   UNL A   1      39.339  31.383  35.672  1.00  0.00    -0.014 A 
ATOM     67  C   UNL A   1      39.967  32.556  36.115  1.00  0.00     0.009 A 
ATOM     68  C   UNL A   1      38.241  30.887  36.391  1.00  0.00     0.009 A 
ATOM     69  C   UNL A   1      39.518  33.204  37.269  1.00  0.00     0.001 A 
ATOM     70  C   UNL A   1      37.778  31.551  37.528  1.00  0.00     0.001 A 
ATOM     71  C   UNL A   1      38.422  32.704  37.971  1.00  0.00     0.000 A 
ENDBRANCH  47  66
BRANCH  59  72
ATOM     72  C   UNL A   1      44.729  27.125  34.568  1.00  0.00    -0.014 A 
ATOM     73  C   UNL A   1      44.604  25.913  35.264  1.00  0.00     0.009 A 
ATOM     74  C   UNL A   1      45.919  27.860  34.685  1.00  0.00     0.009 A 
ATOM     75  C   UNL A   1      45.639  25.461  36.084  1.00  0.00     0.001 A 
ATOM     76  C   UNL A   1      46.962  27.393  35.488  1.00  0.00     0.001 A 
ATOM     77  C   UNL A   1      46.818  26.199  36.191  1.00  0.00     0.000 A 
ENDBRANCH  59  72
ENDBRANCH  33  34
ENDBRANCH  26  28
ENDBRANCH  25  26
ENDBRANCH  24  25
ENDBRANCH   1  24
TORSDOF 14
ENDMDL
MODEL 3
REMARK VINA RESULT:      -8.9      3.986      9.689
REMARK SMILES C[NH2+][C@@]1(C(=O)OCCOC(=O)c2ccc(-c3c4nc(c(-c5ccccc5)c5ccc([nH]5)c(-c5ccccc5)c5nc(c(-c6ccccc6)c6ccc3[nH]6)C=C5)C=C4)cc2)CCC[C@@H](Oc2cc(F)cc(F)c2)C1
REMARK SMILES IDX 7 1 6 2 4 3 5 4 3 5 60 6 73 7 61 8 63 9 62 10 2 11 1 12
REMARK SMILES IDX 64 15 65 16 66 17 72 18 67 19 70 20 68 21 69 22 71 23 8 24
REMARK SMILES IDX 9 25 10 26 11 27 12 28 13 29 59 30 14 31 58 32 15 33 16 34
REMARK SMILES IDX 17 35 52 36 18 37 57 38 51 39 53 40 19 41 56 42 50 43 49 44
REMARK SMILES IDX 20 46 42 47 27 48 41 49 28 50 31 51 40 52 54 53 29 54 30 55
REMARK SMILES IDX 39 57 55 58 32 59 21 60 22 61 26 62 23 63 25 64 24 65 43 66
REMARK SMILES IDX 44 67 48 68 45 69 47 70 46 71 33 72 34 73 38 74 35 75 37 76
REMARK SMILES IDX 36 77
REMARK H PARENT 2 13 2 14 53 45 31 56
REMARK Flexibility Score: inf
ROOT
ATOM      1  C   UNL A   1      41.325  21.076  27.697  1.00  0.00     0.274 C 
ENDROOT
BRANCH   1   2
ATOM      2  O   UNL A   1      42.656  21.260  27.170  1.00  0.00    -0.457 OA
BRANCH   2   3
ATOM      3  C   UNL A   1      43.088  22.539  26.996  1.00  0.00     0.368 C 
ATOM      4  O   UNL A   1      42.608  23.494  27.596  1.00  0.00    -0.245 OA
BRANCH   3   5
ATOM      5  C   UNL A   1      44.171  22.657  25.863  1.00  0.00     0.197 C 
ATOM      6  C   UNL A   1      45.568  22.474  26.493  1.00  0.00     0.081 C 
ATOM      7  C   UNL A   1      44.096  24.000  25.084  1.00  0.00     0.126 C 
ATOM      8  C   UNL A   1      46.054  23.702  27.262  1.00  0.00     0.011 C 
ATOM      9  C   UNL A   1      44.680  25.226  25.805  1.00  0.00     0.180 C 
ATOM     10  C   UNL A   1      46.071  24.944  26.378  1.00  0.00     0.046 C 
BRANCH   5  11
ATOM     11  N   UNL A   1      43.929  21.617  24.801  1.00  0.00    -0.334 N 
ATOM     12  C   UNL A   1      44.908  20.544  24.680  1.00  0.00     0.331 C 
ATOM     13  H   UNL A   1      43.025  21.188  24.992  1.00  0.00     0.347 HD
ATOM     14  H   UNL A   1      43.989  22.127  23.918  1.00  0.00     0.347 HD
ENDBRANCH   5  11
BRANCH   9  15
ATOM     15  O   UNL A   1      44.599  26.437  25.022  1.00  0.00    -0.490 OA
BRANCH  15  16
ATOM     16  C   UNL A   1      44.080  27.543  25.628  1.00  0.00     0.125 A 
ATOM     17  C   UNL A   1      42.738  27.854  25.420  1.00  0.00     0.085 A 
ATOM     18  C   UNL A   1      44.902  28.432  26.318  1.00  0.00     0.085 A 
ATOM     19  C   UNL A   1      42.214  29.019  25.970  1.00  0.00     0.129 A 
ATOM     20  C   UNL A   1      44.351  29.584  26.872  1.00  0.00     0.129 A 
ATOM     21  F   UNL A   1      40.921  29.315  25.778  1.00  0.00    -0.207 F 
ATOM     22  C   UNL A   1      43.007  29.886  26.712  1.00  0.00     0.078 A 
ATOM     23  F   UNL A   1      45.135  30.418  27.568  1.00  0.00    -0.207 F 
ENDBRANCH  15  16
ENDBRANCH   9  15
ENDBRANCH   3   5
ENDBRANCH   2   3
ENDBRANCH   1   2
BRANCH   1  24
ATOM     24  C   UNL A   1      40.326  20.837  26.566  1.00  0.00     0.275 C 
BRANCH  24  25
ATOM     25  O   UNL A   1      40.094  22.055  25.836  1.00  0.00    -0.458 OA
BRANCH  25  26
ATOM     26  C   UNL A   1      38.930  22.679  26.126  1.00  0.00     0.338 C 
ATOM     27  O   UNL A   1      37.796  22.244  25.992  1.00  0.00    -0.246 OA
BRANCH  26  28
ATOM     28  C   UNL A   1      39.223  23.946  26.808  1.00  0.00     0.060 A 
ATOM     29  C   UNL A   1      39.909  24.919  26.082  1.00  0.00     0.016 A 
ATOM     30  C   UNL A   1      38.891  24.159  28.145  1.00  0.00     0.016 A 
ATOM     31  C   UNL A   1      40.267  26.122  26.681  1.00  0.00     0.010 A 
ATOM     32  C   UNL A   1      39.261  25.364  28.753  1.00  0.00     0.010 A 
ATOM     33  C   UNL A   1      39.958  26.347  28.027  1.00  0.00    -0.014 A 
BRANCH  33  34
ATOM     34  C   UNL A   1      40.444  27.579  28.686  1.00  0.00     0.031 A 
ATOM     35  C   UNL A   1      39.509  28.739  28.865  1.00  0.00     0.074 A 
ATOM     36  C   UNL A   1      41.699  27.644  29.165  1.00  0.00     0.049 A 
ATOM     37  N   UNL A   1      39.754  29.932  29.341  1.00  0.00    -0.248 NA
ATOM     38  C   UNL A   1      38.111  28.523  28.459  1.00  0.00     0.031 C 
ATOM     39  C   UNL A   1      42.677  26.556  29.127  1.00  0.00     0.029 A 
ATOM     40  N   UNL A   1      42.364  28.675  29.778  1.00  0.00    -0.354 N 
ATOM     41  C   UNL A   1      38.547  30.616  29.277  1.00  0.00     0.074 A 
ATOM     42  C   UNL A   1      37.574  29.709  28.707  1.00  0.00     0.031 C 
ATOM     43  C   UNL A   1      43.820  26.981  29.691  1.00  0.00     0.029 A 
ATOM     44  C   UNL A   1      43.669  28.379  30.084  1.00  0.00     0.049 A 
ATOM     45  H   UNL A   1      41.945  29.543  29.979  1.00  0.00     0.167 HD
ATOM     46  C   UNL A   1      38.275  31.888  29.658  1.00  0.00     0.031 A 
ATOM     47  C   UNL A   1      44.641  29.160  30.593  1.00  0.00     0.031 A 
ATOM     48  C   UNL A   1      39.243  32.792  30.217  1.00  0.00     0.049 A 
ATOM     49  C   UNL A   1      44.339  30.598  30.917  1.00  0.00     0.074 A 
ATOM     50  C   UNL A   1      39.069  34.107  30.612  1.00  0.00     0.029 A 
ATOM     51  N   UNL A   1      40.570  32.474  30.457  1.00  0.00    -0.354 N 
ATOM     52  N   UNL A   1      43.203  31.245  30.823  1.00  0.00    -0.248 NA
ATOM     53  C   UNL A   1      45.458  31.413  31.411  1.00  0.00     0.031 C 
ATOM     54  C   UNL A   1      40.302  34.598  31.053  1.00  0.00     0.029 A 
ATOM     55  C   UNL A   1      41.232  33.573  30.977  1.00  0.00     0.049 A 
ATOM     56  H   UNL A   1      40.982  31.596  30.285  1.00  0.00     0.167 HD
ATOM     57  C   UNL A   1      43.465  32.536  31.261  1.00  0.00     0.074 A 
ATOM     58  C   UNL A   1      44.864  32.577  31.637  1.00  0.00     0.031 C 
ATOM     59  C   UNL A   1      42.624  33.595  31.343  1.00  0.00     0.031 A 
BRANCH  46  60
ATOM     60  C   UNL A   1      36.877  32.384  29.433  1.00  0.00    -0.014 A 
ATOM     61  C   UNL A   1      36.479  32.904  28.192  1.00  0.00     0.009 A 
ATOM     62  C   UNL A   1      35.941  32.317  30.476  1.00  0.00     0.009 A 
ATOM     63  C   UNL A   1      35.176  33.375  28.010  1.00  0.00     0.001 A 
ATOM     64  C   UNL A   1      34.634  32.767  30.285  1.00  0.00     0.001 A 
ATOM     65  C   UNL A   1      34.255  33.304  29.055  1.00  0.00     0.000 A 
ENDBRANCH  46  60
BRANCH  47  66
ATOM     66  C   UNL A   1      46.009  28.615  30.783  1.00  0.00    -0.014 A 
ATOM     67  C   UNL A   1      46.999  28.805  29.808  1.00  0.00     0.009 A 
ATOM     68  C   UNL A   1      46.325  27.884  31.939  1.00  0.00     0.009 A 
ATOM     69  C   UNL A   1      48.272  28.253  29.978  1.00  0.00     0.001 A 
ATOM     70  C   UNL A   1      47.605  27.357  32.118  1.00  0.00     0.001 A 
ATOM     71  C   UNL A   1      48.575  27.535  31.134  1.00  0.00     0.000 A 
ENDBRANCH  47  66
BRANCH  59  72
ATOM     72  C   UNL A   1      43.187  34.878  31.888  1.00  0.00    -0.014 A 
ATOM     73  C   UNL A   1      43.136  35.167  33.260  1.00  0.00     0.009 A 
ATOM     74  C   UNL A   1      43.810  35.788  31.021  1.00  0.00     0.009 A 
ATOM     75  C   UNL A   1      43.676  36.359  33.749  1.00  0.00     0.001 A 
ATOM     76  C   UNL A   1      44.368  36.967  31.516  1.00  0.00     0.001 A 
ATOM     77  C   UNL A   1      44.294  37.255  32.877  1.00  0.00     0.000 A 
ENDBRANCH  59  72
ENDBRANCH  33  34
ENDBRANCH  26  28
ENDBRANCH  25  26
ENDBRANCH  24  25
ENDBRANCH   1  24
TORSDOF 14
ENDMDL
