MODEL 1
REMARK VINA RESULT:     -12.0      0.000      0.000
REMARK SMILES O=C(N/N=C\c1ccccc1C(=O)OCCOC(=O)c1ccc(-c2c3nc(c(-c4ccccc4)c4ccc([nH]4)c(-c4ccccc4)c4nc(c(-c5ccccc5)c5ccc2[nH]5)C=C4)C=C3)cc1)C(=O)N1CCCCC1
REMARK SMILES IDX 15 1 14 2 12 3 13 4 11 5 6 6 7 7 8 8 10 9 9 10 5 11 4 12
REMARK SMILES IDX 3 13 1 14 2 15 68 17 69 18 70 19 71 20 75 21 72 22 74 23
REMARK SMILES IDX 73 24 16 25 17 26 18 27 19 28 20 29 21 30 67 31 22 32 66 33
REMARK SMILES IDX 23 34 24 35 25 36 60 37 26 38 65 39 59 40 61 41 27 42 64 43
REMARK SMILES IDX 58 44 57 45 28 47 50 48 35 49 49 50 36 51 39 52 48 53 62 54
REMARK SMILES IDX 37 55 38 56 47 58 63 59 40 60 29 61 30 62 34 63 31 64 33 65
REMARK SMILES IDX 32 66 51 67 52 68 56 69 53 70 55 71 54 72 41 73 42 74 46 75
REMARK SMILES IDX 43 76 45 77 44 78
REMARK H PARENT 3 16 61 46 39 57
REMARK Flexibility Score: inf
ROOT
ATOM      1  C   UNL A   1      32.267  30.835  26.541  1.00  0.00     0.275 C 
ENDROOT
BRANCH   1   2
ATOM      2  O   UNL A   1      31.551  29.698  26.014  1.00  0.00    -0.458 OA
BRANCH   2   3
ATOM      3  C   UNL A   1      31.886  29.379  24.745  1.00  0.00     0.338 C 
ATOM      4  O   UNL A   1      33.007  29.338  24.269  1.00  0.00    -0.246 OA
BRANCH   3   5
ATOM      5  C   UNL A   1      30.686  29.129  23.944  1.00  0.00     0.068 A 
ATOM      6  C   UNL A   1      30.018  27.455  23.984  1.00  0.00     0.009 A 
ATOM      7  C   UNL A   1      28.224  27.134  23.646  1.00  0.00     0.010 A 
ATOM      8  C   UNL A   1      27.122  28.544  23.324  1.00  0.00     0.001 A 
ATOM      9  C   UNL A   1      29.585  30.523  23.620  1.00  0.00     0.016 A 
ATOM     10  C   UNL A   1      27.787  30.229  23.335  1.00  0.00     0.001 A 
BRANCH   6  11
ATOM     11  C   UNL A   1      30.722  26.546  24.852  1.00  0.00     0.142 C 
ATOM     12  N   UNL A   1      31.726  25.874  24.410  1.00  0.00    -0.180 NA
BRANCH  12  13
ATOM     13  N   UNL A   1      32.125  26.063  23.115  1.00  0.00    -0.239 N 
ATOM     14  O   UNL A   1      32.556  25.556  20.963  1.00  0.00    -0.262 OA
ATOM     15  C   UNL A   1      32.646  25.199  22.144  1.00  0.00     0.329 C 
ATOM     16  H   UNL A   1      32.026  26.992  22.803  1.00  0.00     0.194 HD
BRANCH  15  17
ATOM     17  C   UNL A   1      33.526  23.800  22.507  1.00  0.00     0.313 C 
ATOM     18  O   UNL A   1      33.485  23.347  21.302  1.00  0.00    -0.263 OA
ATOM     19  N   UNL A   1      34.294  23.061  24.193  1.00  0.00    -0.334 N 
ATOM     20  C   UNL A   1      34.852  21.497  24.633  1.00  0.00     0.120 C 
ATOM     21  C   UNL A   1      34.647  23.754  25.720  1.00  0.00     0.120 C 
ATOM     22  C   UNL A   1      34.037  20.891  25.788  1.00  0.00     0.022 C 
ATOM     23  C   UNL A   1      33.826  23.129  26.857  1.00  0.00     0.022 C 
ATOM     24  C   UNL A   1      34.180  21.674  27.074  1.00  0.00     0.004 C 
ENDBRANCH  15  17
ENDBRANCH  12  13
ENDBRANCH   6  11
ENDBRANCH   3   5
ENDBRANCH   2   3
ENDBRANCH   1   2
BRANCH   1  25
ATOM     25  C   UNL A   1      33.281  30.458  27.628  1.00  0.00     0.275 C 
BRANCH  25  26
ATOM     26  O   UNL A   1      34.384  31.379  27.713  1.00  0.00    -0.458 OA
BRANCH  26  27
ATOM     27  C   UNL A   1      35.054  31.359  28.887  1.00  0.00     0.338 C 
ATOM     28  O   UNL A   1      34.768  31.957  29.912  1.00  0.00    -0.246 OA
BRANCH  27  29
ATOM     29  C   UNL A   1      36.220  30.466  28.807  1.00  0.00     0.060 A 
ATOM     30  C   UNL A   1      36.709  29.896  29.983  1.00  0.00     0.016 A 
ATOM     31  C   UNL A   1      36.939  30.355  27.616  1.00  0.00     0.016 A 
ATOM     32  C   UNL A   1      37.966  29.299  30.002  1.00  0.00     0.010 A 
ATOM     33  C   UNL A   1      38.177  29.704  27.624  1.00  0.00     0.010 A 
ATOM     34  C   UNL A   1      38.718  29.209  28.825  1.00  0.00    -0.014 A 
BRANCH  34  35
ATOM     35  C   UNL A   1      40.097  28.659  28.852  1.00  0.00     0.031 A 
ATOM     36  C   UNL A   1      41.250  29.551  29.214  1.00  0.00     0.074 A 
ATOM     37  C   UNL A   1      40.326  27.362  28.574  1.00  0.00     0.049 A 
ATOM     38  N   UNL A   1      42.535  29.339  29.074  1.00  0.00    -0.248 NA
ATOM     39  C   UNL A   1      40.915  30.855  29.808  1.00  0.00     0.031 C 
ATOM     40  C   UNL A   1      39.302  26.355  28.294  1.00  0.00     0.029 A 
ATOM     41  N   UNL A   1      41.508  26.671  28.488  1.00  0.00    -0.354 N 
ATOM     42  C   UNL A   1      43.157  30.503  29.506  1.00  0.00     0.074 A 
ATOM     43  C   UNL A   1      42.113  31.409  29.938  1.00  0.00     0.031 C 
ATOM     44  C   UNL A   1      39.898  25.171  28.083  1.00  0.00     0.029 A 
ATOM     45  C   UNL A   1      41.345  25.353  28.144  1.00  0.00     0.049 A 
ATOM     46  H   UNL A   1      42.387  27.082  28.655  1.00  0.00     0.167 HD
ATOM     47  C   UNL A   1      44.479  30.795  29.524  1.00  0.00     0.031 A 
ATOM     48  C   UNL A   1      42.258  24.405  27.863  1.00  0.00     0.031 A 
ATOM     49  C   UNL A   1      45.520  29.885  29.133  1.00  0.00     0.049 A 
ATOM     50  C   UNL A   1      43.717  24.757  27.860  1.00  0.00     0.074 A 
ATOM     51  C   UNL A   1      46.885  30.105  29.069  1.00  0.00     0.029 A 
ATOM     52  N   UNL A   1      45.308  28.567  28.765  1.00  0.00    -0.354 N 
ATOM     53  N   UNL A   1      44.289  25.901  28.142  1.00  0.00    -0.248 NA
ATOM     54  C   UNL A   1      44.652  23.692  27.468  1.00  0.00     0.031 C 
ATOM     55  C   UNL A   1      47.500  28.917  28.653  1.00  0.00     0.029 A 
ATOM     56  C   UNL A   1      46.517  27.958  28.478  1.00  0.00     0.049 A 
ATOM     57  H   UNL A   1      44.428  28.128  28.717  1.00  0.00     0.167 HD
ATOM     58  C   UNL A   1      45.648  25.700  27.949  1.00  0.00     0.074 A 
ATOM     59  C   UNL A   1      45.818  24.318  27.549  1.00  0.00     0.031 C 
ATOM     60  C   UNL A   1      46.663  26.586  28.079  1.00  0.00     0.031 A 
BRANCH  47  61
ATOM     61  C   UNL A   1      44.865  32.183  29.935  1.00  0.00    -0.014 A 
ATOM     62  C   UNL A   1      44.850  33.244  29.019  1.00  0.00     0.009 A 
ATOM     63  C   UNL A   1      45.230  32.431  31.267  1.00  0.00     0.009 A 
ATOM     64  C   UNL A   1      45.212  34.529  29.430  1.00  0.00     0.001 A 
ATOM     65  C   UNL A   1      45.578  33.718  31.676  1.00  0.00     0.001 A 
ATOM     66  C   UNL A   1      45.573  34.766  30.756  1.00  0.00     0.000 A 
ENDBRANCH  47  61
BRANCH  48  67
ATOM     67  C   UNL A   1      41.808  23.044  27.487  1.00  0.00    -0.014 A 
ATOM     68  C   UNL A   1      41.822  22.007  28.429  1.00  0.00     0.009 A 
ATOM     69  C   UNL A   1      41.346  22.785  26.188  1.00  0.00     0.009 A 
ATOM     70  C   UNL A   1      41.388  20.728  28.073  1.00  0.00     0.001 A 
ATOM     71  C   UNL A   1      40.897  21.511  25.840  1.00  0.00     0.001 A 
ATOM     72  C   UNL A   1      40.921  20.483  26.781  1.00  0.00     0.000 A 
ENDBRANCH  48  67
BRANCH  60  73
ATOM     73  C   UNL A   1      48.043  26.082  27.787  1.00  0.00    -0.014 A 
ATOM     74  C   UNL A   1      48.618  26.273  26.522  1.00  0.00     0.009 A 
ATOM     75  C   UNL A   1      48.783  25.438  28.789  1.00  0.00     0.009 A 
ATOM     76  C   UNL A   1      49.908  25.811  26.260  1.00  0.00     0.001 A 
ATOM     77  C   UNL A   1      50.075  24.986  28.526  1.00  0.00     0.001 A 
ATOM     78  C   UNL A   1      50.636  25.169  27.262  1.00  0.00     0.000 A 
ENDBRANCH  60  73
ENDBRANCH  34  35
ENDBRANCH  27  29
ENDBRANCH  26  27
ENDBRANCH  25  26
ENDBRANCH   1  25
TORSDOF 14
ENDMDL
MODEL 2
REMARK VINA RESULT:     -11.7      2.692      8.242
REMARK SMILES O=C(N/N=C\c1ccccc1C(=O)OCCOC(=O)c1ccc(-c2c3nc(c(-c4ccccc4)c4ccc([nH]4)c(-c4ccccc4)c4nc(c(-c5ccccc5)c5ccc2[nH]5)C=C4)C=C3)cc1)C(=O)N1CCCCC1
REMARK SMILES IDX 15 1 14 2 12 3 13 4 11 5 6 6 7 7 8 8 10 9 9 10 5 11 4 12
REMARK SMILES IDX 3 13 1 14 2 15 68 17 69 18 70 19 71 20 75 21 72 22 74 23
REMARK SMILES IDX 73 24 16 25 17 26 18 27 19 28 20 29 21 30 67 31 22 32 66 33
REMARK SMILES IDX 23 34 24 35 25 36 60 37 26 38 65 39 59 40 61 41 27 42 64 43
REMARK SMILES IDX 58 44 57 45 28 47 50 48 35 49 49 50 36 51 39 52 48 53 62 54
REMARK SMILES IDX 37 55 38 56 47 58 63 59 40 60 29 61 30 62 34 63 31 64 33 65
REMARK SMILES IDX 32 66 51 67 52 68 56 69 53 70 55 71 54 72 41 73 42 74 46 75
REMARK SMILES IDX 43 76 45 77 44 78
REMARK H PARENT 3 16 61 46 39 57
REMARK Flexibility Score: inf
ROOT
ATOM      1  C   UNL A   1      37.937  20.917  25.250  1.00  0.00     0.275 C 
ENDROOT
BRANCH   1   2
ATOM      2  O   UNL A   1      36.691  20.624  24.582  1.00  0.00    -0.458 OA
BRANCH   2   3
ATOM      3  C   UNL A   1      35.602  20.771  25.366  1.00  0.00     0.338 C 
ATOM      4  O   UNL A   1      35.508  21.447  26.376  1.00  0.00    -0.246 OA
BRANCH   3   5
ATOM      5  C   UNL A   1      34.500  19.938  24.877  1.00  0.00     0.068 A 
ATOM      6  C   UNL A   1      33.203  20.775  23.946  1.00  0.00     0.009 A 
ATOM      7  C   UNL A   1      32.171  19.858  22.709  1.00  0.00     0.010 A 
ATOM      8  C   UNL A   1      32.521  18.102  22.401  1.00  0.00     0.001 A 
ATOM      9  C   UNL A   1      34.838  18.193  24.567  1.00  0.00     0.016 A 
ATOM     10  C   UNL A   1      33.859  17.277  23.300  1.00  0.00     0.001 A 
BRANCH   6  11
ATOM     11  C   UNL A   1      33.421  22.185  23.743  1.00  0.00     0.142 C 
ATOM     12  N   UNL A   1      32.752  23.050  24.421  1.00  0.00    -0.180 NA
BRANCH  12  13
ATOM     13  N   UNL A   1      31.857  22.603  25.355  1.00  0.00    -0.239 N 
ATOM     14  O   UNL A   1      29.927  22.474  26.509  1.00  0.00    -0.262 OA
ATOM     15  C   UNL A   1      30.784  23.217  26.013  1.00  0.00     0.329 C 
ATOM     16  H   UNL A   1      31.995  21.664  25.616  1.00  0.00     0.194 HD
BRANCH  15  17
ATOM     17  C   UNL A   1      30.688  24.880  26.305  1.00  0.00     0.313 C 
ATOM     18  O   UNL A   1      29.519  24.815  26.840  1.00  0.00    -0.263 OA
ATOM     19  N   UNL A   1      31.899  26.415  25.908  1.00  0.00    -0.334 N 
ATOM     20  C   UNL A   1      31.652  28.114  25.865  1.00  0.00     0.120 C 
ATOM     21  C   UNL A   1      33.560  26.519  25.499  1.00  0.00     0.120 C 
ATOM     22  C   UNL A   1      31.907  28.705  24.468  1.00  0.00     0.022 C 
ATOM     23  C   UNL A   1      33.788  27.117  24.103  1.00  0.00     0.022 C 
ATOM     24  C   UNL A   1      33.347  28.563  24.030  1.00  0.00     0.004 C 
ENDBRANCH  15  17
ENDBRANCH  12  13
ENDBRANCH   6  11
ENDBRANCH   3   5
ENDBRANCH   2   3
ENDBRANCH   1   2
BRANCH   1  25
ATOM     25  C   UNL A   1      38.934  19.752  25.202  1.00  0.00     0.275 C 
BRANCH  25  26
ATOM     26  O   UNL A   1      39.803  19.708  26.350  1.00  0.00    -0.458 OA
BRANCH  26  27
ATOM     27  C   UNL A   1      41.124  19.714  26.066  1.00  0.00     0.338 C 
ATOM     28  O   UNL A   1      41.751  18.868  25.448  1.00  0.00    -0.246 OA
BRANCH  27  29
ATOM     29  C   UNL A   1      41.763  20.933  26.583  1.00  0.00     0.060 A 
ATOM     30  C   UNL A   1      41.638  21.230  27.941  1.00  0.00     0.016 A 
ATOM     31  C   UNL A   1      42.304  21.870  25.703  1.00  0.00     0.016 A 
ATOM     32  C   UNL A   1      41.958  22.499  28.413  1.00  0.00     0.010 A 
ATOM     33  C   UNL A   1      42.679  23.127  26.188  1.00  0.00     0.010 A 
ATOM     34  C   UNL A   1      42.470  23.465  27.539  1.00  0.00    -0.014 A 
BRANCH  34  35
ATOM     35  C   UNL A   1      42.727  24.848  28.011  1.00  0.00     0.031 A 
ATOM     36  C   UNL A   1      44.128  25.274  28.350  1.00  0.00     0.074 A 
ATOM     37  C   UNL A   1      41.721  25.736  28.120  1.00  0.00     0.049 A 
ATOM     38  N   UNL A   1      44.536  26.341  28.989  1.00  0.00    -0.248 NA
ATOM     39  C   UNL A   1      45.213  24.379  27.916  1.00  0.00     0.031 C 
ATOM     40  C   UNL A   1      40.328  25.498  27.745  1.00  0.00     0.029 A 
ATOM     41  N   UNL A   1      41.729  27.028  28.582  1.00  0.00    -0.354 N 
ATOM     42  C   UNL A   1      45.915  26.217  29.087  1.00  0.00     0.074 A 
ATOM     43  C   UNL A   1      46.280  24.985  28.418  1.00  0.00     0.031 C 
ATOM     44  C   UNL A   1      39.616  26.613  27.974  1.00  0.00     0.029 A 
ATOM     45  C   UNL A   1      40.489  27.616  28.578  1.00  0.00     0.049 A 
ATOM     46  H   UNL A   1      42.544  27.488  28.888  1.00  0.00     0.167 HD
ATOM     47  C   UNL A   1      46.796  27.047  29.693  1.00  0.00     0.031 A 
ATOM     48  C   UNL A   1      40.087  28.811  29.048  1.00  0.00     0.031 A 
ATOM     49  C   UNL A   1      46.442  28.290  30.324  1.00  0.00     0.049 A 
ATOM     50  C   UNL A   1      41.072  29.704  29.743  1.00  0.00     0.074 A 
ATOM     51  C   UNL A   1      47.255  29.176  31.009  1.00  0.00     0.029 A 
ATOM     52  N   UNL A   1      45.169  28.834  30.319  1.00  0.00    -0.354 N 
ATOM     53  N   UNL A   1      42.352  29.517  29.947  1.00  0.00    -0.248 NA
ATOM     54  C   UNL A   1      40.547  30.959  30.301  1.00  0.00     0.031 C 
ATOM     55  C   UNL A   1      46.468  30.257  31.427  1.00  0.00     0.029 A 
ATOM     56  C   UNL A   1      45.172  30.047  30.984  1.00  0.00     0.049 A 
ATOM     57  H   UNL A   1      44.378  28.419  29.903  1.00  0.00     0.167 HD
ATOM     58  C   UNL A   1      42.784  30.621  30.669  1.00  0.00     0.074 A 
ATOM     59  C   UNL A   1      41.635  31.486  30.846  1.00  0.00     0.031 C 
ATOM     60  C   UNL A   1      44.020  30.888  31.152  1.00  0.00     0.031 A 
BRANCH  47  61
ATOM     61  C   UNL A   1      48.225  26.604  29.749  1.00  0.00    -0.014 A 
ATOM     62  C   UNL A   1      48.690  25.769  30.774  1.00  0.00     0.009 A 
ATOM     63  C   UNL A   1      49.113  27.015  28.742  1.00  0.00     0.009 A 
ATOM     64  C   UNL A   1      50.028  25.367  30.799  1.00  0.00     0.001 A 
ATOM     65  C   UNL A   1      50.445  26.602  28.764  1.00  0.00     0.001 A 
ATOM     66  C   UNL A   1      50.903  25.782  29.795  1.00  0.00     0.000 A 
ENDBRANCH  47  61
BRANCH  48  67
ATOM     67  C   UNL A   1      38.661  29.198  28.939  1.00  0.00    -0.014 A 
ATOM     68  C   UNL A   1      37.798  29.036  30.031  1.00  0.00     0.009 A 
ATOM     69  C   UNL A   1      38.164  29.746  27.747  1.00  0.00     0.009 A 
ATOM     70  C   UNL A   1      36.456  29.410  29.927  1.00  0.00     0.001 A 
ATOM     71  C   UNL A   1      36.828  30.135  27.653  1.00  0.00     0.001 A 
ATOM     72  C   UNL A   1      35.974  29.964  28.741  1.00  0.00     0.000 A 
ENDBRANCH  48  67
BRANCH  60  73
ATOM     73  C   UNL A   1      44.187  32.166  31.914  1.00  0.00    -0.014 A 
ATOM     74  C   UNL A   1      43.969  32.203  33.299  1.00  0.00     0.009 A 
ATOM     75  C   UNL A   1      44.592  33.333  31.250  1.00  0.00     0.009 A 
ATOM     76  C   UNL A   1      44.137  33.395  34.005  1.00  0.00     0.001 A 
ATOM     77  C   UNL A   1      44.768  34.520  31.960  1.00  0.00     0.001 A 
ATOM     78  C   UNL A   1      44.537  34.551  33.335  1.00  0.00     0.000 A 
ENDBRANCH  60  73
ENDBRANCH  34  35
ENDBRANCH  27  29
ENDBRANCH  26  27
ENDBRANCH  25  26
ENDBRANCH   1  25
TORSDOF 14
ENDMDL
MODEL 3
REMARK VINA RESULT:     -11.7      3.942      9.134
REMARK SMILES O=C(N/N=C\c1ccccc1C(=O)OCCOC(=O)c1ccc(-c2c3nc(c(-c4ccccc4)c4ccc([nH]4)c(-c4ccccc4)c4nc(c(-c5ccccc5)c5ccc2[nH]5)C=C4)C=C3)cc1)C(=O)N1CCCCC1
REMARK SMILES IDX 15 1 14 2 12 3 13 4 11 5 6 6 7 7 8 8 10 9 9 10 5 11 4 12
REMARK SMILES IDX 3 13 1 14 2 15 68 17 69 18 70 19 71 20 75 21 72 22 74 23
REMARK SMILES IDX 73 24 16 25 17 26 18 27 19 28 20 29 21 30 67 31 22 32 66 33
REMARK SMILES IDX 23 34 24 35 25 36 60 37 26 38 65 39 59 40 61 41 27 42 64 43
REMARK SMILES IDX 58 44 57 45 28 47 50 48 35 49 49 50 36 51 39 52 48 53 62 54
REMARK SMILES IDX 37 55 38 56 47 58 63 59 40 60 29 61 30 62 34 63 31 64 33 65
REMARK SMILES IDX 32 66 51 67 52 68 56 69 53 70 55 71 54 72 41 73 42 74 46 75
REMARK SMILES IDX 43 76 45 77 44 78
REMARK H PARENT 3 16 61 46 39 57
REMARK Flexibility Score: inf
ROOT
ATOM      1  C   UNL A   1      37.467  20.924  25.357  1.00  0.00     0.275 C 
ENDROOT
BRANCH   1   2
ATOM      2  O   UNL A   1      36.236  21.093  24.623  1.00  0.00    -0.458 OA
BRANCH   2   3
ATOM      3  C   UNL A   1      35.130  21.082  25.398  1.00  0.00     0.338 C 
ATOM      4  O   UNL A   1      34.969  21.659  26.458  1.00  0.00    -0.246 OA
BRANCH   3   5
ATOM      5  C   UNL A   1      34.107  20.205  24.821  1.00  0.00     0.068 A 
ATOM      6  C   UNL A   1      32.936  20.966  23.682  1.00  0.00     0.009 A 
ATOM      7  C   UNL A   1      32.081  19.963  22.379  1.00  0.00     0.010 A 
ATOM      8  C   UNL A   1      32.481  18.196  22.225  1.00  0.00     0.001 A 
ATOM      9  C   UNL A   1      34.496  18.450  24.663  1.00  0.00     0.016 A 
ATOM     10  C   UNL A   1      33.697  17.446  23.337  1.00  0.00     0.001 A 
BRANCH   6  11
ATOM     11  C   UNL A   1      33.168  22.364  23.423  1.00  0.00     0.142 C 
ATOM     12  N   UNL A   1      32.657  23.260  24.193  1.00  0.00    -0.180 NA
BRANCH  12  13
ATOM     13  N   UNL A   1      31.919  22.857  25.272  1.00  0.00    -0.239 N 
ATOM     14  O   UNL A   1      30.168  22.742  26.684  1.00  0.00    -0.262 OA
ATOM     15  C   UNL A   1      30.909  23.476  26.018  1.00  0.00     0.329 C 
ATOM     16  H   UNL A   1      32.143  21.951  25.586  1.00  0.00     0.194 HD
BRANCH  15  17
ATOM     17  C   UNL A   1      30.759  25.153  26.187  1.00  0.00     0.313 C 
ATOM     18  O   UNL A   1      29.588  25.090  26.717  1.00  0.00    -0.263 OA
ATOM     19  N   UNL A   1      31.927  26.691  25.688  1.00  0.00    -0.334 N 
ATOM     20  C   UNL A   1      31.628  28.374  25.519  1.00  0.00     0.120 C 
ATOM     21  C   UNL A   1      33.588  26.817  25.285  1.00  0.00     0.120 C 
ATOM     22  C   UNL A   1      31.879  28.869  24.085  1.00  0.00     0.022 C 
ATOM     23  C   UNL A   1      33.812  27.319  23.852  1.00  0.00     0.022 C 
ATOM     24  C   UNL A   1      33.327  28.741  23.670  1.00  0.00     0.004 C 
ENDBRANCH  15  17
ENDBRANCH  12  13
ENDBRANCH   6  11
ENDBRANCH   3   5
ENDBRANCH   2   3
ENDBRANCH   1   2
BRANCH   1  25
ATOM     25  C   UNL A   1      38.278  22.221  25.478  1.00  0.00     0.275 C 
BRANCH  25  26
ATOM     26  O   UNL A   1      39.242  22.184  26.547  1.00  0.00    -0.458 OA
BRANCH  26  27
ATOM     27  C   UNL A   1      40.329  22.966  26.362  1.00  0.00     0.338 C 
ATOM     28  O   UNL A   1      41.361  22.673  25.780  1.00  0.00    -0.246 OA
BRANCH  27  29
ATOM     29  C   UNL A   1      40.116  24.300  26.944  1.00  0.00     0.060 A 
ATOM     30  C   UNL A   1      40.907  25.360  26.497  1.00  0.00     0.016 A 
ATOM     31  C   UNL A   1      39.288  24.457  28.056  1.00  0.00     0.016 A 
ATOM     32  C   UNL A   1      40.952  26.550  27.216  1.00  0.00     0.010 A 
ATOM     33  C   UNL A   1      39.291  25.675  28.744  1.00  0.00     0.010 A 
ATOM     34  C   UNL A   1      40.156  26.716  28.354  1.00  0.00    -0.014 A 
BRANCH  34  35
ATOM     35  C   UNL A   1      40.265  27.944  29.180  1.00  0.00     0.031 A 
ATOM     36  C   UNL A   1      41.423  28.109  30.123  1.00  0.00     0.074 A 
ATOM     37  C   UNL A   1      39.348  28.924  29.080  1.00  0.00     0.049 A 
ATOM     38  N   UNL A   1      41.585  28.978  31.089  1.00  0.00    -0.248 NA
ATOM     39  C   UNL A   1      42.545  27.169  29.963  1.00  0.00     0.031 C 
ATOM     40  C   UNL A   1      38.221  28.948  28.148  1.00  0.00     0.029 A 
ATOM     41  N   UNL A   1      39.229  30.098  29.780  1.00  0.00    -0.354 N 
ATOM     42  C   UNL A   1      42.795  28.654  31.688  1.00  0.00     0.074 A 
ATOM     43  C   UNL A   1      43.340  27.526  30.962  1.00  0.00     0.031 C 
ATOM     44  C   UNL A   1      37.534  30.088  28.320  1.00  0.00     0.029 A 
ATOM     45  C   UNL A   1      38.131  30.839  29.421  1.00  0.00     0.049 A 
ATOM     46  H   UNL A   1      39.869  30.382  30.473  1.00  0.00     0.167 HD
ATOM     47  C   UNL A   1      43.389  29.235  32.756  1.00  0.00     0.031 A 
ATOM     48  C   UNL A   1      37.632  31.972  29.947  1.00  0.00     0.031 A 
ATOM     49  C   UNL A   1      42.870  30.379  33.454  1.00  0.00     0.049 A 
ATOM     50  C   UNL A   1      38.288  32.584  31.149  1.00  0.00     0.074 A 
ATOM     51  C   UNL A   1      43.374  31.010  34.579  1.00  0.00     0.029 A 
ATOM     52  N   UNL A   1      41.739  31.082  33.073  1.00  0.00    -0.354 N 
ATOM     53  N   UNL A   1      39.361  32.192  31.791  1.00  0.00    -0.248 NA
ATOM     54  C   UNL A   1      37.643  33.776  31.718  1.00  0.00     0.031 C 
ATOM     55  C   UNL A   1      42.539  32.093  34.883  1.00  0.00     0.029 A 
ATOM     56  C   UNL A   1      41.530  32.143  33.936  1.00  0.00     0.049 A 
ATOM     57  H   UNL A   1      41.170  30.859  32.301  1.00  0.00     0.167 HD
ATOM     58  C   UNL A   1      39.513  33.080  32.847  1.00  0.00     0.074 A 
ATOM     59  C   UNL A   1      38.437  34.045  32.746  1.00  0.00     0.031 C 
ATOM     60  C   UNL A   1      40.454  33.087  33.820  1.00  0.00     0.031 A 
BRANCH  47  61
ATOM     61  C   UNL A   1      44.647  28.602  33.267  1.00  0.00    -0.014 A 
ATOM     62  C   UNL A   1      44.608  27.543  34.185  1.00  0.00     0.009 A 
ATOM     63  C   UNL A   1      45.888  29.062  32.801  1.00  0.00     0.009 A 
ATOM     64  C   UNL A   1      45.796  26.967  34.641  1.00  0.00     0.001 A 
ATOM     65  C   UNL A   1      47.072  28.475  33.249  1.00  0.00     0.001 A 
ATOM     66  C   UNL A   1      47.025  27.432  34.173  1.00  0.00     0.000 A 
ENDBRANCH  47  61
BRANCH  48  67
ATOM     67  C   UNL A   1      36.397  32.560  29.378  1.00  0.00    -0.014 A 
ATOM     68  C   UNL A   1      36.469  33.470  28.314  1.00  0.00     0.009 A 
ATOM     69  C   UNL A   1      35.141  32.200  29.888  1.00  0.00     0.009 A 
ATOM     70  C   UNL A   1      35.301  34.014  27.775  1.00  0.00     0.001 A 
ATOM     71  C   UNL A   1      33.976  32.732  29.336  1.00  0.00     0.001 A 
ATOM     72  C   UNL A   1      34.056  33.641  28.283  1.00  0.00     0.000 A 
ENDBRANCH  48  67
BRANCH  60  73
ATOM     73  C   UNL A   1      40.357  34.172  34.847  1.00  0.00    -0.014 A 
ATOM     74  C   UNL A   1      39.636  33.967  36.033  1.00  0.00     0.009 A 
ATOM     75  C   UNL A   1      41.012  35.394  34.643  1.00  0.00     0.009 A 
ATOM     76  C   UNL A   1      39.559  34.979  36.991  1.00  0.00     0.001 A 
ATOM     77  C   UNL A   1      40.941  36.399  35.607  1.00  0.00     0.001 A 
ATOM     78  C   UNL A   1      40.212  36.193  36.778  1.00  0.00     0.000 A 
ENDBRANCH  60  73
ENDBRANCH  34  35
ENDBRANCH  27  29
ENDBRANCH  26  27
ENDBRANCH  25  26
ENDBRANCH   1  25
TORSDOF 14
ENDMDL
