MODEL 1
REMARK VINA RESULT:     -12.3      0.000      0.000
REMARK SMILES O=C(OCCOC(=O)[C@@H]1CCCN1S(=O)(=O)c1ccc2c3c(cccc13)C(=O)N2)c1ccc(-c2c3nc(c(-c4ccccc4)c4ccc([nH]4)c(-c4ccccc4)c4nc(c(-c5ccccc5)c5ccc2[nH]5)C=C4)C=C3)cc1
REMARK SMILES IDX 4 1 3 2 2 3 1 4 30 5 31 6 77 7 32 8 76 9 33 10 34 11 35 12
REMARK SMILES IDX 70 13 36 14 75 15 69 16 71 17 37 18 74 19 68 20 67 21 38 23
REMARK SMILES IDX 60 24 45 25 59 26 46 27 49 28 58 29 72 30 47 31 48 32 57 34
REMARK SMILES IDX 73 35 50 36 39 37 40 38 44 39 41 40 43 41 42 42 61 43 62 44
REMARK SMILES IDX 66 45 63 46 65 47 64 48 51 49 52 50 56 51 53 52 55 53 54 54
REMARK SMILES IDX 5 55 6 56 7 57 8 58 9 59 10 60 13 61 11 62 12 63 14 64 15 65
REMARK SMILES IDX 16 66 17 67 18 68 26 69 19 70 21 71 25 72 20 73 22 74 24 75
REMARK SMILES IDX 29 76 23 77 27 78 28 80
REMARK H PARENT 71 22 49 33 29 79
REMARK Flexibility Score: inf
ROOT
ATOM      1  C   UNL A   1      38.316  19.915  24.957  1.00  0.00     0.275 C 
ENDROOT
BRANCH   1   2
ATOM      2  O   UNL A   1      39.297  19.374  25.870  1.00  0.00    -0.458 OA
BRANCH   2   3
ATOM      3  C   UNL A   1      40.623  19.648  25.974  1.00  0.00     0.338 C 
ATOM      4  O   UNL A   1      41.462  18.776  25.784  1.00  0.00    -0.246 OA
BRANCH   3   5
ATOM      5  C   UNL A   1      41.045  20.969  26.489  1.00  0.00     0.060 A 
ATOM      6  C   UNL A   1      40.954  21.306  27.841  1.00  0.00     0.016 A 
ATOM      7  C   UNL A   1      41.599  21.886  25.588  1.00  0.00     0.016 A 
ATOM      8  C   UNL A   1      41.616  22.414  28.341  1.00  0.00     0.010 A 
ATOM      9  C   UNL A   1      42.170  23.067  26.067  1.00  0.00     0.010 A 
ATOM     10  C   UNL A   1      42.215  23.308  27.454  1.00  0.00    -0.014 A 
BRANCH  10  11
ATOM     11  C   UNL A   1      42.440  24.671  27.957  1.00  0.00     0.031 A 
ATOM     12  C   UNL A   1      43.893  25.009  28.119  1.00  0.00     0.074 A 
ATOM     13  C   UNL A   1      41.459  25.578  28.136  1.00  0.00     0.049 A 
ATOM     14  N   UNL A   1      44.446  26.114  28.525  1.00  0.00    -0.248 NA
ATOM     15  C   UNL A   1      44.862  23.956  27.737  1.00  0.00     0.031 C 
ATOM     16  C   UNL A   1      40.034  25.397  27.855  1.00  0.00     0.029 A 
ATOM     17  N   UNL A   1      41.530  26.868  28.591  1.00  0.00    -0.354 N 
ATOM     18  C   UNL A   1      45.810  25.883  28.428  1.00  0.00     0.074 A 
ATOM     19  C   UNL A   1      46.018  24.526  28.007  1.00  0.00     0.031 C 
ATOM     20  C   UNL A   1      39.358  26.504  28.209  1.00  0.00     0.029 A 
ATOM     21  C   UNL A   1      40.308  27.494  28.690  1.00  0.00     0.049 A 
ATOM     22  H   UNL A   1      42.378  27.309  28.828  1.00  0.00     0.167 HD
ATOM     23  C   UNL A   1      46.815  26.756  28.614  1.00  0.00     0.031 A 
ATOM     24  C   UNL A   1      40.008  28.743  29.094  1.00  0.00     0.031 A 
ATOM     25  C   UNL A   1      46.599  28.110  28.998  1.00  0.00     0.049 A 
ATOM     26  C   UNL A   1      41.152  29.657  29.438  1.00  0.00     0.074 A 
ATOM     27  C   UNL A   1      47.533  29.088  29.254  1.00  0.00     0.029 A 
ATOM     28  N   UNL A   1      45.342  28.671  29.168  1.00  0.00    -0.354 N 
ATOM     29  N   UNL A   1      42.441  29.425  29.351  1.00  0.00    -0.248 NA
ATOM     30  C   UNL A   1      40.810  31.005  29.904  1.00  0.00     0.031 C 
ATOM     31  C   UNL A   1      46.839  30.243  29.612  1.00  0.00     0.029 A 
ATOM     32  C   UNL A   1      45.474  29.989  29.539  1.00  0.00     0.049 A 
ATOM     33  H   UNL A   1      44.488  28.198  29.042  1.00  0.00     0.167 HD
ATOM     34  C   UNL A   1      43.064  30.606  29.723  1.00  0.00     0.074 A 
ATOM     35  C   UNL A   1      42.011  31.556  30.026  1.00  0.00     0.031 C 
ATOM     36  C   UNL A   1      44.386  30.888  29.809  1.00  0.00     0.031 A 
BRANCH  23  37
ATOM     37  C   UNL A   1      48.199  26.249  28.381  1.00  0.00    -0.014 A 
ATOM     38  C   UNL A   1      48.769  26.298  27.097  1.00  0.00     0.009 A 
ATOM     39  C   UNL A   1      48.921  25.676  29.435  1.00  0.00     0.009 A 
ATOM     40  C   UNL A   1      50.040  25.770  26.874  1.00  0.00     0.001 A 
ATOM     41  C   UNL A   1      50.200  25.169  29.211  1.00  0.00     0.001 A 
ATOM     42  C   UNL A   1      50.757  25.215  27.933  1.00  0.00     0.000 A 
ENDBRANCH  23  37
BRANCH  24  43
ATOM     43  C   UNL A   1      38.600  29.219  29.155  1.00  0.00    -0.014 A 
ATOM     44  C   UNL A   1      38.003  29.833  28.042  1.00  0.00     0.009 A 
ATOM     45  C   UNL A   1      37.850  29.097  30.337  1.00  0.00     0.009 A 
ATOM     46  C   UNL A   1      36.703  30.341  28.121  1.00  0.00     0.001 A 
ATOM     47  C   UNL A   1      36.542  29.590  30.407  1.00  0.00     0.001 A 
ATOM     48  C   UNL A   1      35.973  30.220  29.302  1.00  0.00     0.000 A 
ENDBRANCH  24  43
BRANCH  36  49
ATOM     49  C   UNL A   1      44.774  32.267  30.237  1.00  0.00    -0.014 A 
ATOM     50  C   UNL A   1      45.080  32.528  31.579  1.00  0.00     0.009 A 
ATOM     51  C   UNL A   1      45.008  33.251  29.264  1.00  0.00     0.009 A 
ATOM     52  C   UNL A   1      45.623  33.758  31.941  1.00  0.00     0.001 A 
ATOM     53  C   UNL A   1      45.578  34.468  29.627  1.00  0.00     0.001 A 
ATOM     54  C   UNL A   1      45.885  34.720  30.964  1.00  0.00     0.000 A 
ENDBRANCH  36  49
ENDBRANCH  10  11
ENDBRANCH   3   5
ENDBRANCH   2   3
ENDBRANCH   1   2
BRANCH   1  55
ATOM     55  C   UNL A   1      37.448  21.115  25.411  1.00  0.00     0.274 C 
BRANCH  55  56
ATOM     56  O   UNL A   1      36.342  21.463  24.546  1.00  0.00    -0.461 OA
BRANCH  56  57
ATOM     57  C   UNL A   1      35.193  21.886  25.162  1.00  0.00     0.324 C 
ATOM     58  O   UNL A   1      35.025  21.840  26.376  1.00  0.00    -0.250 OA
BRANCH  57  59
ATOM     59  C   UNL A   1      34.117  22.384  24.216  1.00  0.00     0.183 C 
ATOM     60  C   UNL A   1      34.631  22.965  22.924  1.00  0.00     0.034 C 
ATOM     61  N   UNL A   1      33.000  23.327  24.557  1.00  0.00    -0.184 NA
ATOM     62  C   UNL A   1      33.389  23.301  22.136  1.00  0.00     0.019 C 
ATOM     63  C   UNL A   1      32.343  23.606  23.208  1.00  0.00     0.103 C 
BRANCH  61  64
ATOM     64  S   UNL A   1      33.325  24.809  25.386  1.00  0.00     0.244 S 
ATOM     65  O   UNL A   1      32.498  24.830  26.575  1.00  0.00    -0.207 OA
ATOM     66  O   UNL A   1      34.764  24.888  25.524  1.00  0.00    -0.207 OA
BRANCH  64  67
ATOM     67  C   UNL A   1      32.774  26.118  24.326  1.00  0.00     0.090 A 
ATOM     68  C   UNL A   1      33.768  26.742  23.542  1.00  0.00     0.024 A 
ATOM     69  C   UNL A   1      31.413  26.473  24.131  1.00  0.00     0.005 A 
ATOM     70  C   UNL A   1      33.529  27.884  22.765  1.00  0.00     0.028 A 
ATOM     71  C   UNL A   1      31.227  27.583  23.351  1.00  0.00     0.019 A 
ATOM     72  C   UNL A   1      30.206  25.858  24.544  1.00  0.00     0.010 A 
ATOM     73  C   UNL A   1      32.224  28.300  22.734  1.00  0.00     0.050 A 
ATOM     74  C   UNL A   1      30.017  28.140  22.971  1.00  0.00     0.050 A 
ATOM     75  C   UNL A   1      28.954  26.357  24.126  1.00  0.00     0.002 A 
ATOM     76  N   UNL A   1      31.642  29.350  22.057  1.00  0.00    -0.321 N 
ATOM     77  C   UNL A   1      28.834  27.513  23.340  1.00  0.00     0.014 A 
ATOM     78  C   UNL A   1      30.250  29.315  22.154  1.00  0.00     0.256 C 
ATOM     79  H   UNL A   1      32.146  30.039  21.566  1.00  0.00     0.170 HD
ATOM     80  O   UNL A   1      29.497  30.126  21.623  1.00  0.00    -0.269 OA
ENDBRANCH  64  67
ENDBRANCH  61  64
ENDBRANCH  57  59
ENDBRANCH  56  57
ENDBRANCH  55  56
ENDBRANCH   1  55
TORSDOF 13
ENDMDL
MODEL 2
REMARK VINA RESULT:     -12.2      2.525      3.782
REMARK SMILES O=C(OCCOC(=O)[C@@H]1CCCN1S(=O)(=O)c1ccc2c3c(cccc13)C(=O)N2)c1ccc(-c2c3nc(c(-c4ccccc4)c4ccc([nH]4)c(-c4ccccc4)c4nc(c(-c5ccccc5)c5ccc2[nH]5)C=C4)C=C3)cc1
REMARK SMILES IDX 4 1 3 2 2 3 1 4 30 5 31 6 77 7 32 8 76 9 33 10 34 11 35 12
REMARK SMILES IDX 70 13 36 14 75 15 69 16 71 17 37 18 74 19 68 20 67 21 38 23
REMARK SMILES IDX 60 24 45 25 59 26 46 27 49 28 58 29 72 30 47 31 48 32 57 34
REMARK SMILES IDX 73 35 50 36 39 37 40 38 44 39 41 40 43 41 42 42 61 43 62 44
REMARK SMILES IDX 66 45 63 46 65 47 64 48 51 49 52 50 56 51 53 52 55 53 54 54
REMARK SMILES IDX 5 55 6 56 7 57 8 58 9 59 10 60 13 61 11 62 12 63 14 64 15 65
REMARK SMILES IDX 16 66 17 67 18 68 26 69 19 70 21 71 25 72 20 73 22 74 24 75
REMARK SMILES IDX 29 76 23 77 27 78 28 80
REMARK H PARENT 71 22 49 33 29 79
REMARK Flexibility Score: inf
ROOT
ATOM      1  C   UNL A   1      37.131  21.770  24.691  1.00  0.00     0.275 C 
ENDROOT
BRANCH   1   2
ATOM      2  O   UNL A   1      37.705  22.865  25.438  1.00  0.00    -0.458 OA
BRANCH   2   3
ATOM      3  C   UNL A   1      38.861  22.913  26.148  1.00  0.00     0.338 C 
ATOM      4  O   UNL A   1      39.494  21.892  26.390  1.00  0.00    -0.246 OA
BRANCH   3   5
ATOM      5  C   UNL A   1      39.265  24.189  26.777  1.00  0.00     0.060 A 
ATOM      6  C   UNL A   1      38.947  24.502  28.100  1.00  0.00     0.016 A 
ATOM      7  C   UNL A   1      40.033  25.086  26.024  1.00  0.00     0.016 A 
ATOM      8  C   UNL A   1      39.576  25.550  28.751  1.00  0.00     0.010 A 
ATOM      9  C   UNL A   1      40.581  26.214  26.641  1.00  0.00     0.010 A 
ATOM     10  C   UNL A   1      40.384  26.420  28.020  1.00  0.00    -0.014 A 
BRANCH  10  11
ATOM     11  C   UNL A   1      40.599  27.753  28.603  1.00  0.00     0.031 A 
ATOM     12  C   UNL A   1      42.030  28.011  28.975  1.00  0.00     0.074 A 
ATOM     13  C   UNL A   1      39.646  28.702  28.681  1.00  0.00     0.049 A 
ATOM     14  N   UNL A   1      42.570  29.072  29.496  1.00  0.00    -0.248 NA
ATOM     15  C   UNL A   1      42.993  26.923  28.689  1.00  0.00     0.031 C 
ATOM     16  C   UNL A   1      38.266  28.602  28.200  1.00  0.00     0.029 A 
ATOM     17  N   UNL A   1      39.711  29.971  29.192  1.00  0.00    -0.354 N 
ATOM     18  C   UNL A   1      43.923  28.776  29.579  1.00  0.00     0.074 A 
ATOM     19  C   UNL A   1      44.125  27.424  29.136  1.00  0.00     0.031 C 
ATOM     20  C   UNL A   1      37.599  29.730  28.502  1.00  0.00     0.029 A 
ATOM     21  C   UNL A   1      38.517  30.655  29.147  1.00  0.00     0.049 A 
ATOM     22  H   UNL A   1      40.538  30.360  29.560  1.00  0.00     0.167 HD
ATOM     23  C   UNL A   1      44.931  29.590  29.935  1.00  0.00     0.031 A 
ATOM     24  C   UNL A   1      38.222  31.903  29.556  1.00  0.00     0.031 A 
ATOM     25  C   UNL A   1      44.726  30.940  30.339  1.00  0.00     0.049 A 
ATOM     26  C   UNL A   1      39.348  32.746  30.089  1.00  0.00     0.074 A 
ATOM     27  C   UNL A   1      45.659  31.860  30.759  1.00  0.00     0.029 A 
ATOM     28  N   UNL A   1      43.485  31.558  30.357  1.00  0.00    -0.354 N 
ATOM     29  N   UNL A   1      40.624  32.451  30.171  1.00  0.00    -0.248 NA
ATOM     30  C   UNL A   1      39.006  34.094  30.557  1.00  0.00     0.031 C 
ATOM     31  C   UNL A   1      44.976  33.036  31.064  1.00  0.00     0.029 A 
ATOM     32  C   UNL A   1      43.625  32.854  30.794  1.00  0.00     0.049 A 
ATOM     33  H   UNL A   1      42.636  31.133  30.097  1.00  0.00     0.167 HD
ATOM     34  C   UNL A   1      41.243  33.587  30.671  1.00  0.00     0.074 A 
ATOM     35  C   UNL A   1      40.203  34.578  30.864  1.00  0.00     0.031 C 
ATOM     36  C   UNL A   1      42.551  33.799  30.948  1.00  0.00     0.031 A 
BRANCH  23  37
ATOM     37  C   UNL A   1      46.310  29.022  29.874  1.00  0.00    -0.014 A 
ATOM     38  C   UNL A   1      47.060  29.096  28.688  1.00  0.00     0.009 A 
ATOM     39  C   UNL A   1      46.846  28.365  30.989  1.00  0.00     0.009 A 
ATOM     40  C   UNL A   1      48.323  28.512  28.619  1.00  0.00     0.001 A 
ATOM     41  C   UNL A   1      48.119  27.802  30.922  1.00  0.00     0.001 A 
ATOM     42  C   UNL A   1      48.855  27.874  29.739  1.00  0.00     0.000 A 
ENDBRANCH  23  37
BRANCH  24  43
ATOM     43  C   UNL A   1      36.842  32.448  29.442  1.00  0.00    -0.014 A 
ATOM     44  C   UNL A   1      35.931  32.315  30.502  1.00  0.00     0.009 A 
ATOM     45  C   UNL A   1      36.411  33.074  28.261  1.00  0.00     0.009 A 
ATOM     46  C   UNL A   1      34.614  32.767  30.371  1.00  0.00     0.001 A 
ATOM     47  C   UNL A   1      35.098  33.542  28.139  1.00  0.00     0.001 A 
ATOM     48  C   UNL A   1      34.198  33.379  29.191  1.00  0.00     0.000 A 
ENDBRANCH  24  43
BRANCH  36  49
ATOM     49  C   UNL A   1      42.939  35.141  31.480  1.00  0.00    -0.014 A 
ATOM     50  C   UNL A   1      42.948  35.377  32.861  1.00  0.00     0.009 A 
ATOM     51  C   UNL A   1      43.468  36.102  30.605  1.00  0.00     0.009 A 
ATOM     52  C   UNL A   1      43.489  36.558  33.361  1.00  0.00     0.001 A 
ATOM     53  C   UNL A   1      44.034  37.269  31.112  1.00  0.00     0.001 A 
ATOM     54  C   UNL A   1      44.045  37.495  32.488  1.00  0.00     0.000 A 
ENDBRANCH  36  49
ENDBRANCH  10  11
ENDBRANCH   3   5
ENDBRANCH   2   3
ENDBRANCH   1   2
BRANCH   1  55
ATOM     55  C   UNL A   1      35.590  21.614  24.650  1.00  0.00     0.274 C 
BRANCH  55  56
ATOM     56  O   UNL A   1      34.849  22.748  24.144  1.00  0.00    -0.461 OA
BRANCH  56  57
ATOM     57  C   UNL A   1      33.491  22.595  24.035  1.00  0.00     0.324 C 
ATOM     58  O   UNL A   1      32.962  21.859  23.208  1.00  0.00    -0.250 OA
BRANCH  57  59
ATOM     59  C   UNL A   1      32.682  23.441  24.999  1.00  0.00     0.183 C 
ATOM     60  C   UNL A   1      31.194  23.208  24.947  1.00  0.00     0.034 C 
ATOM     61  N   UNL A   1      32.756  24.931  25.154  1.00  0.00    -0.184 NA
ATOM     62  C   UNL A   1      30.632  24.085  26.038  1.00  0.00     0.019 C 
ATOM     63  C   UNL A   1      31.620  25.248  26.121  1.00  0.00     0.103 C 
BRANCH  61  64
ATOM     64  S   UNL A   1      32.673  25.962  23.769  1.00  0.00     0.244 S 
ATOM     65  O   UNL A   1      34.026  26.148  23.286  1.00  0.00    -0.207 OA
ATOM     66  O   UNL A   1      31.683  25.379  22.889  1.00  0.00    -0.207 OA
BRANCH  64  67
ATOM     67  C   UNL A   1      32.086  27.535  24.338  1.00  0.00     0.090 A 
ATOM     68  C   UNL A   1      30.835  27.949  23.833  1.00  0.00     0.024 A 
ATOM     69  C   UNL A   1      32.721  28.313  25.341  1.00  0.00     0.005 A 
ATOM     70  C   UNL A   1      30.297  29.223  24.065  1.00  0.00     0.028 A 
ATOM     71  C   UNL A   1      32.151  29.541  25.546  1.00  0.00     0.019 A 
ATOM     72  C   UNL A   1      33.801  28.034  26.213  1.00  0.00     0.010 A 
ATOM     73  C   UNL A   1      31.028  30.014  24.912  1.00  0.00     0.050 A 
ATOM     74  C   UNL A   1      32.538  30.495  26.473  1.00  0.00     0.050 A 
ATOM     75  C   UNL A   1      34.186  28.952  27.214  1.00  0.00     0.002 A 
ATOM     76  N   UNL A   1      30.779  31.289  25.373  1.00  0.00    -0.321 N 
ATOM     77  C   UNL A   1      33.569  30.204  27.358  1.00  0.00     0.014 A 
ATOM     78  C   UNL A   1      31.686  31.663  26.365  1.00  0.00     0.256 C 
ATOM     79  H   UNL A   1      30.051  31.865  25.043  1.00  0.00     0.170 HD
ATOM     80  O   UNL A   1      31.668  32.740  26.952  1.00  0.00    -0.269 OA
ENDBRANCH  64  67
ENDBRANCH  61  64
ENDBRANCH  57  59
ENDBRANCH  56  57
ENDBRANCH  55  56
ENDBRANCH   1  55
TORSDOF 13
ENDMDL
MODEL 3
REMARK VINA RESULT:     -12.1      3.764      9.065
REMARK SMILES O=C(OCCOC(=O)[C@@H]1CCCN1S(=O)(=O)c1ccc2c3c(cccc13)C(=O)N2)c1ccc(-c2c3nc(c(-c4ccccc4)c4ccc([nH]4)c(-c4ccccc4)c4nc(c(-c5ccccc5)c5ccc2[nH]5)C=C4)C=C3)cc1
REMARK SMILES IDX 4 1 3 2 2 3 1 4 30 5 31 6 77 7 32 8 76 9 33 10 34 11 35 12
REMARK SMILES IDX 70 13 36 14 75 15 69 16 71 17 37 18 74 19 68 20 67 21 38 23
REMARK SMILES IDX 60 24 45 25 59 26 46 27 49 28 58 29 72 30 47 31 48 32 57 34
REMARK SMILES IDX 73 35 50 36 39 37 40 38 44 39 41 40 43 41 42 42 61 43 62 44
REMARK SMILES IDX 66 45 63 46 65 47 64 48 51 49 52 50 56 51 53 52 55 53 54 54
REMARK SMILES IDX 5 55 6 56 7 57 8 58 9 59 10 60 13 61 11 62 12 63 14 64 15 65
REMARK SMILES IDX 16 66 17 67 18 68 26 69 19 70 21 71 25 72 20 73 22 74 24 75
REMARK SMILES IDX 29 76 23 77 27 78 28 80
REMARK H PARENT 71 22 49 33 29 79
REMARK Flexibility Score: inf
ROOT
ATOM      1  C   UNL A   1      31.732  31.772  27.005  1.00  0.00     0.275 C 
ENDROOT
BRANCH   1   2
ATOM      2  O   UNL A   1      32.296  33.102  26.993  1.00  0.00    -0.458 OA
BRANCH   2   3
ATOM      3  C   UNL A   1      32.933  33.779  27.982  1.00  0.00     0.338 C 
ATOM      4  O   UNL A   1      32.541  34.882  28.344  1.00  0.00    -0.246 OA
BRANCH   3   5
ATOM      5  C   UNL A   1      34.212  33.251  28.506  1.00  0.00     0.060 A 
ATOM      6  C   UNL A   1      35.430  33.477  27.864  1.00  0.00     0.016 A 
ATOM      7  C   UNL A   1      34.191  32.543  29.713  1.00  0.00     0.016 A 
ATOM      8  C   UNL A   1      36.629  33.233  28.512  1.00  0.00     0.010 A 
ATOM      9  C   UNL A   1      35.396  32.186  30.325  1.00  0.00     0.010 A 
ATOM     10  C   UNL A   1      36.618  32.573  29.740  1.00  0.00    -0.014 A 
BRANCH  10  11
ATOM     11  C   UNL A   1      37.865  31.898  30.128  1.00  0.00     0.031 A 
ATOM     12  C   UNL A   1      38.559  32.557  31.283  1.00  0.00     0.074 A 
ATOM     13  C   UNL A   1      38.287  30.734  29.596  1.00  0.00     0.049 A 
ATOM     14  N   UNL A   1      39.663  32.226  31.884  1.00  0.00    -0.248 NA
ATOM     15  C   UNL A   1      37.893  33.747  31.862  1.00  0.00     0.031 C 
ATOM     16  C   UNL A   1      37.601  29.933  28.580  1.00  0.00     0.029 A 
ATOM     17  N   UNL A   1      39.415  30.005  29.863  1.00  0.00    -0.354 N 
ATOM     18  C   UNL A   1      39.802  33.152  32.907  1.00  0.00     0.074 A 
ATOM     19  C   UNL A   1      38.730  34.104  32.813  1.00  0.00     0.031 C 
ATOM     20  C   UNL A   1      38.353  28.866  28.261  1.00  0.00     0.029 A 
ATOM     21  C   UNL A   1      39.549  28.875  29.088  1.00  0.00     0.049 A 
ATOM     22  H   UNL A   1      40.073  30.265  30.548  1.00  0.00     0.167 HD
ATOM     23  C   UNL A   1      40.716  33.170  33.892  1.00  0.00     0.031 A 
ATOM     24  C   UNL A   1      40.519  27.942  29.082  1.00  0.00     0.031 A 
ATOM     25  C   UNL A   1      41.754  32.202  33.999  1.00  0.00     0.049 A 
ATOM     26  C   UNL A   1      41.614  28.070  30.106  1.00  0.00     0.074 A 
ATOM     27  C   UNL A   1      42.766  32.130  34.929  1.00  0.00     0.029 A 
ATOM     28  N   UNL A   1      41.895  31.126  33.136  1.00  0.00    -0.354 N 
ATOM     29  N   UNL A   1      41.740  28.957  31.065  1.00  0.00    -0.248 NA
ATOM     30  C   UNL A   1      42.680  27.062  30.069  1.00  0.00     0.031 C 
ATOM     31  C   UNL A   1      43.545  31.018  34.610  1.00  0.00     0.029 A 
ATOM     32  C   UNL A   1      42.990  30.382  33.506  1.00  0.00     0.049 A 
ATOM     33  H   UNL A   1      41.301  30.926  32.377  1.00  0.00     0.167 HD
ATOM     34  C   UNL A   1      42.881  28.598  31.765  1.00  0.00     0.074 A 
ATOM     35  C   UNL A   1      43.405  27.407  31.126  1.00  0.00     0.031 C 
ATOM     36  C   UNL A   1      43.451  29.194  32.839  1.00  0.00     0.031 A 
BRANCH  23  37
ATOM     37  C   UNL A   1      40.592  34.259  34.906  1.00  0.00    -0.014 A 
ATOM     38  C   UNL A   1      39.820  34.069  36.065  1.00  0.00     0.009 A 
ATOM     39  C   UNL A   1      41.206  35.497  34.682  1.00  0.00     0.009 A 
ATOM     40  C   UNL A   1      39.660  35.108  36.980  1.00  0.00     0.001 A 
ATOM     41  C   UNL A   1      41.061  36.527  35.610  1.00  0.00     0.001 A 
ATOM     42  C   UNL A   1      40.288  36.333  36.756  1.00  0.00     0.000 A 
ENDBRANCH  23  37
BRANCH  24  43
ATOM     43  C   UNL A   1      40.488  26.799  28.130  1.00  0.00    -0.014 A 
ATOM     44  C   UNL A   1      41.093  26.903  26.868  1.00  0.00     0.009 A 
ATOM     45  C   UNL A   1      39.822  25.607  28.460  1.00  0.00     0.009 A 
ATOM     46  C   UNL A   1      41.006  25.854  25.947  1.00  0.00     0.001 A 
ATOM     47  C   UNL A   1      39.752  24.552  27.544  1.00  0.00     0.001 A 
ATOM     48  C   UNL A   1      40.336  24.679  26.285  1.00  0.00     0.000 A 
ENDBRANCH  24  43
BRANCH  36  49
ATOM     49  C   UNL A   1      44.692  28.576  33.398  1.00  0.00    -0.014 A 
ATOM     50  C   UNL A   1      44.603  27.532  34.327  1.00  0.00     0.009 A 
ATOM     51  C   UNL A   1      45.939  28.921  32.854  1.00  0.00     0.009 A 
ATOM     52  C   UNL A   1      45.749  26.833  34.700  1.00  0.00     0.001 A 
ATOM     53  C   UNL A   1      47.077  28.201  33.208  1.00  0.00     0.001 A 
ATOM     54  C   UNL A   1      46.980  27.158  34.129  1.00  0.00     0.000 A 
ENDBRANCH  36  49
ENDBRANCH  10  11
ENDBRANCH   3   5
ENDBRANCH   2   3
ENDBRANCH   1   2
BRANCH   1  55
ATOM     55  C   UNL A   1      32.439  30.648  26.207  1.00  0.00     0.274 C 
BRANCH  55  56
ATOM     56  O   UNL A   1      31.579  29.783  25.429  1.00  0.00    -0.461 OA
BRANCH  56  57
ATOM     57  C   UNL A   1      32.183  28.729  24.794  1.00  0.00     0.324 C 
ATOM     58  O   UNL A   1      33.228  28.836  24.159  1.00  0.00    -0.250 OA
BRANCH  57  59
ATOM     59  C   UNL A   1      31.436  27.414  24.904  1.00  0.00     0.183 C 
ATOM     60  C   UNL A   1      31.004  27.048  26.300  1.00  0.00     0.034 C 
ATOM     61  N   UNL A   1      31.883  26.088  24.361  1.00  0.00    -0.184 NA
ATOM     62  C   UNL A   1      30.221  25.769  26.135  1.00  0.00     0.019 C 
ATOM     63  C   UNL A   1      30.847  25.110  24.906  1.00  0.00     0.103 C 
BRANCH  61  64
ATOM     64  S   UNL A   1      33.481  25.507  24.673  1.00  0.00     0.244 S 
ATOM     65  O   UNL A   1      34.191  25.494  23.410  1.00  0.00    -0.207 OA
ATOM     66  O   UNL A   1      33.997  26.306  25.764  1.00  0.00    -0.207 OA
BRANCH  64  67
ATOM     67  C   UNL A   1      33.317  23.827  25.213  1.00  0.00     0.090 A 
ATOM     68  C   UNL A   1      33.415  23.611  26.604  1.00  0.00     0.024 A 
ATOM     69  C   UNL A   1      32.972  22.742  24.366  1.00  0.00     0.005 A 
ATOM     70  C   UNL A   1      33.454  22.334  27.182  1.00  0.00     0.028 A 
ATOM     71  C   UNL A   1      33.006  21.518  24.977  1.00  0.00     0.019 A 
ATOM     72  C   UNL A   1      32.541  22.694  23.017  1.00  0.00     0.010 A 
ATOM     73  C   UNL A   1      33.284  21.296  26.304  1.00  0.00     0.050 A 
ATOM     74  C   UNL A   1      32.692  20.294  24.408  1.00  0.00     0.050 A 
ATOM     75  C   UNL A   1      32.151  21.476  22.420  1.00  0.00     0.002 A 
ATOM     76  N   UNL A   1      33.238  19.938  26.533  1.00  0.00    -0.321 N 
ATOM     77  C   UNL A   1      32.228  20.251  23.100  1.00  0.00     0.014 A 
ATOM     78  C   UNL A   1      32.865  19.237  25.385  1.00  0.00     0.256 C 
ATOM     79  H   UNL A   1      33.442  19.515  27.399  1.00  0.00     0.170 HD
ATOM     80  O   UNL A   1      32.731  18.018  25.330  1.00  0.00    -0.269 OA
ENDBRANCH  64  67
ENDBRANCH  61  64
ENDBRANCH  57  59
ENDBRANCH  56  57
ENDBRANCH  55  56
ENDBRANCH   1  55
TORSDOF 13
ENDMDL
