MODEL 1
REMARK VINA RESULT:      -9.1      0.000      0.000
REMARK SMILES O=C(/C=C/c1cccs1)NCC(=O)OCCOC(=O)c1ccc(-c2c3nc(c(-c4ccccc4)c4ccc([nH]4)c(-c4ccccc4)c4nc(c(-c5ccccc5)c5ccc2[nH]5)C=C4)C=C3)cc1
REMARK SMILES IDX 15 1 14 2 12 3 13 4 11 5 10 6 1 7 2 8 3 10 4 11 5 12 6 13
REMARK SMILES IDX 9 14 7 15 8 16 16 17 17 18 18 19 19 20 20 21 21 22 67 23
REMARK SMILES IDX 22 24 66 25 23 26 24 27 25 28 60 29 26 30 65 31 59 32 61 33
REMARK SMILES IDX 27 34 64 35 58 36 57 37 28 39 50 40 35 41 49 42 36 43 39 44
REMARK SMILES IDX 48 45 62 46 37 47 38 48 47 50 63 51 40 52 29 53 30 54 34 55
REMARK SMILES IDX 31 56 33 57 32 58 51 59 52 60 56 61 53 62 55 63 54 64 41 65
REMARK SMILES IDX 42 66 46 67 43 68 45 69 44 70
REMARK H PARENT 10 9 61 38 39 49
REMARK Flexibility Score: inf
ROOT
ATOM      1  C   UNL A   1      33.366  37.126  30.695  1.00  0.00     0.274 C 
ENDROOT
BRANCH   1   2
ATOM      2  O   UNL A   1      33.871  36.218  31.689  1.00  0.00    -0.461 OA
BRANCH   2   3
ATOM      3  C   UNL A   1      34.123  36.734  32.922  1.00  0.00     0.325 C 
ATOM      4  O   UNL A   1      34.160  37.930  33.188  1.00  0.00    -0.250 OA
BRANCH   3   5
ATOM      5  C   UNL A   1      34.405  35.646  33.950  1.00  0.00     0.239 C 
BRANCH   5   6
ATOM      6  N   UNL A   1      35.058  34.451  33.433  1.00  0.00    -0.342 N 
ATOM      7  O   UNL A   1      36.205  34.060  35.364  1.00  0.00    -0.270 OA
ATOM      8  C   UNL A   1      35.888  33.718  34.229  1.00  0.00     0.244 C 
ATOM      9  H   UNL A   1      34.897  34.169  32.503  1.00  0.00     0.164 HD
BRANCH   8  10
ATOM     10  C   UNL A   1      36.416  32.435  33.707  1.00  0.00     0.072 C 
ATOM     11  C   UNL A   1      37.492  31.747  34.112  1.00  0.00     0.024 C 
BRANCH  11  12
ATOM     12  C   UNL A   1      37.882  30.555  33.425  1.00  0.00     0.027 A 
ATOM     13  C   UNL A   1      37.148  29.725  32.590  1.00  0.00     0.020 A 
ATOM     14  S   UNL A   1      39.497  29.970  33.569  1.00  0.00    -0.144 S 
ATOM     15  C   UNL A   1      37.889  28.606  32.110  1.00  0.00     0.012 A 
ATOM     16  C   UNL A   1      39.181  28.613  32.580  1.00  0.00     0.065 A 
ENDBRANCH  11  12
ENDBRANCH   8  10
ENDBRANCH   5   6
ENDBRANCH   3   5
ENDBRANCH   2   3
ENDBRANCH   1   2
BRANCH   1  17
ATOM     17  C   UNL A   1      32.639  36.345  29.598  1.00  0.00     0.275 C 
BRANCH  17  18
ATOM     18  O   UNL A   1      32.695  34.923  29.825  1.00  0.00    -0.458 OA
BRANCH  18  19
ATOM     19  C   UNL A   1      33.015  34.167  28.748  1.00  0.00     0.338 C 
ATOM     20  O   UNL A   1      32.386  34.052  27.707  1.00  0.00    -0.246 OA
BRANCH  19  21
ATOM     21  C   UNL A   1      34.357  33.585  28.934  1.00  0.00     0.060 A 
ATOM     22  C   UNL A   1      34.543  32.726  30.020  1.00  0.00     0.016 A 
ATOM     23  C   UNL A   1      35.429  33.907  28.096  1.00  0.00     0.016 A 
ATOM     24  C   UNL A   1      35.803  32.194  30.281  1.00  0.00     0.010 A 
ATOM     25  C   UNL A   1      36.696  33.372  28.359  1.00  0.00     0.010 A 
ATOM     26  C   UNL A   1      36.891  32.521  29.460  1.00  0.00    -0.014 A 
BRANCH  26  27
ATOM     27  C   UNL A   1      38.231  31.983  29.793  1.00  0.00     0.031 A 
ATOM     28  C   UNL A   1      39.147  32.742  30.710  1.00  0.00     0.074 A 
ATOM     29  C   UNL A   1      38.603  30.780  29.315  1.00  0.00     0.049 A 
ATOM     30  N   UNL A   1      40.334  32.410  31.151  1.00  0.00    -0.248 NA
ATOM     31  C   UNL A   1      38.664  34.043  31.196  1.00  0.00     0.031 C 
ATOM     32  C   UNL A   1      37.791  29.933  28.440  1.00  0.00     0.029 A 
ATOM     33  N   UNL A   1      39.752  30.058  29.513  1.00  0.00    -0.354 N 
ATOM     34  C   UNL A   1      40.745  33.461  31.960  1.00  0.00     0.074 A 
ATOM     35  C   UNL A   1      39.690  34.453  31.929  1.00  0.00     0.031 C 
ATOM     36  C   UNL A   1      38.461  28.795  28.193  1.00  0.00     0.029 A 
ATOM     37  C   UNL A   1      39.757  28.848  28.863  1.00  0.00     0.049 A 
ATOM     38  H   UNL A   1      40.501  30.377  30.067  1.00  0.00     0.167 HD
ATOM     39  C   UNL A   1      41.893  33.588  32.667  1.00  0.00     0.031 A 
ATOM     40  C   UNL A   1      40.703  27.892  28.809  1.00  0.00     0.031 A 
ATOM     41  C   UNL A   1      42.946  32.608  32.694  1.00  0.00     0.049 A 
ATOM     42  C   UNL A   1      41.987  28.078  29.567  1.00  0.00     0.074 A 
ATOM     43  C   UNL A   1      44.140  32.644  33.394  1.00  0.00     0.029 A 
ATOM     44  N   UNL A   1      42.933  31.416  31.987  1.00  0.00    -0.354 N 
ATOM     45  N   UNL A   1      42.352  29.070  30.343  1.00  0.00    -0.248 NA
ATOM     46  C   UNL A   1      42.987  27.008  29.444  1.00  0.00     0.031 C 
ATOM     47  C   UNL A   1      44.871  31.493  33.074  1.00  0.00     0.029 A 
ATOM     48  C   UNL A   1      44.109  30.719  32.215  1.00  0.00     0.049 A 
ATOM     49  H   UNL A   1      42.198  31.109  31.409  1.00  0.00     0.167 HD
ATOM     50  C   UNL A   1      43.613  28.735  30.815  1.00  0.00     0.074 A 
ATOM     51  C   UNL A   1      43.943  27.441  30.253  1.00  0.00     0.031 C 
ATOM     52  C   UNL A   1      44.428  29.437  31.640  1.00  0.00     0.031 A 
BRANCH  39  53
ATOM     53  C   UNL A   1      42.082  34.857  33.449  1.00  0.00    -0.014 A 
ATOM     54  C   UNL A   1      41.464  35.045  34.695  1.00  0.00     0.009 A 
ATOM     55  C   UNL A   1      42.917  35.866  32.944  1.00  0.00     0.009 A 
ATOM     56  C   UNL A   1      41.654  36.233  35.406  1.00  0.00     0.001 A 
ATOM     57  C   UNL A   1      43.124  37.042  33.668  1.00  0.00     0.001 A 
ATOM     58  C   UNL A   1      42.487  37.228  34.893  1.00  0.00     0.000 A 
ENDBRANCH  39  53
BRANCH  40  59
ATOM     59  C   UNL A   1      40.472  26.671  27.996  1.00  0.00    -0.014 A 
ATOM     60  C   UNL A   1      39.749  25.589  28.518  1.00  0.00     0.009 A 
ATOM     61  C   UNL A   1      40.978  26.584  26.690  1.00  0.00     0.009 A 
ATOM     62  C   UNL A   1      39.553  24.436  27.755  1.00  0.00     0.001 A 
ATOM     63  C   UNL A   1      40.759  25.441  25.920  1.00  0.00     0.001 A 
ATOM     64  C   UNL A   1      40.053  24.365  26.455  1.00  0.00     0.000 A 
ENDBRANCH  40  59
BRANCH  52  65
ATOM     65  C   UNL A   1      45.743  28.808  31.998  1.00  0.00    -0.014 A 
ATOM     66  C   UNL A   1      46.899  29.060  31.244  1.00  0.00     0.009 A 
ATOM     67  C   UNL A   1      45.831  27.965  33.118  1.00  0.00     0.009 A 
ATOM     68  C   UNL A   1      48.110  28.452  31.581  1.00  0.00     0.001 A 
ATOM     69  C   UNL A   1      47.048  27.378  33.467  1.00  0.00     0.001 A 
ATOM     70  C   UNL A   1      48.183  27.615  32.694  1.00  0.00     0.000 A 
ENDBRANCH  52  65
ENDBRANCH  26  27
ENDBRANCH  19  21
ENDBRANCH  18  19
ENDBRANCH  17  18
ENDBRANCH   1  17
TORSDOF 14
ENDMDL
MODEL 2
REMARK VINA RESULT:      -8.9      6.325     11.831
REMARK SMILES O=C(/C=C/c1cccs1)NCC(=O)OCCOC(=O)c1ccc(-c2c3nc(c(-c4ccccc4)c4ccc([nH]4)c(-c4ccccc4)c4nc(c(-c5ccccc5)c5ccc2[nH]5)C=C4)C=C3)cc1
REMARK SMILES IDX 15 1 14 2 12 3 13 4 11 5 10 6 1 7 2 8 3 10 4 11 5 12 6 13
REMARK SMILES IDX 9 14 7 15 8 16 16 17 17 18 18 19 19 20 20 21 21 22 67 23
REMARK SMILES IDX 22 24 66 25 23 26 24 27 25 28 60 29 26 30 65 31 59 32 61 33
REMARK SMILES IDX 27 34 64 35 58 36 57 37 28 39 50 40 35 41 49 42 36 43 39 44
REMARK SMILES IDX 48 45 62 46 37 47 38 48 47 50 63 51 40 52 29 53 30 54 34 55
REMARK SMILES IDX 31 56 33 57 32 58 51 59 52 60 56 61 53 62 55 63 54 64 41 65
REMARK SMILES IDX 42 66 46 67 43 68 45 69 44 70
REMARK H PARENT 10 9 61 38 39 49
REMARK Flexibility Score: inf
ROOT
ATOM      1  C   UNL A   1      44.258  18.057  26.495  1.00  0.00     0.274 C 
ENDROOT
BRANCH   1   2
ATOM      2  O   UNL A   1      44.944  18.025  25.232  1.00  0.00    -0.461 OA
BRANCH   2   3
ATOM      3  C   UNL A   1      45.939  18.936  25.049  1.00  0.00     0.325 C 
ATOM      4  O   UNL A   1      47.004  18.943  25.656  1.00  0.00    -0.250 OA
BRANCH   3   5
ATOM      5  C   UNL A   1      45.563  19.993  24.019  1.00  0.00     0.239 C 
BRANCH   5   6
ATOM      6  N   UNL A   1      45.733  21.374  24.449  1.00  0.00    -0.342 N 
ATOM      7  O   UNL A   1      44.221  22.185  22.947  1.00  0.00    -0.270 OA
ATOM      8  C   UNL A   1      44.988  22.369  23.887  1.00  0.00     0.244 C 
ATOM      9  H   UNL A   1      46.389  21.591  25.150  1.00  0.00     0.164 HD
BRANCH   8  10
ATOM     10  C   UNL A   1      45.093  23.734  24.454  1.00  0.00     0.072 C 
ATOM     11  C   UNL A   1      46.197  24.440  24.735  1.00  0.00     0.024 C 
BRANCH  11  12
ATOM     12  C   UNL A   1      46.089  25.726  25.352  1.00  0.00     0.027 A 
ATOM     13  C   UNL A   1      47.068  26.531  25.917  1.00  0.00     0.020 A 
ATOM     14  S   UNL A   1      44.554  26.503  25.454  1.00  0.00    -0.144 S 
ATOM     15  C   UNL A   1      46.559  27.746  26.459  1.00  0.00     0.012 A 
ATOM     16  C   UNL A   1      45.199  27.849  26.286  1.00  0.00     0.065 A 
ENDBRANCH  11  12
ENDBRANCH   8  10
ENDBRANCH   5   6
ENDBRANCH   3   5
ENDBRANCH   2   3
ENDBRANCH   1   2
BRANCH   1  17
ATOM     17  C   UNL A   1      42.745  18.072  26.265  1.00  0.00     0.275 C 
BRANCH  17  18
ATOM     18  O   UNL A   1      42.332  19.215  25.490  1.00  0.00    -0.458 OA
BRANCH  18  19
ATOM     19  C   UNL A   1      41.134  19.751  25.825  1.00  0.00     0.338 C 
ATOM     20  O   UNL A   1      40.032  19.235  25.717  1.00  0.00    -0.246 OA
BRANCH  19  21
ATOM     21  C   UNL A   1      41.343  21.041  26.507  1.00  0.00     0.060 A 
ATOM     22  C   UNL A   1      41.772  22.121  25.731  1.00  0.00     0.016 A 
ATOM     23  C   UNL A   1      41.172  21.187  27.888  1.00  0.00     0.016 A 
ATOM     24  C   UNL A   1      42.044  23.347  26.330  1.00  0.00     0.010 A 
ATOM     25  C   UNL A   1      41.446  22.422  28.489  1.00  0.00     0.010 A 
ATOM     26  C   UNL A   1      41.895  23.505  27.715  1.00  0.00    -0.014 A 
BRANCH  26  27
ATOM     27  C   UNL A   1      42.242  24.806  28.333  1.00  0.00     0.031 A 
ATOM     28  C   UNL A   1      43.655  25.092  28.756  1.00  0.00     0.074 A 
ATOM     29  C   UNL A   1      41.296  25.756  28.461  1.00  0.00     0.049 A 
ATOM     30  N   UNL A   1      44.157  26.185  29.270  1.00  0.00    -0.248 NA
ATOM     31  C   UNL A   1      44.630  24.006  28.574  1.00  0.00     0.031 C 
ATOM     32  C   UNL A   1      39.896  25.611  28.061  1.00  0.00     0.029 A 
ATOM     33  N   UNL A   1      41.377  27.034  28.950  1.00  0.00    -0.354 N 
ATOM     34  C   UNL A   1      45.503  25.920  29.482  1.00  0.00     0.074 A 
ATOM     35  C   UNL A   1      45.735  24.554  29.061  1.00  0.00     0.031 C 
ATOM     36  C   UNL A   1      39.253  26.766  28.302  1.00  0.00     0.029 A 
ATOM     37  C   UNL A   1      40.185  27.715  28.902  1.00  0.00     0.049 A 
ATOM     38  H   UNL A   1      42.209  27.426  29.302  1.00  0.00     0.167 HD
ATOM     39  C   UNL A   1      46.461  26.740  29.976  1.00  0.00     0.031 A 
ATOM     40  C   UNL A   1      39.878  28.963  29.302  1.00  0.00     0.031 A 
ATOM     41  C   UNL A   1      46.235  28.096  30.401  1.00  0.00     0.049 A 
ATOM     42  C   UNL A   1      40.950  29.838  29.888  1.00  0.00     0.074 A 
ATOM     43  C   UNL A   1      47.148  29.008  30.901  1.00  0.00     0.029 A 
ATOM     44  N   UNL A   1      45.004  28.735  30.378  1.00  0.00    -0.354 N 
ATOM     45  N   UNL A   1      42.223  29.578  30.064  1.00  0.00    -0.248 NA
ATOM     46  C   UNL A   1      40.541  31.179  30.327  1.00  0.00     0.031 C 
ATOM     47  C   UNL A   1      46.461  30.184  31.225  1.00  0.00     0.029 A 
ATOM     48  C   UNL A   1      45.130  30.021  30.878  1.00  0.00     0.049 A 
ATOM     49  H   UNL A   1      44.165  28.334  30.054  1.00  0.00     0.167 HD
ATOM     50  C   UNL A   1      42.770  30.728  30.615  1.00  0.00     0.074 A 
ATOM     51  C   UNL A   1      41.695  31.693  30.728  1.00  0.00     0.031 C 
ATOM     52  C   UNL A   1      44.049  30.965  30.995  1.00  0.00     0.031 A 
BRANCH  39  53
ATOM     53  C   UNL A   1      47.847  26.174  30.114  1.00  0.00    -0.014 A 
ATOM     54  C   UNL A   1      48.329  25.721  31.351  1.00  0.00     0.009 A 
ATOM     55  C   UNL A   1      48.669  26.065  28.982  1.00  0.00     0.009 A 
ATOM     56  C   UNL A   1      49.620  25.198  31.458  1.00  0.00     0.001 A 
ATOM     57  C   UNL A   1      49.950  25.520  29.086  1.00  0.00     0.001 A 
ATOM     58  C   UNL A   1      50.427  25.095  30.324  1.00  0.00     0.000 A 
ENDBRANCH  39  53
BRANCH  40  59
ATOM     59  C   UNL A   1      38.484  29.459  29.167  1.00  0.00    -0.014 A 
ATOM     60  C   UNL A   1      37.589  29.382  30.244  1.00  0.00     0.009 A 
ATOM     61  C   UNL A   1      38.044  30.011  27.954  1.00  0.00     0.009 A 
ATOM     62  C   UNL A   1      36.275  29.832  30.103  1.00  0.00     0.001 A 
ATOM     63  C   UNL A   1      36.737  30.484  27.824  1.00  0.00     0.001 A 
ATOM     64  C   UNL A   1      35.851  30.387  28.896  1.00  0.00     0.000 A 
ENDBRANCH  40  59
BRANCH  52  65
ATOM     65  C   UNL A   1      44.355  32.327  31.548  1.00  0.00    -0.014 A 
ATOM     66  C   UNL A   1      44.273  32.587  32.925  1.00  0.00     0.009 A 
ATOM     67  C   UNL A   1      44.750  33.359  30.682  1.00  0.00     0.009 A 
ATOM     68  C   UNL A   1      44.545  33.865  33.419  1.00  0.00     0.001 A 
ATOM     69  C   UNL A   1      45.044  34.628  31.182  1.00  0.00     0.001 A 
ATOM     70  C   UNL A   1      44.933  34.882  32.548  1.00  0.00     0.000 A 
ENDBRANCH  52  65
ENDBRANCH  26  27
ENDBRANCH  19  21
ENDBRANCH  18  19
ENDBRANCH  17  18
ENDBRANCH   1  17
TORSDOF 14
ENDMDL
MODEL 3
REMARK VINA RESULT:      -8.7      6.397     11.777
REMARK SMILES O=C(/C=C/c1cccs1)NCC(=O)OCCOC(=O)c1ccc(-c2c3nc(c(-c4ccccc4)c4ccc([nH]4)c(-c4ccccc4)c4nc(c(-c5ccccc5)c5ccc2[nH]5)C=C4)C=C3)cc1
REMARK SMILES IDX 15 1 14 2 12 3 13 4 11 5 10 6 1 7 2 8 3 10 4 11 5 12 6 13
REMARK SMILES IDX 9 14 7 15 8 16 16 17 17 18 18 19 19 20 20 21 21 22 67 23
REMARK SMILES IDX 22 24 66 25 23 26 24 27 25 28 60 29 26 30 65 31 59 32 61 33
REMARK SMILES IDX 27 34 64 35 58 36 57 37 28 39 50 40 35 41 49 42 36 43 39 44
REMARK SMILES IDX 48 45 62 46 37 47 38 48 47 50 63 51 40 52 29 53 30 54 34 55
REMARK SMILES IDX 31 56 33 57 32 58 51 59 52 60 56 61 53 62 55 63 54 64 41 65
REMARK SMILES IDX 42 66 46 67 43 68 45 69 44 70
REMARK H PARENT 10 9 61 38 39 49
REMARK Flexibility Score: inf
ROOT
ATOM      1  C   UNL A   1      44.516  18.363  25.761  1.00  0.00     0.274 C 
ENDROOT
BRANCH   1   2
ATOM      2  O   UNL A   1      44.496  18.187  24.334  1.00  0.00    -0.461 OA
BRANCH   2   3
ATOM      3  C   UNL A   1      44.961  19.220  23.580  1.00  0.00     0.325 C 
ATOM      4  O   UNL A   1      44.494  19.568  22.502  1.00  0.00    -0.250 OA
BRANCH   3   5
ATOM      5  C   UNL A   1      46.178  19.884  24.212  1.00  0.00     0.239 C 
BRANCH   5   6
ATOM      6  N   UNL A   1      46.167  21.341  24.210  1.00  0.00    -0.342 N 
ATOM      7  O   UNL A   1      45.074  21.484  26.206  1.00  0.00    -0.270 OA
ATOM      8  C   UNL A   1      45.641  22.029  25.264  1.00  0.00     0.244 C 
ATOM      9  H   UNL A   1      46.543  21.832  23.444  1.00  0.00     0.164 HD
BRANCH   8  10
ATOM     10  C   UNL A   1      45.781  23.504  25.283  1.00  0.00     0.072 C 
ATOM     11  C   UNL A   1      46.858  24.246  24.989  1.00  0.00     0.024 C 
BRANCH  11  12
ATOM     12  C   UNL A   1      46.813  25.668  25.140  1.00  0.00     0.027 A 
ATOM     13  C   UNL A   1      45.749  26.498  25.464  1.00  0.00     0.020 A 
ATOM     14  S   UNL A   1      48.248  26.599  24.929  1.00  0.00    -0.144 S 
ATOM     15  C   UNL A   1      46.099  27.879  25.496  1.00  0.00     0.012 A 
ATOM     16  C   UNL A   1      47.429  28.074  25.210  1.00  0.00     0.065 A 
ENDBRANCH  11  12
ENDBRANCH   8  10
ENDBRANCH   5   6
ENDBRANCH   3   5
ENDBRANCH   2   3
ENDBRANCH   1   2
BRANCH   1  17
ATOM     17  C   UNL A   1      43.087  18.520  26.286  1.00  0.00     0.275 C 
BRANCH  17  18
ATOM     18  O   UNL A   1      42.250  19.236  25.356  1.00  0.00    -0.458 OA
BRANCH  18  19
ATOM     19  C   UNL A   1      41.103  19.743  25.868  1.00  0.00     0.338 C 
ATOM     20  O   UNL A   1      40.016  19.192  25.946  1.00  0.00    -0.246 OA
BRANCH  19  21
ATOM     21  C   UNL A   1      41.374  21.055  26.484  1.00  0.00     0.060 A 
ATOM     22  C   UNL A   1      41.800  22.088  25.645  1.00  0.00     0.016 A 
ATOM     23  C   UNL A   1      41.265  21.264  27.863  1.00  0.00     0.016 A 
ATOM     24  C   UNL A   1      42.129  23.330  26.179  1.00  0.00     0.010 A 
ATOM     25  C   UNL A   1      41.596  22.515  28.398  1.00  0.00     0.010 A 
ATOM     26  C   UNL A   1      42.041  23.551  27.560  1.00  0.00    -0.014 A 
BRANCH  26  27
ATOM     27  C   UNL A   1      42.449  24.867  28.106  1.00  0.00     0.031 A 
ATOM     28  C   UNL A   1      41.427  25.945  28.327  1.00  0.00     0.074 A 
ATOM     29  C   UNL A   1      43.731  25.073  28.459  1.00  0.00     0.049 A 
ATOM     30  N   UNL A   1      41.585  27.141  28.836  1.00  0.00    -0.248 NA
ATOM     31  C   UNL A   1      40.046  25.639  27.924  1.00  0.00     0.031 C 
ATOM     32  C   UNL A   1      44.811  24.095  28.322  1.00  0.00     0.029 A 
ATOM     33  N   UNL A   1      44.337  26.168  29.018  1.00  0.00    -0.354 N 
ATOM     34  C   UNL A   1      40.330  27.733  28.809  1.00  0.00     0.074 A 
ATOM     35  C   UNL A   1      39.424  26.773  28.211  1.00  0.00     0.031 C 
ATOM     36  C   UNL A   1      45.946  24.629  28.805  1.00  0.00     0.029 A 
ATOM     37  C   UNL A   1      45.679  25.992  29.253  1.00  0.00     0.049 A 
ATOM     38  H   UNL A   1      43.857  27.001  29.232  1.00  0.00     0.167 HD
ATOM     39  C   UNL A   1      39.962  28.961  29.246  1.00  0.00     0.031 A 
ATOM     40  C   UNL A   1      46.593  26.837  29.766  1.00  0.00     0.031 A 
ATOM     41  C   UNL A   1      40.860  29.919  29.835  1.00  0.00     0.049 A 
ATOM     42  C   UNL A   1      46.167  28.211  30.203  1.00  0.00     0.074 A 
ATOM     43  C   UNL A   1      40.575  31.184  30.321  1.00  0.00     0.029 A 
ATOM     44  N   UNL A   1      42.220  29.720  30.014  1.00  0.00    -0.354 N 
ATOM     45  N   UNL A   1      44.972  28.748  30.188  1.00  0.00    -0.248 NA
ATOM     46  C   UNL A   1      47.219  29.091  30.730  1.00  0.00     0.031 C 
ATOM     47  C   UNL A   1      41.771  31.768  30.752  1.00  0.00     0.029 A 
ATOM     48  C   UNL A   1      42.792  30.847  30.581  1.00  0.00     0.049 A 
ATOM     49  H   UNL A   1      42.708  28.899  29.774  1.00  0.00     0.167 HD
ATOM     50  C   UNL A   1      45.124  30.021  30.721  1.00  0.00     0.074 A 
ATOM     51  C   UNL A   1      46.524  30.168  31.065  1.00  0.00     0.031 C 
ATOM     52  C   UNL A   1      44.188  30.983  30.908  1.00  0.00     0.031 A 
BRANCH  39  53
ATOM     53  C   UNL A   1      38.521  29.350  29.072  1.00  0.00    -0.014 A 
ATOM     54  C   UNL A   1      37.604  29.242  30.128  1.00  0.00     0.009 A 
ATOM     55  C   UNL A   1      38.084  29.862  27.841  1.00  0.00     0.009 A 
ATOM     56  C   UNL A   1      36.269  29.610  29.945  1.00  0.00     0.001 A 
ATOM     57  C   UNL A   1      36.755  30.252  27.667  1.00  0.00     0.001 A 
ATOM     58  C   UNL A   1      35.847  30.118  28.716  1.00  0.00     0.000 A 
ENDBRANCH  39  53
BRANCH  40  59
ATOM     59  C   UNL A   1      48.009  26.407  29.888  1.00  0.00    -0.014 A 
ATOM     60  C   UNL A   1      48.479  25.818  31.071  1.00  0.00     0.009 A 
ATOM     61  C   UNL A   1      48.898  26.588  28.818  1.00  0.00     0.009 A 
ATOM     62  C   UNL A   1      49.817  25.434  31.185  1.00  0.00     0.001 A 
ATOM     63  C   UNL A   1      50.228  26.180  28.925  1.00  0.00     0.001 A 
ATOM     64  C   UNL A   1      50.689  25.611  30.111  1.00  0.00     0.000 A 
ENDBRANCH  40  59
BRANCH  52  65
ATOM     65  C   UNL A   1      44.648  32.270  31.531  1.00  0.00    -0.014 A 
ATOM     66  C   UNL A   1      44.655  32.441  32.924  1.00  0.00     0.009 A 
ATOM     67  C   UNL A   1      45.098  33.318  30.714  1.00  0.00     0.009 A 
ATOM     68  C   UNL A   1      45.069  33.651  33.485  1.00  0.00     0.001 A 
ATOM     69  C   UNL A   1      45.535  34.518  31.278  1.00  0.00     0.001 A 
ATOM     70  C   UNL A   1      45.512  34.686  32.661  1.00  0.00     0.000 A 
ENDBRANCH  52  65
ENDBRANCH  26  27
ENDBRANCH  19  21
ENDBRANCH  18  19
ENDBRANCH  17  18
ENDBRANCH   1  17
TORSDOF 14
ENDMDL
