MODEL 1
REMARK VINA RESULT:     -11.5      0.000      0.000
REMARK SMILES COc1cc(C)c(S(=O)(=O)Nc2cc(C(=O)OCCOC(=O)c3ccc(-c4c5nc(c(-c6ccccc6)c6ccc([nH]6)c(-c6ccccc6)c6nc(c(-c7ccccc7)c7ccc4[nH]7)C=C6)C=C5)cc3)ccc2F)cc1OC
REMARK SMILES IDX 18 1 17 2 15 3 16 4 14 5 12 6 13 7 73 8 72 9 74 10 71 11
REMARK SMILES IDX 11 12 8 14 9 15 10 16 7 17 3 18 4 19 76 20 5 21 75 22 6 23
REMARK SMILES IDX 2 24 1 25 77 26 78 27 19 28 20 29 21 30 22 31 23 32 24 33
REMARK SMILES IDX 70 34 25 35 69 36 26 37 27 38 28 39 63 40 29 41 68 42 62 43
REMARK SMILES IDX 64 44 30 45 67 46 61 47 60 48 31 50 53 51 38 52 52 53 39 54
REMARK SMILES IDX 42 55 51 56 65 57 40 58 41 59 50 61 66 62 43 63 32 64 33 65
REMARK SMILES IDX 37 66 34 67 36 68 35 69 54 70 55 71 59 72 56 73 58 74 57 75
REMARK SMILES IDX 44 76 45 77 49 78 46 79 48 80 47 81
REMARK H PARENT 11 13 64 49 42 60
REMARK Flexibility Score: inf
ROOT
ATOM      1  C   UNL A   1      42.707  19.267  26.023  1.00  0.00     0.275 C 
ENDROOT
BRANCH   1   2
ATOM      2  O   UNL A   1      42.622  20.390  26.915  1.00  0.00    -0.458 OA
BRANCH   2   3
ATOM      3  C   UNL A   1      41.349  20.771  27.116  1.00  0.00     0.338 C 
ATOM      4  O   UNL A   1      40.458  20.095  27.604  1.00  0.00    -0.246 OA
BRANCH   3   5
ATOM      5  C   UNL A   1      40.986  22.096  26.618  1.00  0.00     0.062 A 
ATOM      6  C   UNL A   1      38.899  23.281  26.437  1.00  0.00     0.085 A 
ATOM      7  C   UNL A   1      39.666  22.161  26.136  1.00  0.00     0.045 A 
ATOM      8  C   UNL A   1      39.536  24.407  26.994  1.00  0.00     0.147 A 
ATOM      9  C   UNL A   1      40.883  24.383  27.363  1.00  0.00     0.042 A 
ATOM     10  F   UNL A   1      38.796  25.470  27.352  1.00  0.00    -0.205 F 
ATOM     11  C   UNL A   1      41.605  23.200  27.221  1.00  0.00     0.019 A 
BRANCH   6  12
ATOM     12  N   UNL A   1      37.474  23.224  26.569  1.00  0.00    -0.277 N 
ATOM     13  H   UNL A   1      37.131  23.090  27.482  1.00  0.00     0.180 HD
BRANCH  12  14
ATOM     14  S   UNL A   1      36.323  23.354  25.368  1.00  0.00     0.262 S 
ATOM     15  O   UNL A   1      37.022  23.280  24.098  1.00  0.00    -0.201 OA
ATOM     16  O   UNL A   1      35.533  24.512  25.719  1.00  0.00    -0.201 OA
BRANCH  14  17
ATOM     17  C   UNL A   1      35.191  21.962  25.404  1.00  0.00     0.094 A 
ATOM     18  C   UNL A   1      33.085  20.142  24.942  1.00  0.00     0.161 A 
ATOM     19  C   UNL A   1      34.425  19.791  24.760  1.00  0.00     0.055 A 
ATOM     20  C   UNL A   1      32.797  21.384  25.490  1.00  0.00     0.162 A 
ATOM     21  C   UNL A   1      35.509  20.645  25.077  1.00  0.00    -0.027 A 
ATOM     22  C   UNL A   1      33.843  22.302  25.663  1.00  0.00     0.073 A 
ATOM     23  C   UNL A   1      36.899  20.092  24.986  1.00  0.00     0.046 C 
BRANCH  18  24
ATOM     24  O   UNL A   1      32.093  19.398  24.355  1.00  0.00    -0.493 OA
ATOM     25  C   UNL A   1      32.383  18.008  24.243  1.00  0.00     0.278 C 
ENDBRANCH  18  24
BRANCH  20  26
ATOM     26  O   UNL A   1      31.545  21.854  25.788  1.00  0.00    -0.493 OA
ATOM     27  C   UNL A   1      31.299  23.201  25.385  1.00  0.00     0.278 C 
ENDBRANCH  20  26
ENDBRANCH  14  17
ENDBRANCH  12  14
ENDBRANCH   6  12
ENDBRANCH   3   5
ENDBRANCH   2   3
ENDBRANCH   1   2
BRANCH   1  28
ATOM     28  C   UNL A   1      43.878  19.364  25.047  1.00  0.00     0.275 C 
BRANCH  28  29
ATOM     29  O   UNL A   1      45.228  19.651  25.515  1.00  0.00    -0.458 OA
BRANCH  29  30
ATOM     30  C   UNL A   1      46.112  20.552  25.009  1.00  0.00     0.338 C 
ATOM     31  O   UNL A   1      47.091  20.217  24.392  1.00  0.00    -0.246 OA
BRANCH  30  32
ATOM     32  C   UNL A   1      45.904  21.981  25.393  1.00  0.00     0.060 A 
ATOM     33  C   UNL A   1      46.229  23.012  24.481  1.00  0.00     0.016 A 
ATOM     34  C   UNL A   1      45.319  22.306  26.600  1.00  0.00     0.016 A 
ATOM     35  C   UNL A   1      45.903  24.360  24.744  1.00  0.00     0.010 A 
ATOM     36  C   UNL A   1      44.924  23.611  26.814  1.00  0.00     0.010 A 
ATOM     37  C   UNL A   1      45.231  24.674  25.919  1.00  0.00    -0.014 A 
BRANCH  37  38
ATOM     38  C   UNL A   1      44.918  26.023  26.454  1.00  0.00     0.031 A 
ATOM     39  C   UNL A   1      43.620  26.759  26.368  1.00  0.00     0.074 A 
ATOM     40  C   UNL A   1      45.779  26.333  27.453  1.00  0.00     0.049 A 
ATOM     41  N   UNL A   1      43.104  27.325  27.407  1.00  0.00    -0.248 NA
ATOM     42  C   UNL A   1      42.756  26.948  25.196  1.00  0.00     0.031 C 
ATOM     43  C   UNL A   1      45.627  27.147  28.649  1.00  0.00     0.029 A 
ATOM     44  N   UNL A   1      47.134  25.995  27.461  1.00  0.00    -0.354 N 
ATOM     45  C   UNL A   1      41.868  27.822  27.094  1.00  0.00     0.074 A 
ATOM     46  C   UNL A   1      41.626  27.465  25.723  1.00  0.00     0.031 C 
ATOM     47  C   UNL A   1      46.851  27.503  29.083  1.00  0.00     0.029 A 
ATOM     48  C   UNL A   1      47.790  27.078  28.054  1.00  0.00     0.049 A 
ATOM     49  H   UNL A   1      47.542  25.166  27.121  1.00  0.00     0.167 HD
ATOM     50  C   UNL A   1      41.260  28.640  27.991  1.00  0.00     0.031 A 
ATOM     51  C   UNL A   1      48.455  27.927  27.209  1.00  0.00     0.031 A 
ATOM     52  C   UNL A   1      42.281  29.388  28.698  1.00  0.00     0.049 A 
ATOM     53  C   UNL A   1      47.817  29.301  27.174  1.00  0.00     0.074 A 
ATOM     54  C   UNL A   1      42.856  29.366  29.953  1.00  0.00     0.029 A 
ATOM     55  N   UNL A   1      43.077  30.200  27.905  1.00  0.00    -0.354 N 
ATOM     56  N   UNL A   1      46.562  29.542  27.452  1.00  0.00    -0.248 NA
ATOM     57  C   UNL A   1      48.562  30.521  26.889  1.00  0.00     0.031 C 
ATOM     58  C   UNL A   1      44.086  30.088  29.863  1.00  0.00     0.029 A 
ATOM     59  C   UNL A   1      44.218  30.570  28.569  1.00  0.00     0.049 A 
ATOM     60  H   UNL A   1      42.853  30.473  26.985  1.00  0.00     0.167 HD
ATOM     61  C   UNL A   1      46.350  30.892  27.498  1.00  0.00     0.074 A 
ATOM     62  C   UNL A   1      47.624  31.463  27.097  1.00  0.00     0.031 C 
ATOM     63  C   UNL A   1      45.160  31.439  27.879  1.00  0.00     0.031 A 
BRANCH  50  64
ATOM     64  C   UNL A   1      39.800  28.674  28.330  1.00  0.00    -0.014 A 
ATOM     65  C   UNL A   1      38.934  29.394  27.476  1.00  0.00     0.009 A 
ATOM     66  C   UNL A   1      39.258  28.233  29.548  1.00  0.00     0.009 A 
ATOM     67  C   UNL A   1      37.622  29.716  27.843  1.00  0.00     0.001 A 
ATOM     68  C   UNL A   1      37.935  28.541  29.911  1.00  0.00     0.001 A 
ATOM     69  C   UNL A   1      37.125  29.298  29.069  1.00  0.00     0.000 A 
ENDBRANCH  50  64
BRANCH  51  70
ATOM     70  C   UNL A   1      49.056  27.182  26.043  1.00  0.00    -0.014 A 
ATOM     71  C   UNL A   1      48.501  27.427  24.763  1.00  0.00     0.009 A 
ATOM     72  C   UNL A   1      50.355  26.649  26.100  1.00  0.00     0.009 A 
ATOM     73  C   UNL A   1      49.261  27.275  23.596  1.00  0.00     0.001 A 
ATOM     74  C   UNL A   1      51.103  26.470  24.922  1.00  0.00     0.001 A 
ATOM     75  C   UNL A   1      50.571  26.818  23.678  1.00  0.00     0.000 A 
ENDBRANCH  51  70
BRANCH  63  76
ATOM     76  C   UNL A   1      44.707  32.854  27.603  1.00  0.00    -0.014 A 
ATOM     77  C   UNL A   1      44.468  33.358  26.320  1.00  0.00     0.009 A 
ATOM     78  C   UNL A   1      44.287  33.660  28.689  1.00  0.00     0.009 A 
ATOM     79  C   UNL A   1      43.861  34.606  26.131  1.00  0.00     0.001 A 
ATOM     80  C   UNL A   1      43.630  34.877  28.505  1.00  0.00     0.001 A 
ATOM     81  C   UNL A   1      43.424  35.355  27.220  1.00  0.00     0.000 A 
ENDBRANCH  63  76
ENDBRANCH  37  38
ENDBRANCH  30  32
ENDBRANCH  29  30
ENDBRANCH  28  29
ENDBRANCH   1  28
TORSDOF 16
ENDMDL
MODEL 2
REMARK VINA RESULT:     -11.5      5.724     11.281
REMARK SMILES COc1cc(C)c(S(=O)(=O)Nc2cc(C(=O)OCCOC(=O)c3ccc(-c4c5nc(c(-c6ccccc6)c6ccc([nH]6)c(-c6ccccc6)c6nc(c(-c7ccccc7)c7ccc4[nH]7)C=C6)C=C5)cc3)ccc2F)cc1OC
REMARK SMILES IDX 18 1 17 2 15 3 16 4 14 5 12 6 13 7 73 8 72 9 74 10 71 11
REMARK SMILES IDX 11 12 8 14 9 15 10 16 7 17 3 18 4 19 76 20 5 21 75 22 6 23
REMARK SMILES IDX 2 24 1 25 77 26 78 27 19 28 20 29 21 30 22 31 23 32 24 33
REMARK SMILES IDX 70 34 25 35 69 36 26 37 27 38 28 39 63 40 29 41 68 42 62 43
REMARK SMILES IDX 64 44 30 45 67 46 61 47 60 48 31 50 53 51 38 52 52 53 39 54
REMARK SMILES IDX 42 55 51 56 65 57 40 58 41 59 50 61 66 62 43 63 32 64 33 65
REMARK SMILES IDX 37 66 34 67 36 68 35 69 54 70 55 71 59 72 56 73 58 74 57 75
REMARK SMILES IDX 44 76 45 77 49 78 46 79 48 80 47 81
REMARK H PARENT 11 13 64 49 42 60
REMARK Flexibility Score: inf
ROOT
ATOM      1  C   UNL A   1      33.361  36.014  28.773  1.00  0.00     0.275 C 
ENDROOT
BRANCH   1   2
ATOM      2  O   UNL A   1      34.184  34.846  28.629  1.00  0.00    -0.458 OA
BRANCH   2   3
ATOM      3  C   UNL A   1      33.480  33.792  28.180  1.00  0.00     0.338 C 
ATOM      4  O   UNL A   1      32.398  33.830  27.615  1.00  0.00    -0.246 OA
BRANCH   3   5
ATOM      5  C   UNL A   1      34.030  32.473  28.482  1.00  0.00     0.062 A 
ATOM      6  C   UNL A   1      34.186  30.420  27.237  1.00  0.00     0.085 A 
ATOM      7  C   UNL A   1      33.401  31.437  27.769  1.00  0.00     0.045 A 
ATOM      8  C   UNL A   1      35.535  30.329  27.632  1.00  0.00     0.147 A 
ATOM      9  C   UNL A   1      36.131  31.297  28.443  1.00  0.00     0.042 A 
ATOM     10  F   UNL A   1      36.321  29.393  27.074  1.00  0.00    -0.205 F 
ATOM     11  C   UNL A   1      35.386  32.409  28.832  1.00  0.00     0.019 A 
BRANCH   6  12
ATOM     12  N   UNL A   1      33.821  29.710  26.047  1.00  0.00    -0.277 N 
ATOM     13  H   UNL A   1      34.180  30.069  25.204  1.00  0.00     0.180 HD
BRANCH  12  14
ATOM     14  S   UNL A   1      32.862  28.351  25.913  1.00  0.00     0.262 S 
ATOM     15  O   UNL A   1      31.591  28.780  25.358  1.00  0.00    -0.201 OA
ATOM     16  O   UNL A   1      32.932  27.704  27.204  1.00  0.00    -0.201 OA
BRANCH  14  17
ATOM     17  C   UNL A   1      33.557  27.182  24.743  1.00  0.00     0.094 A 
ATOM     18  C   UNL A   1      34.125  24.925  23.147  1.00  0.00     0.161 A 
ATOM     19  C   UNL A   1      33.782  26.162  22.593  1.00  0.00     0.055 A 
ATOM     20  C   UNL A   1      34.315  24.848  24.519  1.00  0.00     0.162 A 
ATOM     21  C   UNL A   1      33.589  27.337  23.359  1.00  0.00    -0.027 A 
ATOM     22  C   UNL A   1      33.976  25.956  25.309  1.00  0.00     0.073 A 
ATOM     23  C   UNL A   1      33.382  28.632  22.632  1.00  0.00     0.046 C 
BRANCH  18  24
ATOM     24  O   UNL A   1      34.014  23.782  22.397  1.00  0.00    -0.493 OA
ATOM     25  C   UNL A   1      32.736  23.159  22.453  1.00  0.00     0.278 C 
ENDBRANCH  18  24
BRANCH  20  26
ATOM     26  O   UNL A   1      34.710  23.732  25.209  1.00  0.00    -0.493 OA
ATOM     27  C   UNL A   1      34.099  23.569  26.488  1.00  0.00     0.278 C 
ENDBRANCH  20  26
ENDBRANCH  14  17
ENDBRANCH  12  14
ENDBRANCH   6  12
ENDBRANCH   3   5
ENDBRANCH   2   3
ENDBRANCH   1   2
BRANCH   1  28
ATOM     28  C   UNL A   1      33.010  36.327  30.226  1.00  0.00     0.275 C 
BRANCH  28  29
ATOM     29  O   UNL A   1      33.039  35.288  31.248  1.00  0.00    -0.458 OA
BRANCH  29  30
ATOM     30  C   UNL A   1      33.862  35.201  32.327  1.00  0.00     0.338 C 
ATOM     31  O   UNL A   1      33.752  35.929  33.280  1.00  0.00    -0.246 OA
BRANCH  30  32
ATOM     32  C   UNL A   1      35.021  34.265  32.210  1.00  0.00     0.060 A 
ATOM     33  C   UNL A   1      36.133  34.618  31.410  1.00  0.00     0.016 A 
ATOM     34  C   UNL A   1      35.057  33.095  32.940  1.00  0.00     0.016 A 
ATOM     35  C   UNL A   1      37.309  33.836  31.397  1.00  0.00     0.010 A 
ATOM     36  C   UNL A   1      36.238  32.384  32.992  1.00  0.00     0.010 A 
ATOM     37  C   UNL A   1      37.377  32.708  32.204  1.00  0.00    -0.014 A 
BRANCH  37  38
ATOM     38  C   UNL A   1      38.449  31.680  32.241  1.00  0.00     0.031 A 
ATOM     39  C   UNL A   1      38.456  30.347  31.565  1.00  0.00     0.074 A 
ATOM     40  C   UNL A   1      39.632  32.260  32.554  1.00  0.00     0.049 A 
ATOM     41  N   UNL A   1      39.480  29.948  30.888  1.00  0.00    -0.248 NA
ATOM     42  C   UNL A   1      37.392  29.337  31.533  1.00  0.00     0.031 C 
ATOM     43  C   UNL A   1      41.001  31.935  32.184  1.00  0.00     0.029 A 
ATOM     44  N   UNL A   1      39.783  33.302  33.471  1.00  0.00    -0.354 N 
ATOM     45  C   UNL A   1      39.191  28.760  30.274  1.00  0.00     0.074 A 
ATOM     46  C   UNL A   1      37.825  28.458  30.605  1.00  0.00     0.031 C 
ATOM     47  C   UNL A   1      41.833  32.514  33.070  1.00  0.00     0.029 A 
ATOM     48  C   UNL A   1      40.992  33.054  34.129  1.00  0.00     0.049 A 
ATOM     49  H   UNL A   1      39.167  34.055  33.622  1.00  0.00     0.167 HD
ATOM     50  C   UNL A   1      40.209  28.074  29.694  1.00  0.00     0.031 A 
ATOM     51  C   UNL A   1      40.904  32.537  35.394  1.00  0.00     0.031 A 
ATOM     52  C   UNL A   1      41.422  28.325  30.448  1.00  0.00     0.049 A 
ATOM     53  C   UNL A   1      41.445  31.123  35.463  1.00  0.00     0.074 A 
ATOM     54  C   UNL A   1      42.573  29.069  30.281  1.00  0.00     0.029 A 
ATOM     55  N   UNL A   1      41.388  27.928  31.775  1.00  0.00    -0.354 N 
ATOM     56  N   UNL A   1      41.500  30.301  34.447  1.00  0.00    -0.248 NA
ATOM     57  C   UNL A   1      42.028  30.548  36.669  1.00  0.00     0.031 C 
ATOM     58  C   UNL A   1      43.170  29.212  31.572  1.00  0.00     0.029 A 
ATOM     59  C   UNL A   1      42.396  28.519  32.492  1.00  0.00     0.049 A 
ATOM     60  H   UNL A   1      40.726  27.304  32.154  1.00  0.00     0.167 HD
ATOM     61  C   UNL A   1      42.196  29.177  34.800  1.00  0.00     0.074 A 
ATOM     62  C   UNL A   1      42.470  29.361  36.214  1.00  0.00     0.031 C 
ATOM     63  C   UNL A   1      42.511  28.196  33.906  1.00  0.00     0.031 A 
BRANCH  50  64
ATOM     64  C   UNL A   1      40.157  27.308  28.407  1.00  0.00    -0.014 A 
ATOM     65  C   UNL A   1      39.577  26.020  28.420  1.00  0.00     0.009 A 
ATOM     66  C   UNL A   1      40.837  27.679  27.236  1.00  0.00     0.009 A 
ATOM     67  C   UNL A   1      39.724  25.123  27.354  1.00  0.00     0.001 A 
ATOM     68  C   UNL A   1      40.972  26.787  26.157  1.00  0.00     0.001 A 
ATOM     69  C   UNL A   1      40.433  25.504  26.224  1.00  0.00     0.000 A 
ENDBRANCH  50  64
BRANCH  51  70
ATOM     70  C   UNL A   1      39.703  33.079  36.128  1.00  0.00    -0.014 A 
ATOM     71  C   UNL A   1      38.658  32.169  36.422  1.00  0.00     0.009 A 
ATOM     72  C   UNL A   1      39.776  34.257  36.891  1.00  0.00     0.009 A 
ATOM     73  C   UNL A   1      37.807  32.362  37.518  1.00  0.00     0.001 A 
ATOM     74  C   UNL A   1      38.899  34.460  37.972  1.00  0.00     0.001 A 
ATOM     75  C   UNL A   1      37.944  33.498  38.307  1.00  0.00     0.000 A 
ENDBRANCH  51  70
BRANCH  63  76
ATOM     76  C   UNL A   1      42.921  26.783  34.252  1.00  0.00    -0.014 A 
ATOM     77  C   UNL A   1      42.186  25.945  35.098  1.00  0.00     0.009 A 
ATOM     78  C   UNL A   1      43.977  26.181  33.525  1.00  0.00     0.009 A 
ATOM     79  C   UNL A   1      42.500  24.586  35.226  1.00  0.00     0.001 A 
ATOM     80  C   UNL A   1      44.256  24.816  33.606  1.00  0.00     0.001 A 
ATOM     81  C   UNL A   1      43.519  24.018  34.467  1.00  0.00     0.000 A 
ENDBRANCH  63  76
ENDBRANCH  37  38
ENDBRANCH  30  32
ENDBRANCH  29  30
ENDBRANCH  28  29
ENDBRANCH   1  28
TORSDOF 16
ENDMDL
MODEL 3
REMARK VINA RESULT:     -11.5      6.266     11.778
REMARK SMILES COc1cc(C)c(S(=O)(=O)Nc2cc(C(=O)OCCOC(=O)c3ccc(-c4c5nc(c(-c6ccccc6)c6ccc([nH]6)c(-c6ccccc6)c6nc(c(-c7ccccc7)c7ccc4[nH]7)C=C6)C=C5)cc3)ccc2F)cc1OC
REMARK SMILES IDX 18 1 17 2 15 3 16 4 14 5 12 6 13 7 73 8 72 9 74 10 71 11
REMARK SMILES IDX 11 12 8 14 9 15 10 16 7 17 3 18 4 19 76 20 5 21 75 22 6 23
REMARK SMILES IDX 2 24 1 25 77 26 78 27 19 28 20 29 21 30 22 31 23 32 24 33
REMARK SMILES IDX 70 34 25 35 69 36 26 37 27 38 28 39 63 40 29 41 68 42 62 43
REMARK SMILES IDX 64 44 30 45 67 46 61 47 60 48 31 50 53 51 38 52 52 53 39 54
REMARK SMILES IDX 42 55 51 56 65 57 40 58 41 59 50 61 66 62 43 63 32 64 33 65
REMARK SMILES IDX 37 66 34 67 36 68 35 69 54 70 55 71 59 72 56 73 58 74 57 75
REMARK SMILES IDX 44 76 45 77 49 78 46 79 48 80 47 81
REMARK H PARENT 11 13 64 49 42 60
REMARK Flexibility Score: inf
ROOT
ATOM      1  C   UNL A   1      33.280  35.682  29.364  1.00  0.00     0.275 C 
ENDROOT
BRANCH   1   2
ATOM      2  O   UNL A   1      33.505  34.274  29.536  1.00  0.00    -0.458 OA
BRANCH   2   3
ATOM      3  C   UNL A   1      34.352  33.787  28.614  1.00  0.00     0.338 C 
ATOM      4  O   UNL A   1      34.605  34.284  27.528  1.00  0.00    -0.246 OA
BRANCH   3   5
ATOM      5  C   UNL A   1      34.955  32.490  28.912  1.00  0.00     0.062 A 
ATOM      6  C   UNL A   1      35.117  30.421  27.695  1.00  0.00     0.085 A 
ATOM      7  C   UNL A   1      34.326  31.423  28.245  1.00  0.00     0.045 A 
ATOM      8  C   UNL A   1      36.484  30.376  28.030  1.00  0.00     0.147 A 
ATOM      9  C   UNL A   1      37.086  31.376  28.797  1.00  0.00     0.042 A 
ATOM     10  F   UNL A   1      37.273  29.454  27.452  1.00  0.00    -0.205 F 
ATOM     11  C   UNL A   1      36.326  32.472  29.201  1.00  0.00     0.019 A 
BRANCH   6  12
ATOM     12  N   UNL A   1      34.720  29.680  26.535  1.00  0.00    -0.277 N 
ATOM     13  H   UNL A   1      35.206  29.888  25.704  1.00  0.00     0.180 HD
BRANCH  12  14
ATOM     14  S   UNL A   1      33.537  28.508  26.417  1.00  0.00     0.262 S 
ATOM     15  O   UNL A   1      32.730  28.595  27.620  1.00  0.00    -0.201 OA
ATOM     16  O   UNL A   1      34.237  27.292  26.072  1.00  0.00    -0.201 OA
BRANCH  14  17
ATOM     17  C   UNL A   1      32.433  28.841  25.041  1.00  0.00     0.094 A 
ATOM     18  C   UNL A   1      30.465  28.705  23.024  1.00  0.00     0.161 A 
ATOM     19  C   UNL A   1      30.420  29.659  24.044  1.00  0.00     0.055 A 
ATOM     20  C   UNL A   1      31.583  27.887  22.935  1.00  0.00     0.162 A 
ATOM     21  C   UNL A   1      31.441  29.820  25.012  1.00  0.00    -0.027 A 
ATOM     22  C   UNL A   1      32.527  27.922  23.971  1.00  0.00     0.073 A 
ATOM     23  C   UNL A   1      31.350  30.982  25.954  1.00  0.00     0.046 C 
BRANCH  18  24
ATOM     24  O   UNL A   1      29.333  28.411  22.308  1.00  0.00    -0.493 OA
ATOM     25  C   UNL A   1      28.242  29.298  22.532  1.00  0.00     0.278 C 
ENDBRANCH  18  24
BRANCH  20  26
ATOM     26  O   UNL A   1      31.808  26.947  21.964  1.00  0.00    -0.493 OA
ATOM     27  C   UNL A   1      33.033  26.227  22.100  1.00  0.00     0.278 C 
ENDBRANCH  20  26
ENDBRANCH  14  17
ENDBRANCH  12  14
ENDBRANCH   6  12
ENDBRANCH   3   5
ENDBRANCH   2   3
ENDBRANCH   1   2
BRANCH   1  28
ATOM     28  C   UNL A   1      32.953  36.402  30.671  1.00  0.00     0.275 C 
BRANCH  28  29
ATOM     29  O   UNL A   1      33.146  35.749  31.960  1.00  0.00    -0.458 OA
BRANCH  29  30
ATOM     30  C   UNL A   1      34.100  36.011  32.893  1.00  0.00     0.338 C 
ATOM     31  O   UNL A   1      34.127  37.042  33.514  1.00  0.00    -0.246 OA
BRANCH  30  32
ATOM     32  C   UNL A   1      35.218  35.025  33.000  1.00  0.00     0.060 A 
ATOM     33  C   UNL A   1      35.277  34.142  34.104  1.00  0.00     0.016 A 
ATOM     34  C   UNL A   1      36.152  34.908  31.990  1.00  0.00     0.016 A 
ATOM     35  C   UNL A   1      36.224  33.097  34.163  1.00  0.00     0.010 A 
ATOM     36  C   UNL A   1      37.016  33.833  32.010  1.00  0.00     0.010 A 
ATOM     37  C   UNL A   1      37.103  32.924  33.101  1.00  0.00    -0.014 A 
BRANCH  37  38
ATOM     38  C   UNL A   1      38.254  31.990  33.017  1.00  0.00     0.031 A 
ATOM     39  C   UNL A   1      38.310  30.673  32.311  1.00  0.00     0.074 A 
ATOM     40  C   UNL A   1      39.410  32.662  33.238  1.00  0.00     0.049 A 
ATOM     41  N   UNL A   1      39.298  30.374  31.537  1.00  0.00    -0.248 NA
ATOM     42  C   UNL A   1      37.334  29.578  32.349  1.00  0.00     0.031 C 
ATOM     43  C   UNL A   1      40.762  32.460  32.740  1.00  0.00     0.029 A 
ATOM     44  N   UNL A   1      39.557  33.697  34.163  1.00  0.00    -0.354 N 
ATOM     45  C   UNL A   1      39.054  29.176  30.921  1.00  0.00     0.074 A 
ATOM     46  C   UNL A   1      37.753  28.755  31.364  1.00  0.00     0.031 C 
ATOM     47  C   UNL A   1      41.619  33.091  33.563  1.00  0.00     0.029 A 
ATOM     48  C   UNL A   1      40.836  33.541  34.705  1.00  0.00     0.049 A 
ATOM     49  H   UNL A   1      38.897  34.393  34.387  1.00  0.00     0.167 HD
ATOM     50  C   UNL A   1      40.068  28.589  30.237  1.00  0.00     0.031 A 
ATOM     51  C   UNL A   1      40.905  32.996  35.961  1.00  0.00     0.031 A 
ATOM     52  C   UNL A   1      41.320  28.928  30.886  1.00  0.00     0.049 A 
ATOM     53  C   UNL A   1      41.565  31.632  35.947  1.00  0.00     0.074 A 
ATOM     54  C   UNL A   1      42.386  29.769  30.636  1.00  0.00     0.029 A 
ATOM     55  N   UNL A   1      41.439  28.507  32.201  1.00  0.00    -0.354 N 
ATOM     56  N   UNL A   1      41.596  30.835  34.910  1.00  0.00    -0.248 NA
ATOM     57  C   UNL A   1      42.300  31.088  37.081  1.00  0.00     0.031 C 
ATOM     58  C   UNL A   1      43.083  29.940  31.872  1.00  0.00     0.029 A 
ATOM     59  C   UNL A   1      42.456  29.169  32.840  1.00  0.00     0.049 A 
ATOM     60  H   UNL A   1      40.868  27.823  32.621  1.00  0.00     0.167 HD
ATOM     61  C   UNL A   1      42.411  29.768  35.172  1.00  0.00     0.074 A 
ATOM     62  C   UNL A   1      42.796  29.950  36.560  1.00  0.00     0.031 C 
ATOM     63  C   UNL A   1      42.724  28.832  34.230  1.00  0.00     0.031 A 
BRANCH  50  64
ATOM     64  C   UNL A   1      39.964  27.843  28.940  1.00  0.00    -0.014 A 
ATOM     65  C   UNL A   1      39.503  26.508  28.974  1.00  0.00     0.009 A 
ATOM     66  C   UNL A   1      40.497  28.293  27.722  1.00  0.00     0.009 A 
ATOM     67  C   UNL A   1      39.627  25.647  27.877  1.00  0.00     0.001 A 
ATOM     68  C   UNL A   1      40.608  27.435  26.614  1.00  0.00     0.001 A 
ATOM     69  C   UNL A   1      40.192  26.109  26.697  1.00  0.00     0.000 A 
ENDBRANCH  50  64
BRANCH  51  70
ATOM     70  C   UNL A   1      39.736  33.423  36.811  1.00  0.00    -0.014 A 
ATOM     71  C   UNL A   1      38.709  32.470  37.027  1.00  0.00     0.009 A 
ATOM     72  C   UNL A   1      39.834  34.491  37.719  1.00  0.00     0.009 A 
ATOM     73  C   UNL A   1      37.908  32.506  38.174  1.00  0.00     0.001 A 
ATOM     74  C   UNL A   1      39.005  34.539  38.854  1.00  0.00     0.001 A 
ATOM     75  C   UNL A   1      38.072  33.530  39.100  1.00  0.00     0.000 A 
ENDBRANCH  51  70
BRANCH  63  76
ATOM     76  C   UNL A   1      43.278  27.453  34.503  1.00  0.00    -0.014 A 
ATOM     77  C   UNL A   1      42.566  26.446  35.165  1.00  0.00     0.009 A 
ATOM     78  C   UNL A   1      44.488  27.067  33.877  1.00  0.00     0.009 A 
ATOM     79  C   UNL A   1      43.046  25.131  35.216  1.00  0.00     0.001 A 
ATOM     80  C   UNL A   1      44.940  25.747  33.876  1.00  0.00     0.001 A 
ATOM     81  C   UNL A   1      44.219  24.778  34.555  1.00  0.00     0.000 A 
ENDBRANCH  63  76
ENDBRANCH  37  38
ENDBRANCH  30  32
ENDBRANCH  29  30
ENDBRANCH  28  29
ENDBRANCH   1  28
TORSDOF 16
ENDMDL
