MODEL 1
REMARK VINA RESULT:      -9.6      0.000      0.000
REMARK SMILES COCCN(CC(=O)OCCOC(=O)c1ccc(-c2c3nc(c(-c4ccccc4)c4ccc([nH]4)c(-c4ccccc4)c4nc(c(-c5ccccc5)c5ccc2[nH]5)C=C4)C=C3)cc1)C(=O)c1cccc(N)c1
REMARK SMILES IDX 10 1 9 2 7 3 8 4 6 5 5 6 4 7 3 8 2 9 1 10 63 11 64 12 65 13
REMARK SMILES IDX 66 14 71 15 67 16 69 17 68 18 70 19 11 22 12 23 13 24 14 25
REMARK SMILES IDX 15 26 16 27 62 28 17 29 61 30 18 31 19 32 20 33 55 34 21 35
REMARK SMILES IDX 60 36 54 37 56 38 22 39 59 40 53 41 52 42 23 44 45 45 30 46
REMARK SMILES IDX 44 47 31 48 34 49 43 50 57 51 32 52 33 53 42 55 58 56 35 57
REMARK SMILES IDX 24 58 25 59 29 60 26 61 28 62 27 63 46 64 47 65 51 66 48 67
REMARK SMILES IDX 50 68 49 69 36 70 37 71 41 72 38 73 40 74 39 75
REMARK H PARENT 70 20 70 21 56 43 34 54
REMARK Flexibility Score: inf
ROOT
ATOM      1  C   UNL A   1      37.747  21.067  25.350  1.00  0.00     0.274 C 
ENDROOT
BRANCH   1   2
ATOM      2  O   UNL A   1      36.440  21.117  24.723  1.00  0.00    -0.461 OA
BRANCH   2   3
ATOM      3  C   UNL A   1      36.078  22.322  24.205  1.00  0.00     0.325 C 
ATOM      4  O   UNL A   1      36.161  22.601  23.008  1.00  0.00    -0.250 OA
BRANCH   3   5
ATOM      5  C   UNL A   1      35.350  23.265  25.182  1.00  0.00     0.242 C 
BRANCH   5   6
ATOM      6  N   UNL A   1      33.886  23.281  25.312  1.00  0.00    -0.325 N 
BRANCH   6   7
ATOM      7  C   UNL A   1      33.349  24.015  26.467  1.00  0.00     0.149 C 
BRANCH   7   8
ATOM      8  C   UNL A   1      32.343  23.195  27.306  1.00  0.00     0.181 C 
BRANCH   8   9
ATOM      9  O   UNL A   1      31.032  23.759  27.259  1.00  0.00    -0.383 OA
ATOM     10  C   UNL A   1      30.047  22.860  26.774  1.00  0.00     0.194 C 
ENDBRANCH   8   9
ENDBRANCH   7   8
ENDBRANCH   6   7
BRANCH   6  11
ATOM     11  C   UNL A   1      32.964  22.722  24.415  1.00  0.00     0.254 C 
ATOM     12  O   UNL A   1      32.265  23.396  23.661  1.00  0.00    -0.269 OA
BRANCH  11  13
ATOM     13  C   UNL A   1      32.800  21.256  24.296  1.00  0.00     0.042 A 
ATOM     14  C   UNL A   1      32.478  20.668  23.069  1.00  0.00     0.014 A 
ATOM     15  C   UNL A   1      32.873  20.468  25.453  1.00  0.00     0.039 A 
ATOM     16  C   UNL A   1      32.297  19.288  22.991  1.00  0.00     0.003 A 
ATOM     17  C   UNL A   1      32.783  19.074  25.362  1.00  0.00     0.032 A 
ATOM     18  C   UNL A   1      32.456  18.496  24.132  1.00  0.00     0.025 A 
BRANCH  17  19
ATOM     19  N   UNL A   1      32.954  18.279  26.487  1.00  0.00    -0.399 N 
ATOM     20  H   UNL A   1      33.615  18.531  27.172  1.00  0.00     0.156 HD
ATOM     21  H   UNL A   1      32.413  17.465  26.602  1.00  0.00     0.156 HD
ENDBRANCH  17  19
ENDBRANCH  11  13
ENDBRANCH   6  11
ENDBRANCH   5   6
ENDBRANCH   3   5
ENDBRANCH   2   3
ENDBRANCH   1   2
BRANCH   1  22
ATOM     22  C   UNL A   1      38.634  19.903  24.848  1.00  0.00     0.275 C 
BRANCH  22  23
ATOM     23  O   UNL A   1      39.372  19.208  25.884  1.00  0.00    -0.458 OA
BRANCH  23  24
ATOM     24  C   UNL A   1      40.640  19.643  25.975  1.00  0.00     0.338 C 
ATOM     25  O   UNL A   1      41.618  19.027  25.589  1.00  0.00    -0.246 OA
BRANCH  24  26
ATOM     26  C   UNL A   1      40.873  20.974  26.511  1.00  0.00     0.060 A 
ATOM     27  C   UNL A   1      41.459  21.906  25.645  1.00  0.00     0.016 A 
ATOM     28  C   UNL A   1      40.869  21.176  27.891  1.00  0.00     0.016 A 
ATOM     29  C   UNL A   1      42.044  23.054  26.160  1.00  0.00     0.010 A 
ATOM     30  C   UNL A   1      41.429  22.346  28.405  1.00  0.00     0.010 A 
ATOM     31  C   UNL A   1      42.015  23.288  27.543  1.00  0.00    -0.014 A 
BRANCH  31  32
ATOM     32  C   UNL A   1      42.400  24.620  28.047  1.00  0.00     0.031 A 
ATOM     33  C   UNL A   1      41.410  25.714  28.285  1.00  0.00     0.074 A 
ATOM     34  C   UNL A   1      43.710  24.805  28.284  1.00  0.00     0.049 A 
ATOM     35  N   UNL A   1      41.630  26.937  28.693  1.00  0.00    -0.248 NA
ATOM     36  C   UNL A   1      39.994  25.402  28.045  1.00  0.00     0.031 C 
ATOM     37  C   UNL A   1      44.746  23.782  28.108  1.00  0.00     0.029 A 
ATOM     38  N   UNL A   1      44.396  25.908  28.711  1.00  0.00    -0.354 N 
ATOM     39  C   UNL A   1      40.385  27.545  28.765  1.00  0.00     0.074 A 
ATOM     40  C   UNL A   1      39.410  26.557  28.346  1.00  0.00     0.031 C 
ATOM     41  C   UNL A   1      45.938  24.310  28.410  1.00  0.00     0.029 A 
ATOM     42  C   UNL A   1      45.751  25.712  28.761  1.00  0.00     0.049 A 
ATOM     43  H   UNL A   1      43.961  26.756  28.959  1.00  0.00     0.167 HD
ATOM     44  C   UNL A   1      40.094  28.813  29.143  1.00  0.00     0.031 A 
ATOM     45  C   UNL A   1      46.745  26.576  29.023  1.00  0.00     0.031 A 
ATOM     46  C   UNL A   1      41.082  29.790  29.529  1.00  0.00     0.049 A 
ATOM     47  C   UNL A   1      46.400  27.989  29.361  1.00  0.00     0.074 A 
ATOM     48  C   UNL A   1      40.889  31.095  29.950  1.00  0.00     0.029 A 
ATOM     49  N   UNL A   1      42.451  29.570  29.525  1.00  0.00    -0.354 N 
ATOM     50  N   UNL A   1      45.216  28.545  29.443  1.00  0.00    -0.248 NA
ATOM     51  C   UNL A   1      47.522  28.890  29.644  1.00  0.00     0.031 C 
ATOM     52  C   UNL A   1      42.145  31.678  30.161  1.00  0.00     0.029 A 
ATOM     53  C   UNL A   1      43.118  30.724  29.907  1.00  0.00     0.049 A 
ATOM     54  H   UNL A   1      42.887  28.720  29.287  1.00  0.00     0.167 HD
ATOM     55  C   UNL A   1      45.446  29.864  29.797  1.00  0.00     0.074 A 
ATOM     56  C   UNL A   1      46.884  30.018  29.925  1.00  0.00     0.031 C 
ATOM     57  C   UNL A   1      44.548  30.857  30.002  1.00  0.00     0.031 A 
BRANCH  44  58
ATOM     58  C   UNL A   1      38.652  29.235  29.133  1.00  0.00    -0.014 A 
ATOM     59  C   UNL A   1      37.856  29.123  30.283  1.00  0.00     0.009 A 
ATOM     60  C   UNL A   1      38.104  29.819  27.981  1.00  0.00     0.009 A 
ATOM     61  C   UNL A   1      36.534  29.576  30.275  1.00  0.00     0.001 A 
ATOM     62  C   UNL A   1      36.786  30.284  27.980  1.00  0.00     0.001 A 
ATOM     63  C   UNL A   1      36.002  30.159  29.125  1.00  0.00     0.000 A 
ENDBRANCH  44  58
BRANCH  45  64
ATOM     64  C   UNL A   1      48.145  26.102  28.937  1.00  0.00    -0.014 A 
ATOM     65  C   UNL A   1      48.851  26.179  27.731  1.00  0.00     0.009 A 
ATOM     66  C   UNL A   1      48.807  25.659  30.094  1.00  0.00     0.009 A 
ATOM     67  C   UNL A   1      50.199  25.818  27.683  1.00  0.00     0.001 A 
ATOM     68  C   UNL A   1      50.159  25.319  30.047  1.00  0.00     0.001 A 
ATOM     69  C   UNL A   1      50.853  25.396  28.841  1.00  0.00     0.000 A 
ENDBRANCH  45  64
BRANCH  57  70
ATOM     70  C   UNL A   1      45.112  32.189  30.389  1.00  0.00    -0.014 A 
ATOM     71  C   UNL A   1      45.463  33.132  29.411  1.00  0.00     0.009 A 
ATOM     72  C   UNL A   1      45.304  32.500  31.743  1.00  0.00     0.009 A 
ATOM     73  C   UNL A   1      46.027  34.353  29.783  1.00  0.00     0.001 A 
ATOM     74  C   UNL A   1      45.850  33.729  32.111  1.00  0.00     0.001 A 
ATOM     75  C   UNL A   1      46.219  34.651  31.132  1.00  0.00     0.000 A 
ENDBRANCH  57  70
ENDBRANCH  31  32
ENDBRANCH  24  26
ENDBRANCH  23  24
ENDBRANCH  22  23
ENDBRANCH   1  22
TORSDOF 18
ENDMDL
MODEL 2
REMARK VINA RESULT:      -9.5      4.985     10.186
REMARK SMILES COCCN(CC(=O)OCCOC(=O)c1ccc(-c2c3nc(c(-c4ccccc4)c4ccc([nH]4)c(-c4ccccc4)c4nc(c(-c5ccccc5)c5ccc2[nH]5)C=C4)C=C3)cc1)C(=O)c1cccc(N)c1
REMARK SMILES IDX 10 1 9 2 7 3 8 4 6 5 5 6 4 7 3 8 2 9 1 10 63 11 64 12 65 13
REMARK SMILES IDX 66 14 71 15 67 16 69 17 68 18 70 19 11 22 12 23 13 24 14 25
REMARK SMILES IDX 15 26 16 27 62 28 17 29 61 30 18 31 19 32 20 33 55 34 21 35
REMARK SMILES IDX 60 36 54 37 56 38 22 39 59 40 53 41 52 42 23 44 45 45 30 46
REMARK SMILES IDX 44 47 31 48 34 49 43 50 57 51 32 52 33 53 42 55 58 56 35 57
REMARK SMILES IDX 24 58 25 59 29 60 26 61 28 62 27 63 46 64 47 65 51 66 48 67
REMARK SMILES IDX 50 68 49 69 36 70 37 71 41 72 38 73 40 74 39 75
REMARK H PARENT 70 20 70 21 56 43 34 54
REMARK Flexibility Score: inf
ROOT
ATOM      1  C   UNL A   1      33.002  33.510  27.608  1.00  0.00     0.274 C 
ENDROOT
BRANCH   1   2
ATOM      2  O   UNL A   1      34.142  34.397  27.749  1.00  0.00    -0.461 OA
BRANCH   2   3
ATOM      3  C   UNL A   1      33.951  35.484  28.545  1.00  0.00     0.325 C 
ATOM      4  O   UNL A   1      34.148  36.641  28.175  1.00  0.00    -0.250 OA
BRANCH   3   5
ATOM      5  C   UNL A   1      33.261  35.196  29.893  1.00  0.00     0.242 C 
BRANCH   5   6
ATOM      6  N   UNL A   1      33.991  34.650  31.046  1.00  0.00    -0.325 N 
BRANCH   6   7
ATOM      7  C   UNL A   1      33.684  35.257  32.349  1.00  0.00     0.149 C 
BRANCH   7   8
ATOM      8  C   UNL A   1      32.355  36.045  32.366  1.00  0.00     0.181 C 
BRANCH   8   9
ATOM      9  O   UNL A   1      32.575  37.450  32.505  1.00  0.00    -0.383 OA
ATOM     10  C   UNL A   1      33.946  37.801  32.603  1.00  0.00     0.194 C 
ENDBRANCH   8   9
ENDBRANCH   7   8
ENDBRANCH   6   7
BRANCH   6  11
ATOM     11  C   UNL A   1      34.894  33.578  31.028  1.00  0.00     0.254 C 
ATOM     12  O   UNL A   1      34.552  32.408  31.193  1.00  0.00    -0.269 OA
BRANCH  11  13
ATOM     13  C   UNL A   1      36.335  33.791  30.770  1.00  0.00     0.042 A 
ATOM     14  C   UNL A   1      36.860  33.660  29.481  1.00  0.00     0.014 A 
ATOM     15  C   UNL A   1      37.191  34.031  31.854  1.00  0.00     0.039 A 
ATOM     16  C   UNL A   1      38.227  33.835  29.270  1.00  0.00     0.003 A 
ATOM     17  C   UNL A   1      38.548  34.297  31.633  1.00  0.00     0.032 A 
ATOM     18  C   UNL A   1      39.064  34.158  30.341  1.00  0.00     0.025 A 
BRANCH  17  19
ATOM     19  N   UNL A   1      39.384  34.633  32.689  1.00  0.00    -0.399 N 
ATOM     20  H   UNL A   1      39.108  34.440  33.615  1.00  0.00     0.156 HD
ATOM     21  H   UNL A   1      40.252  35.062  32.514  1.00  0.00     0.156 HD
ENDBRANCH  17  19
ENDBRANCH  11  13
ENDBRANCH   6  11
ENDBRANCH   5   6
ENDBRANCH   3   5
ENDBRANCH   2   3
ENDBRANCH   1   2
BRANCH   1  22
ATOM     22  C   UNL A   1      33.306  32.041  27.988  1.00  0.00     0.275 C 
BRANCH  22  23
ATOM     23  O   UNL A   1      34.684  31.635  27.796  1.00  0.00    -0.458 OA
BRANCH  23  24
ATOM     24  C   UNL A   1      34.830  30.301  27.874  1.00  0.00     0.338 C 
ATOM     25  O   UNL A   1      33.938  29.491  27.692  1.00  0.00    -0.246 OA
BRANCH  24  26
ATOM     26  C   UNL A   1      36.159  29.769  28.127  1.00  0.00     0.060 A 
ATOM     27  C   UNL A   1      36.436  29.369  29.440  1.00  0.00     0.016 A 
ATOM     28  C   UNL A   1      37.187  30.012  27.216  1.00  0.00     0.016 A 
ATOM     29  C   UNL A   1      37.751  29.203  29.849  1.00  0.00     0.010 A 
ATOM     30  C   UNL A   1      38.509  29.813  27.619  1.00  0.00     0.010 A 
ATOM     31  C   UNL A   1      38.794  29.407  28.934  1.00  0.00    -0.014 A 
BRANCH  31  32
ATOM     32  C   UNL A   1      40.157  28.977  29.300  1.00  0.00     0.031 A 
ATOM     33  C   UNL A   1      41.126  29.872  30.003  1.00  0.00     0.074 A 
ATOM     34  C   UNL A   1      40.490  27.720  28.962  1.00  0.00     0.049 A 
ATOM     35  N   UNL A   1      42.363  29.620  30.347  1.00  0.00    -0.248 NA
ATOM     36  C   UNL A   1      40.655  31.212  30.377  1.00  0.00     0.031 C 
ATOM     37  C   UNL A   1      39.595  26.766  28.300  1.00  0.00     0.029 A 
ATOM     38  N   UNL A   1      41.661  27.032  29.117  1.00  0.00    -0.354 N 
ATOM     39  C   UNL A   1      42.823  30.766  30.982  1.00  0.00     0.074 A 
ATOM     40  C   UNL A   1      41.732  31.721  30.966  1.00  0.00     0.031 C 
ATOM     41  C   UNL A   1      40.255  25.621  28.091  1.00  0.00     0.029 A 
ATOM     42  C   UNL A   1      41.622  25.777  28.567  1.00  0.00     0.049 A 
ATOM     43  H   UNL A   1      42.451  27.400  29.576  1.00  0.00     0.167 HD
ATOM     44  C   UNL A   1      44.045  30.990  31.521  1.00  0.00     0.031 A 
ATOM     45  C   UNL A   1      42.593  24.860  28.427  1.00  0.00     0.031 A 
ATOM     46  C   UNL A   1      45.126  30.036  31.501  1.00  0.00     0.049 A 
ATOM     47  C   UNL A   1      43.954  25.164  28.962  1.00  0.00     0.074 A 
ATOM     48  C   UNL A   1      46.396  30.157  32.039  1.00  0.00     0.029 A 
ATOM     49  N   UNL A   1      45.066  28.789  30.897  1.00  0.00    -0.354 N 
ATOM     50  N   UNL A   1      44.369  26.245  29.577  1.00  0.00    -0.248 NA
ATOM     51  C   UNL A   1      44.976  24.128  28.787  1.00  0.00     0.031 C 
ATOM     52  C   UNL A   1      47.119  29.000  31.723  1.00  0.00     0.029 A 
ATOM     53  C   UNL A   1      46.286  28.143  31.022  1.00  0.00     0.049 A 
ATOM     54  H   UNL A   1      44.274  28.417  30.446  1.00  0.00     0.167 HD
ATOM     55  C   UNL A   1      45.702  26.019  29.873  1.00  0.00     0.074 A 
ATOM     56  C   UNL A   1      46.020  24.691  29.380  1.00  0.00     0.031 C 
ATOM     57  C   UNL A   1      46.583  26.834  30.501  1.00  0.00     0.031 A 
BRANCH  44  58
ATOM     58  C   UNL A   1      44.297  32.328  32.156  1.00  0.00    -0.014 A 
ATOM     59  C   UNL A   1      44.068  32.536  33.525  1.00  0.00     0.009 A 
ATOM     60  C   UNL A   1      44.841  33.372  31.391  1.00  0.00     0.009 A 
ATOM     61  C   UNL A   1      44.365  33.769  34.112  1.00  0.00     0.001 A 
ATOM     62  C   UNL A   1      45.150  34.599  31.984  1.00  0.00     0.001 A 
ATOM     63  C   UNL A   1      44.909  34.797  33.342  1.00  0.00     0.000 A 
ENDBRANCH  44  58
BRANCH  45  64
ATOM     64  C   UNL A   1      42.286  23.596  27.721  1.00  0.00    -0.014 A 
ATOM     65  C   UNL A   1      41.642  22.546  28.386  1.00  0.00     0.009 A 
ATOM     66  C   UNL A   1      42.553  23.478  26.347  1.00  0.00     0.009 A 
ATOM     67  C   UNL A   1      41.273  21.395  27.686  1.00  0.00     0.001 A 
ATOM     68  C   UNL A   1      42.163  22.337  25.647  1.00  0.00     0.001 A 
ATOM     69  C   UNL A   1      41.525  21.295  26.317  1.00  0.00     0.000 A 
ENDBRANCH  45  64
BRANCH  57  70
ATOM     70  C   UNL A   1      47.968  26.295  30.684  1.00  0.00    -0.014 A 
ATOM     71  C   UNL A   1      48.340  25.661  31.880  1.00  0.00     0.009 A 
ATOM     72  C   UNL A   1      48.912  26.429  29.656  1.00  0.00     0.009 A 
ATOM     73  C   UNL A   1      49.645  25.200  32.054  1.00  0.00     0.001 A 
ATOM     74  C   UNL A   1      50.210  25.950  29.827  1.00  0.00     0.001 A 
ATOM     75  C   UNL A   1      50.578  25.344  31.028  1.00  0.00     0.000 A 
ENDBRANCH  57  70
ENDBRANCH  31  32
ENDBRANCH  24  26
ENDBRANCH  23  24
ENDBRANCH  22  23
ENDBRANCH   1  22
TORSDOF 18
ENDMDL
MODEL 3
REMARK VINA RESULT:      -9.5      4.861      9.487
REMARK SMILES COCCN(CC(=O)OCCOC(=O)c1ccc(-c2c3nc(c(-c4ccccc4)c4ccc([nH]4)c(-c4ccccc4)c4nc(c(-c5ccccc5)c5ccc2[nH]5)C=C4)C=C3)cc1)C(=O)c1cccc(N)c1
REMARK SMILES IDX 10 1 9 2 7 3 8 4 6 5 5 6 4 7 3 8 2 9 1 10 63 11 64 12 65 13
REMARK SMILES IDX 66 14 71 15 67 16 69 17 68 18 70 19 11 22 12 23 13 24 14 25
REMARK SMILES IDX 15 26 16 27 62 28 17 29 61 30 18 31 19 32 20 33 55 34 21 35
REMARK SMILES IDX 60 36 54 37 56 38 22 39 59 40 53 41 52 42 23 44 45 45 30 46
REMARK SMILES IDX 44 47 31 48 34 49 43 50 57 51 32 52 33 53 42 55 58 56 35 57
REMARK SMILES IDX 24 58 25 59 29 60 26 61 28 62 27 63 46 64 47 65 51 66 48 67
REMARK SMILES IDX 50 68 49 69 36 70 37 71 41 72 38 73 40 74 39 75
REMARK H PARENT 70 20 70 21 56 43 34 54
REMARK Flexibility Score: inf
ROOT
ATOM      1  C   UNL A   1      32.301  31.027  26.262  1.00  0.00     0.274 C 
ENDROOT
BRANCH   1   2
ATOM      2  O   UNL A   1      31.699  29.710  26.360  1.00  0.00    -0.461 OA
BRANCH   2   3
ATOM      3  C   UNL A   1      32.422  28.689  25.825  1.00  0.00     0.325 C 
ATOM      4  O   UNL A   1      33.631  28.755  25.602  1.00  0.00    -0.250 OA
BRANCH   3   5
ATOM      5  C   UNL A   1      31.673  27.347  25.706  1.00  0.00     0.242 C 
BRANCH   5   6
ATOM      6  N   UNL A   1      31.464  26.678  24.415  1.00  0.00    -0.325 N 
BRANCH   6   7
ATOM      7  C   UNL A   1      32.661  26.102  23.785  1.00  0.00     0.149 C 
BRANCH   7   8
ATOM      8  C   UNL A   1      32.695  26.275  22.251  1.00  0.00     0.181 C 
BRANCH   8   9
ATOM      9  O   UNL A   1      33.881  26.945  21.820  1.00  0.00    -0.383 OA
ATOM     10  C   UNL A   1      33.890  28.330  22.125  1.00  0.00     0.194 C 
ENDBRANCH   8   9
ENDBRANCH   7   8
ENDBRANCH   6   7
BRANCH   6  11
ATOM     11  C   UNL A   1      30.235  26.486  23.766  1.00  0.00     0.254 C 
ATOM     12  O   UNL A   1      29.758  25.374  23.544  1.00  0.00    -0.269 OA
BRANCH  11  13
ATOM     13  C   UNL A   1      29.408  27.633  23.332  1.00  0.00     0.042 A 
ATOM     14  C   UNL A   1      28.031  27.655  23.570  1.00  0.00     0.014 A 
ATOM     15  C   UNL A   1      30.007  28.660  22.589  1.00  0.00     0.039 A 
ATOM     16  C   UNL A   1      27.269  28.733  23.123  1.00  0.00     0.003 A 
ATOM     17  C   UNL A   1      29.262  29.787  22.218  1.00  0.00     0.032 A 
ATOM     18  C   UNL A   1      27.885  29.796  22.456  1.00  0.00     0.025 A 
BRANCH  17  19
ATOM     19  N   UNL A   1      29.869  30.852  21.569  1.00  0.00    -0.399 N 
ATOM     20  H   UNL A   1      30.097  31.669  22.070  1.00  0.00     0.156 HD
ATOM     21  H   UNL A   1      30.072  30.792  20.607  1.00  0.00     0.156 HD
ENDBRANCH  17  19
ENDBRANCH  11  13
ENDBRANCH   6  11
ENDBRANCH   5   6
ENDBRANCH   3   5
ENDBRANCH   2   3
ENDBRANCH   1   2
BRANCH   1  22
ATOM     22  C   UNL A   1      31.892  31.985  27.407  1.00  0.00     0.275 C 
BRANCH  22  23
ATOM     23  O   UNL A   1      32.129  33.389  27.140  1.00  0.00    -0.458 OA
BRANCH  23  24
ATOM     24  C   UNL A   1      32.902  33.956  28.083  1.00  0.00     0.338 C 
ATOM     25  O   UNL A   1      32.629  34.979  28.685  1.00  0.00    -0.246 OA
BRANCH  24  26
ATOM     26  C   UNL A   1      34.125  33.273  28.469  1.00  0.00     0.060 A 
ATOM     27  C   UNL A   1      34.150  32.705  29.749  1.00  0.00     0.016 A 
ATOM     28  C   UNL A   1      35.305  33.514  27.765  1.00  0.00     0.016 A 
ATOM     29  C   UNL A   1      35.363  32.367  30.331  1.00  0.00     0.010 A 
ATOM     30  C   UNL A   1      36.523  33.145  28.339  1.00  0.00     0.010 A 
ATOM     31  C   UNL A   1      36.555  32.569  29.621  1.00  0.00    -0.014 A 
BRANCH  31  32
ATOM     32  C   UNL A   1      37.801  31.971  30.136  1.00  0.00     0.031 A 
ATOM     33  C   UNL A   1      38.377  30.705  29.590  1.00  0.00     0.074 A 
ATOM     34  C   UNL A   1      38.402  32.632  31.140  1.00  0.00     0.049 A 
ATOM     35  N   UNL A   1      39.447  30.062  29.983  1.00  0.00    -0.248 NA
ATOM     36  C   UNL A   1      37.678  30.080  28.459  1.00  0.00     0.031 C 
ATOM     37  C   UNL A   1      37.925  33.894  31.716  1.00  0.00     0.029 A 
ATOM     38  N   UNL A   1      39.528  32.339  31.858  1.00  0.00    -0.354 N 
ATOM     39  C   UNL A   1      39.557  28.959  29.149  1.00  0.00     0.074 A 
ATOM     40  C   UNL A   1      38.435  29.012  28.232  1.00  0.00     0.031 C 
ATOM     41  C   UNL A   1      38.744  34.258  32.709  1.00  0.00     0.029 A 
ATOM     42  C   UNL A   1      39.774  33.239  32.862  1.00  0.00     0.049 A 
ATOM     43  H   UNL A   1      40.103  31.561  31.673  1.00  0.00     0.167 HD
ATOM     44  C   UNL A   1      40.508  27.994  29.158  1.00  0.00     0.031 A 
ATOM     45  C   UNL A   1      40.706  33.230  33.828  1.00  0.00     0.031 A 
ATOM     46  C   UNL A   1      41.601  27.943  30.098  1.00  0.00     0.049 A 
ATOM     47  C   UNL A   1      41.696  32.112  33.862  1.00  0.00     0.074 A 
ATOM     48  C   UNL A   1      42.630  27.021  30.178  1.00  0.00     0.029 A 
ATOM     49  N   UNL A   1      41.796  28.849  31.130  1.00  0.00    -0.354 N 
ATOM     50  N   UNL A   1      41.798  31.084  33.054  1.00  0.00    -0.248 NA
ATOM     51  C   UNL A   1      42.695  32.151  34.934  1.00  0.00     0.031 C 
ATOM     52  C   UNL A   1      43.423  27.344  31.286  1.00  0.00     0.029 A 
ATOM     53  C   UNL A   1      42.910  28.490  31.871  1.00  0.00     0.049 A 
ATOM     54  H   UNL A   1      41.226  29.632  31.310  1.00  0.00     0.167 HD
ATOM     55  C   UNL A   1      42.882  30.355  33.513  1.00  0.00     0.074 A 
ATOM     56  C   UNL A   1      43.409  31.067  34.663  1.00  0.00     0.031 C 
ATOM     57  C   UNL A   1      43.397  29.201  33.024  1.00  0.00     0.031 A 
BRANCH  44  58
ATOM     58  C   UNL A   1      40.401  26.893  28.142  1.00  0.00    -0.014 A 
ATOM     59  C   UNL A   1      41.043  26.989  26.898  1.00  0.00     0.009 A 
ATOM     60  C   UNL A   1      39.711  25.713  28.461  1.00  0.00     0.009 A 
ATOM     61  C   UNL A   1      40.984  25.930  25.988  1.00  0.00     0.001 A 
ATOM     62  C   UNL A   1      39.665  24.651  27.555  1.00  0.00     0.001 A 
ATOM     63  C   UNL A   1      40.298  24.761  26.318  1.00  0.00     0.000 A 
ENDBRANCH  44  58
BRANCH  45  64
ATOM     64  C   UNL A   1      40.699  34.311  34.839  1.00  0.00    -0.014 A 
ATOM     65  C   UNL A   1      41.390  35.506  34.611  1.00  0.00     0.009 A 
ATOM     66  C   UNL A   1      39.915  34.180  35.998  1.00  0.00     0.009 A 
ATOM     67  C   UNL A   1      41.299  36.554  35.529  1.00  0.00     0.001 A 
ATOM     68  C   UNL A   1      39.809  35.237  36.902  1.00  0.00     0.001 A 
ATOM     69  C   UNL A   1      40.503  36.423  36.668  1.00  0.00     0.000 A 
ENDBRANCH  45  64
BRANCH  57  70
ATOM     70  C   UNL A   1      44.593  28.655  33.742  1.00  0.00    -0.014 A 
ATOM     71  C   UNL A   1      45.889  29.072  33.398  1.00  0.00     0.009 A 
ATOM     72  C   UNL A   1      44.424  27.709  34.763  1.00  0.00     0.009 A 
ATOM     73  C   UNL A   1      46.997  28.526  34.046  1.00  0.00     0.001 A 
ATOM     74  C   UNL A   1      45.534  27.179  35.421  1.00  0.00     0.001 A 
ATOM     75  C   UNL A   1      46.819  27.580  35.056  1.00  0.00     0.000 A 
ENDBRANCH  57  70
ENDBRANCH  31  32
ENDBRANCH  24  26
ENDBRANCH  23  24
ENDBRANCH  22  23
ENDBRANCH   1  22
TORSDOF 18
ENDMDL
