MODEL 1
REMARK VINA RESULT:     -10.2      0.000      0.000
REMARK SMILES CC(C)[C@@H](CNC(=O)NC[C@@]1(C)CCCO1)C(=O)OCCOC(=O)c1ccc(-c2c3nc(c(-c4ccccc4)c4ccc([nH]4)c(-c4ccccc4)c4nc(c(-c5ccccc5)c5ccc2[nH]5)C=C4)C=C3)cc1
REMARK SMILES IDX 20 1 19 2 17 3 18 4 4 5 2 6 1 7 3 8 5 9 6 10 7 11 8 13 9 14
REMARK SMILES IDX 10 16 11 17 12 18 13 19 16 20 14 21 15 22 21 23 22 24 23 25
REMARK SMILES IDX 24 26 25 27 26 28 72 29 27 30 71 31 28 32 29 33 30 34 65 35
REMARK SMILES IDX 31 36 70 37 64 38 66 39 32 40 69 41 63 42 62 43 33 45 55 46
REMARK SMILES IDX 40 47 54 48 41 49 44 50 53 51 67 52 42 53 43 54 52 56 68 57
REMARK SMILES IDX 45 58 34 59 35 60 39 61 36 62 38 63 37 64 56 65 57 66 61 67
REMARK SMILES IDX 58 68 60 69 59 70 46 71 47 72 51 73 48 74 50 75 49 76
REMARK H PARENT 6 12 9 15 66 44 44 55
REMARK Flexibility Score: inf
ROOT
ATOM      1  C   UNL A   1      35.571  20.257  24.995  1.00  0.00     0.274 C 
ENDROOT
BRANCH   1   2
ATOM      2  O   UNL A   1      34.632  21.083  25.715  1.00  0.00    -0.462 OA
BRANCH   2   3
ATOM      3  C   UNL A   1      33.397  21.187  25.161  1.00  0.00     0.311 C 
ATOM      4  O   UNL A   1      32.601  20.261  25.045  1.00  0.00    -0.252 OA
BRANCH   3   5
ATOM      5  C   UNL A   1      33.082  22.584  24.653  1.00  0.00     0.121 C 
BRANCH   5   6
ATOM      6  C   UNL A   1      33.855  23.003  23.369  1.00  0.00    -0.001 C 
ATOM      7  C   UNL A   1      32.931  23.696  22.355  1.00  0.00     0.008 C 
ATOM      8  C   UNL A   1      35.004  23.976  23.683  1.00  0.00     0.008 C 
ENDBRANCH   5   6
BRANCH   5   9
ATOM      9  C   UNL A   1      31.552  22.750  24.583  1.00  0.00     0.133 C 
BRANCH   9  10
ATOM     10  N   UNL A   1      30.874  22.520  25.842  1.00  0.00    -0.337 N 
ATOM     11  C   UNL A   1      30.227  23.301  26.715  1.00  0.00     0.314 C 
ATOM     12  H   UNL A   1      30.894  21.576  26.119  1.00  0.00     0.165 HD
ATOM     13  O   UNL A   1      29.778  22.765  27.732  1.00  0.00    -0.249 OA
ATOM     14  N   UNL A   1      30.053  24.619  26.588  1.00  0.00    -0.335 N 
ATOM     15  H   UNL A   1      29.591  25.006  27.368  1.00  0.00     0.165 HD
BRANCH  14  16
ATOM     16  C   UNL A   1      30.372  25.632  25.588  1.00  0.00     0.152 C 
BRANCH  16  17
ATOM     17  C   UNL A   1      31.462  26.638  26.018  1.00  0.00     0.083 C 
ATOM     18  C   UNL A   1      32.860  26.025  25.864  1.00  0.00     0.044 C 
ATOM     19  C   UNL A   1      31.330  27.944  25.230  1.00  0.00     0.039 C 
ATOM     20  O   UNL A   1      31.287  27.029  27.394  1.00  0.00    -0.373 OA
ATOM     21  C   UNL A   1      31.942  28.963  26.161  1.00  0.00     0.031 C 
ATOM     22  C   UNL A   1      31.576  28.427  27.530  1.00  0.00     0.161 C 
ENDBRANCH  16  17
ENDBRANCH  14  16
ENDBRANCH   9  10
ENDBRANCH   5   9
ENDBRANCH   3   5
ENDBRANCH   2   3
ENDBRANCH   1   2
BRANCH   1  23
ATOM     23  C   UNL A   1      36.848  21.027  24.653  1.00  0.00     0.275 C 
BRANCH  23  24
ATOM     24  O   UNL A   1      37.391  21.626  25.843  1.00  0.00    -0.458 OA
BRANCH  24  25
ATOM     25  C   UNL A   1      38.706  21.427  26.071  1.00  0.00     0.338 C 
ATOM     26  O   UNL A   1      39.344  20.399  25.911  1.00  0.00    -0.246 OA
BRANCH  25  27
ATOM     27  C   UNL A   1      39.305  22.676  26.565  1.00  0.00     0.060 A 
ATOM     28  C   UNL A   1      38.836  23.910  26.107  1.00  0.00     0.016 A 
ATOM     29  C   UNL A   1      40.411  22.615  27.414  1.00  0.00     0.016 A 
ATOM     30  C   UNL A   1      39.479  25.088  26.479  1.00  0.00     0.010 A 
ATOM     31  C   UNL A   1      41.040  23.797  27.809  1.00  0.00     0.010 A 
ATOM     32  C   UNL A   1      40.591  25.039  27.327  1.00  0.00    -0.014 A 
BRANCH  32  33
ATOM     33  C   UNL A   1      41.335  26.278  27.650  1.00  0.00     0.031 A 
ATOM     34  C   UNL A   1      40.719  27.296  28.566  1.00  0.00     0.074 A 
ATOM     35  C   UNL A   1      42.560  26.487  27.134  1.00  0.00     0.049 A 
ATOM     36  N   UNL A   1      41.157  28.484  28.895  1.00  0.00    -0.248 NA
ATOM     37  C   UNL A   1      39.441  26.927  29.196  1.00  0.00     0.031 C 
ATOM     38  C   UNL A   1      43.289  25.553  26.276  1.00  0.00     0.029 A 
ATOM     39  N   UNL A   1      43.405  27.559  27.261  1.00  0.00    -0.354 N 
ATOM     40  C   UNL A   1      40.198  29.015  29.746  1.00  0.00     0.074 A 
ATOM     41  C   UNL A   1      39.152  28.024  29.881  1.00  0.00     0.031 C 
ATOM     42  C   UNL A   1      44.476  26.093  25.954  1.00  0.00     0.029 A 
ATOM     43  C   UNL A   1      44.570  27.424  26.548  1.00  0.00     0.049 A 
ATOM     44  H   UNL A   1      43.197  28.349  27.810  1.00  0.00     0.167 HD
ATOM     45  C   UNL A   1      40.186  30.223  30.359  1.00  0.00     0.031 A 
ATOM     46  C   UNL A   1      45.586  28.288  26.370  1.00  0.00     0.031 A 
ATOM     47  C   UNL A   1      41.223  31.210  30.229  1.00  0.00     0.049 A 
ATOM     48  C   UNL A   1      45.525  29.642  27.017  1.00  0.00     0.074 A 
ATOM     49  C   UNL A   1      41.297  32.468  30.803  1.00  0.00     0.029 A 
ATOM     50  N   UNL A   1      42.371  31.047  29.471  1.00  0.00    -0.354 N 
ATOM     51  N   UNL A   1      44.598  30.144  27.796  1.00  0.00    -0.248 NA
ATOM     52  C   UNL A   1      46.651  30.550  26.753  1.00  0.00     0.031 C 
ATOM     53  C   UNL A   1      42.479  33.078  30.367  1.00  0.00     0.029 A 
ATOM     54  C   UNL A   1      43.156  32.185  29.553  1.00  0.00     0.049 A 
ATOM     55  H   UNL A   1      42.597  30.242  28.952  1.00  0.00     0.167 HD
ATOM     56  C   UNL A   1      45.032  31.421  28.125  1.00  0.00     0.074 A 
ATOM     57  C   UNL A   1      46.313  31.611  27.475  1.00  0.00     0.031 C 
ATOM     58  C   UNL A   1      44.424  32.355  28.894  1.00  0.00     0.031 A 
BRANCH  45  59
ATOM     59  C   UNL A   1      38.985  30.553  31.196  1.00  0.00    -0.014 A 
ATOM     60  C   UNL A   1      38.945  30.242  32.564  1.00  0.00     0.009 A 
ATOM     61  C   UNL A   1      37.886  31.197  30.609  1.00  0.00     0.009 A 
ATOM     62  C   UNL A   1      37.812  30.547  33.322  1.00  0.00     0.001 A 
ATOM     63  C   UNL A   1      36.763  31.519  31.373  1.00  0.00     0.001 A 
ATOM     64  C   UNL A   1      36.724  31.187  32.727  1.00  0.00     0.000 A 
ENDBRANCH  45  59
BRANCH  46  65
ATOM     65  C   UNL A   1      46.739  27.908  25.518  1.00  0.00    -0.014 A 
ATOM     66  C   UNL A   1      47.928  27.437  26.095  1.00  0.00     0.009 A 
ATOM     67  C   UNL A   1      46.654  28.014  24.121  1.00  0.00     0.009 A 
ATOM     68  C   UNL A   1      49.016  27.094  25.288  1.00  0.00     0.001 A 
ATOM     69  C   UNL A   1      47.736  27.649  23.317  1.00  0.00     0.001 A 
ATOM     70  C   UNL A   1      48.917  27.196  23.901  1.00  0.00     0.000 A 
ENDBRANCH  46  65
BRANCH  58  71
ATOM     71  C   UNL A   1      45.151  33.654  29.089  1.00  0.00    -0.014 A 
ATOM     72  C   UNL A   1      46.065  33.818  30.140  1.00  0.00     0.009 A 
ATOM     73  C   UNL A   1      44.932  34.715  28.198  1.00  0.00     0.009 A 
ATOM     74  C   UNL A   1      46.726  35.036  30.313  1.00  0.00     0.001 A 
ATOM     75  C   UNL A   1      45.609  35.924  28.362  1.00  0.00     0.001 A 
ATOM     76  C   UNL A   1      46.499  36.086  29.423  1.00  0.00     0.000 A 
ENDBRANCH  58  71
ENDBRANCH  32  33
ENDBRANCH  25  27
ENDBRANCH  24  25
ENDBRANCH  23  24
ENDBRANCH   1  23
TORSDOF 16
ENDMDL
MODEL 2
REMARK VINA RESULT:     -10.1      2.742      6.998
REMARK SMILES CC(C)[C@@H](CNC(=O)NC[C@@]1(C)CCCO1)C(=O)OCCOC(=O)c1ccc(-c2c3nc(c(-c4ccccc4)c4ccc([nH]4)c(-c4ccccc4)c4nc(c(-c5ccccc5)c5ccc2[nH]5)C=C4)C=C3)cc1
REMARK SMILES IDX 20 1 19 2 17 3 18 4 4 5 2 6 1 7 3 8 5 9 6 10 7 11 8 13 9 14
REMARK SMILES IDX 10 16 11 17 12 18 13 19 16 20 14 21 15 22 21 23 22 24 23 25
REMARK SMILES IDX 24 26 25 27 26 28 72 29 27 30 71 31 28 32 29 33 30 34 65 35
REMARK SMILES IDX 31 36 70 37 64 38 66 39 32 40 69 41 63 42 62 43 33 45 55 46
REMARK SMILES IDX 40 47 54 48 41 49 44 50 53 51 67 52 42 53 43 54 52 56 68 57
REMARK SMILES IDX 45 58 34 59 35 60 39 61 36 62 38 63 37 64 56 65 57 66 61 67
REMARK SMILES IDX 58 68 60 69 59 70 46 71 47 72 51 73 48 74 50 75 49 76
REMARK H PARENT 6 12 9 15 66 44 44 55
REMARK Flexibility Score: inf
ROOT
ATOM      1  C   UNL A   1      38.951  21.379  25.771  1.00  0.00     0.274 C 
ENDROOT
BRANCH   1   2
ATOM      2  O   UNL A   1      37.520  21.553  25.721  1.00  0.00    -0.462 OA
BRANCH   2   3
ATOM      3  C   UNL A   1      37.082  22.836  25.792  1.00  0.00     0.311 C 
ATOM      4  O   UNL A   1      37.773  23.795  26.119  1.00  0.00    -0.252 OA
BRANCH   3   5
ATOM      5  C   UNL A   1      35.609  22.987  25.451  1.00  0.00     0.121 C 
BRANCH   5   6
ATOM      6  C   UNL A   1      35.284  22.955  23.929  1.00  0.00    -0.001 C 
ATOM      7  C   UNL A   1      34.444  24.171  23.506  1.00  0.00     0.008 C 
ATOM      8  C   UNL A   1      36.561  22.959  23.071  1.00  0.00     0.008 C 
ENDBRANCH   5   6
BRANCH   5   9
ATOM      9  C   UNL A   1      34.798  22.005  26.317  1.00  0.00     0.133 C 
BRANCH   9  10
ATOM     10  N   UNL A   1      33.367  22.228  26.285  1.00  0.00    -0.337 N 
ATOM     11  C   UNL A   1      32.343  21.652  25.646  1.00  0.00     0.314 C 
ATOM     12  H   UNL A   1      33.084  22.973  26.862  1.00  0.00     0.165 HD
ATOM     13  O   UNL A   1      31.219  22.126  25.833  1.00  0.00    -0.249 OA
ATOM     14  N   UNL A   1      32.442  20.622  24.801  1.00  0.00    -0.335 N 
ATOM     15  H   UNL A   1      31.572  20.386  24.405  1.00  0.00     0.165 HD
BRANCH  14  16
ATOM     16  C   UNL A   1      33.513  19.759  24.315  1.00  0.00     0.152 C 
BRANCH  16  17
ATOM     17  C   UNL A   1      33.104  18.285  24.102  1.00  0.00     0.083 C 
ATOM     18  C   UNL A   1      32.438  18.097  22.733  1.00  0.00     0.044 C 
ATOM     19  C   UNL A   1      34.311  17.361  24.273  1.00  0.00     0.039 C 
ATOM     20  O   UNL A   1      32.176  17.857  25.120  1.00  0.00    -0.373 OA
ATOM     21  C   UNL A   1      33.680  16.055  24.695  1.00  0.00     0.031 C 
ATOM     22  C   UNL A   1      32.482  16.509  25.502  1.00  0.00     0.161 C 
ENDBRANCH  16  17
ENDBRANCH  14  16
ENDBRANCH   9  10
ENDBRANCH   5   9
ENDBRANCH   3   5
ENDBRANCH   2   3
ENDBRANCH   1   2
BRANCH   1  23
ATOM     23  C   UNL A   1      39.349  19.924  25.512  1.00  0.00     0.275 C 
BRANCH  23  24
ATOM     24  O   UNL A   1      40.395  19.536  26.419  1.00  0.00    -0.458 OA
BRANCH  24  25
ATOM     25  C   UNL A   1      41.661  19.759  26.009  1.00  0.00     0.338 C 
ATOM     26  O   UNL A   1      42.361  19.034  25.320  1.00  0.00    -0.246 OA
BRANCH  25  27
ATOM     27  C   UNL A   1      42.116  21.058  26.526  1.00  0.00     0.060 A 
ATOM     28  C   UNL A   1      42.053  21.330  27.895  1.00  0.00     0.016 A 
ATOM     29  C   UNL A   1      42.513  22.050  25.629  1.00  0.00     0.016 A 
ATOM     30  C   UNL A   1      42.370  22.598  28.375  1.00  0.00     0.010 A 
ATOM     31  C   UNL A   1      42.856  23.315  26.111  1.00  0.00     0.010 A 
ATOM     32  C   UNL A   1      42.766  23.603  27.484  1.00  0.00    -0.014 A 
BRANCH  32  33
ATOM     33  C   UNL A   1      43.011  24.977  27.977  1.00  0.00     0.031 A 
ATOM     34  C   UNL A   1      44.412  25.412  28.300  1.00  0.00     0.074 A 
ATOM     35  C   UNL A   1      41.987  25.838  28.124  1.00  0.00     0.049 A 
ATOM     36  N   UNL A   1      44.828  26.531  28.834  1.00  0.00    -0.248 NA
ATOM     37  C   UNL A   1      45.487  24.458  27.978  1.00  0.00     0.031 C 
ATOM     38  C   UNL A   1      40.589  25.556  27.795  1.00  0.00     0.029 A 
ATOM     39  N   UNL A   1      41.970  27.126  28.593  1.00  0.00    -0.354 N 
ATOM     40  C   UNL A   1      46.207  26.407  28.938  1.00  0.00     0.074 A 
ATOM     41  C   UNL A   1      46.558  25.103  28.417  1.00  0.00     0.031 C 
ATOM     42  C   UNL A   1      39.850  26.644  28.069  1.00  0.00     0.029 A 
ATOM     43  C   UNL A   1      40.715  27.677  28.632  1.00  0.00     0.049 A 
ATOM     44  H   UNL A   1      42.781  27.610  28.873  1.00  0.00     0.167 HD
ATOM     45  C   UNL A   1      47.101  27.298  29.428  1.00  0.00     0.031 A 
ATOM     46  C   UNL A   1      40.303  28.872  29.097  1.00  0.00     0.031 A 
ATOM     47  C   UNL A   1      46.758  28.594  29.946  1.00  0.00     0.049 A 
ATOM     48  C   UNL A   1      41.307  29.821  29.684  1.00  0.00     0.074 A 
ATOM     49  C   UNL A   1      47.593  29.565  30.473  1.00  0.00     0.029 A 
ATOM     50  N   UNL A   1      45.470  29.102  29.998  1.00  0.00    -0.354 N 
ATOM     51  N   UNL A   1      42.604  29.680  29.804  1.00  0.00    -0.248 NA
ATOM     52  C   UNL A   1      40.785  31.094  30.205  1.00  0.00     0.031 C 
ATOM     53  C   UNL A   1      46.803  30.650  30.872  1.00  0.00     0.029 A 
ATOM     54  C   UNL A   1      45.484  30.368  30.558  1.00  0.00     0.049 A 
ATOM     55  H   UNL A   1      44.663  28.633  29.682  1.00  0.00     0.167 HD
ATOM     56  C   UNL A   1      43.057  30.848  30.404  1.00  0.00     0.074 A 
ATOM     57  C   UNL A   1      41.898  31.693  30.608  1.00  0.00     0.031 C 
ATOM     58  C   UNL A   1      44.319  31.189  30.757  1.00  0.00     0.031 A 
BRANCH  45  59
ATOM     59  C   UNL A   1      48.541  26.874  29.461  1.00  0.00    -0.014 A 
ATOM     60  C   UNL A   1      49.058  26.139  30.538  1.00  0.00     0.009 A 
ATOM     61  C   UNL A   1      49.385  27.202  28.389  1.00  0.00     0.009 A 
ATOM     62  C   UNL A   1      50.404  25.765  30.553  1.00  0.00     0.001 A 
ATOM     63  C   UNL A   1      50.725  26.810  28.398  1.00  0.00     0.001 A 
ATOM     64  C   UNL A   1      51.234  26.098  29.483  1.00  0.00     0.000 A 
ENDBRANCH  45  59
BRANCH  46  65
ATOM     65  C   UNL A   1      38.863  29.226  29.050  1.00  0.00    -0.014 A 
ATOM     66  C   UNL A   1      38.304  29.787  27.892  1.00  0.00     0.009 A 
ATOM     67  C   UNL A   1      38.041  29.003  30.166  1.00  0.00     0.009 A 
ATOM     68  C   UNL A   1      36.951  30.133  27.859  1.00  0.00     0.001 A 
ATOM     69  C   UNL A   1      36.684  29.329  30.120  1.00  0.00     0.001 A 
ATOM     70  C   UNL A   1      36.142  29.899  28.970  1.00  0.00     0.000 A 
ENDBRANCH  46  65
BRANCH  58  71
ATOM     71  C   UNL A   1      44.509  32.542  31.378  1.00  0.00    -0.014 A 
ATOM     72  C   UNL A   1      44.457  32.711  32.770  1.00  0.00     0.009 A 
ATOM     73  C   UNL A   1      44.761  33.654  30.561  1.00  0.00     0.009 A 
ATOM     74  C   UNL A   1      44.626  33.979  33.331  1.00  0.00     0.001 A 
ATOM     75  C   UNL A   1      44.948  34.916  31.127  1.00  0.00     0.001 A 
ATOM     76  C   UNL A   1      44.873  35.078  32.509  1.00  0.00     0.000 A 
ENDBRANCH  58  71
ENDBRANCH  32  33
ENDBRANCH  25  27
ENDBRANCH  24  25
ENDBRANCH  23  24
ENDBRANCH   1  23
TORSDOF 16
ENDMDL
MODEL 3
REMARK VINA RESULT:     -10.0      2.809      6.660
REMARK SMILES CC(C)[C@@H](CNC(=O)NC[C@@]1(C)CCCO1)C(=O)OCCOC(=O)c1ccc(-c2c3nc(c(-c4ccccc4)c4ccc([nH]4)c(-c4ccccc4)c4nc(c(-c5ccccc5)c5ccc2[nH]5)C=C4)C=C3)cc1
REMARK SMILES IDX 20 1 19 2 17 3 18 4 4 5 2 6 1 7 3 8 5 9 6 10 7 11 8 13 9 14
REMARK SMILES IDX 10 16 11 17 12 18 13 19 16 20 14 21 15 22 21 23 22 24 23 25
REMARK SMILES IDX 24 26 25 27 26 28 72 29 27 30 71 31 28 32 29 33 30 34 65 35
REMARK SMILES IDX 31 36 70 37 64 38 66 39 32 40 69 41 63 42 62 43 33 45 55 46
REMARK SMILES IDX 40 47 54 48 41 49 44 50 53 51 67 52 42 53 43 54 52 56 68 57
REMARK SMILES IDX 45 58 34 59 35 60 39 61 36 62 38 63 37 64 56 65 57 66 61 67
REMARK SMILES IDX 58 68 60 69 59 70 46 71 47 72 51 73 48 74 50 75 49 76
REMARK H PARENT 6 12 9 15 66 44 44 55
REMARK Flexibility Score: inf
ROOT
ATOM      1  C   UNL A   1      31.984  27.935  27.172  1.00  0.00     0.274 C 
ENDROOT
BRANCH   1   2
ATOM      2  O   UNL A   1      32.358  26.742  26.455  1.00  0.00    -0.462 OA
BRANCH   2   3
ATOM      3  C   UNL A   1      32.103  26.755  25.121  1.00  0.00     0.311 C 
ATOM      4  O   UNL A   1      32.954  26.652  24.244  1.00  0.00    -0.252 OA
BRANCH   3   5
ATOM      5  C   UNL A   1      30.631  26.944  24.793  1.00  0.00     0.121 C 
BRANCH   5   6
ATOM      6  C   UNL A   1      30.343  27.930  23.624  1.00  0.00    -0.001 C 
ATOM      7  C   UNL A   1      28.860  27.908  23.220  1.00  0.00     0.008 C 
ATOM      8  C   UNL A   1      30.695  29.380  23.998  1.00  0.00     0.008 C 
ENDBRANCH   5   6
BRANCH   5   9
ATOM      9  C   UNL A   1      29.974  25.557  24.660  1.00  0.00     0.133 C 
BRANCH   9  10
ATOM     10  N   UNL A   1      29.803  24.859  25.919  1.00  0.00    -0.337 N 
ATOM     11  C   UNL A   1      30.282  23.721  26.432  1.00  0.00     0.314 C 
ATOM     12  H   UNL A   1      29.197  25.329  26.536  1.00  0.00     0.165 HD
ATOM     13  O   UNL A   1      29.897  23.401  27.560  1.00  0.00    -0.249 OA
ATOM     14  N   UNL A   1      31.122  22.888  25.811  1.00  0.00    -0.335 N 
ATOM     15  H   UNL A   1      31.309  22.085  26.350  1.00  0.00     0.165 HD
BRANCH  14  16
ATOM     16  C   UNL A   1      31.831  22.866  24.537  1.00  0.00     0.152 C 
BRANCH  16  17
ATOM     17  C   UNL A   1      32.426  21.493  24.156  1.00  0.00     0.083 C 
ATOM     18  C   UNL A   1      32.179  21.186  22.673  1.00  0.00     0.044 C 
ATOM     19  C   UNL A   1      33.916  21.435  24.502  1.00  0.00     0.039 C 
ATOM     20  O   UNL A   1      31.833  20.440  24.942  1.00  0.00    -0.373 OA
ATOM     21  C   UNL A   1      34.158  19.959  24.709  1.00  0.00     0.031 C 
ATOM     22  C   UNL A   1      32.843  19.483  25.291  1.00  0.00     0.161 C 
ENDBRANCH  16  17
ENDBRANCH  14  16
ENDBRANCH   9  10
ENDBRANCH   5   9
ENDBRANCH   3   5
ENDBRANCH   2   3
ENDBRANCH   1   2
BRANCH   1  23
ATOM     23  C   UNL A   1      32.932  29.096  26.863  1.00  0.00     0.275 C 
BRANCH  23  24
ATOM     24  O   UNL A   1      34.118  28.987  27.669  1.00  0.00    -0.458 OA
BRANCH  24  25
ATOM     25  C   UNL A   1      34.705  30.145  28.036  1.00  0.00     0.338 C 
ATOM     26  O   UNL A   1      34.195  31.252  28.104  1.00  0.00    -0.246 OA
BRANCH  25  27
ATOM     27  C   UNL A   1      36.117  29.890  28.361  1.00  0.00     0.060 A 
ATOM     28  C   UNL A   1      37.104  30.064  27.388  1.00  0.00     0.016 A 
ATOM     29  C   UNL A   1      36.447  29.376  29.615  1.00  0.00     0.016 A 
ATOM     30  C   UNL A   1      38.425  29.710  27.656  1.00  0.00     0.010 A 
ATOM     31  C   UNL A   1      37.775  29.044  29.894  1.00  0.00     0.010 A 
ATOM     32  C   UNL A   1      38.767  29.189  28.909  1.00  0.00    -0.014 A 
BRANCH  32  33
ATOM     33  C   UNL A   1      40.148  28.723  29.167  1.00  0.00     0.031 A 
ATOM     34  C   UNL A   1      41.120  29.630  29.866  1.00  0.00     0.074 A 
ATOM     35  C   UNL A   1      40.529  27.490  28.788  1.00  0.00     0.049 A 
ATOM     36  N   UNL A   1      42.395  29.454  30.098  1.00  0.00    -0.248 NA
ATOM     37  C   UNL A   1      40.584  30.905  30.371  1.00  0.00     0.031 C 
ATOM     38  C   UNL A   1      39.666  26.495  28.149  1.00  0.00     0.029 A 
ATOM     39  N   UNL A   1      41.747  26.866  28.886  1.00  0.00    -0.354 N 
ATOM     40  C   UNL A   1      42.821  30.603  30.749  1.00  0.00     0.074 A 
ATOM     41  C   UNL A   1      41.671  31.473  30.873  1.00  0.00     0.031 C 
ATOM     42  C   UNL A   1      40.383  25.383  27.916  1.00  0.00     0.029 A 
ATOM     43  C   UNL A   1      41.761  25.605  28.347  1.00  0.00     0.049 A 
ATOM     44  H   UNL A   1      42.535  27.284  29.303  1.00  0.00     0.167 HD
ATOM     45  C   UNL A   1      44.060  30.909  31.202  1.00  0.00     0.031 A 
ATOM     46  C   UNL A   1      42.777  24.736  28.193  1.00  0.00     0.031 A 
ATOM     47  C   UNL A   1      45.205  30.048  31.082  1.00  0.00     0.049 A 
ATOM     48  C   UNL A   1      44.153  25.120  28.655  1.00  0.00     0.074 A 
ATOM     49  C   UNL A   1      46.505  30.274  31.501  1.00  0.00     0.029 A 
ATOM     50  N   UNL A   1      45.184  28.791  30.501  1.00  0.00    -0.354 N 
ATOM     51  N   UNL A   1      44.548  26.222  29.243  1.00  0.00    -0.248 NA
ATOM     52  C   UNL A   1      45.224  24.139  28.425  1.00  0.00     0.031 C 
ATOM     53  C   UNL A   1      47.278  29.162  31.146  1.00  0.00     0.029 A 
ATOM     54  C   UNL A   1      46.450  28.232  30.539  1.00  0.00     0.049 A 
ATOM     55  H   UNL A   1      44.387  28.358  30.118  1.00  0.00     0.167 HD
ATOM     56  C   UNL A   1      45.910  26.065  29.464  1.00  0.00     0.074 A 
ATOM     57  C   UNL A   1      46.270  24.754  28.961  1.00  0.00     0.031 C 
ATOM     58  C   UNL A   1      46.787  26.929  30.029  1.00  0.00     0.031 A 
BRANCH  45  59
ATOM     59  C   UNL A   1      44.243  32.258  31.834  1.00  0.00    -0.014 A 
ATOM     60  C   UNL A   1      44.548  33.388  31.062  1.00  0.00     0.009 A 
ATOM     61  C   UNL A   1      44.091  32.399  33.222  1.00  0.00     0.009 A 
ATOM     62  C   UNL A   1      44.726  34.632  31.673  1.00  0.00     0.001 A 
ATOM     63  C   UNL A   1      44.249  33.647  33.828  1.00  0.00     0.001 A 
ATOM     64  C   UNL A   1      44.573  34.760  33.053  1.00  0.00     0.000 A 
ENDBRANCH  45  59
BRANCH  46  65
ATOM     65  C   UNL A   1      42.534  23.423  27.546  1.00  0.00    -0.014 A 
ATOM     66  C   UNL A   1      42.043  22.341  28.291  1.00  0.00     0.009 A 
ATOM     67  C   UNL A   1      42.794  23.248  26.178  1.00  0.00     0.009 A 
ATOM     68  C   UNL A   1      41.830  21.103  27.680  1.00  0.00     0.001 A 
ATOM     69  C   UNL A   1      42.559  22.015  25.566  1.00  0.00     0.001 A 
ATOM     70  C   UNL A   1      42.084  20.942  26.318  1.00  0.00     0.000 A 
ENDBRANCH  46  65
BRANCH  58  71
ATOM     71  C   UNL A   1      48.210  26.471  30.152  1.00  0.00    -0.014 A 
ATOM     72  C   UNL A   1      49.135  26.707  29.124  1.00  0.00     0.009 A 
ATOM     73  C   UNL A   1      48.632  25.814  31.317  1.00  0.00     0.009 A 
ATOM     74  C   UNL A   1      50.454  26.264  29.250  1.00  0.00     0.001 A 
ATOM     75  C   UNL A   1      49.956  25.391  31.447  1.00  0.00     0.001 A 
ATOM     76  C   UNL A   1      50.862  25.609  30.412  1.00  0.00     0.000 A 
ENDBRANCH  58  71
ENDBRANCH  32  33
ENDBRANCH  25  27
ENDBRANCH  24  25
ENDBRANCH  23  24
ENDBRANCH   1  23
TORSDOF 16
ENDMDL
