MODEL 1
REMARK VINA RESULT:     -12.4      0.000      0.000
REMARK SMILES O=C(Cn1c(-c2nc(-c3ccc(C(F)(F)F)cc3)no2)cc2ccccc21)OCCOC(=O)c1ccc(-c2c3nc(c(-c4ccccc4)c4ccc([nH]4)c(-c4ccccc4)c4nc(c(-c5ccccc5)c5ccc2[nH]5)C=C4)C=C3)cc1
REMARK SMILES IDX 29 1 28 2 2 3 1 4 3 5 4 6 5 7 27 8 21 9 22 10 26 11 23 12
REMARK SMILES IDX 25 13 24 14 6 15 7 16 20 17 8 18 19 19 9 20 10 21 18 22
REMARK SMILES IDX 11 23 17 24 12 25 13 26 14 27 15 28 16 29 30 30 31 31 32 32
REMARK SMILES IDX 33 33 34 34 35 35 81 36 36 37 80 38 37 39 38 40 39 41 74 42
REMARK SMILES IDX 40 43 79 44 73 45 75 46 41 47 78 48 72 49 71 50 42 52 64 53
REMARK SMILES IDX 49 54 63 55 50 56 53 57 62 58 76 59 51 60 52 61 61 63 77 64
REMARK SMILES IDX 54 65 43 66 44 67 48 68 45 69 47 70 46 71 65 72 66 73 70 74
REMARK SMILES IDX 67 75 69 76 68 77 55 78 56 79 60 80 57 81 59 82 58 83
REMARK H PARENT 75 51 53 62
REMARK Flexibility Score: inf
ROOT
ATOM      1  C   UNL A   1      32.634  31.407  27.045  1.00  0.00     0.274 C 
ENDROOT
BRANCH   1   2
ATOM      2  O   UNL A   1      32.356  30.013  27.292  1.00  0.00    -0.461 OA
BRANCH   2   3
ATOM      3  C   UNL A   1      31.852  29.151  26.373  1.00  0.00     0.326 C 
ATOM      4  O   UNL A   1      31.502  28.028  26.731  1.00  0.00    -0.250 OA
BRANCH   3   5
ATOM      5  C   UNL A   1      31.871  29.540  24.925  1.00  0.00     0.245 C 
BRANCH   5   6
ATOM      6  N   UNL A   1      30.840  29.141  23.978  1.00  0.00    -0.325 N 
ATOM      7  C   UNL A   1      30.679  27.967  23.295  1.00  0.00     0.109 A 
ATOM      8  C   UNL A   1      29.816  30.030  23.647  1.00  0.00     0.049 A 
ATOM      9  C   UNL A   1      29.660  28.169  22.379  1.00  0.00     0.042 A 
ATOM     10  C   UNL A   1      29.112  29.467  22.586  1.00  0.00     0.000 A 
ATOM     11  C   UNL A   1      29.461  31.283  24.185  1.00  0.00     0.027 A 
ATOM     12  C   UNL A   1      28.055  30.204  22.011  1.00  0.00     0.010 A 
ATOM     13  C   UNL A   1      28.419  32.000  23.596  1.00  0.00     0.002 A 
ATOM     14  C   UNL A   1      27.730  31.473  22.514  1.00  0.00     0.001 A 
BRANCH   7  15
ATOM     15  C   UNL A   1      31.311  26.741  23.658  1.00  0.00     0.274 A 
ATOM     16  N   UNL A   1      32.589  26.435  23.541  1.00  0.00    -0.185 NA
ATOM     17  O   UNL A   1      30.615  25.810  24.371  1.00  0.00    -0.332 OA
ATOM     18  C   UNL A   1      32.681  25.237  24.227  1.00  0.00     0.202 A 
ATOM     19  N   UNL A   1      31.512  24.845  24.763  1.00  0.00    -0.057 NA
BRANCH  18  20
ATOM     20  C   UNL A   1      33.885  24.413  24.370  1.00  0.00     0.023 A 
ATOM     21  C   UNL A   1      34.584  24.474  25.590  1.00  0.00     0.013 A 
ATOM     22  C   UNL A   1      34.378  23.567  23.369  1.00  0.00     0.013 A 
ATOM     23  C   UNL A   1      35.723  23.707  25.821  1.00  0.00     0.014 A 
ATOM     24  C   UNL A   1      35.533  22.791  23.601  1.00  0.00     0.014 A 
ATOM     25  C   UNL A   1      36.209  22.847  24.833  1.00  0.00     0.056 A 
BRANCH  25  26
ATOM     26  C   UNL A   1      37.434  22.018  25.141  1.00  0.00     0.416 C 
ATOM     27  F   UNL A   1      37.262  21.228  26.238  1.00  0.00    -0.166 F 
ATOM     28  F   UNL A   1      37.749  21.167  24.123  1.00  0.00    -0.166 F 
ATOM     29  F   UNL A   1      38.556  22.750  25.378  1.00  0.00    -0.166 F 
ENDBRANCH  25  26
ENDBRANCH  18  20
ENDBRANCH   7  15
ENDBRANCH   5   6
ENDBRANCH   3   5
ENDBRANCH   2   3
ENDBRANCH   1   2
BRANCH   1  30
ATOM     30  C   UNL A   1      33.729  31.937  27.981  1.00  0.00     0.275 C 
BRANCH  30  31
ATOM     31  O   UNL A   1      34.994  31.334  27.642  1.00  0.00    -0.458 OA
BRANCH  31  32
ATOM     32  C   UNL A   1      36.112  32.034  27.973  1.00  0.00     0.338 C 
ATOM     33  O   UNL A   1      36.247  33.245  27.974  1.00  0.00    -0.246 OA
BRANCH  32  34
ATOM     34  C   UNL A   1      37.017  31.093  28.677  1.00  0.00     0.060 A 
ATOM     35  C   UNL A   1      38.212  31.522  29.258  1.00  0.00     0.016 A 
ATOM     36  C   UNL A   1      36.776  29.726  28.487  1.00  0.00     0.016 A 
ATOM     37  C   UNL A   1      39.225  30.590  29.477  1.00  0.00     0.010 A 
ATOM     38  C   UNL A   1      37.793  28.798  28.708  1.00  0.00     0.010 A 
ATOM     39  C   UNL A   1      39.051  29.236  29.117  1.00  0.00    -0.014 A 
BRANCH  39  40
ATOM     40  C   UNL A   1      40.191  28.314  29.294  1.00  0.00     0.031 A 
ATOM     41  C   UNL A   1      40.615  28.198  30.723  1.00  0.00     0.074 A 
ATOM     42  C   UNL A   1      40.760  27.542  28.337  1.00  0.00     0.049 A 
ATOM     43  N   UNL A   1      41.789  28.357  31.240  1.00  0.00    -0.248 NA
ATOM     44  C   UNL A   1      39.537  28.019  31.715  1.00  0.00     0.031 C 
ATOM     45  C   UNL A   1      40.335  27.346  26.948  1.00  0.00     0.029 A 
ATOM     46  N   UNL A   1      41.808  26.662  28.440  1.00  0.00    -0.354 N 
ATOM     47  C   UNL A   1      41.627  28.171  32.612  1.00  0.00     0.074 A 
ATOM     48  C   UNL A   1      40.211  28.103  32.858  1.00  0.00     0.031 C 
ATOM     49  C   UNL A   1      40.931  26.241  26.438  1.00  0.00     0.029 A 
ATOM     50  C   UNL A   1      41.879  25.726  27.407  1.00  0.00     0.049 A 
ATOM     51  H   UNL A   1      42.455  26.690  29.182  1.00  0.00     0.167 HD
ATOM     52  C   UNL A   1      42.664  27.918  33.455  1.00  0.00     0.031 A 
ATOM     53  C   UNL A   1      42.607  24.576  27.377  1.00  0.00     0.031 A 
ATOM     54  C   UNL A   1      43.924  28.321  32.907  1.00  0.00     0.049 A 
ATOM     55  C   UNL A   1      43.660  24.683  28.408  1.00  0.00     0.074 A 
ATOM     56  C   UNL A   1      44.486  29.539  32.582  1.00  0.00     0.029 A 
ATOM     57  N   UNL A   1      44.689  27.372  32.277  1.00  0.00    -0.354 N 
ATOM     58  N   UNL A   1      44.665  25.502  28.336  1.00  0.00    -0.248 NA
ATOM     59  C   UNL A   1      43.344  24.178  29.733  1.00  0.00     0.031 C 
ATOM     60  C   UNL A   1      45.235  29.293  31.399  1.00  0.00     0.029 A 
ATOM     61  C   UNL A   1      45.153  27.930  31.112  1.00  0.00     0.049 A 
ATOM     62  H   UNL A   1      44.872  26.460  32.600  1.00  0.00     0.167 HD
ATOM     63  C   UNL A   1      44.824  25.965  29.631  1.00  0.00     0.074 A 
ATOM     64  C   UNL A   1      44.028  25.061  30.462  1.00  0.00     0.031 C 
ATOM     65  C   UNL A   1      45.352  27.197  29.882  1.00  0.00     0.031 A 
BRANCH  52  66
ATOM     66  C   UNL A   1      42.532  27.028  34.661  1.00  0.00    -0.014 A 
ATOM     67  C   UNL A   1      42.006  27.479  35.889  1.00  0.00     0.009 A 
ATOM     68  C   UNL A   1      42.702  25.641  34.522  1.00  0.00     0.009 A 
ATOM     69  C   UNL A   1      41.683  26.606  36.930  1.00  0.00     0.001 A 
ATOM     70  C   UNL A   1      42.339  24.758  35.547  1.00  0.00     0.001 A 
ATOM     71  C   UNL A   1      41.831  25.241  36.750  1.00  0.00     0.000 A 
ENDBRANCH  52  66
BRANCH  53  72
ATOM     72  C   UNL A   1      42.216  23.242  26.846  1.00  0.00    -0.014 A 
ATOM     73  C   UNL A   1      41.079  22.593  27.359  1.00  0.00     0.009 A 
ATOM     74  C   UNL A   1      43.125  22.466  26.102  1.00  0.00     0.009 A 
ATOM     75  C   UNL A   1      40.882  21.218  27.181  1.00  0.00     0.001 A 
ATOM     76  C   UNL A   1      42.926  21.087  25.924  1.00  0.00     0.001 A 
ATOM     77  C   UNL A   1      41.813  20.461  26.480  1.00  0.00     0.000 A 
ENDBRANCH  53  72
BRANCH  65  78
ATOM     78  C   UNL A   1      45.954  27.975  28.732  1.00  0.00    -0.014 A 
ATOM     79  C   UNL A   1      45.079  28.659  27.874  1.00  0.00     0.009 A 
ATOM     80  C   UNL A   1      47.309  27.883  28.364  1.00  0.00     0.009 A 
ATOM     81  C   UNL A   1      45.532  29.208  26.672  1.00  0.00     0.001 A 
ATOM     82  C   UNL A   1      47.768  28.455  27.171  1.00  0.00     0.001 A 
ATOM     83  C   UNL A   1      46.875  29.105  26.319  1.00  0.00     0.000 A 
ENDBRANCH  65  78
ENDBRANCH  39  40
ENDBRANCH  32  34
ENDBRANCH  31  32
ENDBRANCH  30  31
ENDBRANCH   1  30
TORSDOF 15
ENDMDL
MODEL 2
REMARK VINA RESULT:     -12.2      1.357      1.595
REMARK SMILES O=C(Cn1c(-c2nc(-c3ccc(C(F)(F)F)cc3)no2)cc2ccccc21)OCCOC(=O)c1ccc(-c2c3nc(c(-c4ccccc4)c4ccc([nH]4)c(-c4ccccc4)c4nc(c(-c5ccccc5)c5ccc2[nH]5)C=C4)C=C3)cc1
REMARK SMILES IDX 29 1 28 2 2 3 1 4 3 5 4 6 5 7 27 8 21 9 22 10 26 11 23 12
REMARK SMILES IDX 25 13 24 14 6 15 7 16 20 17 8 18 19 19 9 20 10 21 18 22
REMARK SMILES IDX 11 23 17 24 12 25 13 26 14 27 15 28 16 29 30 30 31 31 32 32
REMARK SMILES IDX 33 33 34 34 35 35 81 36 36 37 80 38 37 39 38 40 39 41 74 42
REMARK SMILES IDX 40 43 79 44 73 45 75 46 41 47 78 48 72 49 71 50 42 52 64 53
REMARK SMILES IDX 49 54 63 55 50 56 53 57 62 58 76 59 51 60 52 61 61 63 77 64
REMARK SMILES IDX 54 65 43 66 44 67 48 68 45 69 47 70 46 71 65 72 66 73 70 74
REMARK SMILES IDX 67 75 69 76 68 77 55 78 56 79 60 80 57 81 59 82 58 83
REMARK H PARENT 75 51 53 62
REMARK Flexibility Score: inf
ROOT
ATOM      1  C   UNL A   1      32.636  31.162  26.943  1.00  0.00     0.274 C 
ENDROOT
BRANCH   1   2
ATOM      2  O   UNL A   1      32.462  29.747  27.162  1.00  0.00    -0.461 OA
BRANCH   2   3
ATOM      3  C   UNL A   1      32.338  28.822  26.178  1.00  0.00     0.326 C 
ATOM      4  O   UNL A   1      32.293  27.629  26.476  1.00  0.00    -0.250 OA
BRANCH   3   5
ATOM      5  C   UNL A   1      32.407  29.268  24.748  1.00  0.00     0.245 C 
BRANCH   5   6
ATOM      6  N   UNL A   1      31.413  28.900  23.750  1.00  0.00    -0.325 N 
ATOM      7  C   UNL A   1      31.390  27.845  22.879  1.00  0.00     0.109 A 
ATOM      8  C   UNL A   1      30.276  29.690  23.573  1.00  0.00     0.049 A 
ATOM      9  C   UNL A   1      30.332  28.061  22.012  1.00  0.00     0.042 A 
ATOM     10  C   UNL A   1      29.626  29.223  22.434  1.00  0.00     0.000 A 
ATOM     11  C   UNL A   1      29.774  30.778  24.314  1.00  0.00     0.027 A 
ATOM     12  C   UNL A   1      28.469  29.900  21.992  1.00  0.00     0.010 A 
ATOM     13  C   UNL A   1      28.635  31.440  23.855  1.00  0.00     0.002 A 
ATOM     14  C   UNL A   1      27.995  31.013  22.701  1.00  0.00     0.001 A 
BRANCH   7  15
ATOM     15  C   UNL A   1      32.183  26.670  23.031  1.00  0.00     0.274 A 
ATOM     16  N   UNL A   1      31.773  25.469  23.392  1.00  0.00    -0.185 NA
ATOM     17  O   UNL A   1      33.479  26.671  22.602  1.00  0.00    -0.332 OA
ATOM     18  C   UNL A   1      32.891  24.684  23.169  1.00  0.00     0.202 A 
ATOM     19  N   UNL A   1      33.930  25.375  22.668  1.00  0.00    -0.057 NA
BRANCH  18  20
ATOM     20  C   UNL A   1      33.012  23.251  23.456  1.00  0.00     0.023 A 
ATOM     21  C   UNL A   1      34.115  22.823  24.216  1.00  0.00     0.013 A 
ATOM     22  C   UNL A   1      32.095  22.286  23.023  1.00  0.00     0.013 A 
ATOM     23  C   UNL A   1      34.297  21.484  24.555  1.00  0.00     0.014 A 
ATOM     24  C   UNL A   1      32.278  20.929  23.363  1.00  0.00     0.014 A 
ATOM     25  C   UNL A   1      33.375  20.519  24.142  1.00  0.00     0.056 A 
BRANCH  25  26
ATOM     26  C   UNL A   1      33.603  19.084  24.556  1.00  0.00     0.416 C 
ATOM     27  F   UNL A   1      34.927  18.792  24.704  1.00  0.00    -0.166 F 
ATOM     28  F   UNL A   1      33.029  18.799  25.760  1.00  0.00    -0.166 F 
ATOM     29  F   UNL A   1      33.112  18.167  23.681  1.00  0.00    -0.166 F 
ENDBRANCH  25  26
ENDBRANCH  18  20
ENDBRANCH   7  15
ENDBRANCH   5   6
ENDBRANCH   3   5
ENDBRANCH   2   3
ENDBRANCH   1   2
BRANCH   1  30
ATOM     30  C   UNL A   1      33.689  31.755  27.890  1.00  0.00     0.275 C 
BRANCH  30  31
ATOM     31  O   UNL A   1      34.998  31.269  27.528  1.00  0.00    -0.458 OA
BRANCH  31  32
ATOM     32  C   UNL A   1      36.060  32.013  27.939  1.00  0.00     0.338 C 
ATOM     33  O   UNL A   1      36.127  33.229  27.995  1.00  0.00    -0.246 OA
BRANCH  32  34
ATOM     34  C   UNL A   1      36.983  31.092  28.644  1.00  0.00     0.060 A 
ATOM     35  C   UNL A   1      38.177  31.544  29.211  1.00  0.00     0.016 A 
ATOM     36  C   UNL A   1      36.760  29.720  28.470  1.00  0.00     0.016 A 
ATOM     37  C   UNL A   1      39.205  30.628  29.431  1.00  0.00     0.010 A 
ATOM     38  C   UNL A   1      37.792  28.809  28.692  1.00  0.00     0.010 A 
ATOM     39  C   UNL A   1      39.047  29.269  29.086  1.00  0.00    -0.014 A 
BRANCH  39  40
ATOM     40  C   UNL A   1      40.201  28.364  29.262  1.00  0.00     0.031 A 
ATOM     41  C   UNL A   1      40.619  28.245  30.693  1.00  0.00     0.074 A 
ATOM     42  C   UNL A   1      40.788  27.609  28.302  1.00  0.00     0.049 A 
ATOM     43  N   UNL A   1      41.789  28.420  31.217  1.00  0.00    -0.248 NA
ATOM     44  C   UNL A   1      39.540  28.042  31.678  1.00  0.00     0.031 C 
ATOM     45  C   UNL A   1      40.374  27.415  26.910  1.00  0.00     0.029 A 
ATOM     46  N   UNL A   1      41.850  26.746  28.406  1.00  0.00    -0.354 N 
ATOM     47  C   UNL A   1      41.623  28.222  32.586  1.00  0.00     0.074 A 
ATOM     48  C   UNL A   1      40.206  28.129  32.825  1.00  0.00     0.031 C 
ATOM     49  C   UNL A   1      40.990  26.324  26.396  1.00  0.00     0.029 A 
ATOM     50  C   UNL A   1      41.942  25.818  27.367  1.00  0.00     0.049 A 
ATOM     51  H   UNL A   1      42.493  26.779  29.151  1.00  0.00     0.167 HD
ATOM     52  C   UNL A   1      42.659  27.980  33.433  1.00  0.00     0.031 A 
ATOM     53  C   UNL A   1      42.689  24.681  27.333  1.00  0.00     0.031 A 
ATOM     54  C   UNL A   1      43.915  28.408  32.895  1.00  0.00     0.049 A 
ATOM     55  C   UNL A   1      43.734  24.798  28.369  1.00  0.00     0.074 A 
ATOM     56  C   UNL A   1      44.459  29.637  32.581  1.00  0.00     0.029 A 
ATOM     57  N   UNL A   1      44.699  27.476  32.263  1.00  0.00    -0.354 N 
ATOM     58  N   UNL A   1      44.726  25.634  28.308  1.00  0.00    -0.248 NA
ATOM     59  C   UNL A   1      43.421  24.278  29.690  1.00  0.00     0.031 C 
ATOM     60  C   UNL A   1      45.218  29.412  31.400  1.00  0.00     0.029 A 
ATOM     61  C   UNL A   1      45.159  28.050  31.104  1.00  0.00     0.049 A 
ATOM     62  H   UNL A   1      44.895  26.565  32.580  1.00  0.00     0.167 HD
ATOM     63  C   UNL A   1      44.870  26.091  29.608  1.00  0.00     0.074 A 
ATOM     64  C   UNL A   1      44.086  25.167  30.427  1.00  0.00     0.031 C 
ATOM     65  C   UNL A   1      45.377  27.330  29.870  1.00  0.00     0.031 A 
BRANCH  52  66
ATOM     66  C   UNL A   1      42.535  27.080  34.632  1.00  0.00    -0.014 A 
ATOM     67  C   UNL A   1      41.892  27.477  35.823  1.00  0.00     0.009 A 
ATOM     68  C   UNL A   1      42.845  25.716  34.511  1.00  0.00     0.009 A 
ATOM     69  C   UNL A   1      41.588  26.576  36.844  1.00  0.00     0.001 A 
ATOM     70  C   UNL A   1      42.504  24.800  35.515  1.00  0.00     0.001 A 
ATOM     71  C   UNL A   1      41.876  25.231  36.681  1.00  0.00     0.000 A 
ENDBRANCH  52  66
BRANCH  53  72
ATOM     72  C   UNL A   1      42.323  23.344  26.790  1.00  0.00    -0.014 A 
ATOM     73  C   UNL A   1      41.163  22.698  27.251  1.00  0.00     0.009 A 
ATOM     74  C   UNL A   1      43.266  22.564  26.094  1.00  0.00     0.009 A 
ATOM     75  C   UNL A   1      40.973  21.322  27.072  1.00  0.00     0.001 A 
ATOM     76  C   UNL A   1      43.075  21.184  25.913  1.00  0.00     0.001 A 
ATOM     77  C   UNL A   1      41.937  20.561  26.419  1.00  0.00     0.000 A 
ENDBRANCH  53  72
BRANCH  65  78
ATOM     78  C   UNL A   1      45.972  28.125  28.729  1.00  0.00    -0.014 A 
ATOM     79  C   UNL A   1      45.091  28.808  27.876  1.00  0.00     0.009 A 
ATOM     80  C   UNL A   1      47.328  28.052  28.361  1.00  0.00     0.009 A 
ATOM     81  C   UNL A   1      45.539  29.373  26.680  1.00  0.00     0.001 A 
ATOM     82  C   UNL A   1      47.782  28.640  27.175  1.00  0.00     0.001 A 
ATOM     83  C   UNL A   1      46.884  29.289  26.328  1.00  0.00     0.000 A 
ENDBRANCH  65  78
ENDBRANCH  39  40
ENDBRANCH  32  34
ENDBRANCH  31  32
ENDBRANCH  30  31
ENDBRANCH   1  30
TORSDOF 15
ENDMDL
MODEL 3
REMARK VINA RESULT:     -12.2      2.987      5.761
REMARK SMILES O=C(Cn1c(-c2nc(-c3ccc(C(F)(F)F)cc3)no2)cc2ccccc21)OCCOC(=O)c1ccc(-c2c3nc(c(-c4ccccc4)c4ccc([nH]4)c(-c4ccccc4)c4nc(c(-c5ccccc5)c5ccc2[nH]5)C=C4)C=C3)cc1
REMARK SMILES IDX 29 1 28 2 2 3 1 4 3 5 4 6 5 7 27 8 21 9 22 10 26 11 23 12
REMARK SMILES IDX 25 13 24 14 6 15 7 16 20 17 8 18 19 19 9 20 10 21 18 22
REMARK SMILES IDX 11 23 17 24 12 25 13 26 14 27 15 28 16 29 30 30 31 31 32 32
REMARK SMILES IDX 33 33 34 34 35 35 81 36 36 37 80 38 37 39 38 40 39 41 74 42
REMARK SMILES IDX 40 43 79 44 73 45 75 46 41 47 78 48 72 49 71 50 42 52 64 53
REMARK SMILES IDX 49 54 63 55 50 56 53 57 62 58 76 59 51 60 52 61 61 63 77 64
REMARK SMILES IDX 54 65 43 66 44 67 48 68 45 69 47 70 46 71 65 72 66 73 70 74
REMARK SMILES IDX 67 75 69 76 68 77 55 78 56 79 60 80 57 81 59 82 58 83
REMARK H PARENT 75 51 53 62
REMARK Flexibility Score: inf
ROOT
ATOM      1  C   UNL A   1      34.815  24.208  24.094  1.00  0.00     0.274 C 
ENDROOT
BRANCH   1   2
ATOM      2  O   UNL A   1      34.361  24.497  22.756  1.00  0.00    -0.461 OA
BRANCH   2   3
ATOM      3  C   UNL A   1      33.590  25.560  22.414  1.00  0.00     0.326 C 
ATOM      4  O   UNL A   1      33.611  25.970  21.255  1.00  0.00    -0.250 OA
BRANCH   3   5
ATOM      5  C   UNL A   1      32.846  26.293  23.490  1.00  0.00     0.245 C 
BRANCH   5   6
ATOM      6  N   UNL A   1      31.397  26.252  23.627  1.00  0.00    -0.325 N 
ATOM      7  C   UNL A   1      30.564  25.190  23.851  1.00  0.00     0.109 A 
ATOM      8  C   UNL A   1      30.652  27.428  23.519  1.00  0.00     0.049 A 
ATOM      9  C   UNL A   1      29.268  25.654  23.698  1.00  0.00     0.042 A 
ATOM     10  C   UNL A   1      29.310  27.061  23.482  1.00  0.00     0.000 A 
ATOM     11  C   UNL A   1      31.050  28.778  23.440  1.00  0.00     0.027 A 
ATOM     12  C   UNL A   1      28.340  28.070  23.307  1.00  0.00     0.010 A 
ATOM     13  C   UNL A   1      30.076  29.759  23.258  1.00  0.00     0.002 A 
ATOM     14  C   UNL A   1      28.735  29.410  23.181  1.00  0.00     0.001 A 
BRANCH   7  15
ATOM     15  C   UNL A   1      30.998  23.933  24.365  1.00  0.00     0.274 A 
ATOM     16  N   UNL A   1      31.322  22.856  23.675  1.00  0.00    -0.185 NA
ATOM     17  O   UNL A   1      31.305  23.815  25.689  1.00  0.00    -0.332 OA
ATOM     18  C   UNL A   1      31.862  22.025  24.640  1.00  0.00     0.202 A 
ATOM     19  N   UNL A   1      31.890  22.583  25.863  1.00  0.00    -0.057 NA
BRANCH  18  20
ATOM     20  C   UNL A   1      32.343  20.656  24.431  1.00  0.00     0.023 A 
ATOM     21  C   UNL A   1      33.114  20.066  25.450  1.00  0.00     0.013 A 
ATOM     22  C   UNL A   1      32.079  19.900  23.283  1.00  0.00     0.013 A 
ATOM     23  C   UNL A   1      33.592  18.762  25.347  1.00  0.00     0.014 A 
ATOM     24  C   UNL A   1      32.565  18.579  23.175  1.00  0.00     0.014 A 
ATOM     25  C   UNL A   1      33.316  17.997  24.211  1.00  0.00     0.056 A 
BRANCH  25  26
ATOM     26  C   UNL A   1      33.837  16.579  24.157  1.00  0.00     0.416 C 
ATOM     27  F   UNL A   1      34.643  16.282  25.215  1.00  0.00    -0.166 F 
ATOM     28  F   UNL A   1      32.830  15.659  24.195  1.00  0.00    -0.166 F 
ATOM     29  F   UNL A   1      34.561  16.294  23.041  1.00  0.00    -0.166 F 
ENDBRANCH  25  26
ENDBRANCH  18  20
ENDBRANCH   7  15
ENDBRANCH   5   6
ENDBRANCH   3   5
ENDBRANCH   2   3
ENDBRANCH   1   2
BRANCH   1  30
ATOM     30  C   UNL A   1      35.329  22.766  24.215  1.00  0.00     0.275 C 
BRANCH  30  31
ATOM     31  O   UNL A   1      36.024  22.600  25.468  1.00  0.00    -0.458 OA
BRANCH  31  32
ATOM     32  C   UNL A   1      37.039  21.695  25.487  1.00  0.00     0.338 C 
ATOM     33  O   UNL A   1      37.023  20.563  25.035  1.00  0.00    -0.246 OA
BRANCH  32  34
ATOM     34  C   UNL A   1      38.275  22.441  25.824  1.00  0.00     0.060 A 
ATOM     35  C   UNL A   1      39.380  21.807  26.396  1.00  0.00     0.016 A 
ATOM     36  C   UNL A   1      38.188  23.839  25.819  1.00  0.00     0.016 A 
ATOM     37  C   UNL A   1      40.297  22.574  27.114  1.00  0.00     0.010 A 
ATOM     38  C   UNL A   1      39.109  24.601  26.538  1.00  0.00     0.010 A 
ATOM     39  C   UNL A   1      40.114  23.966  27.264  1.00  0.00    -0.014 A 
BRANCH  39  40
ATOM     40  C   UNL A   1      41.072  24.710  28.107  1.00  0.00     0.031 A 
ATOM     41  C   UNL A   1      40.645  26.123  28.345  1.00  0.00     0.074 A 
ATOM     42  C   UNL A   1      42.167  24.202  28.723  1.00  0.00     0.049 A 
ATOM     43  N   UNL A   1      41.308  27.217  28.151  1.00  0.00    -0.248 NA
ATOM     44  C   UNL A   1      39.232  26.330  28.714  1.00  0.00     0.031 C 
ATOM     45  C   UNL A   1      42.609  22.807  28.800  1.00  0.00     0.029 A 
ATOM     46  N   UNL A   1      43.084  24.836  29.524  1.00  0.00    -0.354 N 
ATOM     47  C   UNL A   1      40.440  28.251  28.496  1.00  0.00     0.074 A 
ATOM     48  C   UNL A   1      39.146  27.656  28.702  1.00  0.00     0.031 C 
ATOM     49  C   UNL A   1      43.521  22.669  29.792  1.00  0.00     0.029 A 
ATOM     50  C   UNL A   1      43.831  23.979  30.334  1.00  0.00     0.049 A 
ATOM     51  H   UNL A   1      43.204  25.813  29.527  1.00  0.00     0.167 HD
ATOM     52  C   UNL A   1      40.860  29.517  28.758  1.00  0.00     0.031 A 
ATOM     53  C   UNL A   1      44.592  24.309  31.413  1.00  0.00     0.031 A 
ATOM     54  C   UNL A   1      42.150  29.791  28.199  1.00  0.00     0.049 A 
ATOM     55  C   UNL A   1      44.877  25.756  31.336  1.00  0.00     0.074 A 
ATOM     56  C   UNL A   1      42.639  29.894  26.913  1.00  0.00     0.029 A 
ATOM     57  N   UNL A   1      43.248  29.656  29.011  1.00  0.00    -0.354 N 
ATOM     58  N   UNL A   1      45.642  26.299  30.438  1.00  0.00    -0.248 NA
ATOM     59  C   UNL A   1      43.948  26.652  32.006  1.00  0.00     0.031 C 
ATOM     60  C   UNL A   1      43.941  29.325  26.969  1.00  0.00     0.029 A 
ATOM     61  C   UNL A   1      44.203  28.979  28.295  1.00  0.00     0.049 A 
ATOM     62  H   UNL A   1      43.335  29.983  29.936  1.00  0.00     0.167 HD
ATOM     63  C   UNL A   1      44.998  27.480  30.107  1.00  0.00     0.074 A 
ATOM     64  C   UNL A   1      43.998  27.678  31.156  1.00  0.00     0.031 C 
ATOM     65  C   UNL A   1      45.140  28.041  28.872  1.00  0.00     0.031 A 
BRANCH  52  66
ATOM     66  C   UNL A   1      40.197  30.399  29.781  1.00  0.00    -0.014 A 
ATOM     67  C   UNL A   1      40.842  30.815  30.964  1.00  0.00     0.009 A 
ATOM     68  C   UNL A   1      38.988  31.040  29.466  1.00  0.00     0.009 A 
ATOM     69  C   UNL A   1      40.311  31.800  31.798  1.00  0.00     0.001 A 
ATOM     70  C   UNL A   1      38.473  32.059  30.278  1.00  0.00     0.001 A 
ATOM     71  C   UNL A   1      39.134  32.439  31.443  1.00  0.00     0.000 A 
ENDBRANCH  52  66
BRANCH  53  72
ATOM     72  C   UNL A   1      44.732  23.589  32.708  1.00  0.00    -0.014 A 
ATOM     73  C   UNL A   1      43.583  23.158  33.393  1.00  0.00     0.009 A 
ATOM     74  C   UNL A   1      45.941  23.626  33.428  1.00  0.00     0.009 A 
ATOM     75  C   UNL A   1      43.626  22.827  34.754  1.00  0.00     0.001 A 
ATOM     76  C   UNL A   1      45.984  23.292  34.792  1.00  0.00     0.001 A 
ATOM     77  C   UNL A   1      44.822  22.911  35.458  1.00  0.00     0.000 A 
ENDBRANCH  53  72
BRANCH  65  78
ATOM     78  C   UNL A   1      46.173  27.464  27.929  1.00  0.00    -0.014 A 
ATOM     79  C   UNL A   1      45.839  26.296  27.225  1.00  0.00     0.009 A 
ATOM     80  C   UNL A   1      47.505  27.915  27.874  1.00  0.00     0.009 A 
ATOM     81  C   UNL A   1      46.807  25.582  26.515  1.00  0.00     0.001 A 
ATOM     82  C   UNL A   1      48.470  27.213  27.141  1.00  0.00     0.001 A 
ATOM     83  C   UNL A   1      48.122  26.039  26.474  1.00  0.00     0.000 A 
ENDBRANCH  65  78
ENDBRANCH  39  40
ENDBRANCH  32  34
ENDBRANCH  31  32
ENDBRANCH  30  31
ENDBRANCH   1  30
TORSDOF 15
ENDMDL
