MODEL 1
REMARK VINA RESULT:     -12.0      0.000      0.000
REMARK SMILES Cc1cc(C)n(-c2ccccc2NS(=O)(=O)c2cc(C)c(C(=O)OCCOC(=O)c3ccc(-c4c5nc(c(-c6ccccc6)c6ccc([nH]6)c(-c6ccccc6)c6nc(c(-c7ccccc7)c7ccc4[nH]7)C=C6)C=C5)cc3)s2)n1
REMARK SMILES IDX 25 1 24 2 22 3 23 4 21 5 17 6 18 7 78 8 19 9 20 10 14 11
REMARK SMILES IDX 15 12 16 13 13 14 12 16 7 17 8 18 9 19 11 20 10 21 6 22 1 23
REMARK SMILES IDX 2 24 3 25 79 26 4 27 5 28 26 29 27 30 28 31 29 32 30 33
REMARK SMILES IDX 31 34 77 35 32 36 76 37 33 38 34 39 35 40 70 41 36 42 75 43
REMARK SMILES IDX 69 44 71 45 37 46 74 47 68 48 67 49 38 51 60 52 45 53 59 54
REMARK SMILES IDX 46 55 49 56 58 57 72 58 47 59 48 60 57 62 73 63 50 64 39 65
REMARK SMILES IDX 40 66 44 67 41 68 43 69 42 70 61 71 62 72 66 73 63 74 65 75
REMARK SMILES IDX 64 76 51 77 52 78 56 79 53 80 55 81 54 82
REMARK H PARENT 13 15 71 50 49 61
REMARK Flexibility Score: inf
ROOT
ATOM      1  C   UNL A   1      37.325  21.129  24.650  1.00  0.00     0.275 C 
ENDROOT
BRANCH   1   2
ATOM      2  O   UNL A   1      36.149  21.168  25.475  1.00  0.00    -0.458 OA
BRANCH   2   3
ATOM      3  C   UNL A   1      34.942  21.322  24.850  1.00  0.00     0.348 C 
ATOM      4  O   UNL A   1      34.155  20.399  24.646  1.00  0.00    -0.245 OA
BRANCH   3   5
ATOM      5  C   UNL A   1      34.693  22.721  24.527  1.00  0.00     0.116 A 
ATOM      6  C   UNL A   1      33.988  24.684  23.247  1.00  0.00     0.141 A 
ATOM      7  C   UNL A   1      34.082  24.980  24.593  1.00  0.00     0.038 A 
ATOM      8  S   UNL A   1      34.811  23.242  22.893  1.00  0.00    -0.115 S 
ATOM      9  C   UNL A   1      34.337  23.784  25.362  1.00  0.00    -0.024 A 
ATOM     10  C   UNL A   1      34.115  23.745  26.842  1.00  0.00     0.046 C 
BRANCH   6  11
ATOM     11  S   UNL A   1      33.042  25.394  21.927  1.00  0.00     0.271 S 
ATOM     12  O   UNL A   1      33.291  24.599  20.744  1.00  0.00    -0.200 OA
ATOM     13  O   UNL A   1      33.352  26.808  21.968  1.00  0.00    -0.200 OA
BRANCH  11  14
ATOM     14  N   UNL A   1      31.419  25.238  22.301  1.00  0.00    -0.277 N 
ATOM     15  H   UNL A   1      30.783  25.441  21.578  1.00  0.00     0.180 HD
BRANCH  14  16
ATOM     16  C   UNL A   1      30.841  24.836  23.568  1.00  0.00     0.075 A 
ATOM     17  C   UNL A   1      30.613  25.857  24.511  1.00  0.00     0.089 A 
ATOM     18  C   UNL A   1      30.483  25.566  25.880  1.00  0.00     0.030 A 
ATOM     19  C   UNL A   1      30.573  24.249  26.323  1.00  0.00     0.002 A 
ATOM     20  C   UNL A   1      30.805  23.521  24.030  1.00  0.00     0.029 A 
ATOM     21  C   UNL A   1      30.709  23.226  25.396  1.00  0.00     0.002 A 
BRANCH  17  22
ATOM     22  N   UNL A   1      30.433  27.186  24.055  1.00  0.00    -0.236 N 
ATOM     23  C   UNL A   1      28.224  29.438  22.421  1.00  0.00     0.069 C 
ATOM     24  C   UNL A   1      29.336  28.780  23.147  1.00  0.00     0.060 A 
ATOM     25  C   UNL A   1      30.416  29.378  23.827  1.00  0.00     0.048 A 
ATOM     26  N   UNL A   1      29.415  27.448  23.188  1.00  0.00    -0.173 NA
ATOM     27  C   UNL A   1      31.146  28.332  24.354  1.00  0.00     0.041 A 
ATOM     28  C   UNL A   1      32.477  28.336  25.009  1.00  0.00     0.067 C 
ENDBRANCH  17  22
ENDBRANCH  14  16
ENDBRANCH  11  14
ENDBRANCH   6  11
ENDBRANCH   3   5
ENDBRANCH   2   3
ENDBRANCH   1   2
BRANCH   1  29
ATOM     29  C   UNL A   1      38.567  21.492  25.455  1.00  0.00     0.275 C 
BRANCH  29  30
ATOM     30  O   UNL A   1      38.989  20.383  26.246  1.00  0.00    -0.458 OA
BRANCH  30  31
ATOM     31  C   UNL A   1      40.236  19.952  25.970  1.00  0.00     0.338 C 
ATOM     32  O   UNL A   1      40.561  18.919  25.409  1.00  0.00    -0.246 OA
BRANCH  31  33
ATOM     33  C   UNL A   1      41.213  20.824  26.611  1.00  0.00     0.060 A 
ATOM     34  C   UNL A   1      41.183  20.867  28.008  1.00  0.00     0.016 A 
ATOM     35  C   UNL A   1      41.825  21.814  25.834  1.00  0.00     0.016 A 
ATOM     36  C   UNL A   1      41.573  22.029  28.625  1.00  0.00     0.010 A 
ATOM     37  C   UNL A   1      42.202  22.977  26.450  1.00  0.00     0.010 A 
ATOM     38  C   UNL A   1      41.979  23.096  27.821  1.00  0.00    -0.014 A 
BRANCH  38  39
ATOM     39  C   UNL A   1      42.243  24.358  28.469  1.00  0.00     0.031 A 
ATOM     40  C   UNL A   1      41.228  25.383  28.138  1.00  0.00     0.074 A 
ATOM     41  C   UNL A   1      43.247  24.475  29.360  1.00  0.00     0.049 A 
ATOM     42  N   UNL A   1      41.409  26.532  27.581  1.00  0.00    -0.248 NA
ATOM     43  C   UNL A   1      39.810  24.998  28.283  1.00  0.00     0.031 C 
ATOM     44  C   UNL A   1      44.096  23.408  29.905  1.00  0.00     0.029 A 
ATOM     45  N   UNL A   1      43.621  25.557  30.088  1.00  0.00    -0.354 N 
ATOM     46  C   UNL A   1      40.142  27.101  27.490  1.00  0.00     0.074 A 
ATOM     47  C   UNL A   1      39.195  26.049  27.747  1.00  0.00     0.031 C 
ATOM     48  C   UNL A   1      44.665  23.840  31.052  1.00  0.00     0.029 A 
ATOM     49  C   UNL A   1      44.321  25.238  31.244  1.00  0.00     0.049 A 
ATOM     50  H   UNL A   1      43.415  26.482  29.822  1.00  0.00     0.167 HD
ATOM     51  C   UNL A   1      39.978  28.451  27.521  1.00  0.00     0.031 A 
ATOM     52  C   UNL A   1      44.502  26.040  32.323  1.00  0.00     0.031 A 
ATOM     53  C   UNL A   1      41.191  29.135  27.160  1.00  0.00     0.049 A 
ATOM     54  C   UNL A   1      44.178  27.428  31.907  1.00  0.00     0.074 A 
ATOM     55  C   UNL A   1      41.993  29.159  26.037  1.00  0.00     0.029 A 
ATOM     56  N   UNL A   1      41.956  29.635  28.188  1.00  0.00    -0.354 N 
ATOM     57  N   UNL A   1      44.894  28.107  31.057  1.00  0.00    -0.248 NA
ATOM     58  C   UNL A   1      42.801  27.877  32.059  1.00  0.00     0.031 C 
ATOM     59  C   UNL A   1      43.325  29.235  26.537  1.00  0.00     0.029 A 
ATOM     60  C   UNL A   1      43.263  29.324  27.930  1.00  0.00     0.049 A 
ATOM     61  H   UNL A   1      41.622  30.130  28.972  1.00  0.00     0.167 HD
ATOM     62  C   UNL A   1      43.968  28.763  30.257  1.00  0.00     0.074 A 
ATOM     63  C   UNL A   1      42.700  28.660  30.980  1.00  0.00     0.031 C 
ATOM     64  C   UNL A   1      44.250  29.064  28.955  1.00  0.00     0.031 A 
BRANCH  51  65
ATOM     65  C   UNL A   1      38.902  29.105  28.357  1.00  0.00    -0.014 A 
ATOM     66  C   UNL A   1      38.897  28.858  29.740  1.00  0.00     0.009 A 
ATOM     67  C   UNL A   1      37.733  29.677  27.816  1.00  0.00     0.009 A 
ATOM     68  C   UNL A   1      37.746  29.061  30.511  1.00  0.00     0.001 A 
ATOM     69  C   UNL A   1      36.596  29.919  28.588  1.00  0.00     0.001 A 
ATOM     70  C   UNL A   1      36.591  29.576  29.930  1.00  0.00     0.000 A 
ENDBRANCH  51  65
BRANCH  52  71
ATOM     71  C   UNL A   1      44.595  25.634  33.744  1.00  0.00    -0.014 A 
ATOM     72  C   UNL A   1      45.654  26.069  34.557  1.00  0.00     0.009 A 
ATOM     73  C   UNL A   1      43.505  25.005  34.376  1.00  0.00     0.009 A 
ATOM     74  C   UNL A   1      45.613  25.893  35.948  1.00  0.00     0.001 A 
ATOM     75  C   UNL A   1      43.465  24.827  35.764  1.00  0.00     0.001 A 
ATOM     76  C   UNL A   1      44.515  25.282  36.551  1.00  0.00     0.000 A 
ENDBRANCH  52  71
BRANCH  64  77
ATOM     77  C   UNL A   1      45.664  28.869  28.471  1.00  0.00    -0.014 A 
ATOM     78  C   UNL A   1      46.145  27.642  27.977  1.00  0.00     0.009 A 
ATOM     79  C   UNL A   1      46.475  30.006  28.339  1.00  0.00     0.009 A 
ATOM     80  C   UNL A   1      47.409  27.559  27.384  1.00  0.00     0.001 A 
ATOM     81  C   UNL A   1      47.727  29.925  27.728  1.00  0.00     0.001 A 
ATOM     82  C   UNL A   1      48.195  28.702  27.253  1.00  0.00     0.000 A 
ENDBRANCH  64  77
ENDBRANCH  38  39
ENDBRANCH  31  33
ENDBRANCH  30  31
ENDBRANCH  29  30
ENDBRANCH   1  29
TORSDOF 15
ENDMDL
MODEL 2
REMARK VINA RESULT:     -12.0      3.753      8.396
REMARK SMILES Cc1cc(C)n(-c2ccccc2NS(=O)(=O)c2cc(C)c(C(=O)OCCOC(=O)c3ccc(-c4c5nc(c(-c6ccccc6)c6ccc([nH]6)c(-c6ccccc6)c6nc(c(-c7ccccc7)c7ccc4[nH]7)C=C6)C=C5)cc3)s2)n1
REMARK SMILES IDX 25 1 24 2 22 3 23 4 21 5 17 6 18 7 78 8 19 9 20 10 14 11
REMARK SMILES IDX 15 12 16 13 13 14 12 16 7 17 8 18 9 19 11 20 10 21 6 22 1 23
REMARK SMILES IDX 2 24 3 25 79 26 4 27 5 28 26 29 27 30 28 31 29 32 30 33
REMARK SMILES IDX 31 34 77 35 32 36 76 37 33 38 34 39 35 40 70 41 36 42 75 43
REMARK SMILES IDX 69 44 71 45 37 46 74 47 68 48 67 49 38 51 60 52 45 53 59 54
REMARK SMILES IDX 46 55 49 56 58 57 72 58 47 59 48 60 57 62 73 63 50 64 39 65
REMARK SMILES IDX 40 66 44 67 41 68 43 69 42 70 61 71 62 72 66 73 63 74 65 75
REMARK SMILES IDX 64 76 51 77 52 78 56 79 53 80 55 81 54 82
REMARK H PARENT 13 15 71 50 49 61
REMARK Flexibility Score: inf
ROOT
ATOM      1  C   UNL A   1      32.209  30.267  25.588  1.00  0.00     0.275 C 
ENDROOT
BRANCH   1   2
ATOM      2  O   UNL A   1      31.221  29.238  25.416  1.00  0.00    -0.458 OA
BRANCH   2   3
ATOM      3  C   UNL A   1      30.502  29.240  24.251  1.00  0.00     0.348 C 
ATOM      4  O   UNL A   1      29.833  30.195  23.862  1.00  0.00    -0.245 OA
BRANCH   3   5
ATOM      5  C   UNL A   1      30.694  27.996  23.515  1.00  0.00     0.116 A 
ATOM      6  C   UNL A   1      31.837  26.230  22.265  1.00  0.00     0.141 A 
ATOM      7  C   UNL A   1      30.640  25.774  22.781  1.00  0.00     0.038 A 
ATOM      8  S   UNL A   1      31.887  27.928  22.278  1.00  0.00    -0.115 S 
ATOM      9  C   UNL A   1      30.049  26.765  23.651  1.00  0.00    -0.024 A 
ATOM     10  C   UNL A   1      28.967  26.406  24.623  1.00  0.00     0.046 C 
BRANCH   6  11
ATOM     11  S   UNL A   1      33.336  25.403  21.804  1.00  0.00     0.271 S 
ATOM     12  O   UNL A   1      34.436  26.239  22.232  1.00  0.00    -0.200 OA
ATOM     13  O   UNL A   1      33.150  25.049  20.413  1.00  0.00    -0.200 OA
BRANCH  11  14
ATOM     14  N   UNL A   1      33.431  23.972  22.664  1.00  0.00    -0.277 N 
ATOM     15  H   UNL A   1      32.660  23.365  22.587  1.00  0.00     0.180 HD
BRANCH  14  16
ATOM     16  C   UNL A   1      34.518  23.522  23.510  1.00  0.00     0.075 A 
ATOM     17  C   UNL A   1      34.528  23.998  24.835  1.00  0.00     0.089 A 
ATOM     18  C   UNL A   1      35.709  24.003  25.597  1.00  0.00     0.030 A 
ATOM     19  C   UNL A   1      36.895  23.527  25.045  1.00  0.00     0.002 A 
ATOM     20  C   UNL A   1      35.693  22.941  23.032  1.00  0.00     0.029 A 
ATOM     21  C   UNL A   1      36.881  22.973  23.773  1.00  0.00     0.002 A 
BRANCH  17  22
ATOM     22  N   UNL A   1      33.307  24.401  25.429  1.00  0.00    -0.236 N 
ATOM     23  C   UNL A   1      30.230  23.295  26.818  1.00  0.00     0.069 C 
ATOM     24  C   UNL A   1      31.404  24.064  26.342  1.00  0.00     0.060 A 
ATOM     25  C   UNL A   1      31.738  25.408  26.605  1.00  0.00     0.048 A 
ATOM     26  N   UNL A   1      32.297  23.492  25.533  1.00  0.00    -0.173 NA
ATOM     27  C   UNL A   1      32.938  25.624  25.957  1.00  0.00     0.041 A 
ATOM     28  C   UNL A   1      33.678  26.888  25.726  1.00  0.00     0.067 C 
ENDBRANCH  17  22
ENDBRANCH  14  16
ENDBRANCH  11  14
ENDBRANCH   6  11
ENDBRANCH   3   5
ENDBRANCH   2   3
ENDBRANCH   1   2
BRANCH   1  29
ATOM     29  C   UNL A   1      31.700  31.362  26.515  1.00  0.00     0.275 C 
BRANCH  29  30
ATOM     30  O   UNL A   1      32.674  31.665  27.512  1.00  0.00    -0.458 OA
BRANCH  30  31
ATOM     31  C   UNL A   1      32.763  32.976  27.815  1.00  0.00     0.338 C 
ATOM     32  O   UNL A   1      32.013  33.873  27.470  1.00  0.00    -0.246 OA
BRANCH  31  33
ATOM     33  C   UNL A   1      34.026  33.241  28.492  1.00  0.00     0.060 A 
ATOM     34  C   UNL A   1      35.071  33.716  27.693  1.00  0.00     0.016 A 
ATOM     35  C   UNL A   1      34.235  32.666  29.750  1.00  0.00     0.016 A 
ATOM     36  C   UNL A   1      36.355  33.405  28.061  1.00  0.00     0.010 A 
ATOM     37  C   UNL A   1      35.516  32.345  30.110  1.00  0.00     0.010 A 
ATOM     38  C   UNL A   1      36.542  32.636  29.212  1.00  0.00    -0.014 A 
BRANCH  38  39
ATOM     39  C   UNL A   1      37.883  32.190  29.506  1.00  0.00     0.031 A 
ATOM     40  C   UNL A   1      38.058  30.741  29.261  1.00  0.00     0.074 A 
ATOM     41  C   UNL A   1      38.843  33.073  29.841  1.00  0.00     0.049 A 
ATOM     42  N   UNL A   1      38.418  29.828  30.099  1.00  0.00    -0.248 NA
ATOM     43  C   UNL A   1      37.598  30.218  27.959  1.00  0.00     0.031 C 
ATOM     44  C   UNL A   1      38.759  34.539  29.829  1.00  0.00     0.029 A 
ATOM     45  N   UNL A   1      40.152  32.849  30.114  1.00  0.00    -0.354 N 
ATOM     46  C   UNL A   1      38.424  28.642  29.372  1.00  0.00     0.074 A 
ATOM     47  C   UNL A   1      37.730  28.906  28.140  1.00  0.00     0.031 C 
ATOM     48  C   UNL A   1      40.010  35.051  29.801  1.00  0.00     0.029 A 
ATOM     49  C   UNL A   1      40.961  33.960  29.920  1.00  0.00     0.049 A 
ATOM     50  H   UNL A   1      40.497  31.979  30.420  1.00  0.00     0.167 HD
ATOM     51  C   UNL A   1      39.267  27.626  29.699  1.00  0.00     0.031 A 
ATOM     52  C   UNL A   1      42.309  33.957  29.759  1.00  0.00     0.031 A 
ATOM     53  C   UNL A   1      39.712  27.732  31.064  1.00  0.00     0.049 A 
ATOM     54  C   UNL A   1      42.810  32.637  30.217  1.00  0.00     0.074 A 
ATOM     55  C   UNL A   1      39.080  27.735  32.291  1.00  0.00     0.029 A 
ATOM     56  N   UNL A   1      40.962  28.266  31.274  1.00  0.00    -0.354 N 
ATOM     57  N   UNL A   1      42.777  32.249  31.460  1.00  0.00    -0.248 NA
ATOM     58  C   UNL A   1      42.894  31.566  29.234  1.00  0.00     0.031 C 
ATOM     59  C   UNL A   1      39.801  28.684  33.072  1.00  0.00     0.029 A 
ATOM     60  C   UNL A   1      40.871  29.155  32.309  1.00  0.00     0.049 A 
ATOM     61  H   UNL A   1      41.778  28.045  30.768  1.00  0.00     0.167 HD
ATOM     62  C   UNL A   1      42.392  30.915  31.406  1.00  0.00     0.074 A 
ATOM     63  C   UNL A   1      42.572  30.525  30.008  1.00  0.00     0.031 C 
ATOM     64  C   UNL A   1      41.687  30.344  32.426  1.00  0.00     0.031 A 
BRANCH  51  65
ATOM     65  C   UNL A   1      40.055  26.874  28.651  1.00  0.00    -0.014 A 
ATOM     66  C   UNL A   1      40.930  27.604  27.830  1.00  0.00     0.009 A 
ATOM     67  C   UNL A   1      39.744  25.564  28.232  1.00  0.00     0.009 A 
ATOM     68  C   UNL A   1      41.369  27.096  26.602  1.00  0.00     0.001 A 
ATOM     69  C   UNL A   1      40.212  25.038  27.027  1.00  0.00     0.001 A 
ATOM     70  C   UNL A   1      40.995  25.819  26.194  1.00  0.00     0.000 A 
ENDBRANCH  51  65
BRANCH  52  71
ATOM     71  C   UNL A   1      43.121  34.874  28.927  1.00  0.00    -0.014 A 
ATOM     72  C   UNL A   1      44.337  35.396  29.395  1.00  0.00     0.009 A 
ATOM     73  C   UNL A   1      42.817  35.053  27.564  1.00  0.00     0.009 A 
ATOM     74  C   UNL A   1      45.219  36.056  28.526  1.00  0.00     0.001 A 
ATOM     75  C   UNL A   1      43.695  35.713  26.697  1.00  0.00     0.001 A 
ATOM     76  C   UNL A   1      44.902  36.206  27.177  1.00  0.00     0.000 A 
ENDBRANCH  52  71
BRANCH  64  77
ATOM     77  C   UNL A   1      41.528  31.126  33.705  1.00  0.00    -0.014 A 
ATOM     78  C   UNL A   1      42.432  31.036  34.779  1.00  0.00     0.009 A 
ATOM     79  C   UNL A   1      40.538  32.119  33.747  1.00  0.00     0.009 A 
ATOM     80  C   UNL A   1      42.334  31.908  35.869  1.00  0.00     0.001 A 
ATOM     81  C   UNL A   1      40.454  33.001  34.826  1.00  0.00     0.001 A 
ATOM     82  C   UNL A   1      41.350  32.894  35.887  1.00  0.00     0.000 A 
ENDBRANCH  64  77
ENDBRANCH  38  39
ENDBRANCH  31  33
ENDBRANCH  30  31
ENDBRANCH  29  30
ENDBRANCH   1  29
TORSDOF 15
ENDMDL
MODEL 3
REMARK VINA RESULT:     -11.8      1.834      2.639
REMARK SMILES Cc1cc(C)n(-c2ccccc2NS(=O)(=O)c2cc(C)c(C(=O)OCCOC(=O)c3ccc(-c4c5nc(c(-c6ccccc6)c6ccc([nH]6)c(-c6ccccc6)c6nc(c(-c7ccccc7)c7ccc4[nH]7)C=C6)C=C5)cc3)s2)n1
REMARK SMILES IDX 25 1 24 2 22 3 23 4 21 5 17 6 18 7 78 8 19 9 20 10 14 11
REMARK SMILES IDX 15 12 16 13 13 14 12 16 7 17 8 18 9 19 11 20 10 21 6 22 1 23
REMARK SMILES IDX 2 24 3 25 79 26 4 27 5 28 26 29 27 30 28 31 29 32 30 33
REMARK SMILES IDX 31 34 77 35 32 36 76 37 33 38 34 39 35 40 70 41 36 42 75 43
REMARK SMILES IDX 69 44 71 45 37 46 74 47 68 48 67 49 38 51 60 52 45 53 59 54
REMARK SMILES IDX 46 55 49 56 58 57 72 58 47 59 48 60 57 62 73 63 50 64 39 65
REMARK SMILES IDX 40 66 44 67 41 68 43 69 42 70 61 71 62 72 66 73 63 74 65 75
REMARK SMILES IDX 64 76 51 77 52 78 56 79 53 80 55 81 54 82
REMARK H PARENT 13 15 71 50 49 61
REMARK Flexibility Score: inf
ROOT
ATOM      1  C   UNL A   1      36.347  20.379  25.340  1.00  0.00     0.275 C 
ENDROOT
BRANCH   1   2
ATOM      2  O   UNL A   1      35.250  21.013  24.661  1.00  0.00    -0.458 OA
BRANCH   2   3
ATOM      3  C   UNL A   1      34.102  20.287  24.497  1.00  0.00     0.348 C 
ATOM      4  O   UNL A   1      34.081  19.068  24.338  1.00  0.00    -0.245 OA
BRANCH   3   5
ATOM      5  C   UNL A   1      32.923  21.137  24.607  1.00  0.00     0.116 A 
ATOM      6  C   UNL A   1      31.339  22.740  25.561  1.00  0.00     0.141 A 
ATOM      7  C   UNL A   1      31.170  22.632  24.194  1.00  0.00     0.038 A 
ATOM      8  S   UNL A   1      32.240  21.431  26.158  1.00  0.00    -0.115 S 
ATOM      9  C   UNL A   1      32.209  21.813  23.614  1.00  0.00    -0.024 A 
ATOM     10  C   UNL A   1      32.491  21.833  22.144  1.00  0.00     0.046 C 
BRANCH   6  11
ATOM     11  S   UNL A   1      30.978  24.038  26.714  1.00  0.00     0.271 S 
ATOM     12  O   UNL A   1      32.118  24.156  27.597  1.00  0.00    -0.200 OA
ATOM     13  O   UNL A   1      29.658  23.727  27.219  1.00  0.00    -0.200 OA
BRANCH  11  14
ATOM     14  N   UNL A   1      30.852  25.474  25.866  1.00  0.00    -0.277 N 
ATOM     15  H   UNL A   1      30.201  25.488  25.128  1.00  0.00     0.180 HD
BRANCH  14  16
ATOM     16  C   UNL A   1      31.591  26.699  26.092  1.00  0.00     0.075 A 
ATOM     17  C   UNL A   1      32.880  26.774  25.531  1.00  0.00     0.089 A 
ATOM     18  C   UNL A   1      33.838  27.677  26.025  1.00  0.00     0.030 A 
ATOM     19  C   UNL A   1      33.515  28.522  27.083  1.00  0.00     0.002 A 
ATOM     20  C   UNL A   1      31.265  27.642  27.067  1.00  0.00     0.029 A 
ATOM     21  C   UNL A   1      32.222  28.522  27.586  1.00  0.00     0.002 A 
BRANCH  17  22
ATOM     22  N   UNL A   1      33.183  25.979  24.398  1.00  0.00    -0.236 N 
ATOM     23  C   UNL A   1      32.689  25.564  20.905  1.00  0.00     0.069 C 
ATOM     24  C   UNL A   1      33.112  25.474  22.323  1.00  0.00     0.060 A 
ATOM     25  C   UNL A   1      34.163  24.718  22.879  1.00  0.00     0.048 A 
ATOM     26  N   UNL A   1      32.447  26.146  23.265  1.00  0.00    -0.173 NA
ATOM     27  C   UNL A   1      34.154  25.009  24.228  1.00  0.00     0.041 A 
ATOM     28  C   UNL A   1      34.905  24.379  25.341  1.00  0.00     0.067 C 
ENDBRANCH  17  22
ENDBRANCH  14  16
ENDBRANCH  11  14
ENDBRANCH   6  11
ENDBRANCH   3   5
ENDBRANCH   2   3
ENDBRANCH   1   2
BRANCH   1  29
ATOM     29  C   UNL A   1      37.657  20.623  24.603  1.00  0.00     0.275 C 
BRANCH  29  30
ATOM     30  O   UNL A   1      38.636  21.157  25.493  1.00  0.00    -0.458 OA
BRANCH  30  31
ATOM     31  C   UNL A   1      39.680  20.334  25.721  1.00  0.00     0.338 C 
ATOM     32  O   UNL A   1      39.721  19.125  25.574  1.00  0.00    -0.246 OA
BRANCH  31  33
ATOM     33  C   UNL A   1      40.758  21.072  26.367  1.00  0.00     0.060 A 
ATOM     34  C   UNL A   1      40.814  20.995  27.762  1.00  0.00     0.016 A 
ATOM     35  C   UNL A   1      41.400  22.079  25.638  1.00  0.00     0.016 A 
ATOM     36  C   UNL A   1      41.330  22.065  28.447  1.00  0.00     0.010 A 
ATOM     37  C   UNL A   1      41.902  23.153  26.322  1.00  0.00     0.010 A 
ATOM     38  C   UNL A   1      41.771  23.166  27.710  1.00  0.00    -0.014 A 
BRANCH  38  39
ATOM     39  C   UNL A   1      42.171  24.344  28.443  1.00  0.00     0.031 A 
ATOM     40  C   UNL A   1      41.274  25.494  28.191  1.00  0.00     0.074 A 
ATOM     41  C   UNL A   1      43.182  24.288  29.332  1.00  0.00     0.049 A 
ATOM     42  N   UNL A   1      41.580  26.653  27.714  1.00  0.00    -0.248 NA
ATOM     43  C   UNL A   1      39.823  25.257  28.319  1.00  0.00     0.031 C 
ATOM     44  C   UNL A   1      43.908  23.099  29.795  1.00  0.00     0.029 A 
ATOM     45  N   UNL A   1      43.671  25.269  30.131  1.00  0.00    -0.354 N 
ATOM     46  C   UNL A   1      40.383  27.361  27.672  1.00  0.00     0.074 A 
ATOM     47  C   UNL A   1      39.327  26.404  27.862  1.00  0.00     0.031 C 
ATOM     48  C   UNL A   1      44.520  23.384  30.965  1.00  0.00     0.029 A 
ATOM     49  C   UNL A   1      44.331  24.795  31.257  1.00  0.00     0.049 A 
ATOM     50  H   UNL A   1      43.568  26.227  29.931  1.00  0.00     0.167 HD
ATOM     51  C   UNL A   1      40.368  28.716  27.798  1.00  0.00     0.031 A 
ATOM     52  C   UNL A   1      44.599  25.495  32.388  1.00  0.00     0.031 A 
ATOM     53  C   UNL A   1      41.649  29.287  27.477  1.00  0.00     0.049 A 
ATOM     54  C   UNL A   1      44.429  26.935  32.072  1.00  0.00     0.074 A 
ATOM     55  C   UNL A   1      42.449  29.302  26.352  1.00  0.00     0.029 A 
ATOM     56  N   UNL A   1      42.463  29.627  28.532  1.00  0.00    -0.354 N 
ATOM     57  N   UNL A   1      45.215  27.590  31.266  1.00  0.00    -0.248 NA
ATOM     58  C   UNL A   1      43.110  27.521  32.265  1.00  0.00     0.031 C 
ATOM     59  C   UNL A   1      43.780  29.197  26.847  1.00  0.00     0.029 A 
ATOM     60  C   UNL A   1      43.729  29.194  28.243  1.00  0.00     0.049 A 
ATOM     61  H   UNL A   1      42.185  30.099  29.350  1.00  0.00     0.167 HD
ATOM     62  C   UNL A   1      44.367  28.398  30.520  1.00  0.00     0.074 A 
ATOM     63  C   UNL A   1      43.095  28.383  31.244  1.00  0.00     0.031 C 
ATOM     64  C   UNL A   1      44.680  28.757  29.240  1.00  0.00     0.031 A 
BRANCH  51  65
ATOM     65  C   UNL A   1      39.370  29.423  28.686  1.00  0.00    -0.014 A 
ATOM     66  C   UNL A   1      39.433  29.191  30.070  1.00  0.00     0.009 A 
ATOM     67  C   UNL A   1      38.196  30.039  28.204  1.00  0.00     0.009 A 
ATOM     68  C   UNL A   1      38.338  29.450  30.901  1.00  0.00     0.001 A 
ATOM     69  C   UNL A   1      37.117  30.337  29.037  1.00  0.00     0.001 A 
ATOM     70  C   UNL A   1      37.174  30.007  30.381  1.00  0.00     0.000 A 
ENDBRANCH  51  65
BRANCH  52  71
ATOM     71  C   UNL A   1      44.646  24.983  33.776  1.00  0.00    -0.014 A 
ATOM     72  C   UNL A   1      45.720  25.287  34.627  1.00  0.00     0.009 A 
ATOM     73  C   UNL A   1      43.510  24.383  34.352  1.00  0.00     0.009 A 
ATOM     74  C   UNL A   1      45.649  25.016  36.002  1.00  0.00     0.001 A 
ATOM     75  C   UNL A   1      43.439  24.109  35.723  1.00  0.00     0.001 A 
ATOM     76  C   UNL A   1      44.507  24.436  36.550  1.00  0.00     0.000 A 
ENDBRANCH  52  71
BRANCH  64  77
ATOM     77  C   UNL A   1      46.065  28.443  28.734  1.00  0.00    -0.014 A 
ATOM     78  C   UNL A   1      46.403  27.218  28.129  1.00  0.00     0.009 A 
ATOM     79  C   UNL A   1      47.003  29.485  28.701  1.00  0.00     0.009 A 
ATOM     80  C   UNL A   1      47.652  27.042  27.524  1.00  0.00     0.001 A 
ATOM     81  C   UNL A   1      48.241  29.315  28.079  1.00  0.00     0.001 A 
ATOM     82  C   UNL A   1      48.566  28.093  27.493  1.00  0.00     0.000 A 
ENDBRANCH  64  77
ENDBRANCH  38  39
ENDBRANCH  31  33
ENDBRANCH  30  31
ENDBRANCH  29  30
ENDBRANCH   1  29
TORSDOF 15
ENDMDL
