MODEL 1
REMARK VINA RESULT:     -11.9      0.000      0.000
REMARK SMILES O=C(OCCOC(=O)[C@H](c1c[nH]c2cc(F)ccc12)[NH+]1CCN(c2ccccc2)CC1)c1ccc(-c2c3nc(c(-c4ccccc4)c4ccc([nH]4)c(-c4ccccc4)c4nc(c(-c5ccccc5)c5ccc2[nH]5)C=C4)C=C3)cc1
REMARK SMILES IDX 4 1 3 2 2 3 1 4 32 5 33 6 79 7 34 8 78 9 35 10 36 11 37 12
REMARK SMILES IDX 72 13 38 14 77 15 71 16 73 17 39 18 76 19 70 20 69 21 40 23
REMARK SMILES IDX 62 24 47 25 61 26 48 27 51 28 60 29 74 30 49 31 50 32 59 34
REMARK SMILES IDX 75 35 52 36 41 37 42 38 46 39 43 40 45 41 44 42 63 43 64 44
REMARK SMILES IDX 68 45 65 46 67 47 66 48 53 49 54 50 58 51 55 52 57 53 56 54
REMARK SMILES IDX 5 55 6 56 7 57 8 58 9 59 20 60 21 61 31 62 22 64 30 65 23 66
REMARK SMILES IDX 24 67 25 68 29 69 26 70 28 71 27 72 10 73 11 74 19 75 12 76
REMARK SMILES IDX 13 77 18 78 14 80 17 81 15 82 16 83
REMARK H PARENT 73 22 51 33 20 63 12 79
REMARK Flexibility Score: inf
ROOT
ATOM      1  C   UNL A   1      33.653  30.745  27.641  1.00  0.00     0.275 C 
ENDROOT
BRANCH   1   2
ATOM      2  O   UNL A   1      34.831  29.987  27.951  1.00  0.00    -0.458 OA
BRANCH   2   3
ATOM      3  C   UNL A   1      35.584  30.547  28.921  1.00  0.00     0.338 C 
ATOM      4  O   UNL A   1      35.261  31.498  29.622  1.00  0.00    -0.246 OA
BRANCH   3   5
ATOM      5  C   UNL A   1      36.948  29.967  28.858  1.00  0.00     0.060 A 
ATOM      6  C   UNL A   1      37.531  29.302  29.948  1.00  0.00     0.016 A 
ATOM      7  C   UNL A   1      37.605  29.981  27.630  1.00  0.00     0.016 A 
ATOM      8  C   UNL A   1      38.772  28.685  29.817  1.00  0.00     0.010 A 
ATOM      9  C   UNL A   1      38.821  29.321  27.486  1.00  0.00     0.010 A 
ATOM     10  C   UNL A   1      39.436  28.710  28.588  1.00  0.00    -0.014 A 
BRANCH  10  11
ATOM     11  C   UNL A   1      40.869  28.347  28.518  1.00  0.00     0.031 A 
ATOM     12  C   UNL A   1      41.204  26.942  28.095  1.00  0.00     0.074 A 
ATOM     13  C   UNL A   1      41.843  29.237  28.780  1.00  0.00     0.049 A 
ATOM     14  N   UNL A   1      42.367  26.355  27.997  1.00  0.00    -0.248 NA
ATOM     15  C   UNL A   1      40.063  26.062  27.785  1.00  0.00     0.031 C 
ATOM     16  C   UNL A   1      41.644  30.624  29.208  1.00  0.00     0.029 A 
ATOM     17  N   UNL A   1      43.205  29.106  28.694  1.00  0.00    -0.354 N 
ATOM     18  C   UNL A   1      42.082  25.030  27.690  1.00  0.00     0.074 A 
ATOM     19  C   UNL A   1      40.648  24.884  27.686  1.00  0.00     0.031 C 
ATOM     20  C   UNL A   1      42.843  31.226  29.302  1.00  0.00     0.029 A 
ATOM     21  C   UNL A   1      43.890  30.266  28.963  1.00  0.00     0.049 A 
ATOM     22  H   UNL A   1      43.650  28.259  28.463  1.00  0.00     0.167 HD
ATOM     23  C   UNL A   1      42.935  24.025  27.390  1.00  0.00     0.031 A 
ATOM     24  C   UNL A   1      45.213  30.517  28.918  1.00  0.00     0.031 A 
ATOM     25  C   UNL A   1      44.353  24.201  27.296  1.00  0.00     0.049 A 
ATOM     26  C   UNL A   1      46.149  29.412  28.498  1.00  0.00     0.074 A 
ATOM     27  C   UNL A   1      45.319  23.280  26.942  1.00  0.00     0.029 A 
ATOM     28  N   UNL A   1      44.999  25.405  27.530  1.00  0.00    -0.354 N 
ATOM     29  N   UNL A   1      45.868  28.170  28.177  1.00  0.00    -0.248 NA
ATOM     30  C   UNL A   1      47.578  29.745  28.416  1.00  0.00     0.031 C 
ATOM     31  C   UNL A   1      46.558  23.927  26.976  1.00  0.00     0.029 A 
ATOM     32  C   UNL A   1      46.354  25.256  27.320  1.00  0.00     0.049 A 
ATOM     33  H   UNL A   1      44.557  26.241  27.805  1.00  0.00     0.167 HD
ATOM     34  C   UNL A   1      47.078  27.581  27.835  1.00  0.00     0.074 A 
ATOM     35  C   UNL A   1      48.095  28.604  27.975  1.00  0.00     0.031 C 
ATOM     36  C   UNL A   1      47.330  26.308  27.444  1.00  0.00     0.031 A 
BRANCH  23  37
ATOM     37  C   UNL A   1      42.324  22.673  27.160  1.00  0.00    -0.014 A 
ATOM     38  C   UNL A   1      41.959  22.243  25.871  1.00  0.00     0.009 A 
ATOM     39  C   UNL A   1      42.017  21.859  28.259  1.00  0.00     0.009 A 
ATOM     40  C   UNL A   1      41.228  21.066  25.700  1.00  0.00     0.001 A 
ATOM     41  C   UNL A   1      41.318  20.664  28.081  1.00  0.00     0.001 A 
ATOM     42  C   UNL A   1      40.906  20.280  26.805  1.00  0.00     0.000 A 
ENDBRANCH  23  37
BRANCH  24  43
ATOM     43  C   UNL A   1      45.725  31.875  29.238  1.00  0.00    -0.014 A 
ATOM     44  C   UNL A   1      45.884  32.839  28.229  1.00  0.00     0.009 A 
ATOM     45  C   UNL A   1      46.052  32.223  30.558  1.00  0.00     0.009 A 
ATOM     46  C   UNL A   1      46.378  34.111  28.531  1.00  0.00     0.001 A 
ATOM     47  C   UNL A   1      46.524  33.503  30.862  1.00  0.00     0.001 A 
ATOM     48  C   UNL A   1      46.694  34.443  29.847  1.00  0.00     0.000 A 
ENDBRANCH  24  43
BRANCH  36  49
ATOM     49  C   UNL A   1      48.746  25.951  27.102  1.00  0.00    -0.014 A 
ATOM     50  C   UNL A   1      49.259  26.198  25.821  1.00  0.00     0.009 A 
ATOM     51  C   UNL A   1      49.603  25.482  28.109  1.00  0.00     0.009 A 
ATOM     52  C   UNL A   1      50.611  25.976  25.554  1.00  0.00     0.001 A 
ATOM     53  C   UNL A   1      50.957  25.281  27.844  1.00  0.00     0.001 A 
ATOM     54  C   UNL A   1      51.459  25.527  26.567  1.00  0.00     0.000 A 
ENDBRANCH  36  49
ENDBRANCH  10  11
ENDBRANCH   3   5
ENDBRANCH   2   3
ENDBRANCH   1   2
BRANCH   1  55
ATOM     55  C   UNL A   1      32.648  29.831  26.924  1.00  0.00     0.274 C 
BRANCH  55  56
ATOM     56  O   UNL A   1      32.846  28.441  27.286  1.00  0.00    -0.457 OA
BRANCH  56  57
ATOM     57  C   UNL A   1      32.006  27.565  26.659  1.00  0.00     0.370 C 
ATOM     58  O   UNL A   1      30.931  27.222  27.154  1.00  0.00    -0.245 OA
BRANCH  57  59
ATOM     59  C   UNL A   1      32.457  27.090  25.249  1.00  0.00     0.328 C 
BRANCH  59  60
ATOM     60  N   UNL A   1      32.072  25.669  25.028  1.00  0.00    -0.316 N 
ATOM     61  C   UNL A   1      32.606  25.013  23.827  1.00  0.00     0.284 C 
ATOM     62  C   UNL A   1      32.201  24.757  26.179  1.00  0.00     0.284 C 
ATOM     63  H   UNL A   1      31.076  25.824  24.871  1.00  0.00     0.349 HD
ATOM     64  C   UNL A   1      34.037  24.473  23.947  1.00  0.00     0.178 C 
ATOM     65  C   UNL A   1      33.580  24.073  26.398  1.00  0.00     0.178 C 
ATOM     66  N   UNL A   1      34.202  23.638  25.138  1.00  0.00    -0.360 N 
BRANCH  66  67
ATOM     67  C   UNL A   1      35.410  22.954  25.255  1.00  0.00     0.037 A 
ATOM     68  C   UNL A   1      36.596  23.575  25.671  1.00  0.00     0.026 A 
ATOM     69  C   UNL A   1      35.462  21.602  24.901  1.00  0.00     0.026 A 
ATOM     70  C   UNL A   1      37.809  22.881  25.682  1.00  0.00     0.002 A 
ATOM     71  C   UNL A   1      36.673  20.906  24.900  1.00  0.00     0.002 A 
ATOM     72  C   UNL A   1      37.849  21.549  25.280  1.00  0.00     0.000 A 
ENDBRANCH  66  67
ENDBRANCH  59  60
BRANCH  59  73
ATOM     73  C   UNL A   1      32.210  27.992  24.055  1.00  0.00     0.046 A 
ATOM     74  C   UNL A   1      33.115  28.636  23.228  1.00  0.00     0.094 A 
ATOM     75  C   UNL A   1      30.900  28.352  23.547  1.00  0.00     0.009 A 
ATOM     76  N   UNL A   1      32.432  29.414  22.329  1.00  0.00    -0.361 N 
ATOM     77  C   UNL A   1      31.078  29.244  22.487  1.00  0.00     0.049 A 
ATOM     78  C   UNL A   1      29.575  27.996  23.899  1.00  0.00     0.014 A 
ATOM     79  H   UNL A   1      32.851  30.009  21.667  1.00  0.00     0.166 HD
ATOM     80  C   UNL A   1      30.010  29.800  21.773  1.00  0.00     0.065 A 
ATOM     81  C   UNL A   1      28.495  28.526  23.184  1.00  0.00     0.040 A 
ATOM     82  C   UNL A   1      28.722  29.415  22.143  1.00  0.00     0.125 A 
ATOM     83  F   UNL A   1      27.676  29.910  21.468  1.00  0.00    -0.207 F 
ENDBRANCH  59  73
ENDBRANCH  57  59
ENDBRANCH  56  57
ENDBRANCH  55  56
ENDBRANCH   1  55
TORSDOF 14
ENDMDL
MODEL 2
REMARK VINA RESULT:     -11.8      1.501      6.003
REMARK SMILES O=C(OCCOC(=O)[C@H](c1c[nH]c2cc(F)ccc12)[NH+]1CCN(c2ccccc2)CC1)c1ccc(-c2c3nc(c(-c4ccccc4)c4ccc([nH]4)c(-c4ccccc4)c4nc(c(-c5ccccc5)c5ccc2[nH]5)C=C4)C=C3)cc1
REMARK SMILES IDX 4 1 3 2 2 3 1 4 32 5 33 6 79 7 34 8 78 9 35 10 36 11 37 12
REMARK SMILES IDX 72 13 38 14 77 15 71 16 73 17 39 18 76 19 70 20 69 21 40 23
REMARK SMILES IDX 62 24 47 25 61 26 48 27 51 28 60 29 74 30 49 31 50 32 59 34
REMARK SMILES IDX 75 35 52 36 41 37 42 38 46 39 43 40 45 41 44 42 63 43 64 44
REMARK SMILES IDX 68 45 65 46 67 47 66 48 53 49 54 50 58 51 55 52 57 53 56 54
REMARK SMILES IDX 5 55 6 56 7 57 8 58 9 59 20 60 21 61 31 62 22 64 30 65 23 66
REMARK SMILES IDX 24 67 25 68 29 69 26 70 28 71 27 72 10 73 11 74 19 75 12 76
REMARK SMILES IDX 13 77 18 78 14 80 17 81 15 82 16 83
REMARK H PARENT 73 22 51 33 20 63 12 79
REMARK Flexibility Score: inf
ROOT
ATOM      1  C   UNL A   1      33.231  30.172  27.459  1.00  0.00     0.275 C 
ENDROOT
BRANCH   1   2
ATOM      2  O   UNL A   1      34.298  31.131  27.476  1.00  0.00    -0.458 OA
BRANCH   2   3
ATOM      3  C   UNL A   1      34.818  31.326  28.706  1.00  0.00     0.338 C 
ATOM      4  O   UNL A   1      34.387  32.100  29.553  1.00  0.00    -0.246 OA
BRANCH   3   5
ATOM      5  C   UNL A   1      36.118  30.616  28.790  1.00  0.00     0.060 A 
ATOM      6  C   UNL A   1      36.526  29.937  29.948  1.00  0.00     0.016 A 
ATOM      7  C   UNL A   1      36.886  30.527  27.632  1.00  0.00     0.016 A 
ATOM      8  C   UNL A   1      37.707  29.199  29.955  1.00  0.00     0.010 A 
ATOM      9  C   UNL A   1      38.039  29.748  27.624  1.00  0.00     0.010 A 
ATOM     10  C   UNL A   1      38.484  29.119  28.796  1.00  0.00    -0.014 A 
BRANCH  10  11
ATOM     11  C   UNL A   1      39.875  28.619  28.876  1.00  0.00     0.031 A 
ATOM     12  C   UNL A   1      40.903  29.535  29.483  1.00  0.00     0.074 A 
ATOM     13  C   UNL A   1      40.212  27.384  28.464  1.00  0.00     0.049 A 
ATOM     14  N   UNL A   1      42.190  29.365  29.630  1.00  0.00    -0.248 NA
ATOM     15  C   UNL A   1      40.418  30.847  29.946  1.00  0.00     0.031 C 
ATOM     16  C   UNL A   1      39.308  26.408  27.851  1.00  0.00     0.029 A 
ATOM     17  N   UNL A   1      41.415  26.729  28.528  1.00  0.00    -0.354 N 
ATOM     18  C   UNL A   1      42.663  30.572  30.128  1.00  0.00     0.074 A 
ATOM     19  C   UNL A   1      41.547  31.483  30.194  1.00  0.00     0.031 C 
ATOM     20  C   UNL A   1      39.981  25.264  27.638  1.00  0.00     0.029 A 
ATOM     21  C   UNL A   1      41.363  25.432  28.079  1.00  0.00     0.049 A 
ATOM     22  H   UNL A   1      42.239  27.151  28.864  1.00  0.00     0.167 HD
ATOM     23  C   UNL A   1      43.910  30.889  30.543  1.00  0.00     0.031 A 
ATOM     24  C   UNL A   1      42.327  24.491  28.050  1.00  0.00     0.031 A 
ATOM     25  C   UNL A   1      44.991  29.951  30.570  1.00  0.00     0.049 A 
ATOM     26  C   UNL A   1      43.691  24.829  28.595  1.00  0.00     0.074 A 
ATOM     27  C   UNL A   1      46.283  30.130  31.023  1.00  0.00     0.029 A 
ATOM     28  N   UNL A   1      44.881  28.634  30.150  1.00  0.00    -0.354 N 
ATOM     29  N   UNL A   1      44.121  25.964  29.096  1.00  0.00    -0.248 NA
ATOM     30  C   UNL A   1      44.696  23.756  28.588  1.00  0.00     0.031 C 
ATOM     31  C   UNL A   1      46.963  28.918  30.863  1.00  0.00     0.029 A 
ATOM     32  C   UNL A   1      46.082  27.981  30.340  1.00  0.00     0.049 A 
ATOM     33  H   UNL A   1      44.069  28.226  29.773  1.00  0.00     0.167 HD
ATOM     34  C   UNL A   1      45.436  25.736  29.483  1.00  0.00     0.074 A 
ATOM     35  C   UNL A   1      45.729  24.352  29.171  1.00  0.00     0.031 C 
ATOM     36  C   UNL A   1      46.324  26.594  30.042  1.00  0.00     0.031 A 
BRANCH  23  37
ATOM     37  C   UNL A   1      44.131  32.310  30.978  1.00  0.00    -0.014 A 
ATOM     38  C   UNL A   1      43.858  32.723  32.295  1.00  0.00     0.009 A 
ATOM     39  C   UNL A   1      44.522  33.268  30.033  1.00  0.00     0.009 A 
ATOM     40  C   UNL A   1      43.893  34.078  32.631  1.00  0.00     0.001 A 
ATOM     41  C   UNL A   1      44.593  34.618  30.382  1.00  0.00     0.001 A 
ATOM     42  C   UNL A   1      44.257  35.023  31.673  1.00  0.00     0.000 A 
ENDBRANCH  23  37
BRANCH  24  43
ATOM     43  C   UNL A   1      42.025  23.132  27.527  1.00  0.00    -0.014 A 
ATOM     44  C   UNL A   1      41.415  22.167  28.345  1.00  0.00     0.009 A 
ATOM     45  C   UNL A   1      42.338  22.791  26.202  1.00  0.00     0.009 A 
ATOM     46  C   UNL A   1      41.144  20.886  27.854  1.00  0.00     0.001 A 
ATOM     47  C   UNL A   1      42.045  21.517  25.706  1.00  0.00     0.001 A 
ATOM     48  C   UNL A   1      41.456  20.564  26.535  1.00  0.00     0.000 A 
ENDBRANCH  24  43
BRANCH  36  49
ATOM     49  C   UNL A   1      47.682  26.062  30.390  1.00  0.00    -0.014 A 
ATOM     50  C   UNL A   1      48.710  26.035  29.437  1.00  0.00     0.009 A 
ATOM     51  C   UNL A   1      47.964  25.706  31.718  1.00  0.00     0.009 A 
ATOM     52  C   UNL A   1      50.000  25.653  29.809  1.00  0.00     0.001 A 
ATOM     53  C   UNL A   1      49.259  25.345  32.090  1.00  0.00     0.001 A 
ATOM     54  C   UNL A   1      50.275  25.319  31.136  1.00  0.00     0.000 A 
ENDBRANCH  36  49
ENDBRANCH  10  11
ENDBRANCH   3   5
ENDBRANCH   2   3
ENDBRANCH   1   2
BRANCH   1  55
ATOM     55  C   UNL A   1      33.733  28.882  26.792  1.00  0.00     0.274 C 
BRANCH  55  56
ATOM     56  O   UNL A   1      33.041  27.717  27.307  1.00  0.00    -0.457 OA
BRANCH  56  57
ATOM     57  C   UNL A   1      32.090  27.205  26.471  1.00  0.00     0.370 C 
ATOM     58  O   UNL A   1      30.913  27.085  26.816  1.00  0.00    -0.245 OA
BRANCH  57  59
ATOM     59  C   UNL A   1      32.570  26.855  25.034  1.00  0.00     0.328 C 
BRANCH  59  60
ATOM     60  N   UNL A   1      32.267  25.434  24.712  1.00  0.00    -0.316 N 
ATOM     61  C   UNL A   1      32.947  24.854  23.547  1.00  0.00     0.284 C 
ATOM     62  C   UNL A   1      32.311  24.473  25.830  1.00  0.00     0.284 C 
ATOM     63  H   UNL A   1      31.287  25.561  24.459  1.00  0.00     0.349 HD
ATOM     64  C   UNL A   1      34.378  24.359  23.793  1.00  0.00     0.178 C 
ATOM     65  C   UNL A   1      33.686  23.828  26.163  1.00  0.00     0.178 C 
ATOM     66  N   UNL A   1      34.452  23.475  24.958  1.00  0.00    -0.360 N 
BRANCH  66  67
ATOM     67  C   UNL A   1      35.667  22.827  25.171  1.00  0.00     0.037 A 
ATOM     68  C   UNL A   1      36.808  23.493  25.640  1.00  0.00     0.026 A 
ATOM     69  C   UNL A   1      35.776  21.468  24.864  1.00  0.00     0.026 A 
ATOM     70  C   UNL A   1      38.035  22.834  25.748  1.00  0.00     0.002 A 
ATOM     71  C   UNL A   1      37.002  20.806  24.960  1.00  0.00     0.002 A 
ATOM     72  C   UNL A   1      38.135  21.492  25.392  1.00  0.00     0.000 A 
ENDBRANCH  66  67
ENDBRANCH  59  60
BRANCH  59  73
ATOM     73  C   UNL A   1      32.277  27.824  23.905  1.00  0.00     0.046 A 
ATOM     74  C   UNL A   1      33.149  28.525  23.089  1.00  0.00     0.094 A 
ATOM     75  C   UNL A   1      30.947  28.198  23.461  1.00  0.00     0.009 A 
ATOM     76  N   UNL A   1      32.430  29.347  22.260  1.00  0.00    -0.361 N 
ATOM     77  C   UNL A   1      31.083  29.153  22.451  1.00  0.00     0.049 A 
ATOM     78  C   UNL A   1      29.637  27.807  23.833  1.00  0.00     0.014 A 
ATOM     79  H   UNL A   1      32.821  29.984  21.621  1.00  0.00     0.166 HD
ATOM     80  C   UNL A   1      29.987  29.739  21.805  1.00  0.00     0.065 A 
ATOM     81  C   UNL A   1      28.530  28.368  23.185  1.00  0.00     0.040 A 
ATOM     82  C   UNL A   1      28.716  29.318  22.193  1.00  0.00     0.125 A 
ATOM     83  F   UNL A   1      27.643  29.841  21.582  1.00  0.00    -0.207 F 
ENDBRANCH  59  73
ENDBRANCH  57  59
ENDBRANCH  56  57
ENDBRANCH  55  56
ENDBRANCH   1  55
TORSDOF 14
ENDMDL
MODEL 3
REMARK VINA RESULT:     -11.8      3.866      8.797
REMARK SMILES O=C(OCCOC(=O)[C@H](c1c[nH]c2cc(F)ccc12)[NH+]1CCN(c2ccccc2)CC1)c1ccc(-c2c3nc(c(-c4ccccc4)c4ccc([nH]4)c(-c4ccccc4)c4nc(c(-c5ccccc5)c5ccc2[nH]5)C=C4)C=C3)cc1
REMARK SMILES IDX 4 1 3 2 2 3 1 4 32 5 33 6 79 7 34 8 78 9 35 10 36 11 37 12
REMARK SMILES IDX 72 13 38 14 77 15 71 16 73 17 39 18 76 19 70 20 69 21 40 23
REMARK SMILES IDX 62 24 47 25 61 26 48 27 51 28 60 29 74 30 49 31 50 32 59 34
REMARK SMILES IDX 75 35 52 36 41 37 42 38 46 39 43 40 45 41 44 42 63 43 64 44
REMARK SMILES IDX 68 45 65 46 67 47 66 48 53 49 54 50 58 51 55 52 57 53 56 54
REMARK SMILES IDX 5 55 6 56 7 57 8 58 9 59 20 60 21 61 31 62 22 64 30 65 23 66
REMARK SMILES IDX 24 67 25 68 29 69 26 70 28 71 27 72 10 73 11 74 19 75 12 76
REMARK SMILES IDX 13 77 18 78 14 80 17 81 15 82 16 83
REMARK H PARENT 73 22 51 33 20 63 12 79
REMARK Flexibility Score: inf
ROOT
ATOM      1  C   UNL A   1      37.670  21.830  25.256  1.00  0.00     0.275 C 
ENDROOT
BRANCH   1   2
ATOM      2  O   UNL A   1      38.074  23.056  25.883  1.00  0.00    -0.458 OA
BRANCH   2   3
ATOM      3  C   UNL A   1      39.368  23.055  26.267  1.00  0.00     0.338 C 
ATOM      4  O   UNL A   1      40.115  22.084  26.272  1.00  0.00    -0.246 OA
BRANCH   3   5
ATOM      5  C   UNL A   1      39.680  24.367  26.886  1.00  0.00     0.060 A 
ATOM      6  C   UNL A   1      40.294  25.405  26.169  1.00  0.00     0.016 A 
ATOM      7  C   UNL A   1      39.228  24.599  28.182  1.00  0.00     0.016 A 
ATOM      8  C   UNL A   1      40.480  26.654  26.755  1.00  0.00     0.010 A 
ATOM      9  C   UNL A   1      39.367  25.862  28.749  1.00  0.00     0.010 A 
ATOM     10  C   UNL A   1      40.037  26.884  28.060  1.00  0.00    -0.014 A 
BRANCH  10  11
ATOM     11  C   UNL A   1      40.505  28.079  28.797  1.00  0.00     0.031 A 
ATOM     12  C   UNL A   1      39.500  29.173  29.044  1.00  0.00     0.074 A 
ATOM     13  C   UNL A   1      41.761  28.178  29.268  1.00  0.00     0.049 A 
ATOM     14  N   UNL A   1      39.658  30.336  29.618  1.00  0.00    -0.248 NA
ATOM     15  C   UNL A   1      38.140  28.941  28.528  1.00  0.00     0.031 C 
ATOM     16  C   UNL A   1      42.826  27.190  29.085  1.00  0.00     0.029 A 
ATOM     17  N   UNL A   1      42.344  29.161  30.027  1.00  0.00    -0.354 N 
ATOM     18  C   UNL A   1      38.442  30.988  29.460  1.00  0.00     0.074 A 
ATOM     19  C   UNL A   1      37.585  30.128  28.682  1.00  0.00     0.031 C 
ATOM     20  C   UNL A   1      43.918  27.598  29.754  1.00  0.00     0.029 A 
ATOM     21  C   UNL A   1      43.638  28.881  30.393  1.00  0.00     0.049 A 
ATOM     22  H   UNL A   1      41.878  29.989  30.284  1.00  0.00     0.167 HD
ATOM     23  C   UNL A   1      38.047  32.182  29.956  1.00  0.00     0.031 A 
ATOM     24  C   UNL A   1      44.483  29.582  31.174  1.00  0.00     0.031 A 
ATOM     25  C   UNL A   1      38.867  32.986  30.812  1.00  0.00     0.049 A 
ATOM     26  C   UNL A   1      44.003  30.870  31.793  1.00  0.00     0.074 A 
ATOM     27  C   UNL A   1      38.563  34.184  31.429  1.00  0.00     0.029 A 
ATOM     28  N   UNL A   1      40.154  32.641  31.196  1.00  0.00    -0.354 N 
ATOM     29  N   UNL A   1      42.840  31.464  31.665  1.00  0.00    -0.248 NA
ATOM     30  C   UNL A   1      44.944  31.575  32.676  1.00  0.00     0.031 C 
ATOM     31  C   UNL A   1      39.677  34.572  32.179  1.00  0.00     0.029 A 
ATOM     32  C   UNL A   1      40.659  33.599  32.051  1.00  0.00     0.049 A 
ATOM     33  H   UNL A   1      40.635  31.834  30.903  1.00  0.00     0.167 HD
ATOM     34  C   UNL A   1      42.899  32.597  32.466  1.00  0.00     0.074 A 
ATOM     35  C   UNL A   1      44.208  32.602  33.086  1.00  0.00     0.031 C 
ATOM     36  C   UNL A   1      41.959  33.552  32.669  1.00  0.00     0.031 A 
BRANCH  23  37
ATOM     37  C   UNL A   1      36.679  32.655  29.557  1.00  0.00    -0.014 A 
ATOM     38  C   UNL A   1      36.463  33.339  28.347  1.00  0.00     0.009 A 
ATOM     39  C   UNL A   1      35.610  32.504  30.451  1.00  0.00     0.009 A 
ATOM     40  C   UNL A   1      35.227  33.930  28.080  1.00  0.00     0.001 A 
ATOM     41  C   UNL A   1      34.364  33.063  30.165  1.00  0.00     0.001 A 
ATOM     42  C   UNL A   1      34.180  33.794  28.991  1.00  0.00     0.000 A 
ENDBRANCH  23  37
BRANCH  24  43
ATOM     43  C   UNL A   1      45.849  29.062  31.447  1.00  0.00    -0.014 A 
ATOM     44  C   UNL A   1      46.088  28.212  32.540  1.00  0.00     0.009 A 
ATOM     45  C   UNL A   1      46.924  29.404  30.612  1.00  0.00     0.009 A 
ATOM     46  C   UNL A   1      47.376  27.734  32.801  1.00  0.00     0.001 A 
ATOM     47  C   UNL A   1      48.206  28.907  30.863  1.00  0.00     0.001 A 
ATOM     48  C   UNL A   1      48.432  28.079  31.961  1.00  0.00     0.000 A 
ENDBRANCH  24  43
BRANCH  36  49
ATOM     49  C   UNL A   1      42.286  34.661  33.623  1.00  0.00    -0.014 A 
ATOM     50  C   UNL A   1      42.100  34.499  35.003  1.00  0.00     0.009 A 
ATOM     51  C   UNL A   1      42.903  35.826  33.143  1.00  0.00     0.009 A 
ATOM     52  C   UNL A   1      42.524  35.492  35.888  1.00  0.00     0.001 A 
ATOM     53  C   UNL A   1      43.344  36.807  34.031  1.00  0.00     0.001 A 
ATOM     54  C   UNL A   1      43.153  36.639  35.402  1.00  0.00     0.000 A 
ENDBRANCH  36  49
ENDBRANCH  10  11
ENDBRANCH   3   5
ENDBRANCH   2   3
ENDBRANCH   1   2
BRANCH   1  55
ATOM     55  C   UNL A   1      37.062  22.152  23.883  1.00  0.00     0.274 C 
BRANCH  55  56
ATOM     56  O   UNL A   1      36.469  23.474  23.864  1.00  0.00    -0.457 OA
BRANCH  56  57
ATOM     57  C   UNL A   1      35.145  23.499  23.526  1.00  0.00     0.370 C 
ATOM     58  O   UNL A   1      34.766  23.388  22.359  1.00  0.00    -0.245 OA
BRANCH  57  59
ATOM     59  C   UNL A   1      34.147  23.598  24.714  1.00  0.00     0.328 C 
BRANCH  59  60
ATOM     60  N   UNL A   1      32.945  24.384  24.323  1.00  0.00    -0.316 N 
ATOM     61  C   UNL A   1      32.023  24.772  25.398  1.00  0.00     0.284 C 
ATOM     62  C   UNL A   1      33.163  25.536  23.429  1.00  0.00     0.284 C 
ATOM     63  H   UNL A   1      32.483  23.656  23.776  1.00  0.00     0.349 HD
ATOM     64  C   UNL A   1      32.421  26.021  26.195  1.00  0.00     0.178 C 
ATOM     65  C   UNL A   1      33.510  26.898  24.092  1.00  0.00     0.178 C 
ATOM     66  N   UNL A   1      32.730  27.149  25.314  1.00  0.00    -0.360 N 
BRANCH  66  67
ATOM     67  C   UNL A   1      32.933  28.382  25.930  1.00  0.00     0.037 A 
ATOM     68  C   UNL A   1      34.104  28.692  26.636  1.00  0.00     0.026 A 
ATOM     69  C   UNL A   1      31.916  29.340  25.886  1.00  0.00     0.026 A 
ATOM     70  C   UNL A   1      34.232  29.901  27.324  1.00  0.00     0.002 A 
ATOM     71  C   UNL A   1      32.034  30.546  26.581  1.00  0.00     0.002 A 
ATOM     72  C   UNL A   1      33.188  30.822  27.309  1.00  0.00     0.000 A 
ENDBRANCH  66  67
ENDBRANCH  59  60
BRANCH  59  73
ATOM     73  C   UNL A   1      33.839  22.352  25.522  1.00  0.00     0.046 A 
ATOM     74  C   UNL A   1      33.961  22.124  26.882  1.00  0.00     0.094 A 
ATOM     75  C   UNL A   1      33.329  21.113  24.967  1.00  0.00     0.009 A 
ATOM     76  N   UNL A   1      33.644  20.818  27.152  1.00  0.00    -0.361 N 
ATOM     77  C   UNL A   1      33.234  20.183  26.005  1.00  0.00     0.049 A 
ATOM     78  C   UNL A   1      32.940  20.700  23.669  1.00  0.00     0.014 A 
ATOM     79  H   UNL A   1      33.702  20.396  28.039  1.00  0.00     0.166 HD
ATOM     80  C   UNL A   1      32.783  18.871  25.812  1.00  0.00     0.065 A 
ATOM     81  C   UNL A   1      32.469  19.399  23.461  1.00  0.00     0.040 A 
ATOM     82  C   UNL A   1      32.399  18.509  24.522  1.00  0.00     0.125 A 
ATOM     83  F   UNL A   1      31.943  17.268  24.304  1.00  0.00    -0.207 F 
ENDBRANCH  59  73
ENDBRANCH  57  59
ENDBRANCH  56  57
ENDBRANCH  55  56
ENDBRANCH   1  55
TORSDOF 14
ENDMDL
