MODEL 1
REMARK VINA RESULT:     -10.9      0.000      0.000
REMARK SMILES CCc1cc(C)c2c(c1)C=C(C(=O)OCCOC(=O)c1ccc(-c3c4nc(c(-c5ccccc5)c5ccc([nH]5)c(-c5ccccc5)c5nc(c(-c6ccccc6)c6ccc3[nH]6)C=C5)C=C4)cc1)[C@@H](C(F)(F)F)O2
REMARK SMILES IDX 16 1 15 2 14 3 12 4 13 5 11 6 3 7 4 8 9 9 5 10 8 11 6 12
REMARK SMILES IDX 7 13 10 14 73 15 68 16 2 17 1 18 69 19 70 20 71 21 72 22
REMARK SMILES IDX 17 23 18 24 19 25 20 26 21 27 67 28 22 29 66 30 23 31 24 32
REMARK SMILES IDX 25 33 60 34 26 35 65 36 59 37 61 38 27 39 64 40 58 41 57 42
REMARK SMILES IDX 28 44 50 45 35 46 49 47 36 48 39 49 48 50 62 51 37 52 38 53
REMARK SMILES IDX 47 55 63 56 40 57 29 58 30 59 34 60 31 61 33 62 32 63 51 64
REMARK SMILES IDX 52 65 56 66 53 67 55 68 54 69 41 70 42 71 46 72 43 73 45 74
REMARK SMILES IDX 44 75
REMARK H PARENT 61 43 39 54
REMARK Flexibility Score: inf
ROOT
ATOM      1  C   UNL A   1      33.657  29.346  26.021  1.00  0.00     0.275 C 
ENDROOT
BRANCH   1   2
ATOM      2  C   UNL A   1      32.144  29.357  25.771  1.00  0.00     0.275 C 
BRANCH   2   3
ATOM      3  O   UNL A   1      31.672  28.084  25.282  1.00  0.00    -0.459 OA
BRANCH   3   4
ATOM      4  C   UNL A   1      31.589  27.082  26.192  1.00  0.00     0.338 C 
ATOM      5  O   UNL A   1      31.016  27.135  27.269  1.00  0.00    -0.246 OA
BRANCH   4   6
ATOM      6  C   UNL A   1      32.206  25.849  25.654  1.00  0.00     0.087 C 
ATOM      7  C   UNL A   1      36.181  23.117  25.417  1.00  0.00    -0.047 A 
ATOM      8  C   UNL A   1      35.411  22.058  24.917  1.00  0.00     0.011 A 
ATOM      9  C   UNL A   1      35.551  24.353  25.629  1.00  0.00     0.015 A 
ATOM     10  C   UNL A   1      34.039  22.217  24.651  1.00  0.00    -0.008 A 
ATOM     11  C   UNL A   1      34.182  24.521  25.385  1.00  0.00     0.018 A 
ATOM     12  C   UNL A   1      33.250  21.064  24.097  1.00  0.00     0.048 C 
ATOM     13  C   UNL A   1      33.420  23.444  24.935  1.00  0.00     0.130 A 
ATOM     14  C   UNL A   1      33.544  25.795  25.671  1.00  0.00     0.027 C 
ATOM     15  O   UNL A   1      32.064  23.510  24.769  1.00  0.00    -0.475 OA
ATOM     16  C   UNL A   1      31.347  24.710  25.172  1.00  0.00     0.316 C 
BRANCH   7  17
ATOM     17  C   UNL A   1      37.632  22.967  25.818  1.00  0.00     0.032 C 
ATOM     18  C   UNL A   1      38.301  21.647  25.457  1.00  0.00     0.009 C 
ENDBRANCH   7  17
BRANCH  16  19
ATOM     19  C   UNL A   1      30.479  25.140  23.977  1.00  0.00     0.430 C 
ATOM     20  F   UNL A   1      30.059  24.068  23.263  1.00  0.00    -0.167 F 
ATOM     21  F   UNL A   1      29.367  25.808  24.363  1.00  0.00    -0.167 F 
ATOM     22  F   UNL A   1      31.155  25.951  23.128  1.00  0.00    -0.167 F 
ENDBRANCH  16  19
ENDBRANCH   4   6
ENDBRANCH   3   4
ENDBRANCH   2   3
ENDBRANCH   1   2
BRANCH   1  23
ATOM     23  O   UNL A   1      33.962  29.285  27.427  1.00  0.00    -0.458 OA
BRANCH  23  24
ATOM     24  C   UNL A   1      34.581  30.383  27.921  1.00  0.00     0.338 C 
ATOM     25  O   UNL A   1      34.083  31.475  28.139  1.00  0.00    -0.246 OA
BRANCH  24  26
ATOM     26  C   UNL A   1      35.942  30.026  28.360  1.00  0.00     0.060 A 
ATOM     27  C   UNL A   1      36.946  30.084  27.392  1.00  0.00     0.016 A 
ATOM     28  C   UNL A   1      36.238  29.600  29.656  1.00  0.00     0.016 A 
ATOM     29  C   UNL A   1      38.262  29.774  27.714  1.00  0.00     0.010 A 
ATOM     30  C   UNL A   1      37.551  29.225  29.968  1.00  0.00     0.010 A 
ATOM     31  C   UNL A   1      38.564  29.309  28.996  1.00  0.00    -0.014 A 
BRANCH  31  32
ATOM     32  C   UNL A   1      39.923  28.794  29.264  1.00  0.00     0.031 A 
ATOM     33  C   UNL A   1      40.897  29.665  30.004  1.00  0.00     0.074 A 
ATOM     34  C   UNL A   1      40.265  27.544  28.906  1.00  0.00     0.049 A 
ATOM     35  N   UNL A   1      42.155  29.439  30.283  1.00  0.00    -0.248 NA
ATOM     36  C   UNL A   1      40.385  30.948  30.514  1.00  0.00     0.031 C 
ATOM     37  C   UNL A   1      39.368  26.567  28.290  1.00  0.00     0.029 A 
ATOM     38  N   UNL A   1      41.463  26.885  29.016  1.00  0.00    -0.354 N 
ATOM     39  C   UNL A   1      42.584  30.549  30.995  1.00  0.00     0.074 A 
ATOM     40  C   UNL A   1      41.457  31.448  31.113  1.00  0.00     0.031 C 
ATOM     41  C   UNL A   1      40.057  25.436  28.056  1.00  0.00     0.029 A 
ATOM     42  C   UNL A   1      41.446  25.626  28.469  1.00  0.00     0.049 A 
ATOM     43  H   UNL A   1      42.257  27.276  29.447  1.00  0.00     0.167 HD
ATOM     44  C   UNL A   1      43.814  30.801  31.495  1.00  0.00     0.031 A 
ATOM     45  C   UNL A   1      42.447  24.743  28.287  1.00  0.00     0.031 A 
ATOM     46  C   UNL A   1      44.940  29.920  31.352  1.00  0.00     0.049 A 
ATOM     47  C   UNL A   1      43.837  25.098  28.742  1.00  0.00     0.074 A 
ATOM     48  C   UNL A   1      46.238  30.109  31.793  1.00  0.00     0.029 A 
ATOM     49  N   UNL A   1      44.903  28.689  30.718  1.00  0.00    -0.354 N 
ATOM     50  N   UNL A   1      44.246  26.174  29.368  1.00  0.00    -0.248 NA
ATOM     51  C   UNL A   1      44.901  24.124  28.459  1.00  0.00     0.031 C 
ATOM     52  C   UNL A   1      46.998  29.011  31.384  1.00  0.00     0.029 A 
ATOM     53  C   UNL A   1      46.161  28.116  30.737  1.00  0.00     0.049 A 
ATOM     54  H   UNL A   1      44.101  28.284  30.315  1.00  0.00     0.167 HD
ATOM     55  C   UNL A   1      45.609  26.001  29.569  1.00  0.00     0.074 A 
ATOM     56  C   UNL A   1      45.958  24.713  29.006  1.00  0.00     0.031 C 
ATOM     57  C   UNL A   1      46.491  26.836  30.171  1.00  0.00     0.031 A 
BRANCH  44  58
ATOM     58  C   UNL A   1      44.032  32.101  32.205  1.00  0.00    -0.014 A 
ATOM     59  C   UNL A   1      43.885  32.198  33.597  1.00  0.00     0.009 A 
ATOM     60  C   UNL A   1      44.486  33.216  31.483  1.00  0.00     0.009 A 
ATOM     61  C   UNL A   1      44.192  33.392  34.253  1.00  0.00     0.001 A 
ATOM     62  C   UNL A   1      44.807  34.402  32.145  1.00  0.00     0.001 A 
ATOM     63  C   UNL A   1      44.661  34.488  33.528  1.00  0.00     0.000 A 
ENDBRANCH  44  58
BRANCH  45  64
ATOM     64  C   UNL A   1      42.173  23.457  27.598  1.00  0.00    -0.014 A 
ATOM     65  C   UNL A   1      42.454  23.299  26.233  1.00  0.00     0.009 A 
ATOM     66  C   UNL A   1      41.651  22.368  28.317  1.00  0.00     0.009 A 
ATOM     67  C   UNL A   1      42.215  22.075  25.602  1.00  0.00     0.001 A 
ATOM     68  C   UNL A   1      41.435  21.141  27.688  1.00  0.00     0.001 A 
ATOM     69  C   UNL A   1      41.714  20.996  26.331  1.00  0.00     0.000 A 
ENDBRANCH  45  64
BRANCH  57  70
ATOM     70  C   UNL A   1      47.919  26.388  30.283  1.00  0.00    -0.014 A 
ATOM     71  C   UNL A   1      48.391  25.759  31.444  1.00  0.00     0.009 A 
ATOM     72  C   UNL A   1      48.767  26.495  29.169  1.00  0.00     0.009 A 
ATOM     73  C   UNL A   1      49.691  25.253  31.489  1.00  0.00     0.001 A 
ATOM     74  C   UNL A   1      50.059  25.969  29.211  1.00  0.00     0.001 A 
ATOM     75  C   UNL A   1      50.520  25.351  30.372  1.00  0.00     0.000 A 
ENDBRANCH  57  70
ENDBRANCH  31  32
ENDBRANCH  24  26
ENDBRANCH  23  24
ENDBRANCH   1  23
TORSDOF 13
ENDMDL
MODEL 2
REMARK VINA RESULT:     -10.8      2.828      6.372
REMARK SMILES CCc1cc(C)c2c(c1)C=C(C(=O)OCCOC(=O)c1ccc(-c3c4nc(c(-c5ccccc5)c5ccc([nH]5)c(-c5ccccc5)c5nc(c(-c6ccccc6)c6ccc3[nH]6)C=C5)C=C4)cc1)[C@@H](C(F)(F)F)O2
REMARK SMILES IDX 16 1 15 2 14 3 12 4 13 5 11 6 3 7 4 8 9 9 5 10 8 11 6 12
REMARK SMILES IDX 7 13 10 14 73 15 68 16 2 17 1 18 69 19 70 20 71 21 72 22
REMARK SMILES IDX 17 23 18 24 19 25 20 26 21 27 67 28 22 29 66 30 23 31 24 32
REMARK SMILES IDX 25 33 60 34 26 35 65 36 59 37 61 38 27 39 64 40 58 41 57 42
REMARK SMILES IDX 28 44 50 45 35 46 49 47 36 48 39 49 48 50 62 51 37 52 38 53
REMARK SMILES IDX 47 55 63 56 40 57 29 58 30 59 34 60 31 61 33 62 32 63 51 64
REMARK SMILES IDX 52 65 56 66 53 67 55 68 54 69 41 70 42 71 46 72 43 73 45 74
REMARK SMILES IDX 44 75
REMARK H PARENT 61 43 39 54
REMARK Flexibility Score: inf
ROOT
ATOM      1  C   UNL A   1      31.617  30.296  25.696  1.00  0.00     0.275 C 
ENDROOT
BRANCH   1   2
ATOM      2  C   UNL A   1      31.316  29.002  24.930  1.00  0.00     0.275 C 
BRANCH   2   3
ATOM      3  O   UNL A   1      32.291  27.976  25.206  1.00  0.00    -0.459 OA
BRANCH   3   4
ATOM      4  C   UNL A   1      31.885  26.958  26.004  1.00  0.00     0.338 C 
ATOM      5  O   UNL A   1      31.082  27.039  26.921  1.00  0.00    -0.246 OA
BRANCH   4   6
ATOM      6  C   UNL A   1      32.473  25.679  25.543  1.00  0.00     0.087 C 
ATOM      7  C   UNL A   1      36.415  22.893  25.385  1.00  0.00    -0.047 A 
ATOM      8  C   UNL A   1      35.618  21.808  24.996  1.00  0.00     0.011 A 
ATOM      9  C   UNL A   1      35.802  24.148  25.522  1.00  0.00     0.015 A 
ATOM     10  C   UNL A   1      34.240  21.960  24.764  1.00  0.00    -0.008 A 
ATOM     11  C   UNL A   1      34.427  24.313  25.311  1.00  0.00     0.018 A 
ATOM     12  C   UNL A   1      33.422  20.777  24.329  1.00  0.00     0.048 C 
ATOM     13  C   UNL A   1      33.641  23.212  24.973  1.00  0.00     0.130 A 
ATOM     14  C   UNL A   1      33.810  25.612  25.519  1.00  0.00     0.027 C 
ATOM     15  O   UNL A   1      32.281  23.280  24.848  1.00  0.00    -0.475 OA
ATOM     16  C   UNL A   1      31.588  24.516  25.180  1.00  0.00     0.316 C 
BRANCH   7  17
ATOM     17  C   UNL A   1      37.877  22.759  25.748  1.00  0.00     0.032 C 
ATOM     18  C   UNL A   1      38.509  23.950  26.457  1.00  0.00     0.009 C 
ENDBRANCH   7  17
BRANCH  16  19
ATOM     19  C   UNL A   1      30.683  24.862  23.985  1.00  0.00     0.430 C 
ATOM     20  F   UNL A   1      29.574  25.531  24.385  1.00  0.00    -0.167 F 
ATOM     21  F   UNL A   1      31.306  25.653  23.081  1.00  0.00    -0.167 F 
ATOM     22  F   UNL A   1      30.271  23.753  23.327  1.00  0.00    -0.167 F 
ENDBRANCH  16  19
ENDBRANCH   4   6
ENDBRANCH   3   4
ENDBRANCH   2   3
ENDBRANCH   1   2
BRANCH   1  23
ATOM     23  O   UNL A   1      32.992  30.357  26.115  1.00  0.00    -0.458 OA
BRANCH  23  24
ATOM     24  C   UNL A   1      33.284  31.376  26.956  1.00  0.00     0.338 C 
ATOM     25  O   UNL A   1      32.554  32.298  27.281  1.00  0.00    -0.246 OA
BRANCH  24  26
ATOM     26  C   UNL A   1      34.582  31.121  27.608  1.00  0.00     0.060 A 
ATOM     27  C   UNL A   1      34.854  29.799  27.964  1.00  0.00     0.016 A 
ATOM     28  C   UNL A   1      35.492  32.134  27.914  1.00  0.00     0.016 A 
ATOM     29  C   UNL A   1      36.054  29.461  28.576  1.00  0.00     0.010 A 
ATOM     30  C   UNL A   1      36.676  31.807  28.589  1.00  0.00     0.010 A 
ATOM     31  C   UNL A   1      36.957  30.470  28.923  1.00  0.00    -0.014 A 
BRANCH  31  32
ATOM     32  C   UNL A   1      38.131  30.120  29.748  1.00  0.00     0.031 A 
ATOM     33  C   UNL A   1      39.202  29.249  29.157  1.00  0.00     0.074 A 
ATOM     34  C   UNL A   1      38.272  30.623  30.987  1.00  0.00     0.049 A 
ATOM     35  N   UNL A   1      40.276  28.766  29.724  1.00  0.00    -0.248 NA
ATOM     36  C   UNL A   1      39.054  28.888  27.736  1.00  0.00     0.031 C 
ATOM     37  C   UNL A   1      37.359  31.572  31.622  1.00  0.00     0.029 A 
ATOM     38  N   UNL A   1      39.244  30.403  31.930  1.00  0.00    -0.354 N 
ATOM     39  C   UNL A   1      40.929  28.045  28.735  1.00  0.00     0.074 A 
ATOM     40  C   UNL A   1      40.138  28.153  27.530  1.00  0.00     0.031 C 
ATOM     41  C   UNL A   1      37.805  31.838  32.862  1.00  0.00     0.029 A 
ATOM     42  C   UNL A   1      39.008  31.048  33.118  1.00  0.00     0.049 A 
ATOM     43  H   UNL A   1      40.035  29.839  31.769  1.00  0.00     0.167 HD
ATOM     44  C   UNL A   1      42.081  27.344  28.830  1.00  0.00     0.031 A 
ATOM     45  C   UNL A   1      39.666  30.977  34.292  1.00  0.00     0.031 A 
ATOM     46  C   UNL A   1      42.850  27.214  30.036  1.00  0.00     0.049 A 
ATOM     47  C   UNL A   1      40.877  30.092  34.407  1.00  0.00     0.074 A 
ATOM     48  C   UNL A   1      44.013  26.491  30.238  1.00  0.00     0.029 A 
ATOM     49  N   UNL A   1      42.534  27.816  31.243  1.00  0.00    -0.354 N 
ATOM     50  N   UNL A   1      41.459  29.370  33.480  1.00  0.00    -0.248 NA
ATOM     51  C   UNL A   1      41.517  30.004  35.728  1.00  0.00     0.031 C 
ATOM     52  C   UNL A   1      44.374  26.618  31.581  1.00  0.00     0.029 A 
ATOM     53  C   UNL A   1      43.466  27.463  32.200  1.00  0.00     0.049 A 
ATOM     54  H   UNL A   1      41.760  28.406  31.395  1.00  0.00     0.167 HD
ATOM     55  C   UNL A   1      42.539  28.756  34.100  1.00  0.00     0.074 A 
ATOM     56  C   UNL A   1      42.540  29.195  35.480  1.00  0.00     0.031 C 
ATOM     57  C   UNL A   1      43.452  27.907  33.568  1.00  0.00     0.031 A 
BRANCH  44  58
ATOM     58  C   UNL A   1      42.565  26.618  27.613  1.00  0.00    -0.014 A 
ATOM     59  C   UNL A   1      42.117  25.322  27.318  1.00  0.00     0.009 A 
ATOM     60  C   UNL A   1      43.402  27.279  26.700  1.00  0.00     0.009 A 
ATOM     61  C   UNL A   1      42.499  24.702  26.127  1.00  0.00     0.001 A 
ATOM     62  C   UNL A   1      43.768  26.662  25.504  1.00  0.00     0.001 A 
ATOM     63  C   UNL A   1      43.315  25.375  25.218  1.00  0.00     0.000 A 
ENDBRANCH  44  58
BRANCH  45  64
ATOM     64  C   UNL A   1      39.159  31.735  35.462  1.00  0.00    -0.014 A 
ATOM     65  C   UNL A   1      39.573  33.055  35.698  1.00  0.00     0.009 A 
ATOM     66  C   UNL A   1      38.232  31.146  36.338  1.00  0.00     0.009 A 
ATOM     67  C   UNL A   1      39.068  33.767  36.790  1.00  0.00     0.001 A 
ATOM     68  C   UNL A   1      37.714  31.868  37.415  1.00  0.00     0.001 A 
ATOM     69  C   UNL A   1      38.134  33.177  37.641  1.00  0.00     0.000 A 
ENDBRANCH  45  64
BRANCH  57  70
ATOM     70  C   UNL A   1      44.549  27.405  34.460  1.00  0.00    -0.014 A 
ATOM     71  C   UNL A   1      44.420  26.191  35.151  1.00  0.00     0.009 A 
ATOM     72  C   UNL A   1      45.768  28.098  34.517  1.00  0.00     0.009 A 
ATOM     73  C   UNL A   1      45.491  25.687  35.890  1.00  0.00     0.001 A 
ATOM     74  C   UNL A   1      46.844  27.580  35.239  1.00  0.00     0.001 A 
ATOM     75  C   UNL A   1      46.703  26.377  35.927  1.00  0.00     0.000 A 
ENDBRANCH  57  70
ENDBRANCH  31  32
ENDBRANCH  24  26
ENDBRANCH  23  24
ENDBRANCH   1  23
TORSDOF 13
ENDMDL
MODEL 3
REMARK VINA RESULT:     -10.8      2.475      7.660
REMARK SMILES CCc1cc(C)c2c(c1)C=C(C(=O)OCCOC(=O)c1ccc(-c3c4nc(c(-c5ccccc5)c5ccc([nH]5)c(-c5ccccc5)c5nc(c(-c6ccccc6)c6ccc3[nH]6)C=C5)C=C4)cc1)[C@@H](C(F)(F)F)O2
REMARK SMILES IDX 16 1 15 2 14 3 12 4 13 5 11 6 3 7 4 8 9 9 5 10 8 11 6 12
REMARK SMILES IDX 7 13 10 14 73 15 68 16 2 17 1 18 69 19 70 20 71 21 72 22
REMARK SMILES IDX 17 23 18 24 19 25 20 26 21 27 67 28 22 29 66 30 23 31 24 32
REMARK SMILES IDX 25 33 60 34 26 35 65 36 59 37 61 38 27 39 64 40 58 41 57 42
REMARK SMILES IDX 28 44 50 45 35 46 49 47 36 48 39 49 48 50 62 51 37 52 38 53
REMARK SMILES IDX 47 55 63 56 40 57 29 58 30 59 34 60 31 61 33 62 32 63 51 64
REMARK SMILES IDX 52 65 56 66 53 67 55 68 54 69 41 70 42 71 46 72 43 73 45 74
REMARK SMILES IDX 44 75
REMARK H PARENT 61 43 39 54
REMARK Flexibility Score: inf
ROOT
ATOM      1  C   UNL A   1      37.169  22.462  24.665  1.00  0.00     0.275 C 
ENDROOT
BRANCH   1   2
ATOM      2  C   UNL A   1      35.961  21.729  25.260  1.00  0.00     0.275 C 
BRANCH   2   3
ATOM      3  O   UNL A   1      35.226  22.564  26.179  1.00  0.00    -0.459 OA
BRANCH   3   4
ATOM      4  C   UNL A   1      33.913  22.752  25.903  1.00  0.00     0.338 C 
ATOM      5  O   UNL A   1      33.001  21.993  26.192  1.00  0.00    -0.246 OA
BRANCH   4   6
ATOM      6  C   UNL A   1      33.705  24.082  25.285  1.00  0.00     0.087 C 
ATOM      7  C   UNL A   1      33.151  28.820  26.033  1.00  0.00    -0.047 A 
ATOM      8  C   UNL A   1      33.396  29.053  24.674  1.00  0.00     0.011 A 
ATOM      9  C   UNL A   1      33.083  27.491  26.476  1.00  0.00     0.015 A 
ATOM     10  C   UNL A   1      33.587  27.989  23.774  1.00  0.00    -0.008 A 
ATOM     11  C   UNL A   1      33.289  26.420  25.596  1.00  0.00     0.018 A 
ATOM     12  C   UNL A   1      33.828  28.277  22.319  1.00  0.00     0.048 C 
ATOM     13  C   UNL A   1      33.580  26.670  24.256  1.00  0.00     0.130 A 
ATOM     14  C   UNL A   1      33.272  25.056  26.096  1.00  0.00     0.027 C 
ATOM     15  O   UNL A   1      33.887  25.680  23.365  1.00  0.00    -0.475 OA
ATOM     16  C   UNL A   1      34.026  24.309  23.831  1.00  0.00     0.316 C 
BRANCH   7  17
ATOM     17  C   UNL A   1      33.044  29.929  27.057  1.00  0.00     0.032 C 
ATOM     18  C   UNL A   1      34.350  30.590  27.477  1.00  0.00     0.009 C 
ENDBRANCH   7  17
BRANCH  16  19
ATOM     19  C   UNL A   1      33.143  23.432  22.927  1.00  0.00     0.430 C 
ATOM     20  F   UNL A   1      31.876  23.357  23.401  1.00  0.00    -0.167 F 
ATOM     21  F   UNL A   1      33.057  23.918  21.666  1.00  0.00    -0.167 F 
ATOM     22  F   UNL A   1      33.615  22.166  22.834  1.00  0.00    -0.167 F 
ENDBRANCH  16  19
ENDBRANCH   4   6
ENDBRANCH   3   4
ENDBRANCH   2   3
ENDBRANCH   1   2
BRANCH   1  23
ATOM     23  O   UNL A   1      37.652  23.493  25.545  1.00  0.00    -0.458 OA
BRANCH  23  24
ATOM     24  C   UNL A   1      38.790  23.184  26.210  1.00  0.00     0.338 C 
ATOM     25  O   UNL A   1      39.389  22.122  26.194  1.00  0.00    -0.246 OA
BRANCH  24  26
ATOM     26  C   UNL A   1      39.343  24.401  26.833  1.00  0.00     0.060 A 
ATOM     27  C   UNL A   1      38.978  24.645  28.158  1.00  0.00     0.016 A 
ATOM     28  C   UNL A   1      40.151  25.308  26.146  1.00  0.00     0.016 A 
ATOM     29  C   UNL A   1      39.456  25.763  28.831  1.00  0.00     0.010 A 
ATOM     30  C   UNL A   1      40.583  26.468  26.801  1.00  0.00     0.010 A 
ATOM     31  C   UNL A   1      40.234  26.699  28.144  1.00  0.00    -0.014 A 
BRANCH  31  32
ATOM     32  C   UNL A   1      40.566  27.974  28.812  1.00  0.00     0.031 A 
ATOM     33  C   UNL A   1      41.946  28.164  29.372  1.00  0.00     0.074 A 
ATOM     34  C   UNL A   1      39.668  28.974  28.863  1.00  0.00     0.049 A 
ATOM     35  N   UNL A   1      42.425  29.171  30.053  1.00  0.00    -0.248 NA
ATOM     36  C   UNL A   1      42.919  27.089  29.116  1.00  0.00     0.031 C 
ATOM     37  C   UNL A   1      38.340  28.950  28.251  1.00  0.00     0.029 A 
ATOM     38  N   UNL A   1      39.745  30.207  29.459  1.00  0.00    -0.354 N 
ATOM     39  C   UNL A   1      43.751  28.851  30.310  1.00  0.00     0.074 A 
ATOM     40  C   UNL A   1      44.006  27.561  29.710  1.00  0.00     0.031 C 
ATOM     41  C   UNL A   1      37.718  30.110  28.522  1.00  0.00     0.029 A 
ATOM     42  C   UNL A   1      38.587  30.937  29.357  1.00  0.00     0.049 A 
ATOM     43  H   UNL A   1      40.554  30.538  29.913  1.00  0.00     0.167 HD
ATOM     44  C   UNL A   1      44.668  29.567  30.997  1.00  0.00     0.031 A 
ATOM     45  C   UNL A   1      38.253  32.120  29.908  1.00  0.00     0.031 A 
ATOM     46  C   UNL A   1      44.405  30.835  31.617  1.00  0.00     0.049 A 
ATOM     47  C   UNL A   1      39.252  32.840  30.773  1.00  0.00     0.074 A 
ATOM     48  C   UNL A   1      45.263  31.618  32.368  1.00  0.00     0.029 A 
ATOM     49  N   UNL A   1      43.193  31.504  31.561  1.00  0.00    -0.354 N 
ATOM     50  N   UNL A   1      40.487  32.505  31.055  1.00  0.00    -0.248 NA
ATOM     51  C   UNL A   1      38.810  34.094  31.400  1.00  0.00     0.031 C 
ATOM     52  C   UNL A   1      44.556  32.739  32.807  1.00  0.00     0.029 A 
ATOM     53  C   UNL A   1      43.274  32.680  32.284  1.00  0.00     0.049 A 
ATOM     54  H   UNL A   1      42.394  31.188  31.080  1.00  0.00     0.167 HD
ATOM     55  C   UNL A   1      40.975  33.512  31.878  1.00  0.00     0.074 A 
ATOM     56  C   UNL A   1      39.907  34.475  32.044  1.00  0.00     0.031 C 
ATOM     57  C   UNL A   1      42.203  33.626  32.441  1.00  0.00     0.031 A 
BRANCH  44  58
ATOM     58  C   UNL A   1      46.036  28.981  31.163  1.00  0.00    -0.014 A 
ATOM     59  C   UNL A   1      47.066  29.282  30.258  1.00  0.00     0.009 A 
ATOM     60  C   UNL A   1      46.322  28.198  32.292  1.00  0.00     0.009 A 
ATOM     61  C   UNL A   1      48.360  28.810  30.486  1.00  0.00     0.001 A 
ATOM     62  C   UNL A   1      47.620  27.742  32.524  1.00  0.00     0.001 A 
ATOM     63  C   UNL A   1      48.637  28.049  31.623  1.00  0.00     0.000 A 
ENDBRANCH  44  58
BRANCH  45  64
ATOM     64  C   UNL A   1      36.891  32.669  29.694  1.00  0.00    -0.014 A 
ATOM     65  C   UNL A   1      35.859  32.410  30.608  1.00  0.00     0.009 A 
ATOM     66  C   UNL A   1      36.624  33.481  28.578  1.00  0.00     0.009 A 
ATOM     67  C   UNL A   1      34.587  32.954  30.408  1.00  0.00     0.001 A 
ATOM     68  C   UNL A   1      35.359  34.041  28.394  1.00  0.00     0.001 A 
ATOM     69  C   UNL A   1      34.341  33.774  29.307  1.00  0.00     0.000 A 
ENDBRANCH  45  64
BRANCH  57  70
ATOM     70  C   UNL A   1      42.483  34.843  33.274  1.00  0.00    -0.014 A 
ATOM     71  C   UNL A   1      43.092  35.976  32.716  1.00  0.00     0.009 A 
ATOM     72  C   UNL A   1      42.026  34.894  34.600  1.00  0.00     0.009 A 
ATOM     73  C   UNL A   1      43.247  37.136  33.477  1.00  0.00     0.001 A 
ATOM     74  C   UNL A   1      42.163  36.062  35.351  1.00  0.00     0.001 A 
ATOM     75  C   UNL A   1      42.775  37.180  34.789  1.00  0.00     0.000 A 
ENDBRANCH  57  70
ENDBRANCH  31  32
ENDBRANCH  24  26
ENDBRANCH  23  24
ENDBRANCH   1  23
TORSDOF 13
ENDMDL
