MODEL 1
REMARK VINA RESULT:     -10.6      0.000      0.000
REMARK SMILES O=C(Cc1c[nH]c(=O)n(Cc2ccccc2)c1=O)OCCOC(=O)c1ccc(-c2c3nc(c(-c4ccccc4)c4ccc([nH]4)c(-c4ccccc4)c4nc(c(-c5ccccc5)c5ccc2[nH]5)C=C4)C=C3)cc1
REMARK SMILES IDX 20 1 19 2 2 3 1 4 3 5 4 6 5 7 17 8 6 9 9 10 18 11 7 12 8 14
REMARK SMILES IDX 10 15 11 16 12 17 16 18 13 19 15 20 14 21 21 22 22 23 23 24
REMARK SMILES IDX 24 25 25 26 26 27 72 28 27 29 71 30 28 31 29 32 30 33 65 34
REMARK SMILES IDX 31 35 70 36 64 37 66 38 32 39 69 40 63 41 62 42 33 44 55 45
REMARK SMILES IDX 40 46 54 47 41 48 44 49 53 50 67 51 42 52 43 53 52 55 68 56
REMARK SMILES IDX 45 57 34 58 35 59 39 60 36 61 38 62 37 63 56 64 57 65 61 66
REMARK SMILES IDX 58 67 60 68 59 69 46 70 47 71 51 72 48 73 50 74 49 75
REMARK H PARENT 6 13 66 43 44 54
REMARK Flexibility Score: inf
ROOT
ATOM      1  C   UNL A   1      31.191  32.287  26.505  1.00  0.00     0.274 C 
ENDROOT
BRANCH   1   2
ATOM      2  O   UNL A   1      31.650  31.143  25.751  1.00  0.00    -0.462 OA
BRANCH   2   3
ATOM      3  C   UNL A   1      32.196  30.019  26.269  1.00  0.00     0.310 C 
ATOM      4  O   UNL A   1      31.729  29.510  27.286  1.00  0.00    -0.252 OA
BRANCH   3   5
ATOM      5  C   UNL A   1      33.458  29.456  25.642  1.00  0.00     0.165 C 
BRANCH   5   6
ATOM      6  C   UNL A   1      33.399  28.431  24.558  1.00  0.00     0.045 A 
ATOM      7  C   UNL A   1      33.408  28.817  23.276  1.00  0.00     0.097 A 
ATOM      8  C   UNL A   1      33.316  26.976  24.847  1.00  0.00     0.260 A 
ATOM      9  N   UNL A   1      33.449  27.914  22.264  1.00  0.00    -0.314 N 
ATOM     10  N   UNL A   1      33.358  26.126  23.753  1.00  0.00    -0.256 N 
ATOM     11  O   UNL A   1      33.194  26.592  26.006  1.00  0.00    -0.269 OA
ATOM     12  C   UNL A   1      33.493  26.561  22.446  1.00  0.00     0.328 A 
ATOM     13  H   UNL A   1      33.447  28.256  21.341  1.00  0.00     0.171 HD
ATOM     14  O   UNL A   1      33.649  25.835  21.468  1.00  0.00    -0.248 OA
BRANCH  10  15
ATOM     15  C   UNL A   1      33.226  24.695  23.984  1.00  0.00     0.166 C 
BRANCH  15  16
ATOM     16  C   UNL A   1      34.579  24.049  24.220  1.00  0.00    -0.028 A 
ATOM     17  C   UNL A   1      35.217  24.179  25.464  1.00  0.00     0.005 A 
ATOM     18  C   UNL A   1      35.239  23.361  23.193  1.00  0.00     0.005 A 
ATOM     19  C   UNL A   1      36.487  23.644  25.675  1.00  0.00     0.000 A 
ATOM     20  C   UNL A   1      36.505  22.811  23.412  1.00  0.00     0.000 A 
ATOM     21  C   UNL A   1      37.130  22.958  24.650  1.00  0.00     0.000 A 
ENDBRANCH  15  16
ENDBRANCH  10  15
ENDBRANCH   5   6
ENDBRANCH   3   5
ENDBRANCH   2   3
ENDBRANCH   1   2
BRANCH   1  22
ATOM     22  C   UNL A   1      32.372  33.162  26.934  1.00  0.00     0.275 C 
BRANCH  22  23
ATOM     23  O   UNL A   1      32.137  33.667  28.261  1.00  0.00    -0.458 OA
BRANCH  23  24
ATOM     24  C   UNL A   1      32.981  34.634  28.701  1.00  0.00     0.338 C 
ATOM     25  O   UNL A   1      32.706  35.795  28.944  1.00  0.00    -0.246 OA
BRANCH  24  26
ATOM     26  C   UNL A   1      34.267  33.989  29.070  1.00  0.00     0.060 A 
ATOM     27  C   UNL A   1      35.430  34.194  28.319  1.00  0.00     0.016 A 
ATOM     28  C   UNL A   1      34.276  33.087  30.142  1.00  0.00     0.016 A 
ATOM     29  C   UNL A   1      36.600  33.508  28.651  1.00  0.00     0.010 A 
ATOM     30  C   UNL A   1      35.450  32.405  30.477  1.00  0.00     0.010 A 
ATOM     31  C   UNL A   1      36.625  32.625  29.746  1.00  0.00    -0.014 A 
BRANCH  31  32
ATOM     32  C   UNL A   1      37.929  32.125  30.242  1.00  0.00     0.031 A 
ATOM     33  C   UNL A   1      38.711  32.811  31.318  1.00  0.00     0.074 A 
ATOM     34  C   UNL A   1      38.400  30.991  29.692  1.00  0.00     0.049 A 
ATOM     35  N   UNL A   1      39.776  32.383  31.948  1.00  0.00    -0.248 NA
ATOM     36  C   UNL A   1      38.249  34.139  31.744  1.00  0.00     0.031 C 
ATOM     37  C   UNL A   1      37.745  30.253  28.609  1.00  0.00     0.029 A 
ATOM     38  N   UNL A   1      39.520  30.252  29.974  1.00  0.00    -0.354 N 
ATOM     39  C   UNL A   1      40.102  33.372  32.865  1.00  0.00     0.074 A 
ATOM     40  C   UNL A   1      39.144  34.444  32.679  1.00  0.00     0.031 C 
ATOM     41  C   UNL A   1      38.457  29.151  28.340  1.00  0.00     0.029 A 
ATOM     42  C   UNL A   1      39.625  29.113  29.215  1.00  0.00     0.049 A 
ATOM     43  H   UNL A   1      40.184  30.514  30.652  1.00  0.00     0.167 HD
ATOM     44  C   UNL A   1      41.101  33.374  33.781  1.00  0.00     0.031 A 
ATOM     45  C   UNL A   1      40.545  28.132  29.227  1.00  0.00     0.031 A 
ATOM     46  C   UNL A   1      42.081  32.326  33.927  1.00  0.00     0.049 A 
ATOM     47  C   UNL A   1      41.660  28.175  30.228  1.00  0.00     0.074 A 
ATOM     48  C   UNL A   1      43.098  32.224  34.864  1.00  0.00     0.029 A 
ATOM     49  N   UNL A   1      42.189  31.213  33.107  1.00  0.00    -0.354 N 
ATOM     50  N   UNL A   1      41.894  29.069  31.157  1.00  0.00    -0.248 NA
ATOM     51  C   UNL A   1      42.622  27.066  30.195  1.00  0.00     0.031 C 
ATOM     52  C   UNL A   1      43.858  31.088  34.569  1.00  0.00     0.029 A 
ATOM     53  C   UNL A   1      43.276  30.442  33.492  1.00  0.00     0.049 A 
ATOM     54  H   UNL A   1      41.583  31.002  32.360  1.00  0.00     0.167 HD
ATOM     55  C   UNL A   1      43.028  28.628  31.826  1.00  0.00     0.074 A 
ATOM     56  C   UNL A   1      43.415  27.373  31.213  1.00  0.00     0.031 C 
ATOM     57  C   UNL A   1      43.684  29.215  32.856  1.00  0.00     0.031 A 
BRANCH  44  58
ATOM     58  C   UNL A   1      41.195  34.545  34.721  1.00  0.00    -0.014 A 
ATOM     59  C   UNL A   1      42.058  35.614  34.432  1.00  0.00     0.009 A 
ATOM     60  C   UNL A   1      40.523  34.530  35.954  1.00  0.00     0.009 A 
ATOM     61  C   UNL A   1      42.256  36.637  35.363  1.00  0.00     0.001 A 
ATOM     62  C   UNL A   1      40.704  35.567  36.872  1.00  0.00     0.001 A 
ATOM     63  C   UNL A   1      41.578  36.614  36.580  1.00  0.00     0.000 A 
ENDBRANCH  44  58
BRANCH  45  64
ATOM     64  C   UNL A   1      40.399  27.004  28.275  1.00  0.00    -0.014 A 
ATOM     65  C   UNL A   1      41.006  27.059  27.010  1.00  0.00     0.009 A 
ATOM     66  C   UNL A   1      39.583  25.909  28.594  1.00  0.00     0.009 A 
ATOM     67  C   UNL A   1      40.779  26.050  26.074  1.00  0.00     0.001 A 
ATOM     68  C   UNL A   1      39.379  24.889  27.663  1.00  0.00     0.001 A 
ATOM     69  C   UNL A   1      39.968  24.965  26.402  1.00  0.00     0.000 A 
ENDBRANCH  45  64
BRANCH  57  70
ATOM     70  C   UNL A   1      44.909  28.517  33.381  1.00  0.00    -0.014 A 
ATOM     71  C   UNL A   1      44.794  27.577  34.417  1.00  0.00     0.009 A 
ATOM     72  C   UNL A   1      46.185  28.829  32.887  1.00  0.00     0.009 A 
ATOM     73  C   UNL A   1      45.930  26.965  34.950  1.00  0.00     0.001 A 
ATOM     74  C   UNL A   1      47.318  28.193  33.401  1.00  0.00     0.001 A 
ATOM     75  C   UNL A   1      47.190  27.266  34.435  1.00  0.00     0.000 A 
ENDBRANCH  57  70
ENDBRANCH  31  32
ENDBRANCH  24  26
ENDBRANCH  23  24
ENDBRANCH  22  23
ENDBRANCH   1  22
TORSDOF 14
ENDMDL
MODEL 2
REMARK VINA RESULT:     -10.5      3.955      9.293
REMARK SMILES O=C(Cc1c[nH]c(=O)n(Cc2ccccc2)c1=O)OCCOC(=O)c1ccc(-c2c3nc(c(-c4ccccc4)c4ccc([nH]4)c(-c4ccccc4)c4nc(c(-c5ccccc5)c5ccc2[nH]5)C=C4)C=C3)cc1
REMARK SMILES IDX 20 1 19 2 2 3 1 4 3 5 4 6 5 7 17 8 6 9 9 10 18 11 7 12 8 14
REMARK SMILES IDX 10 15 11 16 12 17 16 18 13 19 15 20 14 21 21 22 22 23 23 24
REMARK SMILES IDX 24 25 25 26 26 27 72 28 27 29 71 30 28 31 29 32 30 33 65 34
REMARK SMILES IDX 31 35 70 36 64 37 66 38 32 39 69 40 63 41 62 42 33 44 55 45
REMARK SMILES IDX 40 46 54 47 41 48 44 49 53 50 67 51 42 52 43 53 52 55 68 56
REMARK SMILES IDX 45 57 34 58 35 59 39 60 36 61 38 62 37 63 56 64 57 65 61 66
REMARK SMILES IDX 58 67 60 68 59 69 46 70 47 71 51 72 48 73 50 74 49 75
REMARK H PARENT 6 13 66 43 44 54
REMARK Flexibility Score: inf
ROOT
ATOM      1  C   UNL A   1      38.070  19.356  24.908  1.00  0.00     0.274 C 
ENDROOT
BRANCH   1   2
ATOM      2  O   UNL A   1      36.880  20.113  25.224  1.00  0.00    -0.462 OA
BRANCH   2   3
ATOM      3  C   UNL A   1      36.698  21.434  25.000  1.00  0.00     0.310 C 
ATOM      4  O   UNL A   1      36.969  21.924  23.905  1.00  0.00    -0.252 OA
BRANCH   3   5
ATOM      5  C   UNL A   1      36.257  22.323  26.148  1.00  0.00     0.165 C 
BRANCH   5   6
ATOM      6  C   UNL A   1      34.822  22.677  26.353  1.00  0.00     0.045 A 
ATOM      7  C   UNL A   1      34.064  21.935  27.170  1.00  0.00     0.097 A 
ATOM      8  C   UNL A   1      34.185  23.830  25.667  1.00  0.00     0.260 A 
ATOM      9  N   UNL A   1      32.782  22.277  27.454  1.00  0.00    -0.314 N 
ATOM     10  N   UNL A   1      32.870  24.105  26.013  1.00  0.00    -0.256 N 
ATOM     11  O   UNL A   1      34.817  24.465  24.829  1.00  0.00    -0.269 OA
ATOM     12  C   UNL A   1      32.158  23.386  26.957  1.00  0.00     0.328 A 
ATOM     13  H   UNL A   1      32.270  21.690  28.056  1.00  0.00     0.171 HD
ATOM     14  O   UNL A   1      31.036  23.672  27.370  1.00  0.00    -0.248 OA
BRANCH  10  15
ATOM     15  C   UNL A   1      32.188  25.193  25.328  1.00  0.00     0.166 C 
BRANCH  15  16
ATOM     16  C   UNL A   1      32.399  26.513  26.045  1.00  0.00    -0.028 A 
ATOM     17  C   UNL A   1      31.404  27.024  26.893  1.00  0.00     0.005 A 
ATOM     18  C   UNL A   1      33.561  27.269  25.837  1.00  0.00     0.005 A 
ATOM     19  C   UNL A   1      31.559  28.265  27.510  1.00  0.00     0.000 A 
ATOM     20  C   UNL A   1      33.722  28.505  26.470  1.00  0.00     0.000 A 
ATOM     21  C   UNL A   1      32.719  29.004  27.300  1.00  0.00     0.000 A 
ENDBRANCH  15  16
ENDBRANCH  10  15
ENDBRANCH   5   6
ENDBRANCH   3   5
ENDBRANCH   2   3
ENDBRANCH   1   2
BRANCH   1  22
ATOM     22  C   UNL A   1      39.251  19.823  25.763  1.00  0.00     0.275 C 
BRANCH  22  23
ATOM     23  O   UNL A   1      40.484  19.407  25.146  1.00  0.00    -0.458 OA
BRANCH  23  24
ATOM     24  C   UNL A   1      41.577  19.354  25.947  1.00  0.00     0.338 C 
ATOM     25  O   UNL A   1      42.369  18.435  26.050  1.00  0.00    -0.246 OA
BRANCH  24  26
ATOM     26  C   UNL A   1      41.794  20.708  26.518  1.00  0.00     0.060 A 
ATOM     27  C   UNL A   1      41.558  20.978  27.870  1.00  0.00     0.016 A 
ATOM     28  C   UNL A   1      42.156  21.746  25.649  1.00  0.00     0.016 A 
ATOM     29  C   UNL A   1      41.699  22.281  28.353  1.00  0.00     0.010 A 
ATOM     30  C   UNL A   1      42.301  23.050  26.134  1.00  0.00     0.010 A 
ATOM     31  C   UNL A   1      42.093  23.322  27.493  1.00  0.00    -0.014 A 
BRANCH  31  32
ATOM     32  C   UNL A   1      42.496  24.625  28.074  1.00  0.00     0.031 A 
ATOM     33  C   UNL A   1      43.916  24.969  28.398  1.00  0.00     0.074 A 
ATOM     34  C   UNL A   1      41.522  25.527  28.295  1.00  0.00     0.049 A 
ATOM     35  N   UNL A   1      44.412  26.128  28.752  1.00  0.00    -0.248 NA
ATOM     36  C   UNL A   1      44.907  23.887  28.320  1.00  0.00     0.031 C 
ATOM     37  C   UNL A   1      40.096  25.292  28.053  1.00  0.00     0.029 A 
ATOM     38  N   UNL A   1      41.578  26.818  28.750  1.00  0.00    -0.354 N 
ATOM     39  C   UNL A   1      45.775  25.929  28.914  1.00  0.00     0.074 A 
ATOM     40  C   UNL A   1      46.023  24.523  28.660  1.00  0.00     0.031 C 
ATOM     41  C   UNL A   1      39.417  26.412  28.332  1.00  0.00     0.029 A 
ATOM     42  C   UNL A   1      40.353  27.435  28.789  1.00  0.00     0.049 A 
ATOM     43  H   UNL A   1      42.415  27.259  29.024  1.00  0.00     0.167 HD
ATOM     44  C   UNL A   1      46.727  26.840  29.233  1.00  0.00     0.031 A 
ATOM     45  C   UNL A   1      40.011  28.689  29.134  1.00  0.00     0.031 A 
ATOM     46  C   UNL A   1      46.466  28.227  29.532  1.00  0.00     0.049 A 
ATOM     47  C   UNL A   1      41.080  29.668  29.515  1.00  0.00     0.074 A 
ATOM     48  C   UNL A   1      47.379  29.231  29.816  1.00  0.00     0.029 A 
ATOM     49  N   UNL A   1      45.208  28.804  29.613  1.00  0.00    -0.354 N 
ATOM     50  N   UNL A   1      42.377  29.489  29.564  1.00  0.00    -0.248 NA
ATOM     51  C   UNL A   1      40.640  31.024  29.868  1.00  0.00     0.031 C 
ATOM     52  C   UNL A   1      46.671  30.395  30.133  1.00  0.00     0.029 A 
ATOM     53  C   UNL A   1      45.319  30.137  29.980  1.00  0.00     0.049 A 
ATOM     54  H   UNL A   1      44.360  28.335  29.438  1.00  0.00     0.167 HD
ATOM     55  C   UNL A   1      42.911  30.712  29.946  1.00  0.00     0.074 A 
ATOM     56  C   UNL A   1      41.799  31.630  30.089  1.00  0.00     0.031 C 
ATOM     57  C   UNL A   1      44.209  31.039  30.159  1.00  0.00     0.031 A 
BRANCH  44  58
ATOM     58  C   UNL A   1      48.159  26.382  29.271  1.00  0.00    -0.014 A 
ATOM     59  C   UNL A   1      48.944  26.422  28.107  1.00  0.00     0.009 A 
ATOM     60  C   UNL A   1      48.694  25.795  30.429  1.00  0.00     0.009 A 
ATOM     61  C   UNL A   1      50.228  25.872  28.099  1.00  0.00     0.001 A 
ATOM     62  C   UNL A   1      49.987  25.268  30.425  1.00  0.00     0.001 A 
ATOM     63  C   UNL A   1      50.749  25.299  29.257  1.00  0.00     0.000 A 
ENDBRANCH  44  58
BRANCH  45  64
ATOM     64  C   UNL A   1      38.582  29.082  29.077  1.00  0.00    -0.014 A 
ATOM     65  C   UNL A   1      38.041  29.622  27.898  1.00  0.00     0.009 A 
ATOM     66  C   UNL A   1      37.778  28.998  30.222  1.00  0.00     0.009 A 
ATOM     67  C   UNL A   1      36.728  30.093  27.876  1.00  0.00     0.001 A 
ATOM     68  C   UNL A   1      36.456  29.447  30.188  1.00  0.00     0.001 A 
ATOM     69  C   UNL A   1      35.936  30.003  29.020  1.00  0.00     0.000 A 
ENDBRANCH  45  64
BRANCH  57  70
ATOM     70  C   UNL A   1      44.504  32.450  30.590  1.00  0.00    -0.014 A 
ATOM     71  C   UNL A   1      44.534  32.778  31.954  1.00  0.00     0.009 A 
ATOM     72  C   UNL A   1      44.701  33.468  29.643  1.00  0.00     0.009 A 
ATOM     73  C   UNL A   1      44.751  34.094  32.364  1.00  0.00     0.001 A 
ATOM     74  C   UNL A   1      44.948  34.779  30.055  1.00  0.00     0.001 A 
ATOM     75  C   UNL A   1      44.967  35.092  31.414  1.00  0.00     0.000 A 
ENDBRANCH  57  70
ENDBRANCH  31  32
ENDBRANCH  24  26
ENDBRANCH  23  24
ENDBRANCH  22  23
ENDBRANCH   1  22
TORSDOF 14
ENDMDL
MODEL 3
REMARK VINA RESULT:     -10.4      3.653      7.407
REMARK SMILES O=C(Cc1c[nH]c(=O)n(Cc2ccccc2)c1=O)OCCOC(=O)c1ccc(-c2c3nc(c(-c4ccccc4)c4ccc([nH]4)c(-c4ccccc4)c4nc(c(-c5ccccc5)c5ccc2[nH]5)C=C4)C=C3)cc1
REMARK SMILES IDX 20 1 19 2 2 3 1 4 3 5 4 6 5 7 17 8 6 9 9 10 18 11 7 12 8 14
REMARK SMILES IDX 10 15 11 16 12 17 16 18 13 19 15 20 14 21 21 22 22 23 23 24
REMARK SMILES IDX 24 25 25 26 26 27 72 28 27 29 71 30 28 31 29 32 30 33 65 34
REMARK SMILES IDX 31 35 70 36 64 37 66 38 32 39 69 40 63 41 62 42 33 44 55 45
REMARK SMILES IDX 40 46 54 47 41 48 44 49 53 50 67 51 42 52 43 53 52 55 68 56
REMARK SMILES IDX 45 57 34 58 35 59 39 60 36 61 38 62 37 63 56 64 57 65 61 66
REMARK SMILES IDX 58 67 60 68 59 69 46 70 47 71 51 72 48 73 50 74 49 75
REMARK H PARENT 6 13 66 43 44 54
REMARK Flexibility Score: inf
ROOT
ATOM      1  C   UNL A   1      33.891  35.036  29.089  1.00  0.00     0.274 C 
ENDROOT
BRANCH   1   2
ATOM      2  O   UNL A   1      33.284  34.842  30.386  1.00  0.00    -0.462 OA
BRANCH   2   3
ATOM      3  C   UNL A   1      33.914  34.400  31.498  1.00  0.00     0.310 C 
ATOM      4  O   UNL A   1      33.329  34.377  32.579  1.00  0.00    -0.252 OA
BRANCH   3   5
ATOM      5  C   UNL A   1      35.385  34.035  31.416  1.00  0.00     0.165 C 
BRANCH   5   6
ATOM      6  C   UNL A   1      36.053  33.246  32.493  1.00  0.00     0.045 A 
ATOM      7  C   UNL A   1      36.090  31.911  32.414  1.00  0.00     0.097 A 
ATOM      8  C   UNL A   1      36.679  33.892  33.675  1.00  0.00     0.260 A 
ATOM      9  N   UNL A   1      36.767  31.165  33.323  1.00  0.00    -0.314 N 
ATOM     10  N   UNL A   1      37.345  33.054  34.556  1.00  0.00    -0.256 N 
ATOM     11  O   UNL A   1      36.569  35.103  33.837  1.00  0.00    -0.269 OA
ATOM     12  C   UNL A   1      37.466  31.687  34.374  1.00  0.00     0.328 A 
ATOM     13  H   UNL A   1      36.753  30.186  33.219  1.00  0.00     0.171 HD
ATOM     14  O   UNL A   1      38.144  30.935  35.070  1.00  0.00    -0.248 OA
BRANCH  10  15
ATOM     15  C   UNL A   1      37.928  33.636  35.757  1.00  0.00     0.166 C 
BRANCH  15  16
ATOM     16  C   UNL A   1      39.172  34.441  35.429  1.00  0.00    -0.028 A 
ATOM     17  C   UNL A   1      39.571  35.496  36.264  1.00  0.00     0.005 A 
ATOM     18  C   UNL A   1      39.912  34.185  34.267  1.00  0.00     0.005 A 
ATOM     19  C   UNL A   1      40.676  36.284  35.942  1.00  0.00     0.000 A 
ATOM     20  C   UNL A   1      41.028  34.964  33.954  1.00  0.00     0.000 A 
ATOM     21  C   UNL A   1      41.406  36.016  34.788  1.00  0.00     0.000 A 
ENDBRANCH  15  16
ENDBRANCH  10  15
ENDBRANCH   5   6
ENDBRANCH   3   5
ENDBRANCH   2   3
ENDBRANCH   1   2
BRANCH   1  22
ATOM     22  C   UNL A   1      33.628  33.830  28.182  1.00  0.00     0.275 C 
BRANCH  22  23
ATOM     23  O   UNL A   1      34.810  33.011  28.118  1.00  0.00    -0.458 OA
BRANCH  23  24
ATOM     24  C   UNL A   1      34.634  31.676  28.279  1.00  0.00     0.338 C 
ATOM     25  O   UNL A   1      33.644  31.026  27.996  1.00  0.00    -0.246 OA
BRANCH  24  26
ATOM     26  C   UNL A   1      35.944  31.079  28.645  1.00  0.00     0.060 A 
ATOM     27  C   UNL A   1      37.149  31.728  28.357  1.00  0.00     0.016 A 
ATOM     28  C   UNL A   1      35.955  29.796  29.207  1.00  0.00     0.016 A 
ATOM     29  C   UNL A   1      38.362  31.098  28.646  1.00  0.00     0.010 A 
ATOM     30  C   UNL A   1      37.170  29.168  29.501  1.00  0.00     0.010 A 
ATOM     31  C   UNL A   1      38.381  29.823  29.240  1.00  0.00    -0.014 A 
BRANCH  31  32
ATOM     32  C   UNL A   1      39.657  29.298  29.782  1.00  0.00     0.031 A 
ATOM     33  C   UNL A   1      40.324  29.867  30.995  1.00  0.00     0.074 A 
ATOM     34  C   UNL A   1      40.210  28.250  29.143  1.00  0.00     0.049 A 
ATOM     35  N   UNL A   1      41.348  29.391  31.658  1.00  0.00    -0.248 NA
ATOM     36  C   UNL A   1      39.784  31.122  31.535  1.00  0.00     0.031 C 
ATOM     37  C   UNL A   1      39.671  27.633  27.929  1.00  0.00     0.029 A 
ATOM     38  N   UNL A   1      41.327  27.510  29.430  1.00  0.00    -0.354 N 
ATOM     39  C   UNL A   1      41.564  30.269  32.711  1.00  0.00     0.074 A 
ATOM     40  C   UNL A   1      40.588  31.332  32.572  1.00  0.00     0.031 C 
ATOM     41  C   UNL A   1      40.440  26.590  27.592  1.00  0.00     0.029 A 
ATOM     42  C   UNL A   1      41.533  26.474  28.553  1.00  0.00     0.049 A 
ATOM     43  H   UNL A   1      41.924  27.703  30.189  1.00  0.00     0.167 HD
ATOM     44  C   UNL A   1      42.484  30.184  33.702  1.00  0.00     0.031 A 
ATOM     45  C   UNL A   1      42.482  25.521  28.527  1.00  0.00     0.031 A 
ATOM     46  C   UNL A   1      43.484  29.150  33.806  1.00  0.00     0.049 A 
ATOM     47  C   UNL A   1      43.509  25.470  29.617  1.00  0.00     0.074 A 
ATOM     48  C   UNL A   1      44.423  28.960  34.808  1.00  0.00     0.029 A 
ATOM     49  N   UNL A   1      43.696  28.148  32.872  1.00  0.00    -0.354 N 
ATOM     50  N   UNL A   1      43.636  26.250  30.663  1.00  0.00    -0.248 NA
ATOM     51  C   UNL A   1      44.507  24.396  29.535  1.00  0.00     0.031 C 
ATOM     52  C   UNL A   1      45.244  27.886  34.446  1.00  0.00     0.029 A 
ATOM     53  C   UNL A   1      44.774  27.362  33.254  1.00  0.00     0.049 A 
ATOM     54  H   UNL A   1      43.161  28.014  32.056  1.00  0.00     0.167 HD
ATOM     55  C   UNL A   1      44.725  25.757  31.369  1.00  0.00     0.074 A 
ATOM     56  C   UNL A   1      45.204  24.596  30.647  1.00  0.00     0.031 C 
ATOM     57  C   UNL A   1      45.274  26.231  32.514  1.00  0.00     0.031 A 
BRANCH  44  58
ATOM     58  C   UNL A   1      42.461  31.234  34.779  1.00  0.00    -0.014 A 
ATOM     59  C   UNL A   1      43.403  32.275  34.770  1.00  0.00     0.009 A 
ATOM     60  C   UNL A   1      41.585  31.121  35.872  1.00  0.00     0.009 A 
ATOM     61  C   UNL A   1      43.478  33.173  35.838  1.00  0.00     0.001 A 
ATOM     62  C   UNL A   1      41.646  32.036  36.926  1.00  0.00     0.001 A 
ATOM     63  C   UNL A   1      42.599  33.055  36.913  1.00  0.00     0.000 A 
ENDBRANCH  44  58
BRANCH  45  64
ATOM     64  C   UNL A   1      42.452  24.514  27.439  1.00  0.00    -0.014 A 
ATOM     65  C   UNL A   1      41.803  23.283  27.629  1.00  0.00     0.009 A 
ATOM     66  C   UNL A   1      43.144  24.743  26.241  1.00  0.00     0.009 A 
ATOM     67  C   UNL A   1      41.867  22.292  26.649  1.00  0.00     0.001 A 
ATOM     68  C   UNL A   1      43.184  23.758  25.252  1.00  0.00     0.001 A 
ATOM     69  C   UNL A   1      42.556  22.532  25.461  1.00  0.00     0.000 A 
ENDBRANCH  45  64
BRANCH  57  70
ATOM     70  C   UNL A   1      46.475  25.504  33.055  1.00  0.00    -0.014 A 
ATOM     71  C   UNL A   1      46.319  24.538  34.062  1.00  0.00     0.009 A 
ATOM     72  C   UNL A   1      47.769  25.813  32.606  1.00  0.00     0.009 A 
ATOM     73  C   UNL A   1      47.432  23.899  34.610  1.00  0.00     0.001 A 
ATOM     74  C   UNL A   1      48.879  25.150  33.135  1.00  0.00     0.001 A 
ATOM     75  C   UNL A   1      48.710  24.198  34.140  1.00  0.00     0.000 A 
ENDBRANCH  57  70
ENDBRANCH  31  32
ENDBRANCH  24  26
ENDBRANCH  23  24
ENDBRANCH  22  23
ENDBRANCH   1  22
TORSDOF 14
ENDMDL
