MODEL 1
REMARK VINA RESULT:     -10.5      0.000      0.000
REMARK SMILES Cc1ccc(-c2nn(CCC(=O)OCCOC(=O)c3ccc(-c4c5nc(c(-c6ccccc6)c6ccc([nH]6)c(-c6ccccc6)c6nc(c(-c7ccccc7)c7ccc4[nH]7)C=C6)C=C5)cc3)c(=O)c3noc(C)c23)cc1C
REMARK SMILES IDX 14 1 13 2 11 3 12 4 10 5 9 6 8 7 6 8 7 9 74 10 69 11 72 12
REMARK SMILES IDX 67 13 70 14 71 15 73 16 68 17 5 18 1 19 2 20 3 21 76 22 4 23
REMARK SMILES IDX 75 24 77 25 15 26 16 27 17 28 18 29 19 30 20 31 66 32 21 33
REMARK SMILES IDX 65 34 22 35 23 36 24 37 59 38 25 39 64 40 58 41 60 42 26 43
REMARK SMILES IDX 63 44 57 45 56 46 27 48 49 49 34 50 48 51 35 52 38 53 47 54
REMARK SMILES IDX 61 55 36 56 37 57 46 59 62 60 39 61 28 62 29 63 33 64 30 65
REMARK SMILES IDX 32 66 31 67 50 68 51 69 55 70 52 71 54 72 53 73 40 74 41 75
REMARK SMILES IDX 45 76 42 77 44 78 43 79
REMARK H PARENT 60 47 38 58
REMARK Flexibility Score: inf
ROOT
ATOM      1  C   UNL A   1      43.099  19.119  25.513  1.00  0.00     0.274 C 
ENDROOT
BRANCH   1   2
ATOM      2  O   UNL A   1      43.822  20.174  24.854  1.00  0.00    -0.462 OA
BRANCH   2   3
ATOM      3  C   UNL A   1      45.136  19.958  24.614  1.00  0.00     0.307 C 
ATOM      4  O   UNL A   1      45.619  18.901  24.229  1.00  0.00    -0.252 OA
BRANCH   3   5
ATOM      5  C   UNL A   1      45.973  21.173  24.924  1.00  0.00     0.146 C 
BRANCH   5   6
ATOM      6  C   UNL A   1      45.397  22.054  26.029  1.00  0.00     0.160 C 
BRANCH   6   7
ATOM      7  N   UNL A   1      45.737  23.465  25.852  1.00  0.00    -0.227 N 
ATOM      8  C   UNL A   1      47.358  25.100  26.332  1.00  0.00     0.104 A 
ATOM      9  N   UNL A   1      46.990  23.849  26.356  1.00  0.00    -0.169 NA
ATOM     10  C   UNL A   1      46.444  26.104  25.863  1.00  0.00     0.078 A 
ATOM     11  C   UNL A   1      45.227  25.717  25.283  1.00  0.00     0.183 A 
ATOM     12  C   UNL A   1      46.431  27.476  25.795  1.00  0.00     0.143 A 
ATOM     13  C   UNL A   1      44.854  24.328  25.169  1.00  0.00     0.296 A 
ATOM     14  N   UNL A   1      44.495  26.765  24.894  1.00  0.00    -0.074 NA
ATOM     15  O   UNL A   1      45.256  27.874  25.221  1.00  0.00    -0.360 OA
ATOM     16  C   UNL A   1      47.336  28.572  26.180  1.00  0.00     0.091 C 
ATOM     17  O   UNL A   1      43.851  23.960  24.560  1.00  0.00    -0.265 OA
BRANCH   8  18
ATOM     18  C   UNL A   1      48.737  25.453  26.694  1.00  0.00     0.003 A 
ATOM     19  C   UNL A   1      52.783  26.229  27.929  1.00  0.00     0.044 C 
ATOM     20  C   UNL A   1      51.374  25.984  27.463  1.00  0.00    -0.048 A 
ATOM     21  C   UNL A   1      50.392  25.690  28.425  1.00  0.00     0.004 A 
ATOM     22  C   UNL A   1      51.014  26.040  26.098  1.00  0.00    -0.048 A 
ATOM     23  C   UNL A   1      49.079  25.427  28.045  1.00  0.00     0.011 A 
ATOM     24  C   UNL A   1      49.683  25.786  25.725  1.00  0.00     0.014 A 
ATOM     25  C   UNL A   1      51.999  26.343  25.002  1.00  0.00     0.044 C 
ENDBRANCH   8  18
ENDBRANCH   6   7
ENDBRANCH   5   6
ENDBRANCH   3   5
ENDBRANCH   2   3
ENDBRANCH   1   2
BRANCH   1  26
ATOM     26  C   UNL A   1      42.155  19.658  26.590  1.00  0.00     0.275 C 
BRANCH  26  27
ATOM     27  O   UNL A   1      42.265  21.091  26.694  1.00  0.00    -0.458 OA
BRANCH  27  28
ATOM     28  C   UNL A   1      41.459  21.655  27.617  1.00  0.00     0.338 C 
ATOM     29  O   UNL A   1      40.574  21.121  28.271  1.00  0.00    -0.246 OA
BRANCH  28  30
ATOM     30  C   UNL A   1      41.677  23.098  27.728  1.00  0.00     0.060 A 
ATOM     31  C   UNL A   1      40.984  24.036  26.956  1.00  0.00     0.016 A 
ATOM     32  C   UNL A   1      42.763  23.483  28.513  1.00  0.00     0.016 A 
ATOM     33  C   UNL A   1      41.407  25.371  26.953  1.00  0.00     0.010 A 
ATOM     34  C   UNL A   1      43.175  24.805  28.512  1.00  0.00     0.010 A 
ATOM     35  C   UNL A   1      42.505  25.761  27.731  1.00  0.00    -0.014 A 
BRANCH  35  36
ATOM     36  C   UNL A   1      42.918  27.179  27.803  1.00  0.00     0.031 A 
ATOM     37  C   UNL A   1      41.785  28.143  27.680  1.00  0.00     0.074 A 
ATOM     38  C   UNL A   1      44.012  27.595  28.477  1.00  0.00     0.049 A 
ATOM     39  N   UNL A   1      41.000  28.403  28.687  1.00  0.00    -0.248 NA
ATOM     40  C   UNL A   1      41.297  28.646  26.399  1.00  0.00     0.031 C 
ATOM     41  C   UNL A   1      44.721  26.789  29.476  1.00  0.00     0.029 A 
ATOM     42  N   UNL A   1      44.562  28.853  28.608  1.00  0.00    -0.354 N 
ATOM     43  C   UNL A   1      39.866  28.992  28.172  1.00  0.00     0.074 A 
ATOM     44  C   UNL A   1      40.118  29.181  26.758  1.00  0.00     0.031 C 
ATOM     45  C   UNL A   1      45.464  27.611  30.247  1.00  0.00     0.029 A 
ATOM     46  C   UNL A   1      45.416  28.967  29.705  1.00  0.00     0.049 A 
ATOM     47  H   UNL A   1      44.371  29.595  27.989  1.00  0.00     0.167 HD
ATOM     48  C   UNL A   1      38.759  29.230  28.920  1.00  0.00     0.031 A 
ATOM     49  C   UNL A   1      45.585  30.080  30.470  1.00  0.00     0.031 A 
ATOM     50  C   UNL A   1      38.801  28.775  30.277  1.00  0.00     0.049 A 
ATOM     51  C   UNL A   1      44.215  30.304  31.051  1.00  0.00     0.074 A 
ATOM     52  C   UNL A   1      38.424  27.642  30.969  1.00  0.00     0.029 A 
ATOM     53  N   UNL A   1      39.431  29.558  31.213  1.00  0.00    -0.354 N 
ATOM     54  N   UNL A   1      43.699  29.713  32.091  1.00  0.00    -0.248 NA
ATOM     55  C   UNL A   1      43.262  31.068  30.243  1.00  0.00     0.031 C 
ATOM     56  C   UNL A   1      39.240  27.619  32.145  1.00  0.00     0.029 A 
ATOM     57  C   UNL A   1      40.103  28.708  32.056  1.00  0.00     0.049 A 
ATOM     58  H   UNL A   1      39.406  30.540  31.268  1.00  0.00     0.167 HD
ATOM     59  C   UNL A   1      42.318  29.788  31.910  1.00  0.00     0.074 A 
ATOM     60  C   UNL A   1      42.117  30.670  30.777  1.00  0.00     0.031 C 
ATOM     61  C   UNL A   1      41.428  28.985  32.563  1.00  0.00     0.031 A 
BRANCH  48  62
ATOM     62  C   UNL A   1      37.589  29.976  28.428  1.00  0.00    -0.014 A 
ATOM     63  C   UNL A   1      37.544  31.358  28.664  1.00  0.00     0.009 A 
ATOM     64  C   UNL A   1      36.466  29.328  27.905  1.00  0.00     0.009 A 
ATOM     65  C   UNL A   1      36.379  32.078  28.415  1.00  0.00     0.001 A 
ATOM     66  C   UNL A   1      35.303  30.055  27.647  1.00  0.00     0.001 A 
ATOM     67  C   UNL A   1      35.256  31.425  27.914  1.00  0.00     0.000 A 
ENDBRANCH  48  62
BRANCH  49  68
ATOM     68  C   UNL A   1      46.360  31.221  29.882  1.00  0.00    -0.014 A 
ATOM     69  C   UNL A   1      46.326  31.435  28.490  1.00  0.00     0.009 A 
ATOM     70  C   UNL A   1      47.187  32.066  30.640  1.00  0.00     0.009 A 
ATOM     71  C   UNL A   1      47.017  32.499  27.897  1.00  0.00     0.001 A 
ATOM     72  C   UNL A   1      47.855  33.150  30.054  1.00  0.00     0.001 A 
ATOM     73  C   UNL A   1      47.762  33.370  28.684  1.00  0.00     0.000 A 
ENDBRANCH  49  68
BRANCH  61  74
ATOM     74  C   UNL A   1      41.977  28.157  33.679  1.00  0.00    -0.014 A 
ATOM     75  C   UNL A   1      41.635  28.453  35.006  1.00  0.00     0.009 A 
ATOM     76  C   UNL A   1      42.795  27.047  33.421  1.00  0.00     0.009 A 
ATOM     77  C   UNL A   1      42.076  27.636  36.049  1.00  0.00     0.001 A 
ATOM     78  C   UNL A   1      43.224  26.222  34.464  1.00  0.00     0.001 A 
ATOM     79  C   UNL A   1      42.860  26.515  35.777  1.00  0.00     0.000 A 
ENDBRANCH  61  74
ENDBRANCH  35  36
ENDBRANCH  28  30
ENDBRANCH  27  28
ENDBRANCH  26  27
ENDBRANCH   1  26
TORSDOF 14
ENDMDL
MODEL 2
REMARK VINA RESULT:     -10.5      4.761     11.158
REMARK SMILES Cc1ccc(-c2nn(CCC(=O)OCCOC(=O)c3ccc(-c4c5nc(c(-c6ccccc6)c6ccc([nH]6)c(-c6ccccc6)c6nc(c(-c7ccccc7)c7ccc4[nH]7)C=C6)C=C5)cc3)c(=O)c3noc(C)c23)cc1C
REMARK SMILES IDX 14 1 13 2 11 3 12 4 10 5 9 6 8 7 6 8 7 9 74 10 69 11 72 12
REMARK SMILES IDX 67 13 70 14 71 15 73 16 68 17 5 18 1 19 2 20 3 21 76 22 4 23
REMARK SMILES IDX 75 24 77 25 15 26 16 27 17 28 18 29 19 30 20 31 66 32 21 33
REMARK SMILES IDX 65 34 22 35 23 36 24 37 59 38 25 39 64 40 58 41 60 42 26 43
REMARK SMILES IDX 63 44 57 45 56 46 27 48 49 49 34 50 48 51 35 52 38 53 47 54
REMARK SMILES IDX 61 55 36 56 37 57 46 59 62 60 39 61 28 62 29 63 33 64 30 65
REMARK SMILES IDX 32 66 31 67 50 68 51 69 55 70 52 71 54 72 53 73 40 74 41 75
REMARK SMILES IDX 45 76 42 77 44 78 43 79
REMARK H PARENT 60 47 38 58
REMARK Flexibility Score: inf
ROOT
ATOM      1  C   UNL A   1      38.480  32.045  34.147  1.00  0.00     0.274 C 
ENDROOT
BRANCH   1   2
ATOM      2  O   UNL A   1      37.380  31.961  35.071  1.00  0.00    -0.462 OA
BRANCH   2   3
ATOM      3  C   UNL A   1      36.912  33.127  35.572  1.00  0.00     0.307 C 
ATOM      4  O   UNL A   1      36.651  33.335  36.751  1.00  0.00    -0.252 OA
BRANCH   3   5
ATOM      5  C   UNL A   1      36.694  34.158  34.495  1.00  0.00     0.146 C 
BRANCH   5   6
ATOM      6  C   UNL A   1      35.229  34.543  34.296  1.00  0.00     0.160 C 
BRANCH   6   7
ATOM      7  N   UNL A   1      34.836  34.530  32.888  1.00  0.00    -0.227 N 
ATOM      8  C   UNL A   1      35.402  33.684  30.768  1.00  0.00     0.104 A 
ATOM      9  N   UNL A   1      35.607  33.703  32.056  1.00  0.00    -0.169 NA
ATOM     10  C   UNL A   1      34.438  34.574  30.186  1.00  0.00     0.078 A 
ATOM     11  C   UNL A   1      33.609  35.340  31.019  1.00  0.00     0.183 A 
ATOM     12  C   UNL A   1      34.040  34.907  28.914  1.00  0.00     0.143 A 
ATOM     13  C   UNL A   1      33.719  35.277  32.456  1.00  0.00     0.296 A 
ATOM     14  N   UNL A   1      32.765  36.110  30.326  1.00  0.00    -0.074 NA
ATOM     15  O   UNL A   1      33.042  35.838  28.998  1.00  0.00    -0.360 OA
ATOM     16  C   UNL A   1      34.419  34.526  27.542  1.00  0.00     0.091 C 
ATOM     17  O   UNL A   1      32.928  35.846  33.206  1.00  0.00    -0.265 OA
BRANCH   8  18
ATOM     18  C   UNL A   1      36.090  32.682  29.943  1.00  0.00     0.003 A 
ATOM     19  C   UNL A   1      38.309  29.712  27.763  1.00  0.00     0.044 C 
ATOM     20  C   UNL A   1      37.499  30.744  28.499  1.00  0.00    -0.048 A 
ATOM     21  C   UNL A   1      38.174  31.820  29.102  1.00  0.00     0.004 A 
ATOM     22  C   UNL A   1      36.093  30.661  28.602  1.00  0.00    -0.048 A 
ATOM     23  C   UNL A   1      37.475  32.786  29.819  1.00  0.00     0.011 A 
ATOM     24  C   UNL A   1      35.395  31.648  29.318  1.00  0.00     0.014 A 
ATOM     25  C   UNL A   1      35.291  29.543  27.993  1.00  0.00     0.044 C 
ENDBRANCH   8  18
ENDBRANCH   6   7
ENDBRANCH   5   6
ENDBRANCH   3   5
ENDBRANCH   2   3
ENDBRANCH   1   2
BRANCH   1  26
ATOM     26  C   UNL A   1      38.287  31.122  32.942  1.00  0.00     0.275 C 
BRANCH  26  27
ATOM     27  O   UNL A   1      39.040  29.904  33.106  1.00  0.00    -0.458 OA
BRANCH  27  28
ATOM     28  C   UNL A   1      38.467  28.807  32.570  1.00  0.00     0.338 C 
ATOM     29  O   UNL A   1      37.532  28.155  33.011  1.00  0.00    -0.246 OA
BRANCH  28  30
ATOM     30  C   UNL A   1      39.160  28.361  31.360  1.00  0.00     0.060 A 
ATOM     31  C   UNL A   1      38.641  27.389  30.498  1.00  0.00     0.016 A 
ATOM     32  C   UNL A   1      40.468  28.820  31.214  1.00  0.00     0.016 A 
ATOM     33  C   UNL A   1      39.459  26.853  29.496  1.00  0.00     0.010 A 
ATOM     34  C   UNL A   1      41.272  28.292  30.217  1.00  0.00     0.010 A 
ATOM     35  C   UNL A   1      40.779  27.302  29.352  1.00  0.00    -0.014 A 
BRANCH  35  36
ATOM     36  C   UNL A   1      41.633  26.806  28.251  1.00  0.00     0.031 A 
ATOM     37  C   UNL A   1      42.401  27.879  27.552  1.00  0.00     0.074 A 
ATOM     38  C   UNL A   1      42.154  25.559  28.227  1.00  0.00     0.049 A 
ATOM     39  N   UNL A   1      43.488  28.381  28.064  1.00  0.00    -0.248 NA
ATOM     40  C   UNL A   1      41.871  28.634  26.420  1.00  0.00     0.031 C 
ATOM     41  C   UNL A   1      42.232  24.676  29.394  1.00  0.00     0.029 A 
ATOM     42  N   UNL A   1      42.920  24.925  27.271  1.00  0.00    -0.354 N 
ATOM     43  C   UNL A   1      43.728  29.571  27.412  1.00  0.00     0.074 A 
ATOM     44  C   UNL A   1      42.738  29.659  26.359  1.00  0.00     0.031 C 
ATOM     45  C   UNL A   1      43.158  23.724  29.153  1.00  0.00     0.029 A 
ATOM     46  C   UNL A   1      43.618  23.826  27.771  1.00  0.00     0.049 A 
ATOM     47  H   UNL A   1      42.968  25.218  26.333  1.00  0.00     0.167 HD
ATOM     48  C   UNL A   1      44.681  30.449  27.816  1.00  0.00     0.031 A 
ATOM     49  C   UNL A   1      44.850  23.414  27.365  1.00  0.00     0.031 A 
ATOM     50  C   UNL A   1      45.397  30.104  29.008  1.00  0.00     0.049 A 
ATOM     51  C   UNL A   1      45.729  24.588  27.704  1.00  0.00     0.074 A 
ATOM     52  C   UNL A   1      45.283  30.366  30.358  1.00  0.00     0.029 A 
ATOM     53  N   UNL A   1      46.446  29.223  28.912  1.00  0.00    -0.354 N 
ATOM     54  N   UNL A   1      46.247  24.869  28.866  1.00  0.00    -0.248 NA
ATOM     55  C   UNL A   1      45.820  25.664  26.714  1.00  0.00     0.031 C 
ATOM     56  C   UNL A   1      45.963  29.292  31.017  1.00  0.00     0.029 A 
ATOM     57  C   UNL A   1      46.389  28.416  30.021  1.00  0.00     0.049 A 
ATOM     58  H   UNL A   1      47.110  29.180  28.188  1.00  0.00     0.167 HD
ATOM     59  C   UNL A   1      46.467  26.246  28.848  1.00  0.00     0.074 A 
ATOM     60  C   UNL A   1      46.222  26.666  27.483  1.00  0.00     0.031 C 
ATOM     61  C   UNL A   1      46.646  26.994  29.976  1.00  0.00     0.031 A 
BRANCH  48  62
ATOM     62  C   UNL A   1      45.045  31.660  27.061  1.00  0.00    -0.014 A 
ATOM     63  C   UNL A   1      46.397  32.033  27.030  1.00  0.00     0.009 A 
ATOM     64  C   UNL A   1      44.077  32.523  26.540  1.00  0.00     0.009 A 
ATOM     65  C   UNL A   1      46.774  33.271  26.517  1.00  0.00     0.001 A 
ATOM     66  C   UNL A   1      44.461  33.760  26.018  1.00  0.00     0.001 A 
ATOM     67  C   UNL A   1      45.806  34.137  26.019  1.00  0.00     0.000 A 
ENDBRANCH  48  62
BRANCH  49  68
ATOM     68  C   UNL A   1      44.957  22.742  26.029  1.00  0.00    -0.014 A 
ATOM     69  C   UNL A   1      45.674  21.535  25.917  1.00  0.00     0.009 A 
ATOM     70  C   UNL A   1      44.433  23.287  24.844  1.00  0.00     0.009 A 
ATOM     71  C   UNL A   1      45.784  20.860  24.696  1.00  0.00     0.001 A 
ATOM     72  C   UNL A   1      44.516  22.600  23.626  1.00  0.00     0.001 A 
ATOM     73  C   UNL A   1      45.184  21.382  23.555  1.00  0.00     0.000 A 
ENDBRANCH  49  68
BRANCH  61  74
ATOM     74  C   UNL A   1      46.834  26.239  31.250  1.00  0.00    -0.014 A 
ATOM     75  C   UNL A   1      48.125  26.015  31.749  1.00  0.00     0.009 A 
ATOM     76  C   UNL A   1      45.732  25.789  31.994  1.00  0.00     0.009 A 
ATOM     77  C   UNL A   1      48.307  25.381  32.980  1.00  0.00     0.001 A 
ATOM     78  C   UNL A   1      45.916  25.169  33.232  1.00  0.00     0.001 A 
ATOM     79  C   UNL A   1      47.203  24.970  33.727  1.00  0.00     0.000 A 
ENDBRANCH  61  74
ENDBRANCH  35  36
ENDBRANCH  28  30
ENDBRANCH  27  28
ENDBRANCH  26  27
ENDBRANCH   1  26
TORSDOF 14
ENDMDL
MODEL 3
REMARK VINA RESULT:     -10.2      4.547     10.269
REMARK SMILES Cc1ccc(-c2nn(CCC(=O)OCCOC(=O)c3ccc(-c4c5nc(c(-c6ccccc6)c6ccc([nH]6)c(-c6ccccc6)c6nc(c(-c7ccccc7)c7ccc4[nH]7)C=C6)C=C5)cc3)c(=O)c3noc(C)c23)cc1C
REMARK SMILES IDX 14 1 13 2 11 3 12 4 10 5 9 6 8 7 6 8 7 9 74 10 69 11 72 12
REMARK SMILES IDX 67 13 70 14 71 15 73 16 68 17 5 18 1 19 2 20 3 21 76 22 4 23
REMARK SMILES IDX 75 24 77 25 15 26 16 27 17 28 18 29 19 30 20 31 66 32 21 33
REMARK SMILES IDX 65 34 22 35 23 36 24 37 59 38 25 39 64 40 58 41 60 42 26 43
REMARK SMILES IDX 63 44 57 45 56 46 27 48 49 49 34 50 48 51 35 52 38 53 47 54
REMARK SMILES IDX 61 55 36 56 37 57 46 59 62 60 39 61 28 62 29 63 33 64 30 65
REMARK SMILES IDX 32 66 31 67 50 68 51 69 55 70 52 71 54 72 53 73 40 74 41 75
REMARK SMILES IDX 45 76 42 77 44 78 43 79
REMARK H PARENT 60 47 38 58
REMARK Flexibility Score: inf
ROOT
ATOM      1  C   UNL A   1      41.767  24.233  26.716  1.00  0.00     0.274 C 
ENDROOT
BRANCH   1   2
ATOM      2  O   UNL A   1      40.509  23.566  26.505  1.00  0.00    -0.462 OA
BRANCH   2   3
ATOM      3  C   UNL A   1      39.414  24.137  27.056  1.00  0.00     0.307 C 
ATOM      4  O   UNL A   1      39.355  24.610  28.184  1.00  0.00    -0.252 OA
BRANCH   3   5
ATOM      5  C   UNL A   1      38.225  24.086  26.131  1.00  0.00     0.146 C 
BRANCH   5   6
ATOM      6  C   UNL A   1      37.779  22.669  25.775  1.00  0.00     0.160 C 
BRANCH   6   7
ATOM      7  N   UNL A   1      36.351  22.593  25.476  1.00  0.00    -0.227 N 
ATOM      8  C   UNL A   1      34.382  23.866  25.286  1.00  0.00     0.104 A 
ATOM      9  N   UNL A   1      35.675  23.823  25.453  1.00  0.00    -0.169 NA
ATOM     10  C   UNL A   1      33.633  22.643  25.206  1.00  0.00     0.078 A 
ATOM     11  C   UNL A   1      34.310  21.417  25.145  1.00  0.00     0.183 A 
ATOM     12  C   UNL A   1      32.304  22.299  25.145  1.00  0.00     0.143 A 
ATOM     13  C   UNL A   1      35.751  21.349  25.187  1.00  0.00     0.296 A 
ATOM     14  N   UNL A   1      33.473  20.378  25.068  1.00  0.00    -0.074 NA
ATOM     15  O   UNL A   1      32.208  20.937  25.072  1.00  0.00    -0.360 OA
ATOM     16  C   UNL A   1      31.015  23.013  25.146  1.00  0.00     0.091 C 
ATOM     17  O   UNL A   1      36.369  20.300  25.016  1.00  0.00    -0.265 OA
BRANCH   8  18
ATOM     18  C   UNL A   1      33.723  25.162  25.082  1.00  0.00     0.003 A 
ATOM     19  C   UNL A   1      31.631  28.828  24.253  1.00  0.00     0.044 C 
ATOM     20  C   UNL A   1      32.372  27.561  24.583  1.00  0.00    -0.048 A 
ATOM     21  C   UNL A   1      32.986  26.853  23.535  1.00  0.00     0.004 A 
ATOM     22  C   UNL A   1      32.466  27.068  25.903  1.00  0.00    -0.048 A 
ATOM     23  C   UNL A   1      33.660  25.660  23.782  1.00  0.00     0.011 A 
ATOM     24  C   UNL A   1      33.159  25.869  26.144  1.00  0.00     0.014 A 
ATOM     25  C   UNL A   1      31.837  27.757  27.083  1.00  0.00     0.044 C 
ENDBRANCH   8  18
ENDBRANCH   6   7
ENDBRANCH   5   6
ENDBRANCH   3   5
ENDBRANCH   2   3
ENDBRANCH   1   2
BRANCH   1  26
ATOM     26  C   UNL A   1      42.067  25.250  25.612  1.00  0.00     0.275 C 
BRANCH  26  27
ATOM     27  O   UNL A   1      42.704  26.422  26.158  1.00  0.00    -0.458 OA
BRANCH  27  28
ATOM     28  C   UNL A   1      42.210  27.594  25.710  1.00  0.00     0.338 C 
ATOM     29  O   UNL A   1      42.402  28.127  24.626  1.00  0.00    -0.246 OA
BRANCH  28  30
ATOM     30  C   UNL A   1      41.429  28.289  26.735  1.00  0.00     0.060 A 
ATOM     31  C   UNL A   1      41.993  29.197  27.637  1.00  0.00     0.016 A 
ATOM     32  C   UNL A   1      40.117  27.847  26.893  1.00  0.00     0.016 A 
ATOM     33  C   UNL A   1      41.234  29.643  28.727  1.00  0.00     0.010 A 
ATOM     34  C   UNL A   1      39.368  28.294  27.969  1.00  0.00     0.010 A 
ATOM     35  C   UNL A   1      39.918  29.192  28.897  1.00  0.00    -0.014 A 
BRANCH  35  36
ATOM     36  C   UNL A   1      39.075  29.712  29.996  1.00  0.00     0.031 A 
ATOM     37  C   UNL A   1      39.366  29.092  31.323  1.00  0.00     0.074 A 
ATOM     38  C   UNL A   1      38.552  30.957  29.998  1.00  0.00     0.049 A 
ATOM     39  N   UNL A   1      40.390  29.463  32.038  1.00  0.00    -0.248 NA
ATOM     40  C   UNL A   1      38.725  27.867  31.792  1.00  0.00     0.031 C 
ATOM     41  C   UNL A   1      39.005  32.043  29.122  1.00  0.00     0.029 A 
ATOM     42  N   UNL A   1      37.720  31.579  30.905  1.00  0.00    -0.354 N 
ATOM     43  C   UNL A   1      40.607  28.475  32.973  1.00  0.00     0.074 A 
ATOM     44  C   UNL A   1      39.515  27.535  32.826  1.00  0.00     0.031 C 
ATOM     45  C   UNL A   1      38.606  33.219  29.651  1.00  0.00     0.029 A 
ATOM     46  C   UNL A   1      37.740  32.971  30.801  1.00  0.00     0.049 A 
ATOM     47  H   UNL A   1      37.167  31.092  31.557  1.00  0.00     0.167 HD
ATOM     48  C   UNL A   1      41.707  28.448  33.768  1.00  0.00     0.031 A 
ATOM     49  C   UNL A   1      37.606  33.847  31.834  1.00  0.00     0.031 A 
ATOM     50  C   UNL A   1      42.678  29.476  33.544  1.00  0.00     0.049 A 
ATOM     51  C   UNL A   1      38.791  33.530  32.705  1.00  0.00     0.074 A 
ATOM     52  C   UNL A   1      43.828  29.625  32.797  1.00  0.00     0.029 A 
ATOM     53  N   UNL A   1      42.470  30.710  34.110  1.00  0.00    -0.354 N 
ATOM     54  N   UNL A   1      40.013  33.956  32.551  1.00  0.00    -0.248 NA
ATOM     55  C   UNL A   1      38.636  32.444  33.676  1.00  0.00     0.031 C 
ATOM     56  C   UNL A   1      43.980  31.035  32.599  1.00  0.00     0.029 A 
ATOM     57  C   UNL A   1      42.874  31.644  33.188  1.00  0.00     0.049 A 
ATOM     58  H   UNL A   1      42.103  30.890  35.005  1.00  0.00     0.167 HD
ATOM     59  C   UNL A   1      40.816  33.006  33.183  1.00  0.00     0.074 A 
ATOM     60  C   UNL A   1      39.906  32.127  33.889  1.00  0.00     0.031 C 
ATOM     61  C   UNL A   1      42.153  32.872  32.942  1.00  0.00     0.031 A 
BRANCH  48  62
ATOM     62  C   UNL A   1      41.897  27.481  34.862  1.00  0.00    -0.014 A 
ATOM     63  C   UNL A   1      42.382  26.206  34.536  1.00  0.00     0.009 A 
ATOM     64  C   UNL A   1      41.446  27.737  36.161  1.00  0.00     0.009 A 
ATOM     65  C   UNL A   1      42.383  25.187  35.485  1.00  0.00     0.001 A 
ATOM     66  C   UNL A   1      41.457  26.715  37.113  1.00  0.00     0.001 A 
ATOM     67  C   UNL A   1      41.913  25.440  36.770  1.00  0.00     0.000 A 
ENDBRANCH  48  62
BRANCH  49  68
ATOM     68  C   UNL A   1      36.242  34.017  32.433  1.00  0.00    -0.014 A 
ATOM     69  C   UNL A   1      35.801  35.304  32.796  1.00  0.00     0.009 A 
ATOM     70  C   UNL A   1      35.385  32.941  32.723  1.00  0.00     0.009 A 
ATOM     71  C   UNL A   1      34.529  35.515  33.340  1.00  0.00     0.001 A 
ATOM     72  C   UNL A   1      34.100  33.152  33.240  1.00  0.00     0.001 A 
ATOM     73  C   UNL A   1      33.670  34.440  33.540  1.00  0.00     0.000 A 
ENDBRANCH  49  68
BRANCH  61  74
ATOM     74  C   UNL A   1      42.793  33.952  32.133  1.00  0.00    -0.014 A 
ATOM     75  C   UNL A   1      43.266  35.113  32.761  1.00  0.00     0.009 A 
ATOM     76  C   UNL A   1      42.981  33.805  30.750  1.00  0.00     0.009 A 
ATOM     77  C   UNL A   1      43.938  36.091  32.026  1.00  0.00     0.001 A 
ATOM     78  C   UNL A   1      43.667  34.777  30.019  1.00  0.00     0.001 A 
ATOM     79  C   UNL A   1      44.150  35.917  30.658  1.00  0.00     0.000 A 
ENDBRANCH  61  74
ENDBRANCH  35  36
ENDBRANCH  28  30
ENDBRANCH  27  28
ENDBRANCH  26  27
ENDBRANCH   1  26
TORSDOF 14
ENDMDL
