MODEL 1
REMARK VINA RESULT:     -10.6      0.000      0.000
REMARK SMILES Cc1csc([C@H](C)Nc2cc(C)c(N)c(C(=O)OCCOC(=O)c3ccc(-c4c5nc(c(-c6ccccc6)c6ccc([nH]6)c(-c6ccccc6)c6nc(c(-c7ccccc7)c7ccc4[nH]7)C=C6)C=C5)cc3)c2)n1
REMARK SMILES IDX 19 1 18 2 16 3 17 4 15 5 9 6 10 7 72 8 11 9 12 10 13 11 8 12
REMARK SMILES IDX 6 14 7 15 5 16 1 17 2 18 3 19 73 20 4 21 14 22 20 25 21 26
REMARK SMILES IDX 22 27 23 28 24 29 25 30 71 31 26 32 70 33 27 34 28 35 29 36
REMARK SMILES IDX 64 37 30 38 69 39 63 40 65 41 31 42 68 43 62 44 61 45 32 47
REMARK SMILES IDX 54 48 39 49 53 50 40 51 43 52 52 53 66 54 41 55 42 56 51 58
REMARK SMILES IDX 67 59 44 60 33 61 34 62 38 63 35 64 37 65 36 66 55 67 56 68
REMARK SMILES IDX 60 69 57 70 59 71 58 72 45 73 46 74 50 75 47 76 49 77 48 78
REMARK H PARENT 8 13 14 23 14 24 65 46 43 57
REMARK Flexibility Score: inf
ROOT
ATOM      1  C   UNL A   1      32.179  30.352  26.478  1.00  0.00     0.275 C 
ENDROOT
BRANCH   1   2
ATOM      2  O   UNL A   1      32.864  29.231  25.879  1.00  0.00    -0.458 OA
BRANCH   2   3
ATOM      3  C   UNL A   1      32.658  29.030  24.548  1.00  0.00     0.340 C 
ATOM      4  O   UNL A   1      33.425  29.328  23.648  1.00  0.00    -0.246 OA
BRANCH   3   5
ATOM      5  C   UNL A   1      31.382  28.288  24.338  1.00  0.00     0.085 A 
ATOM      6  C   UNL A   1      30.158  26.175  24.444  1.00  0.00     0.036 A 
ATOM      7  C   UNL A   1      29.112  26.800  23.764  1.00  0.00     0.031 A 
ATOM      8  C   UNL A   1      31.313  26.928  24.676  1.00  0.00     0.043 A 
ATOM      9  C   UNL A   1      29.141  28.170  23.443  1.00  0.00    -0.025 A 
ATOM     10  C   UNL A   1      27.980  28.757  22.684  1.00  0.00     0.047 C 
ATOM     11  C   UNL A   1      30.250  28.952  23.817  1.00  0.00     0.049 A 
BRANCH   6  12
ATOM     12  N   UNL A   1      30.154  24.846  24.812  1.00  0.00    -0.376 N 
ATOM     13  H   UNL A   1      29.444  24.278  24.436  1.00  0.00     0.161 HD
BRANCH  12  14
ATOM     14  C   UNL A   1      31.117  24.202  25.717  1.00  0.00     0.135 C 
ATOM     15  C   UNL A   1      30.264  23.436  26.743  1.00  0.00     0.039 C 
BRANCH  14  16
ATOM     16  C   UNL A   1      32.179  23.317  25.054  1.00  0.00     0.115 A 
ATOM     17  C   UNL A   1      35.376  23.038  23.393  1.00  0.00     0.067 C 
ATOM     18  C   UNL A   1      34.078  22.722  24.042  1.00  0.00     0.049 A 
ATOM     19  C   UNL A   1      33.573  21.466  24.305  1.00  0.00     0.090 A 
ATOM     20  N   UNL A   1      33.269  23.767  24.459  1.00  0.00    -0.244 NA
ATOM     21  S   UNL A   1      32.088  21.591  25.139  1.00  0.00    -0.125 S 
ENDBRANCH  14  16
ENDBRANCH  12  14
ENDBRANCH   6  12
BRANCH  11  22
ATOM     22  N   UNL A   1      30.265  30.320  23.534  1.00  0.00    -0.398 N 
ATOM     23  H   UNL A   1      29.497  30.883  23.784  1.00  0.00     0.156 HD
ATOM     24  H   UNL A   1      31.044  30.720  23.084  1.00  0.00     0.156 HD
ENDBRANCH  11  22
ENDBRANCH   3   5
ENDBRANCH   2   3
ENDBRANCH   1   2
BRANCH   1  25
ATOM     25  C   UNL A   1      33.161  31.201  27.286  1.00  0.00     0.275 C 
BRANCH  25  26
ATOM     26  O   UNL A   1      34.091  30.328  27.945  1.00  0.00    -0.458 OA
BRANCH  26  27
ATOM     27  C   UNL A   1      34.944  30.911  28.818  1.00  0.00     0.338 C 
ATOM     28  O   UNL A   1      34.709  31.858  29.554  1.00  0.00    -0.246 OA
BRANCH  27  29
ATOM     29  C   UNL A   1      36.252  30.222  28.756  1.00  0.00     0.060 A 
ATOM     30  C   UNL A   1      36.782  29.619  29.895  1.00  0.00     0.016 A 
ATOM     31  C   UNL A   1      36.999  30.234  27.578  1.00  0.00     0.016 A 
ATOM     32  C   UNL A   1      38.071  29.084  29.883  1.00  0.00     0.010 A 
ATOM     33  C   UNL A   1      38.261  29.623  27.544  1.00  0.00     0.010 A 
ATOM     34  C   UNL A   1      38.829  29.064  28.706  1.00  0.00    -0.014 A 
BRANCH  34  35
ATOM     35  C   UNL A   1      40.231  28.543  28.705  1.00  0.00     0.031 A 
ATOM     36  C   UNL A   1      41.370  29.450  29.102  1.00  0.00     0.074 A 
ATOM     37  C   UNL A   1      40.511  27.261  28.390  1.00  0.00     0.049 A 
ATOM     38  N   UNL A   1      42.660  29.277  28.956  1.00  0.00    -0.248 NA
ATOM     39  C   UNL A   1      41.006  30.728  29.735  1.00  0.00     0.031 C 
ATOM     40  C   UNL A   1      39.532  26.225  28.060  1.00  0.00     0.029 A 
ATOM     41  N   UNL A   1      41.720  26.605  28.315  1.00  0.00    -0.354 N 
ATOM     42  C   UNL A   1      43.254  30.452  29.403  1.00  0.00     0.074 A 
ATOM     43  C   UNL A   1      42.185  31.326  29.835  1.00  0.00     0.031 C 
ATOM     44  C   UNL A   1      40.169  25.057  27.880  1.00  0.00     0.029 A 
ATOM     45  C   UNL A   1      41.608  25.277  27.977  1.00  0.00     0.049 A 
ATOM     46  H   UNL A   1      42.583  27.045  28.488  1.00  0.00     0.167 HD
ATOM     47  C   UNL A   1      44.568  30.780  29.443  1.00  0.00     0.031 A 
ATOM     48  C   UNL A   1      42.551  24.347  27.726  1.00  0.00     0.031 A 
ATOM     49  C   UNL A   1      45.641  29.894  29.078  1.00  0.00     0.049 A 
ATOM     50  C   UNL A   1      44.002  24.738  27.747  1.00  0.00     0.074 A 
ATOM     51  C   UNL A   1      47.003  30.144  29.066  1.00  0.00     0.029 A 
ATOM     52  N   UNL A   1      45.476  28.574  28.692  1.00  0.00    -0.354 N 
ATOM     53  N   UNL A   1      44.544  25.891  28.053  1.00  0.00    -0.248 NA
ATOM     54  C   UNL A   1      44.971  23.702  27.354  1.00  0.00     0.031 C 
ATOM     55  C   UNL A   1      47.660  28.981  28.650  1.00  0.00     0.029 A 
ATOM     56  C   UNL A   1      46.710  27.997  28.443  1.00  0.00     0.049 A 
ATOM     57  H   UNL A   1      44.609  28.114  28.608  1.00  0.00     0.167 HD
ATOM     58  C   UNL A   1      45.913  25.721  27.890  1.00  0.00     0.074 A 
ATOM     59  C   UNL A   1      46.122  24.346  27.488  1.00  0.00     0.031 C 
ATOM     60  C   UNL A   1      46.905  26.628  28.046  1.00  0.00     0.031 A 
BRANCH  47  61
ATOM     61  C   UNL A   1      44.920  32.180  29.857  1.00  0.00    -0.014 A 
ATOM     62  C   UNL A   1      45.216  32.504  31.189  1.00  0.00     0.009 A 
ATOM     63  C   UNL A   1      44.987  33.188  28.881  1.00  0.00     0.009 A 
ATOM     64  C   UNL A   1      45.542  33.817  31.540  1.00  0.00     0.001 A 
ATOM     65  C   UNL A   1      45.339  34.493  29.230  1.00  0.00     0.001 A 
ATOM     66  C   UNL A   1      45.607  34.807  30.561  1.00  0.00     0.000 A 
ENDBRANCH  47  61
BRANCH  48  67
ATOM     67  C   UNL A   1      42.154  22.960  27.365  1.00  0.00    -0.014 A 
ATOM     68  C   UNL A   1      41.846  22.022  28.364  1.00  0.00     0.009 A 
ATOM     69  C   UNL A   1      42.095  22.561  26.020  1.00  0.00     0.009 A 
ATOM     70  C   UNL A   1      41.501  20.712  28.022  1.00  0.00     0.001 A 
ATOM     71  C   UNL A   1      41.719  21.260  25.681  1.00  0.00     0.001 A 
ATOM     72  C   UNL A   1      41.429  20.335  26.681  1.00  0.00     0.000 A 
ENDBRANCH  48  67
BRANCH  60  73
ATOM     73  C   UNL A   1      48.310  26.153  27.809  1.00  0.00    -0.014 A 
ATOM     74  C   UNL A   1      48.953  26.376  26.583  1.00  0.00     0.009 A 
ATOM     75  C   UNL A   1      49.005  25.494  28.835  1.00  0.00     0.009 A 
ATOM     76  C   UNL A   1      50.258  25.921  26.377  1.00  0.00     0.001 A 
ATOM     77  C   UNL A   1      50.316  25.060  28.634  1.00  0.00     0.001 A 
ATOM     78  C   UNL A   1      50.938  25.265  27.403  1.00  0.00     0.000 A 
ENDBRANCH  60  73
ENDBRANCH  34  35
ENDBRANCH  27  29
ENDBRANCH  26  27
ENDBRANCH  25  26
ENDBRANCH   1  25
TORSDOF 15
ENDMDL
MODEL 2
REMARK VINA RESULT:     -10.6      4.732      9.233
REMARK SMILES Cc1csc([C@H](C)Nc2cc(C)c(N)c(C(=O)OCCOC(=O)c3ccc(-c4c5nc(c(-c6ccccc6)c6ccc([nH]6)c(-c6ccccc6)c6nc(c(-c7ccccc7)c7ccc4[nH]7)C=C6)C=C5)cc3)c2)n1
REMARK SMILES IDX 19 1 18 2 16 3 17 4 15 5 9 6 10 7 72 8 11 9 12 10 13 11 8 12
REMARK SMILES IDX 6 14 7 15 5 16 1 17 2 18 3 19 73 20 4 21 14 22 20 25 21 26
REMARK SMILES IDX 22 27 23 28 24 29 25 30 71 31 26 32 70 33 27 34 28 35 29 36
REMARK SMILES IDX 64 37 30 38 69 39 63 40 65 41 31 42 68 43 62 44 61 45 32 47
REMARK SMILES IDX 54 48 39 49 53 50 40 51 43 52 52 53 66 54 41 55 42 56 51 58
REMARK SMILES IDX 67 59 44 60 33 61 34 62 38 63 35 64 37 65 36 66 55 67 56 68
REMARK SMILES IDX 60 69 57 70 59 71 58 72 45 73 46 74 50 75 47 76 49 77 48 78
REMARK H PARENT 8 13 14 23 14 24 65 46 43 57
REMARK Flexibility Score: inf
ROOT
ATOM      1  C   UNL A   1      42.523  18.910  26.771  1.00  0.00     0.275 C 
ENDROOT
BRANCH   1   2
ATOM      2  O   UNL A   1      41.706  20.025  26.356  1.00  0.00    -0.458 OA
BRANCH   2   3
ATOM      3  C   UNL A   1      41.895  21.200  27.018  1.00  0.00     0.340 C 
ATOM      4  O   UNL A   1      42.924  21.562  27.564  1.00  0.00    -0.246 OA
BRANCH   3   5
ATOM      5  C   UNL A   1      40.676  22.050  26.901  1.00  0.00     0.085 A 
ATOM      6  C   UNL A   1      38.549  22.501  25.783  1.00  0.00     0.036 A 
ATOM      7  C   UNL A   1      38.494  23.711  26.474  1.00  0.00     0.031 A 
ATOM      8  C   UNL A   1      39.682  21.703  25.972  1.00  0.00     0.043 A 
ATOM      9  C   UNL A   1      39.460  24.068  27.435  1.00  0.00    -0.025 A 
ATOM     10  C   UNL A   1      39.338  25.407  28.115  1.00  0.00     0.047 C 
ATOM     11  C   UNL A   1      40.517  23.186  27.724  1.00  0.00     0.049 A 
BRANCH   6  12
ATOM     12  N   UNL A   1      37.605  22.093  24.863  1.00  0.00    -0.376 N 
ATOM     13  H   UNL A   1      37.827  21.311  24.309  1.00  0.00     0.161 HD
BRANCH  12  14
ATOM     14  C   UNL A   1      36.296  22.723  24.639  1.00  0.00     0.135 C 
ATOM     15  C   UNL A   1      36.237  23.015  23.129  1.00  0.00     0.039 C 
BRANCH  14  16
ATOM     16  C   UNL A   1      35.075  21.942  25.137  1.00  0.00     0.115 A 
ATOM     17  C   UNL A   1      32.579  19.397  24.548  1.00  0.00     0.067 C 
ATOM     18  C   UNL A   1      33.411  20.454  25.177  1.00  0.00     0.049 A 
ATOM     19  C   UNL A   1      33.324  20.907  26.476  1.00  0.00     0.090 A 
ATOM     20  N   UNL A   1      34.401  21.061  24.420  1.00  0.00    -0.244 NA
ATOM     21  S   UNL A   1      34.537  22.071  26.777  1.00  0.00    -0.125 S 
ENDBRANCH  14  16
ENDBRANCH  12  14
ENDBRANCH   6  12
BRANCH  11  22
ATOM     22  N   UNL A   1      41.455  23.520  28.704  1.00  0.00    -0.398 N 
ATOM     23  H   UNL A   1      41.926  24.383  28.660  1.00  0.00     0.156 HD
ATOM     24  H   UNL A   1      41.644  22.893  29.439  1.00  0.00     0.156 HD
ENDBRANCH  11  22
ENDBRANCH   3   5
ENDBRANCH   2   3
ENDBRANCH   1   2
BRANCH   1  25
ATOM     25  C   UNL A   1      43.238  18.300  25.564  1.00  0.00     0.275 C 
BRANCH  25  26
ATOM     26  O   UNL A   1      44.532  18.910  25.438  1.00  0.00    -0.458 OA
BRANCH  26  27
ATOM     27  C   UNL A   1      44.772  19.572  24.283  1.00  0.00     0.338 C 
ATOM     28  O   UNL A   1      44.760  19.108  23.153  1.00  0.00    -0.246 OA
BRANCH  27  29
ATOM     29  C   UNL A   1      45.070  20.990  24.587  1.00  0.00     0.060 A 
ATOM     30  C   UNL A   1      45.730  21.330  25.766  1.00  0.00     0.016 A 
ATOM     31  C   UNL A   1      44.628  22.001  23.734  1.00  0.00     0.016 A 
ATOM     32  C   UNL A   1      45.898  22.668  26.127  1.00  0.00     0.010 A 
ATOM     33  C   UNL A   1      44.870  23.344  24.057  1.00  0.00     0.010 A 
ATOM     34  C   UNL A   1      45.483  23.699  25.275  1.00  0.00    -0.014 A 
BRANCH  34  35
ATOM     35  C   UNL A   1      45.610  25.131  25.686  1.00  0.00     0.031 A 
ATOM     36  C   UNL A   1      46.932  25.843  25.530  1.00  0.00     0.074 A 
ATOM     37  C   UNL A   1      44.559  25.828  26.165  1.00  0.00     0.049 A 
ATOM     38  N   UNL A   1      47.320  26.993  26.023  1.00  0.00    -0.248 NA
ATOM     39  C   UNL A   1      47.958  25.162  24.723  1.00  0.00     0.031 C 
ATOM     40  C   UNL A   1      43.192  25.327  26.308  1.00  0.00     0.029 A 
ATOM     41  N   UNL A   1      44.478  27.130  26.607  1.00  0.00    -0.354 N 
ATOM     42  C   UNL A   1      48.653  27.134  25.656  1.00  0.00     0.074 A 
ATOM     43  C   UNL A   1      49.005  25.958  24.889  1.00  0.00     0.031 C 
ATOM     44  C   UNL A   1      42.400  26.321  26.742  1.00  0.00     0.029 A 
ATOM     45  C   UNL A   1      43.216  27.500  27.009  1.00  0.00     0.049 A 
ATOM     46  H   UNL A   1      45.251  27.738  26.632  1.00  0.00     0.167 HD
ATOM     47  C   UNL A   1      49.511  28.145  25.936  1.00  0.00     0.031 A 
ATOM     48  C   UNL A   1      42.768  28.639  27.572  1.00  0.00     0.031 A 
ATOM     49  C   UNL A   1      49.153  29.347  26.640  1.00  0.00     0.049 A 
ATOM     50  C   UNL A   1      43.740  29.736  27.902  1.00  0.00     0.074 A 
ATOM     51  C   UNL A   1      49.959  30.418  26.988  1.00  0.00     0.029 A 
ATOM     52  N   UNL A   1      47.874  29.654  27.073  1.00  0.00    -0.354 N 
ATOM     53  N   UNL A   1      45.026  29.803  27.658  1.00  0.00    -0.248 NA
ATOM     54  C   UNL A   1      43.202  30.905  28.618  1.00  0.00     0.031 C 
ATOM     55  C   UNL A   1      49.171  31.363  27.655  1.00  0.00     0.029 A 
ATOM     56  C   UNL A   1      47.868  30.898  27.683  1.00  0.00     0.049 A 
ATOM     57  H   UNL A   1      47.085  29.075  26.963  1.00  0.00     0.167 HD
ATOM     58  C   UNL A   1      45.449  31.016  28.188  1.00  0.00     0.074 A 
ATOM     59  C   UNL A   1      44.279  31.667  28.739  1.00  0.00     0.031 C 
ATOM     60  C   UNL A   1      46.699  31.535  28.226  1.00  0.00     0.031 A 
BRANCH  47  61
ATOM     61  C   UNL A   1      50.944  27.972  25.518  1.00  0.00    -0.014 A 
ATOM     62  C   UNL A   1      51.890  27.365  26.356  1.00  0.00     0.009 A 
ATOM     63  C   UNL A   1      51.342  28.400  24.240  1.00  0.00     0.009 A 
ATOM     64  C   UNL A   1      53.214  27.218  25.935  1.00  0.00     0.001 A 
ATOM     65  C   UNL A   1      52.659  28.226  23.812  1.00  0.00     0.001 A 
ATOM     66  C   UNL A   1      53.596  27.644  24.663  1.00  0.00     0.000 A 
ENDBRANCH  47  61
BRANCH  48  67
ATOM     67  C   UNL A   1      41.330  28.781  27.926  1.00  0.00    -0.014 A 
ATOM     68  C   UNL A   1      40.384  29.127  26.948  1.00  0.00     0.009 A 
ATOM     69  C   UNL A   1      40.897  28.588  29.248  1.00  0.00     0.009 A 
ATOM     70  C   UNL A   1      39.039  29.287  27.289  1.00  0.00     0.001 A 
ATOM     71  C   UNL A   1      39.548  28.717  29.580  1.00  0.00     0.001 A 
ATOM     72  C   UNL A   1      38.620  29.073  28.603  1.00  0.00     0.000 A 
ENDBRANCH  48  67
BRANCH  60  73
ATOM     73  C   UNL A   1      46.858  32.887  28.860  1.00  0.00    -0.014 A 
ATOM     74  C   UNL A   1      47.154  33.016  30.226  1.00  0.00     0.009 A 
ATOM     75  C   UNL A   1      46.734  34.044  28.077  1.00  0.00     0.009 A 
ATOM     76  C   UNL A   1      47.292  34.281  30.801  1.00  0.00     0.001 A 
ATOM     77  C   UNL A   1      46.894  35.306  28.649  1.00  0.00     0.001 A 
ATOM     78  C   UNL A   1      47.163  35.424  30.012  1.00  0.00     0.000 A 
ENDBRANCH  60  73
ENDBRANCH  34  35
ENDBRANCH  27  29
ENDBRANCH  26  27
ENDBRANCH  25  26
ENDBRANCH   1  25
TORSDOF 15
ENDMDL
MODEL 3
REMARK VINA RESULT:     -10.5      3.772      7.319
REMARK SMILES Cc1csc([C@H](C)Nc2cc(C)c(N)c(C(=O)OCCOC(=O)c3ccc(-c4c5nc(c(-c6ccccc6)c6ccc([nH]6)c(-c6ccccc6)c6nc(c(-c7ccccc7)c7ccc4[nH]7)C=C6)C=C5)cc3)c2)n1
REMARK SMILES IDX 19 1 18 2 16 3 17 4 15 5 9 6 10 7 72 8 11 9 12 10 13 11 8 12
REMARK SMILES IDX 6 14 7 15 5 16 1 17 2 18 3 19 73 20 4 21 14 22 20 25 21 26
REMARK SMILES IDX 22 27 23 28 24 29 25 30 71 31 26 32 70 33 27 34 28 35 29 36
REMARK SMILES IDX 64 37 30 38 69 39 63 40 65 41 31 42 68 43 62 44 61 45 32 47
REMARK SMILES IDX 54 48 39 49 53 50 40 51 43 52 52 53 66 54 41 55 42 56 51 58
REMARK SMILES IDX 67 59 44 60 33 61 34 62 38 63 35 64 37 65 36 66 55 67 56 68
REMARK SMILES IDX 60 69 57 70 59 71 58 72 45 73 46 74 50 75 47 76 49 77 48 78
REMARK H PARENT 8 13 14 23 14 24 65 46 43 57
REMARK Flexibility Score: inf
ROOT
ATOM      1  C   UNL A   1      31.733  27.940  25.525  1.00  0.00     0.275 C 
ENDROOT
BRANCH   1   2
ATOM      2  O   UNL A   1      31.979  27.014  24.446  1.00  0.00    -0.458 OA
BRANCH   2   3
ATOM      3  C   UNL A   1      30.964  26.163  24.128  1.00  0.00     0.340 C 
ATOM      4  O   UNL A   1      30.055  26.388  23.348  1.00  0.00    -0.246 OA
BRANCH   3   5
ATOM      5  C   UNL A   1      31.173  24.850  24.803  1.00  0.00     0.085 A 
ATOM      6  C   UNL A   1      32.404  22.742  24.925  1.00  0.00     0.036 A 
ATOM      7  C   UNL A   1      31.470  22.303  25.864  1.00  0.00     0.031 A 
ATOM      8  C   UNL A   1      32.206  24.007  24.364  1.00  0.00     0.043 A 
ATOM      9  C   UNL A   1      30.444  23.139  26.346  1.00  0.00    -0.025 A 
ATOM     10  C   UNL A   1      29.463  22.575  27.339  1.00  0.00     0.047 C 
ATOM     11  C   UNL A   1      30.348  24.464  25.881  1.00  0.00     0.049 A 
BRANCH   6  12
ATOM     12  N   UNL A   1      33.447  21.970  24.455  1.00  0.00    -0.376 N 
ATOM     13  H   UNL A   1      33.613  21.983  23.485  1.00  0.00     0.161 HD
BRANCH  12  14
ATOM     14  C   UNL A   1      34.333  21.132  25.274  1.00  0.00     0.135 C 
ATOM     15  C   UNL A   1      34.181  19.707  24.713  1.00  0.00     0.039 C 
BRANCH  14  16
ATOM     16  C   UNL A   1      35.796  21.579  25.362  1.00  0.00     0.115 A 
ATOM     17  C   UNL A   1      38.209  24.106  26.283  1.00  0.00     0.067 C 
ATOM     18  C   UNL A   1      37.578  22.846  25.816  1.00  0.00     0.049 A 
ATOM     19  C   UNL A   1      38.228  21.689  25.442  1.00  0.00     0.090 A 
ATOM     20  N   UNL A   1      36.196  22.777  25.752  1.00  0.00    -0.244 NA
ATOM     21  S   UNL A   1      37.092  20.473  25.057  1.00  0.00    -0.125 S 
ENDBRANCH  14  16
ENDBRANCH  12  14
ENDBRANCH   6  12
BRANCH  11  22
ATOM     22  N   UNL A   1      29.355  25.308  26.386  1.00  0.00    -0.398 N 
ATOM     23  H   UNL A   1      29.599  26.178  26.775  1.00  0.00     0.156 HD
ATOM     24  H   UNL A   1      28.410  25.031  26.352  1.00  0.00     0.156 HD
ENDBRANCH  11  22
ENDBRANCH   3   5
ENDBRANCH   2   3
ENDBRANCH   1   2
BRANCH   1  25
ATOM     25  C   UNL A   1      31.712  29.375  24.995  1.00  0.00     0.275 C 
BRANCH  25  26
ATOM     26  O   UNL A   1      32.885  30.057  25.465  1.00  0.00    -0.458 OA
BRANCH  26  27
ATOM     27  C   UNL A   1      32.719  30.867  26.535  1.00  0.00     0.338 C 
ATOM     28  O   UNL A   1      31.781  31.620  26.749  1.00  0.00    -0.246 OA
BRANCH  27  29
ATOM     29  C   UNL A   1      33.876  30.714  27.446  1.00  0.00     0.060 A 
ATOM     30  C   UNL A   1      34.615  31.830  27.833  1.00  0.00     0.016 A 
ATOM     31  C   UNL A   1      34.281  29.446  27.864  1.00  0.00     0.016 A 
ATOM     32  C   UNL A   1      35.784  31.685  28.581  1.00  0.00     0.010 A 
ATOM     33  C   UNL A   1      35.409  29.309  28.685  1.00  0.00     0.010 A 
ATOM     34  C   UNL A   1      36.196  30.425  29.032  1.00  0.00    -0.014 A 
BRANCH  34  35
ATOM     35  C   UNL A   1      37.478  30.261  29.785  1.00  0.00     0.031 A 
ATOM     36  C   UNL A   1      38.665  29.612  29.115  1.00  0.00     0.074 A 
ATOM     37  C   UNL A   1      37.622  30.712  31.049  1.00  0.00     0.049 A 
ATOM     38  N   UNL A   1      39.779  29.171  29.644  1.00  0.00    -0.248 NA
ATOM     39  C   UNL A   1      38.578  29.421  27.658  1.00  0.00     0.031 C 
ATOM     40  C   UNL A   1      36.610  31.433  31.822  1.00  0.00     0.029 A 
ATOM     41  N   UNL A   1      38.699  30.642  31.903  1.00  0.00    -0.354 N 
ATOM     42  C   UNL A   1      40.487  28.582  28.603  1.00  0.00     0.074 A 
ATOM     43  C   UNL A   1      39.682  28.730  27.409  1.00  0.00     0.031 C 
ATOM     44  C   UNL A   1      37.133  31.791  33.006  1.00  0.00     0.029 A 
ATOM     45  C   UNL A   1      38.477  31.238  33.123  1.00  0.00     0.049 A 
ATOM     46  H   UNL A   1      39.549  30.207  31.664  1.00  0.00     0.167 HD
ATOM     47  C   UNL A   1      41.693  27.965  28.635  1.00  0.00     0.031 A 
ATOM     48  C   UNL A   1      39.244  31.296  34.229  1.00  0.00     0.031 A 
ATOM     49  C   UNL A   1      42.530  27.870  29.802  1.00  0.00     0.049 A 
ATOM     50  C   UNL A   1      40.565  30.581  34.255  1.00  0.00     0.074 A 
ATOM     51  C   UNL A   1      43.759  27.247  29.935  1.00  0.00     0.029 A 
ATOM     52  N   UNL A   1      42.239  28.445  31.028  1.00  0.00    -0.354 N 
ATOM     53  N   UNL A   1      41.168  29.921  33.296  1.00  0.00    -0.248 NA
ATOM     54  C   UNL A   1      41.299  30.592  35.531  1.00  0.00     0.031 C 
ATOM     55  C   UNL A   1      44.201  27.425  31.251  1.00  0.00     0.029 A 
ATOM     56  C   UNL A   1      43.266  28.193  31.922  1.00  0.00     0.049 A 
ATOM     57  H   UNL A   1      41.424  28.958  31.232  1.00  0.00     0.167 HD
ATOM     58  C   UNL A   1      42.347  29.439  33.851  1.00  0.00     0.074 A 
ATOM     59  C   UNL A   1      42.391  29.908  35.220  1.00  0.00     0.031 C 
ATOM     60  C   UNL A   1      43.300  28.666  33.280  1.00  0.00     0.031 A 
BRANCH  47  61
ATOM     61  C   UNL A   1      42.164  27.299  27.373  1.00  0.00    -0.014 A 
ATOM     62  C   UNL A   1      42.987  27.961  26.451  1.00  0.00     0.009 A 
ATOM     63  C   UNL A   1      41.798  25.965  27.124  1.00  0.00     0.009 A 
ATOM     64  C   UNL A   1      43.409  27.311  25.289  1.00  0.00     0.001 A 
ATOM     65  C   UNL A   1      42.244  25.310  25.975  1.00  0.00     0.001 A 
ATOM     66  C   UNL A   1      43.041  25.986  25.054  1.00  0.00     0.000 A 
ENDBRANCH  47  61
BRANCH  48  67
ATOM     67  C   UNL A   1      38.754  32.009  35.440  1.00  0.00    -0.014 A 
ATOM     68  C   UNL A   1      38.961  33.390  35.589  1.00  0.00     0.009 A 
ATOM     69  C   UNL A   1      38.092  31.309  36.461  1.00  0.00     0.009 A 
ATOM     70  C   UNL A   1      38.525  34.050  36.740  1.00  0.00     0.001 A 
ATOM     71  C   UNL A   1      37.628  31.977  37.595  1.00  0.00     0.001 A 
ATOM     72  C   UNL A   1      37.851  33.346  37.738  1.00  0.00     0.000 A 
ENDBRANCH  48  67
BRANCH  60  73
ATOM     73  C   UNL A   1      44.486  28.304  34.127  1.00  0.00    -0.014 A 
ATOM     74  C   UNL A   1      44.477  27.152  34.929  1.00  0.00     0.009 A 
ATOM     75  C   UNL A   1      45.631  29.112  34.105  1.00  0.00     0.009 A 
ATOM     76  C   UNL A   1      45.586  26.834  35.717  1.00  0.00     0.001 A 
ATOM     77  C   UNL A   1      46.746  28.780  34.876  1.00  0.00     0.001 A 
ATOM     78  C   UNL A   1      46.719  27.647  35.688  1.00  0.00     0.000 A 
ENDBRANCH  60  73
ENDBRANCH  34  35
ENDBRANCH  27  29
ENDBRANCH  26  27
ENDBRANCH  25  26
ENDBRANCH   1  25
TORSDOF 15
ENDMDL
