MODEL 1
REMARK VINA RESULT:     -11.3      0.000      0.000
REMARK SMILES Cc1[nH]cnc1C[NH+]1CCC(Oc2cccc(F)c2)(C(=O)OCCOC(=O)c2ccc(-c3c4nc(c(-c5ccccc5)c5ccc([nH]5)c(-c5ccccc5)c5nc(c(-c6ccccc6)c6ccc3[nH]6)C=C5)C=C4)cc2)CC1
REMARK SMILES IDX 23 1 22 2 20 3 21 4 11 5 8 6 9 7 77 8 10 10 76 11 7 12 6 13
REMARK SMILES IDX 1 14 2 15 3 16 4 17 5 19 12 20 13 21 14 22 19 23 15 24 17 25
REMARK SMILES IDX 16 26 18 27 24 28 25 29 26 30 27 31 28 32 29 33 75 34 30 35
REMARK SMILES IDX 74 36 31 37 32 38 33 39 68 40 34 41 73 42 67 43 69 44 35 45
REMARK SMILES IDX 72 46 66 47 65 48 36 50 58 51 43 52 57 53 44 54 47 55 56 56
REMARK SMILES IDX 70 57 45 58 46 59 55 61 71 62 48 63 37 64 38 65 42 66 39 67
REMARK SMILES IDX 41 68 40 69 59 70 60 71 64 72 61 73 63 74 62 75 49 76 50 77
REMARK SMILES IDX 54 78 51 79 53 80 52 81
REMARK H PARENT 8 9 3 18 69 49 47 60
REMARK Flexibility Score: inf
ROOT
ATOM      1  C   UNL A   1      36.704  22.663  23.566  1.00  0.00     0.274 C 
ENDROOT
BRANCH   1   2
ATOM      2  O   UNL A   1      35.693  23.425  24.259  1.00  0.00    -0.459 OA
BRANCH   2   3
ATOM      3  C   UNL A   1      34.563  23.687  23.541  1.00  0.00     0.351 C 
ATOM      4  O   UNL A   1      34.561  24.321  22.487  1.00  0.00    -0.247 OA
BRANCH   3   5
ATOM      5  C   UNL A   1      33.272  23.225  24.237  1.00  0.00     0.216 C 
ATOM      6  N   UNL A   1      32.363  20.523  23.645  1.00  0.00    -0.330 N 
ATOM      7  C   UNL A   1      33.523  20.689  24.519  1.00  0.00     0.267 C 
ATOM      8  C   UNL A   1      32.394  21.506  22.566  1.00  0.00     0.267 C 
ATOM      9  H   UNL A   1      31.540  20.700  24.221  1.00  0.00     0.348 HD
ATOM     10  C   UNL A   1      33.444  22.049  25.213  1.00  0.00     0.122 C 
ATOM     11  C   UNL A   1      32.212  22.903  23.157  1.00  0.00     0.122 C 
BRANCH   6  12
ATOM     12  C   UNL A   1      32.165  19.147  23.150  1.00  0.00     0.321 C 
BRANCH  12  13
ATOM     13  C   UNL A   1      32.575  18.065  24.104  1.00  0.00     0.115 A 
ATOM     14  C   UNL A   1      34.398  16.693  22.804  1.00  0.00     0.066 C 
ATOM     15  C   UNL A   1      33.508  17.056  23.928  1.00  0.00     0.040 A 
ATOM     16  N   UNL A   1      33.491  16.348  25.101  1.00  0.00    -0.348 N 
ATOM     17  C   UNL A   1      32.637  16.979  25.952  1.00  0.00     0.197 A 
ATOM     18  H   UNL A   1      34.004  15.529  25.294  1.00  0.00     0.167 HD
ATOM     19  N   UNL A   1      32.058  18.010  25.382  1.00  0.00    -0.236 NA
ENDBRANCH  12  13
ENDBRANCH   6  12
BRANCH   5  20
ATOM     20  O   UNL A   1      33.056  24.439  25.027  1.00  0.00    -0.475 OA
BRANCH  20  21
ATOM     21  C   UNL A   1      31.909  25.132  24.792  1.00  0.00     0.123 A 
ATOM     22  C   UNL A   1      30.827  24.985  25.659  1.00  0.00     0.047 A 
ATOM     23  C   UNL A   1      31.866  26.058  23.753  1.00  0.00     0.085 A 
ATOM     24  C   UNL A   1      29.665  25.725  25.449  1.00  0.00     0.007 A 
ATOM     25  C   UNL A   1      30.702  26.789  23.552  1.00  0.00     0.126 A 
ATOM     26  C   UNL A   1      29.600  26.627  24.386  1.00  0.00     0.039 A 
ATOM     27  F   UNL A   1      30.639  27.668  22.543  1.00  0.00    -0.207 F 
ENDBRANCH  20  21
ENDBRANCH   5  20
ENDBRANCH   3   5
ENDBRANCH   2   3
ENDBRANCH   1   2
BRANCH   1  28
ATOM     28  C   UNL A   1      37.085  21.409  24.343  1.00  0.00     0.275 C 
BRANCH  28  29
ATOM     29  O   UNL A   1      37.429  21.763  25.692  1.00  0.00    -0.458 OA
BRANCH  29  30
ATOM     30  C   UNL A   1      38.724  21.593  26.030  1.00  0.00     0.338 C 
ATOM     31  O   UNL A   1      39.385  20.569  25.895  1.00  0.00    -0.246 OA
BRANCH  30  32
ATOM     32  C   UNL A   1      39.279  22.828  26.620  1.00  0.00     0.060 A 
ATOM     33  C   UNL A   1      38.835  24.095  26.231  1.00  0.00     0.016 A 
ATOM     34  C   UNL A   1      40.367  22.711  27.486  1.00  0.00     0.016 A 
ATOM     35  C   UNL A   1      39.563  25.230  26.591  1.00  0.00     0.010 A 
ATOM     36  C   UNL A   1      41.052  23.851  27.907  1.00  0.00     0.010 A 
ATOM     37  C   UNL A   1      40.679  25.116  27.431  1.00  0.00    -0.014 A 
BRANCH  37  38
ATOM     38  C   UNL A   1      41.430  26.312  27.880  1.00  0.00     0.031 A 
ATOM     39  C   UNL A   1      40.788  27.349  28.757  1.00  0.00     0.074 A 
ATOM     40  C   UNL A   1      42.683  26.497  27.427  1.00  0.00     0.049 A 
ATOM     41  N   UNL A   1      41.197  28.562  29.035  1.00  0.00    -0.248 NA
ATOM     42  C   UNL A   1      39.522  26.978  29.406  1.00  0.00     0.031 C 
ATOM     43  C   UNL A   1      43.434  25.545  26.605  1.00  0.00     0.029 A 
ATOM     44  N   UNL A   1      43.535  27.562  27.569  1.00  0.00    -0.354 N 
ATOM     45  C   UNL A   1      40.229  29.108  29.867  1.00  0.00     0.074 A 
ATOM     46  C   UNL A   1      39.208  28.097  30.048  1.00  0.00     0.031 C 
ATOM     47  C   UNL A   1      44.630  26.072  26.308  1.00  0.00     0.029 A 
ATOM     48  C   UNL A   1      44.693  27.425  26.848  1.00  0.00     0.049 A 
ATOM     49  H   UNL A   1      43.334  28.345  28.132  1.00  0.00     0.167 HD
ATOM     50  C   UNL A   1      40.198  30.343  30.426  1.00  0.00     0.031 A 
ATOM     51  C   UNL A   1      45.672  28.307  26.586  1.00  0.00     0.031 A 
ATOM     52  C   UNL A   1      41.226  31.337  30.251  1.00  0.00     0.049 A 
ATOM     53  C   UNL A   1      45.571  29.697  27.130  1.00  0.00     0.074 A 
ATOM     54  C   UNL A   1      41.300  32.609  30.794  1.00  0.00     0.029 A 
ATOM     55  N   UNL A   1      42.363  31.169  29.476  1.00  0.00    -0.354 N 
ATOM     56  N   UNL A   1      44.630  30.221  27.876  1.00  0.00    -0.248 NA
ATOM     57  C   UNL A   1      46.658  30.621  26.783  1.00  0.00     0.031 C 
ATOM     58  C   UNL A   1      42.459  33.225  30.312  1.00  0.00     0.029 A 
ATOM     59  C   UNL A   1      43.129  32.322  29.503  1.00  0.00     0.049 A 
ATOM     60  H   UNL A   1      42.591  30.351  28.978  1.00  0.00     0.167 HD
ATOM     61  C   UNL A   1      45.011  31.536  28.095  1.00  0.00     0.074 A 
ATOM     62  C   UNL A   1      46.276  31.725  27.412  1.00  0.00     0.031 C 
ATOM     63  C   UNL A   1      44.372  32.498  28.801  1.00  0.00     0.031 A 
BRANCH  50  64
ATOM     64  C   UNL A   1      39.004  30.711  31.260  1.00  0.00    -0.014 A 
ATOM     65  C   UNL A   1      37.853  31.264  30.681  1.00  0.00     0.009 A 
ATOM     66  C   UNL A   1      39.002  30.418  32.634  1.00  0.00     0.009 A 
ATOM     67  C   UNL A   1      36.726  31.528  31.465  1.00  0.00     0.001 A 
ATOM     68  C   UNL A   1      37.869  30.666  33.410  1.00  0.00     0.001 A 
ATOM     69  C   UNL A   1      36.733  31.224  32.826  1.00  0.00     0.000 A 
ENDBRANCH  50  64
BRANCH  51  70
ATOM     70  C   UNL A   1      46.787  27.898  25.700  1.00  0.00    -0.014 A 
ATOM     71  C   UNL A   1      47.909  27.242  26.224  1.00  0.00     0.009 A 
ATOM     72  C   UNL A   1      46.692  28.093  24.313  1.00  0.00     0.009 A 
ATOM     73  C   UNL A   1      48.916  26.785  25.371  1.00  0.00     0.001 A 
ATOM     74  C   UNL A   1      47.688  27.613  23.462  1.00  0.00     0.001 A 
ATOM     75  C   UNL A   1      48.800  26.961  23.993  1.00  0.00     0.000 A 
ENDBRANCH  51  70
BRANCH  63  76
ATOM     76  C   UNL A   1      45.047  33.835  28.875  1.00  0.00    -0.014 A 
ATOM     77  C   UNL A   1      45.938  34.135  29.916  1.00  0.00     0.009 A 
ATOM     78  C   UNL A   1      44.791  34.800  27.891  1.00  0.00     0.009 A 
ATOM     79  C   UNL A   1      46.537  35.393  29.987  1.00  0.00     0.001 A 
ATOM     80  C   UNL A   1      45.407  36.051  27.954  1.00  0.00     0.001 A 
ATOM     81  C   UNL A   1      46.272  36.349  29.006  1.00  0.00     0.000 A 
ENDBRANCH  63  76
ENDBRANCH  37  38
ENDBRANCH  30  32
ENDBRANCH  29  30
ENDBRANCH  28  29
ENDBRANCH   1  28
TORSDOF 15
ENDMDL
MODEL 2
REMARK VINA RESULT:     -11.1      3.827      8.895
REMARK SMILES Cc1[nH]cnc1C[NH+]1CCC(Oc2cccc(F)c2)(C(=O)OCCOC(=O)c2ccc(-c3c4nc(c(-c5ccccc5)c5ccc([nH]5)c(-c5ccccc5)c5nc(c(-c6ccccc6)c6ccc3[nH]6)C=C5)C=C4)cc2)CC1
REMARK SMILES IDX 23 1 22 2 20 3 21 4 11 5 8 6 9 7 77 8 10 10 76 11 7 12 6 13
REMARK SMILES IDX 1 14 2 15 3 16 4 17 5 19 12 20 13 21 14 22 19 23 15 24 17 25
REMARK SMILES IDX 16 26 18 27 24 28 25 29 26 30 27 31 28 32 29 33 75 34 30 35
REMARK SMILES IDX 74 36 31 37 32 38 33 39 68 40 34 41 73 42 67 43 69 44 35 45
REMARK SMILES IDX 72 46 66 47 65 48 36 50 58 51 43 52 57 53 44 54 47 55 56 56
REMARK SMILES IDX 70 57 45 58 46 59 55 61 71 62 48 63 37 64 38 65 42 66 39 67
REMARK SMILES IDX 41 68 40 69 59 70 60 71 64 72 61 73 63 74 62 75 49 76 50 77
REMARK SMILES IDX 54 78 51 79 53 80 52 81
REMARK H PARENT 8 9 3 18 69 49 47 60
REMARK Flexibility Score: inf
ROOT
ATOM      1  C   UNL A   1      30.745  24.207  24.153  1.00  0.00     0.274 C 
ENDROOT
BRANCH   1   2
ATOM      2  O   UNL A   1      31.124  22.816  24.090  1.00  0.00    -0.459 OA
BRANCH   2   3
ATOM      3  C   UNL A   1      31.512  22.260  25.274  1.00  0.00     0.351 C 
ATOM      4  O   UNL A   1      30.991  22.534  26.354  1.00  0.00    -0.247 OA
BRANCH   3   5
ATOM      5  C   UNL A   1      32.747  21.352  25.151  1.00  0.00     0.216 C 
ATOM      6  N   UNL A   1      35.343  22.670  25.174  1.00  0.00    -0.330 N 
ATOM      7  C   UNL A   1      34.608  22.563  26.434  1.00  0.00     0.267 C 
ATOM      8  C   UNL A   1      34.427  22.944  24.072  1.00  0.00     0.267 C 
ATOM      9  H   UNL A   1      35.779  21.761  25.016  1.00  0.00     0.348 HD
ATOM     10  C   UNL A   1      33.678  21.352  26.376  1.00  0.00     0.122 C 
ATOM     11  C   UNL A   1      33.518  21.733  23.864  1.00  0.00     0.122 C 
BRANCH   6  12
ATOM     12  C   UNL A   1      36.480  23.611  25.211  1.00  0.00     0.321 C 
BRANCH  12  13
ATOM     13  C   UNL A   1      37.748  23.052  25.785  1.00  0.00     0.115 A 
ATOM     14  C   UNL A   1      37.826  20.572  24.926  1.00  0.00     0.066 C 
ATOM     15  C   UNL A   1      38.280  21.780  25.648  1.00  0.00     0.040 A 
ATOM     16  N   UNL A   1      39.444  21.802  26.371  1.00  0.00    -0.348 N 
ATOM     17  C   UNL A   1      39.615  23.068  26.839  1.00  0.00     0.197 A 
ATOM     18  H   UNL A   1      40.047  21.039  26.526  1.00  0.00     0.167 HD
ATOM     19  N   UNL A   1      38.609  23.845  26.516  1.00  0.00    -0.236 NA
ENDBRANCH  12  13
ENDBRANCH   6  12
BRANCH   5  20
ATOM     20  O   UNL A   1      32.026  20.078  25.131  1.00  0.00    -0.475 OA
BRANCH  20  21
ATOM     21  C   UNL A   1      32.591  19.060  24.427  1.00  0.00     0.123 A 
ATOM     22  C   UNL A   1      32.164  18.805  23.125  1.00  0.00     0.047 A 
ATOM     23  C   UNL A   1      33.659  18.355  24.976  1.00  0.00     0.085 A 
ATOM     24  C   UNL A   1      32.769  17.791  22.382  1.00  0.00     0.007 A 
ATOM     25  C   UNL A   1      34.253  17.347  24.227  1.00  0.00     0.126 A 
ATOM     26  C   UNL A   1      33.815  17.054  22.939  1.00  0.00     0.039 A 
ATOM     27  F   UNL A   1      35.269  16.646  24.750  1.00  0.00    -0.207 F 
ENDBRANCH  20  21
ENDBRANCH   5  20
ENDBRANCH   3   5
ENDBRANCH   2   3
ENDBRANCH   1   2
BRANCH   1  28
ATOM     28  C   UNL A   1      31.912  25.082  24.596  1.00  0.00     0.275 C 
BRANCH  28  29
ATOM     29  O   UNL A   1      31.428  26.144  25.431  1.00  0.00    -0.458 OA
BRANCH  29  30
ATOM     30  C   UNL A   1      31.441  27.375  24.879  1.00  0.00     0.338 C 
ATOM     31  O   UNL A   1      30.834  27.731  23.875  1.00  0.00    -0.246 OA
BRANCH  30  32
ATOM     32  C   UNL A   1      32.319  28.285  25.644  1.00  0.00     0.060 A 
ATOM     33  C   UNL A   1      33.037  29.310  25.025  1.00  0.00     0.016 A 
ATOM     34  C   UNL A   1      32.529  28.011  26.997  1.00  0.00     0.016 A 
ATOM     35  C   UNL A   1      34.060  29.961  25.715  1.00  0.00     0.010 A 
ATOM     36  C   UNL A   1      33.501  28.714  27.709  1.00  0.00     0.010 A 
ATOM     37  C   UNL A   1      34.301  29.667  27.064  1.00  0.00    -0.014 A 
BRANCH  37  38
ATOM     38  C   UNL A   1      35.338  30.389  27.837  1.00  0.00     0.031 A 
ATOM     39  C   UNL A   1      36.736  29.852  27.952  1.00  0.00     0.074 A 
ATOM     40  C   UNL A   1      34.989  31.505  28.502  1.00  0.00     0.049 A 
ATOM     41  N   UNL A   1      37.689  30.205  28.778  1.00  0.00    -0.248 NA
ATOM     42  C   UNL A   1      37.114  28.779  27.021  1.00  0.00     0.031 C 
ATOM     43  C   UNL A   1      33.677  32.153  28.437  1.00  0.00     0.029 A 
ATOM     44  N   UNL A   1      35.700  32.275  29.386  1.00  0.00    -0.354 N 
ATOM     45  C   UNL A   1      38.770  29.381  28.486  1.00  0.00     0.074 A 
ATOM     46  C   UNL A   1      38.354  28.507  27.409  1.00  0.00     0.031 C 
ATOM     47  C   UNL A   1      33.674  33.215  29.254  1.00  0.00     0.029 A 
ATOM     48  C   UNL A   1      34.950  33.271  29.956  1.00  0.00     0.049 A 
ATOM     49  H   UNL A   1      36.652  32.126  29.591  1.00  0.00     0.167 HD
ATOM     50  C   UNL A   1      39.993  29.360  29.068  1.00  0.00     0.031 A 
ATOM     51  C   UNL A   1      35.225  34.100  30.978  1.00  0.00     0.031 A 
ATOM     52  C   UNL A   1      40.401  30.244  30.129  1.00  0.00     0.049 A 
ATOM     53  C   UNL A   1      36.546  33.993  31.673  1.00  0.00     0.074 A 
ATOM     54  C   UNL A   1      41.627  30.318  30.770  1.00  0.00     0.029 A 
ATOM     55  N   UNL A   1      39.592  31.211  30.706  1.00  0.00    -0.354 N 
ATOM     56  N   UNL A   1      37.543  33.181  31.423  1.00  0.00    -0.248 NA
ATOM     57  C   UNL A   1      36.772  34.906  32.801  1.00  0.00     0.031 C 
ATOM     58  C   UNL A   1      41.545  31.300  31.763  1.00  0.00     0.029 A 
ATOM     59  C   UNL A   1      40.282  31.867  31.711  1.00  0.00     0.049 A 
ATOM     60  H   UNL A   1      38.664  31.403  30.440  1.00  0.00     0.167 HD
ATOM     61  C   UNL A   1      38.520  33.486  32.358  1.00  0.00     0.074 A 
ATOM     62  C   UNL A   1      38.000  34.567  33.172  1.00  0.00     0.031 C 
ATOM     63  C   UNL A   1      39.740  32.923  32.524  1.00  0.00     0.031 A 
BRANCH  50  64
ATOM     64  C   UNL A   1      40.981  28.332  28.596  1.00  0.00    -0.014 A 
ATOM     65  C   UNL A   1      40.987  27.030  29.119  1.00  0.00     0.009 A 
ATOM     66  C   UNL A   1      41.864  28.648  27.549  1.00  0.00     0.009 A 
ATOM     67  C   UNL A   1      41.865  26.069  28.611  1.00  0.00     0.001 A 
ATOM     68  C   UNL A   1      42.727  27.680  27.032  1.00  0.00     0.001 A 
ATOM     69  C   UNL A   1      42.729  26.393  27.565  1.00  0.00     0.000 A 
ENDBRANCH  50  64
BRANCH  51  70
ATOM     70  C   UNL A   1      34.179  35.044  31.436  1.00  0.00    -0.014 A 
ATOM     71  C   UNL A   1      33.386  34.742  32.551  1.00  0.00     0.009 A 
ATOM     72  C   UNL A   1      34.028  36.289  30.803  1.00  0.00     0.009 A 
ATOM     73  C   UNL A   1      32.461  35.674  33.026  1.00  0.00     0.001 A 
ATOM     74  C   UNL A   1      33.120  37.226  31.296  1.00  0.00     0.001 A 
ATOM     75  C   UNL A   1      32.337  36.917  32.406  1.00  0.00     0.000 A 
ENDBRANCH  51  70
BRANCH  63  76
ATOM     76  C   UNL A   1      40.593  33.484  33.622  1.00  0.00    -0.014 A 
ATOM     77  C   UNL A   1      41.444  34.574  33.388  1.00  0.00     0.009 A 
ATOM     78  C   UNL A   1      40.540  32.918  34.904  1.00  0.00     0.009 A 
ATOM     79  C   UNL A   1      42.252  35.068  34.412  1.00  0.00     0.001 A 
ATOM     80  C   UNL A   1      41.336  33.426  35.931  1.00  0.00     0.001 A 
ATOM     81  C   UNL A   1      42.196  34.494  35.683  1.00  0.00     0.000 A 
ENDBRANCH  63  76
ENDBRANCH  37  38
ENDBRANCH  30  32
ENDBRANCH  29  30
ENDBRANCH  28  29
ENDBRANCH   1  28
TORSDOF 15
ENDMDL
MODEL 3
REMARK VINA RESULT:     -11.1      4.088      7.788
REMARK SMILES Cc1[nH]cnc1C[NH+]1CCC(Oc2cccc(F)c2)(C(=O)OCCOC(=O)c2ccc(-c3c4nc(c(-c5ccccc5)c5ccc([nH]5)c(-c5ccccc5)c5nc(c(-c6ccccc6)c6ccc3[nH]6)C=C5)C=C4)cc2)CC1
REMARK SMILES IDX 23 1 22 2 20 3 21 4 11 5 8 6 9 7 77 8 10 10 76 11 7 12 6 13
REMARK SMILES IDX 1 14 2 15 3 16 4 17 5 19 12 20 13 21 14 22 19 23 15 24 17 25
REMARK SMILES IDX 16 26 18 27 24 28 25 29 26 30 27 31 28 32 29 33 75 34 30 35
REMARK SMILES IDX 74 36 31 37 32 38 33 39 68 40 34 41 73 42 67 43 69 44 35 45
REMARK SMILES IDX 72 46 66 47 65 48 36 50 58 51 43 52 57 53 44 54 47 55 56 56
REMARK SMILES IDX 70 57 45 58 46 59 55 61 71 62 48 63 37 64 38 65 42 66 39 67
REMARK SMILES IDX 41 68 40 69 59 70 60 71 64 72 61 73 63 74 62 75 49 76 50 77
REMARK SMILES IDX 54 78 51 79 53 80 52 81
REMARK H PARENT 8 9 3 18 69 49 47 60
REMARK Flexibility Score: inf
ROOT
ATOM      1  C   UNL A   1      35.264  24.157  25.050  1.00  0.00     0.274 C 
ENDROOT
BRANCH   1   2
ATOM      2  O   UNL A   1      34.748  25.463  25.386  1.00  0.00    -0.459 OA
BRANCH   2   3
ATOM      3  C   UNL A   1      33.431  25.498  25.740  1.00  0.00     0.351 C 
ATOM      4  O   UNL A   1      32.757  24.491  25.945  1.00  0.00    -0.247 OA
BRANCH   3   5
ATOM      5  C   UNL A   1      32.832  26.915  25.735  1.00  0.00     0.216 C 
ATOM      6  N   UNL A   1      30.953  27.531  23.598  1.00  0.00    -0.330 N 
ATOM      7  C   UNL A   1      30.506  26.664  24.687  1.00  0.00     0.267 C 
ATOM      8  C   UNL A   1      32.340  27.237  23.251  1.00  0.00     0.267 C 
ATOM      9  H   UNL A   1      30.903  28.487  23.951  1.00  0.00     0.348 HD
ATOM     10  C   UNL A   1      31.310  26.978  25.948  1.00  0.00     0.122 C 
ATOM     11  C   UNL A   1      33.242  27.624  24.422  1.00  0.00     0.122 C 
BRANCH   6  12
ATOM     12  C   UNL A   1      30.065  27.537  22.420  1.00  0.00     0.321 C 
BRANCH  12  13
ATOM     13  C   UNL A   1      29.291  28.805  22.215  1.00  0.00     0.115 A 
ATOM     14  C   UNL A   1      27.024  28.407  23.479  1.00  0.00     0.066 C 
ATOM     15  C   UNL A   1      28.024  29.136  22.670  1.00  0.00     0.040 A 
ATOM     16  N   UNL A   1      27.799  30.404  22.203  1.00  0.00    -0.348 N 
ATOM     17  C   UNL A   1      28.931  30.819  21.572  1.00  0.00     0.197 A 
ATOM     18  H   UNL A   1      26.967  30.922  22.304  1.00  0.00     0.167 HD
ATOM     19  N   UNL A   1      29.846  29.879  21.550  1.00  0.00    -0.236 NA
ENDBRANCH  12  13
ENDBRANCH   6  12
BRANCH   5  20
ATOM     20  O   UNL A   1      33.480  27.383  26.963  1.00  0.00    -0.475 OA
BRANCH  20  21
ATOM     21  C   UNL A   1      33.503  28.726  27.175  1.00  0.00     0.123 A 
ATOM     22  C   UNL A   1      34.708  29.350  27.493  1.00  0.00     0.047 A 
ATOM     23  C   UNL A   1      32.347  29.475  26.969  1.00  0.00     0.085 A 
ATOM     24  C   UNL A   1      34.748  30.733  27.669  1.00  0.00     0.007 A 
ATOM     25  C   UNL A   1      32.399  30.851  27.149  1.00  0.00     0.126 A 
ATOM     26  C   UNL A   1      33.586  31.486  27.502  1.00  0.00     0.039 A 
ATOM     27  F   UNL A   1      31.289  31.582  26.974  1.00  0.00    -0.207 F 
ENDBRANCH  20  21
ENDBRANCH   5  20
ENDBRANCH   3   5
ENDBRANCH   2   3
ENDBRANCH   1   2
BRANCH   1  28
ATOM     28  C   UNL A   1      36.328  23.708  26.044  1.00  0.00     0.275 C 
BRANCH  28  29
ATOM     29  O   UNL A   1      37.631  23.874  25.465  1.00  0.00    -0.458 OA
BRANCH  29  30
ATOM     30  C   UNL A   1      38.664  23.434  26.212  1.00  0.00     0.338 C 
ATOM     31  O   UNL A   1      39.053  22.274  26.309  1.00  0.00    -0.246 OA
BRANCH  30  32
ATOM     32  C   UNL A   1      39.296  24.550  26.945  1.00  0.00     0.060 A 
ATOM     33  C   UNL A   1      39.053  24.771  28.303  1.00  0.00     0.016 A 
ATOM     34  C   UNL A   1      40.042  25.477  26.214  1.00  0.00     0.016 A 
ATOM     35  C   UNL A   1      39.431  25.979  28.892  1.00  0.00     0.010 A 
ATOM     36  C   UNL A   1      40.485  26.652  26.822  1.00  0.00     0.010 A 
ATOM     37  C   UNL A   1      40.150  26.930  28.154  1.00  0.00    -0.014 A 
BRANCH  37  38
ATOM     38  C   UNL A   1      40.618  28.192  28.774  1.00  0.00     0.031 A 
ATOM     39  C   UNL A   1      42.001  28.306  29.350  1.00  0.00     0.074 A 
ATOM     40  C   UNL A   1      39.757  29.219  28.881  1.00  0.00     0.049 A 
ATOM     41  N   UNL A   1      42.489  29.228  30.144  1.00  0.00    -0.248 NA
ATOM     42  C   UNL A   1      42.960  27.251  28.993  1.00  0.00     0.031 C 
ATOM     43  C   UNL A   1      38.403  29.249  28.324  1.00  0.00     0.029 A 
ATOM     44  N   UNL A   1      39.883  30.425  29.521  1.00  0.00    -0.354 N 
ATOM     45  C   UNL A   1      43.801  28.851  30.401  1.00  0.00     0.074 A 
ATOM     46  C   UNL A   1      44.033  27.615  29.684  1.00  0.00     0.031 C 
ATOM     47  C   UNL A   1      37.820  30.409  28.655  1.00  0.00     0.029 A 
ATOM     48  C   UNL A   1      38.728  31.163  29.511  1.00  0.00     0.049 A 
ATOM     49  H   UNL A   1      40.719  30.729  29.944  1.00  0.00     0.167 HD
ATOM     50  C   UNL A   1      44.723  29.482  31.169  1.00  0.00     0.031 A 
ATOM     51  C   UNL A   1      38.400  32.287  30.169  1.00  0.00     0.031 A 
ATOM     52  C   UNL A   1      44.485  30.719  31.868  1.00  0.00     0.049 A 
ATOM     53  C   UNL A   1      39.398  32.915  31.090  1.00  0.00     0.074 A 
ATOM     54  C   UNL A   1      45.362  31.450  32.652  1.00  0.00     0.029 A 
ATOM     55  N   UNL A   1      43.283  31.410  31.864  1.00  0.00    -0.354 N 
ATOM     56  N   UNL A   1      40.619  32.527  31.366  1.00  0.00    -0.248 NA
ATOM     57  C   UNL A   1      38.968  34.125  31.803  1.00  0.00     0.031 C 
ATOM     58  C   UNL A   1      44.676  32.561  33.157  1.00  0.00     0.029 A 
ATOM     59  C   UNL A   1      43.386  32.543  32.653  1.00  0.00     0.049 A 
ATOM     60  H   UNL A   1      42.476  31.134  31.373  1.00  0.00     0.167 HD
ATOM     61  C   UNL A   1      41.108  33.447  32.280  1.00  0.00     0.074 A 
ATOM     62  C   UNL A   1      40.056  34.419  32.502  1.00  0.00     0.031 C 
ATOM     63  C   UNL A   1      42.322  33.484  32.879  1.00  0.00     0.031 A 
BRANCH  50  64
ATOM     64  C   UNL A   1      46.071  28.838  31.325  1.00  0.00    -0.014 A 
ATOM     65  C   UNL A   1      47.138  29.164  30.475  1.00  0.00     0.009 A 
ATOM     66  C   UNL A   1      46.298  27.956  32.394  1.00  0.00     0.009 A 
ATOM     67  C   UNL A   1      48.403  28.610  30.687  1.00  0.00     0.001 A 
ATOM     68  C   UNL A   1      47.567  27.418  32.613  1.00  0.00     0.001 A 
ATOM     69  C   UNL A   1      48.618  27.743  31.758  1.00  0.00     0.000 A 
ENDBRANCH  50  64
BRANCH  51  70
ATOM     70  C   UNL A   1      37.029  32.831  30.022  1.00  0.00    -0.014 A 
ATOM     71  C   UNL A   1      36.021  32.477  30.928  1.00  0.00     0.009 A 
ATOM     72  C   UNL A   1      36.749  33.771  29.017  1.00  0.00     0.009 A 
ATOM     73  C   UNL A   1      34.756  33.059  30.832  1.00  0.00     0.001 A 
ATOM     74  C   UNL A   1      35.490  34.368  28.939  1.00  0.00     0.001 A 
ATOM     75  C   UNL A   1      34.495  34.010  29.846  1.00  0.00     0.000 A 
ENDBRANCH  51  70
BRANCH  63  76
ATOM     76  C   UNL A   1      42.571  34.625  33.819  1.00  0.00    -0.014 A 
ATOM     77  C   UNL A   1      43.053  35.855  33.347  1.00  0.00     0.009 A 
ATOM     78  C   UNL A   1      42.316  34.468  35.189  1.00  0.00     0.009 A 
ATOM     79  C   UNL A   1      43.306  36.899  34.238  1.00  0.00     0.001 A 
ATOM     80  C   UNL A   1      42.552  35.520  36.075  1.00  0.00     0.001 A 
ATOM     81  C   UNL A   1      43.054  36.731  35.600  1.00  0.00     0.000 A 
ENDBRANCH  63  76
ENDBRANCH  37  38
ENDBRANCH  30  32
ENDBRANCH  29  30
ENDBRANCH  28  29
ENDBRANCH   1  28
TORSDOF 15
ENDMDL
