MODEL 1
REMARK VINA RESULT:     -12.5      0.000      0.000
REMARK SMILES Cc1ccc2cc(C[N@H+]3CC[NH2+][C@H](C(=O)OCCOC(=O)c4ccc(-c5c6nc(c(-c7ccccc7)c7ccc([nH]7)c(-c7ccccc7)c7nc(c(-c8ccccc8)c8ccc5[nH]8)C=C7)C=C6)cc4)C3)c(N3CCOCC3)nc2c1
REMARK SMILES IDX 17 1 16 2 14 3 15 4 13 5 9 6 10 7 70 8 11 10 12 11 8 14 7 15
REMARK SMILES IDX 1 16 2 17 3 18 80 19 4 20 79 21 5 22 78 23 6 24 71 25 72 26
REMARK SMILES IDX 73 27 77 28 74 29 76 30 75 31 18 32 19 33 20 34 21 35 22 36
REMARK SMILES IDX 23 37 69 38 24 39 68 40 25 41 26 42 27 43 62 44 28 45 67 46
REMARK SMILES IDX 61 47 63 48 29 49 66 50 60 51 59 52 30 54 52 55 37 56 51 57
REMARK SMILES IDX 38 58 41 59 50 60 64 61 39 62 40 63 49 65 65 66 42 67 31 68
REMARK SMILES IDX 32 69 36 70 33 71 35 72 34 73 53 74 54 75 58 76 55 77 57 78
REMARK SMILES IDX 56 79 43 80 44 81 48 82 45 83 47 84 46 85
REMARK H PARENT 9 9 12 12 12 13 63 53 41 64
REMARK Flexibility Score: inf
ROOT
ATOM      1  C   UNL A   1      33.224  29.009  24.573  1.00  0.00     0.274 C 
ENDROOT
BRANCH   1   2
ATOM      2  O   UNL A   1      32.498  28.547  23.410  1.00  0.00    -0.457 OA
BRANCH   2   3
ATOM      3  C   UNL A   1      33.007  27.498  22.676  1.00  0.00     0.371 C 
ATOM      4  O   UNL A   1      33.904  27.601  21.852  1.00  0.00    -0.245 OA
BRANCH   3   5
ATOM      5  C   UNL A   1      32.200  26.228  22.999  1.00  0.00     0.348 C 
ATOM      6  N   UNL A   1      31.971  23.779  22.382  1.00  0.00    -0.321 N 
ATOM      7  C   UNL A   1      30.609  23.848  22.934  1.00  0.00     0.324 C 
ATOM      8  C   UNL A   1      32.457  25.094  21.983  1.00  0.00     0.341 C 
ATOM      9  H   UNL A   1      31.846  23.219  21.539  1.00  0.00     0.348 HD
ATOM     10  C   UNL A   1      30.219  25.134  23.729  1.00  0.00     0.323 C 
ATOM     11  N   UNL A   1      30.736  26.415  23.177  1.00  0.00    -0.325 N 
ATOM     12  H   UNL A   1      30.553  27.179  23.827  1.00  0.00     0.347 HD
ATOM     13  H   UNL A   1      30.281  26.650  22.295  1.00  0.00     0.347 HD
BRANCH   6  14
ATOM     14  C   UNL A   1      32.964  22.940  23.067  1.00  0.00     0.303 C 
BRANCH  14  15
ATOM     15  C   UNL A   1      32.474  21.632  23.650  1.00  0.00     0.049 A 
ATOM     16  C   UNL A   1      33.231  15.448  25.350  1.00  0.00     0.044 C 
ATOM     17  C   UNL A   1      32.972  16.772  24.697  1.00  0.00    -0.049 A 
ATOM     18  C   UNL A   1      33.144  16.890  23.320  1.00  0.00     0.004 A 
ATOM     19  C   UNL A   1      32.602  17.911  25.442  1.00  0.00     0.032 A 
ATOM     20  C   UNL A   1      32.899  18.107  22.701  1.00  0.00     0.010 A 
ATOM     21  C   UNL A   1      32.421  19.166  24.854  1.00  0.00     0.073 A 
ATOM     22  C   UNL A   1      32.553  19.236  23.459  1.00  0.00     0.001 A 
ATOM     23  N   UNL A   1      32.177  20.270  25.601  1.00  0.00    -0.230 NA
ATOM     24  C   UNL A   1      32.476  20.486  22.853  1.00  0.00     0.023 A 
ATOM     25  C   UNL A   1      32.191  21.491  25.010  1.00  0.00     0.138 A 
BRANCH  25  26
ATOM     26  N   UNL A   1      31.973  22.619  25.772  1.00  0.00    -0.352 N 
ATOM     27  C   UNL A   1      30.742  22.716  26.570  1.00  0.00     0.146 C 
ATOM     28  C   UNL A   1      33.090  23.383  26.313  1.00  0.00     0.146 C 
ATOM     29  C   UNL A   1      30.361  24.202  26.695  1.00  0.00     0.181 C 
ATOM     30  C   UNL A   1      32.627  24.849  26.442  1.00  0.00     0.181 C 
ATOM     31  O   UNL A   1      31.440  24.973  27.253  1.00  0.00    -0.378 OA
ENDBRANCH  25  26
ENDBRANCH  14  15
ENDBRANCH   6  14
ENDBRANCH   3   5
ENDBRANCH   2   3
ENDBRANCH   1   2
BRANCH   1  32
ATOM     32  C   UNL A   1      32.310  29.758  25.548  1.00  0.00     0.275 C 
BRANCH  32  33
ATOM     33  O   UNL A   1      32.975  29.888  26.813  1.00  0.00    -0.458 OA
BRANCH  33  34
ATOM     34  C   UNL A   1      33.390  31.142  27.101  1.00  0.00     0.338 C 
ATOM     35  O   UNL A   1      32.718  32.155  27.166  1.00  0.00    -0.246 OA
BRANCH  34  36
ATOM     36  C   UNL A   1      34.715  31.009  27.720  1.00  0.00     0.060 A 
ATOM     37  C   UNL A   1      35.619  32.046  27.888  1.00  0.00     0.016 A 
ATOM     38  C   UNL A   1      35.047  29.716  28.110  1.00  0.00     0.016 A 
ATOM     39  C   UNL A   1      36.861  31.756  28.459  1.00  0.00     0.010 A 
ATOM     40  C   UNL A   1      36.271  29.409  28.664  1.00  0.00     0.010 A 
ATOM     41  C   UNL A   1      37.188  30.437  28.848  1.00  0.00    -0.014 A 
BRANCH  41  42
ATOM     42  C   UNL A   1      38.417  30.145  29.605  1.00  0.00     0.031 A 
ATOM     43  C   UNL A   1      38.605  30.630  31.006  1.00  0.00     0.074 A 
ATOM     44  C   UNL A   1      39.394  29.493  28.950  1.00  0.00     0.049 A 
ATOM     45  N   UNL A   1      39.533  30.293  31.861  1.00  0.00    -0.248 NA
ATOM     46  C   UNL A   1      37.657  31.638  31.510  1.00  0.00     0.031 C 
ATOM     47  C   UNL A   1      39.347  29.129  27.530  1.00  0.00     0.029 A 
ATOM     48  N   UNL A   1      40.591  28.998  29.385  1.00  0.00    -0.354 N 
ATOM     49  C   UNL A   1      39.267  31.021  33.013  1.00  0.00     0.074 A 
ATOM     50  C   UNL A   1      38.135  31.873  32.727  1.00  0.00     0.031 C 
ATOM     51  C   UNL A   1      40.424  28.388  27.234  1.00  0.00     0.029 A 
ATOM     52  C   UNL A   1      41.228  28.232  28.439  1.00  0.00     0.049 A 
ATOM     53  H   UNL A   1      40.958  29.171  30.282  1.00  0.00     0.167 HD
ATOM     54  C   UNL A   1      39.903  30.945  34.205  1.00  0.00     0.031 A 
ATOM     55  C   UNL A   1      42.305  27.433  28.557  1.00  0.00     0.031 A 
ATOM     56  C   UNL A   1      41.033  30.086  34.441  1.00  0.00     0.049 A 
ATOM     57  C   UNL A   1      42.935  27.293  29.912  1.00  0.00     0.074 A 
ATOM     58  C   UNL A   1      41.719  29.864  35.622  1.00  0.00     0.029 A 
ATOM     59  N   UNL A   1      41.641  29.303  33.469  1.00  0.00    -0.354 N 
ATOM     60  N   UNL A   1      42.596  27.873  31.038  1.00  0.00    -0.248 NA
ATOM     61  C   UNL A   1      44.070  26.370  30.022  1.00  0.00     0.031 C 
ATOM     62  C   UNL A   1      42.765  28.978  35.355  1.00  0.00     0.029 A 
ATOM     63  C   UNL A   1      42.697  28.604  34.021  1.00  0.00     0.049 A 
ATOM     64  H   UNL A   1      41.361  29.254  32.526  1.00  0.00     0.167 HD
ATOM     65  C   UNL A   1      43.462  27.371  31.998  1.00  0.00     0.074 A 
ATOM     66  C   UNL A   1      44.327  26.423  31.322  1.00  0.00     0.031 C 
ATOM     67  C   UNL A   1      43.538  27.670  33.317  1.00  0.00     0.031 A 
BRANCH  54  68
ATOM     68  C   UNL A   1      39.371  31.755  35.356  1.00  0.00    -0.014 A 
ATOM     69  C   UNL A   1      38.372  31.232  36.192  1.00  0.00     0.009 A 
ATOM     70  C   UNL A   1      39.774  33.088  35.536  1.00  0.00     0.009 A 
ATOM     71  C   UNL A   1      37.777  32.032  37.172  1.00  0.00     0.001 A 
ATOM     72  C   UNL A   1      39.195  33.877  36.531  1.00  0.00     0.001 A 
ATOM     73  C   UNL A   1      38.190  33.352  37.341  1.00  0.00     0.000 A 
ENDBRANCH  54  68
BRANCH  55  74
ATOM     74  C   UNL A   1      42.728  26.611  27.397  1.00  0.00    -0.014 A 
ATOM     75  C   UNL A   1      43.667  27.093  26.470  1.00  0.00     0.009 A 
ATOM     76  C   UNL A   1      42.121  25.368  27.159  1.00  0.00     0.009 A 
ATOM     77  C   UNL A   1      43.975  26.355  25.325  1.00  0.00     0.001 A 
ATOM     78  C   UNL A   1      42.452  24.620  26.029  1.00  0.00     0.001 A 
ATOM     79  C   UNL A   1      43.372  25.118  25.107  1.00  0.00     0.000 A 
ENDBRANCH  55  74
BRANCH  67  80
ATOM     80  C   UNL A   1      44.592  26.969  34.121  1.00  0.00    -0.014 A 
ATOM     81  C   UNL A   1      45.886  27.509  34.192  1.00  0.00     0.009 A 
ATOM     82  C   UNL A   1      44.334  25.724  34.713  1.00  0.00     0.009 A 
ATOM     83  C   UNL A   1      46.907  26.808  34.834  1.00  0.00     0.001 A 
ATOM     84  C   UNL A   1      45.351  25.038  35.376  1.00  0.00     0.001 A 
ATOM     85  C   UNL A   1      46.637  25.575  35.427  1.00  0.00     0.000 A 
ENDBRANCH  67  80
ENDBRANCH  41  42
ENDBRANCH  34  36
ENDBRANCH  33  34
ENDBRANCH  32  33
ENDBRANCH   1  32
TORSDOF 14
ENDMDL
MODEL 2
REMARK VINA RESULT:     -12.3      1.697      3.187
REMARK SMILES Cc1ccc2cc(C[N@H+]3CC[NH2+][C@H](C(=O)OCCOC(=O)c4ccc(-c5c6nc(c(-c7ccccc7)c7ccc([nH]7)c(-c7ccccc7)c7nc(c(-c8ccccc8)c8ccc5[nH]8)C=C7)C=C6)cc4)C3)c(N3CCOCC3)nc2c1
REMARK SMILES IDX 17 1 16 2 14 3 15 4 13 5 9 6 10 7 70 8 11 10 12 11 8 14 7 15
REMARK SMILES IDX 1 16 2 17 3 18 80 19 4 20 79 21 5 22 78 23 6 24 71 25 72 26
REMARK SMILES IDX 73 27 77 28 74 29 76 30 75 31 18 32 19 33 20 34 21 35 22 36
REMARK SMILES IDX 23 37 69 38 24 39 68 40 25 41 26 42 27 43 62 44 28 45 67 46
REMARK SMILES IDX 61 47 63 48 29 49 66 50 60 51 59 52 30 54 52 55 37 56 51 57
REMARK SMILES IDX 38 58 41 59 50 60 64 61 39 62 40 63 49 65 65 66 42 67 31 68
REMARK SMILES IDX 32 69 36 70 33 71 35 72 34 73 53 74 54 75 58 76 55 77 57 78
REMARK SMILES IDX 56 79 43 80 44 81 48 82 45 83 47 84 46 85
REMARK H PARENT 9 9 12 12 12 13 63 53 41 64
REMARK Flexibility Score: inf
ROOT
ATOM      1  C   UNL A   1      32.804  29.191  24.604  1.00  0.00     0.274 C 
ENDROOT
BRANCH   1   2
ATOM      2  O   UNL A   1      32.138  28.045  24.025  1.00  0.00    -0.457 OA
BRANCH   2   3
ATOM      3  C   UNL A   1      32.820  26.853  23.925  1.00  0.00     0.371 C 
ATOM      4  O   UNL A   1      33.787  26.668  23.200  1.00  0.00    -0.245 OA
BRANCH   3   5
ATOM      5  C   UNL A   1      32.108  25.798  24.791  1.00  0.00     0.348 C 
ATOM      6  N   UNL A   1      32.092  23.322  25.337  1.00  0.00    -0.321 N 
ATOM      7  C   UNL A   1      30.713  23.516  25.815  1.00  0.00     0.324 C 
ATOM      8  C   UNL A   1      32.482  24.356  24.386  1.00  0.00     0.341 C 
ATOM      9  H   UNL A   1      32.034  22.437  24.834  1.00  0.00     0.348 HD
ATOM     10  C   UNL A   1      30.201  24.985  25.954  1.00  0.00     0.323 C 
ATOM     11  N   UNL A   1      30.629  25.922  24.883  1.00  0.00    -0.325 N 
ATOM     12  H   UNL A   1      30.369  26.878  25.124  1.00  0.00     0.347 HD
ATOM     13  H   UNL A   1      30.181  25.701  23.994  1.00  0.00     0.347 HD
BRANCH   6  14
ATOM     14  C   UNL A   1      33.129  22.963  26.314  1.00  0.00     0.303 C 
BRANCH  14  15
ATOM     15  C   UNL A   1      34.504  22.644  25.769  1.00  0.00     0.049 A 
ATOM     16  C   UNL A   1      40.883  21.831  26.370  1.00  0.00     0.044 C 
ATOM     17  C   UNL A   1      39.472  22.300  26.178  1.00  0.00    -0.049 A 
ATOM     18  C   UNL A   1      39.148  23.616  26.501  1.00  0.00     0.004 A 
ATOM     19  C   UNL A   1      38.456  21.436  25.720  1.00  0.00     0.032 A 
ATOM     20  C   UNL A   1      37.849  24.065  26.318  1.00  0.00     0.010 A 
ATOM     21  C   UNL A   1      37.124  21.842  25.598  1.00  0.00     0.073 A 
ATOM     22  C   UNL A   1      36.844  23.188  25.884  1.00  0.00     0.001 A 
ATOM     23  N   UNL A   1      36.144  20.968  25.266  1.00  0.00    -0.230 NA
ATOM     24  C   UNL A   1      35.516  23.600  25.867  1.00  0.00     0.023 A 
ATOM     25  C   UNL A   1      34.847  21.361  25.338  1.00  0.00     0.138 A 
BRANCH  25  26
ATOM     26  N   UNL A   1      33.846  20.465  25.030  1.00  0.00    -0.352 N 
ATOM     27  C   UNL A   1      33.216  19.698  26.115  1.00  0.00     0.146 C 
ATOM     28  C   UNL A   1      32.980  20.677  23.876  1.00  0.00     0.146 C 
ATOM     29  C   UNL A   1      32.747  18.348  25.545  1.00  0.00     0.181 C 
ATOM     30  C   UNL A   1      32.523  19.289  23.381  1.00  0.00     0.181 C 
ATOM     31  O   UNL A   1      31.868  18.532  24.420  1.00  0.00    -0.378 OA
ENDBRANCH  25  26
ENDBRANCH  14  15
ENDBRANCH   6  14
ENDBRANCH   3   5
ENDBRANCH   2   3
ENDBRANCH   1   2
BRANCH   1  32
ATOM     32  C   UNL A   1      31.952  29.849  25.695  1.00  0.00     0.275 C 
BRANCH  32  33
ATOM     33  O   UNL A   1      32.736  29.985  26.889  1.00  0.00    -0.458 OA
BRANCH  33  34
ATOM     34  C   UNL A   1      33.176  31.240  27.129  1.00  0.00     0.338 C 
ATOM     35  O   UNL A   1      32.524  32.268  27.156  1.00  0.00    -0.246 OA
BRANCH  34  36
ATOM     36  C   UNL A   1      34.498  31.104  27.754  1.00  0.00     0.060 A 
ATOM     37  C   UNL A   1      35.377  32.151  27.983  1.00  0.00     0.016 A 
ATOM     38  C   UNL A   1      34.854  29.801  28.082  1.00  0.00     0.016 A 
ATOM     39  C   UNL A   1      36.620  31.859  28.552  1.00  0.00     0.010 A 
ATOM     40  C   UNL A   1      36.080  29.493  28.633  1.00  0.00     0.010 A 
ATOM     41  C   UNL A   1      36.973  30.529  28.877  1.00  0.00    -0.014 A 
BRANCH  41  42
ATOM     42  C   UNL A   1      38.200  30.226  29.631  1.00  0.00     0.031 A 
ATOM     43  C   UNL A   1      38.368  30.650  31.054  1.00  0.00     0.074 A 
ATOM     44  C   UNL A   1      39.195  29.624  28.955  1.00  0.00     0.049 A 
ATOM     45  N   UNL A   1      39.296  30.291  31.901  1.00  0.00    -0.248 NA
ATOM     46  C   UNL A   1      37.396  31.615  31.596  1.00  0.00     0.031 C 
ATOM     47  C   UNL A   1      39.167  29.325  27.519  1.00  0.00     0.029 A 
ATOM     48  N   UNL A   1      40.398  29.132  29.378  1.00  0.00    -0.354 N 
ATOM     49  C   UNL A   1      39.006  30.960  33.083  1.00  0.00     0.074 A 
ATOM     50  C   UNL A   1      37.860  31.802  32.827  1.00  0.00     0.031 C 
ATOM     51  C   UNL A   1      40.261  28.620  27.200  1.00  0.00     0.029 A 
ATOM     52  C   UNL A   1      41.058  28.423  28.404  1.00  0.00     0.049 A 
ATOM     53  H   UNL A   1      40.754  29.271  30.285  1.00  0.00     0.167 HD
ATOM     54  C   UNL A   1      39.633  30.841  34.276  1.00  0.00     0.031 A 
ATOM     55  C   UNL A   1      42.149  27.640  28.494  1.00  0.00     0.031 A 
ATOM     56  C   UNL A   1      40.778  29.993  34.482  1.00  0.00     0.049 A 
ATOM     57  C   UNL A   1      42.771  27.450  29.847  1.00  0.00     0.074 A 
ATOM     58  C   UNL A   1      41.459  29.731  35.658  1.00  0.00     0.029 A 
ATOM     59  N   UNL A   1      41.409  29.268  33.481  1.00  0.00    -0.354 N 
ATOM     60  N   UNL A   1      42.411  27.970  30.995  1.00  0.00    -0.248 NA
ATOM     61  C   UNL A   1      43.922  26.544  29.924  1.00  0.00     0.031 C 
ATOM     62  C   UNL A   1      42.523  28.878  35.360  1.00  0.00     0.029 A 
ATOM     63  C   UNL A   1      42.475  28.565  34.009  1.00  0.00     0.049 A 
ATOM     64  H   UNL A   1      41.137  29.257  32.534  1.00  0.00     0.167 HD
ATOM     65  C   UNL A   1      43.279  27.441  31.939  1.00  0.00     0.074 A 
ATOM     66  C   UNL A   1      44.168  26.542  31.228  1.00  0.00     0.031 C 
ATOM     67  C   UNL A   1      43.339  27.680  33.271  1.00  0.00     0.031 A 
BRANCH  54  68
ATOM     68  C   UNL A   1      39.077  31.587  35.458  1.00  0.00    -0.014 A 
ATOM     69  C   UNL A   1      39.563  32.861  35.788  1.00  0.00     0.009 A 
ATOM     70  C   UNL A   1      38.155  30.970  36.319  1.00  0.00     0.009 A 
ATOM     71  C   UNL A   1      39.150  33.495  36.964  1.00  0.00     0.001 A 
ATOM     72  C   UNL A   1      37.726  31.616  37.481  1.00  0.00     0.001 A 
ATOM     73  C   UNL A   1      38.232  32.872  37.808  1.00  0.00     0.000 A 
ENDBRANCH  54  68
BRANCH  55  74
ATOM     74  C   UNL A   1      42.597  26.880  27.301  1.00  0.00    -0.014 A 
ATOM     75  C   UNL A   1      42.117  25.586  27.043  1.00  0.00     0.009 A 
ATOM     76  C   UNL A   1      43.586  27.415  26.459  1.00  0.00     0.009 A 
ATOM     77  C   UNL A   1      42.628  24.840  25.979  1.00  0.00     0.001 A 
ATOM     78  C   UNL A   1      44.073  26.678  25.379  1.00  0.00     0.001 A 
ATOM     79  C   UNL A   1      43.601  25.387  25.145  1.00  0.00     0.000 A 
ENDBRANCH  55  74
BRANCH  67  80
ATOM     80  C   UNL A   1      44.400  26.963  34.051  1.00  0.00    -0.014 A 
ATOM     81  C   UNL A   1      44.091  25.757  34.700  1.00  0.00     0.009 A 
ATOM     82  C   UNL A   1      45.668  27.535  34.231  1.00  0.00     0.009 A 
ATOM     83  C   UNL A   1      45.031  25.142  35.527  1.00  0.00     0.001 A 
ATOM     84  C   UNL A   1      46.614  26.904  35.038  1.00  0.00     0.001 A 
ATOM     85  C   UNL A   1      46.291  25.714  35.693  1.00  0.00     0.000 A 
ENDBRANCH  67  80
ENDBRANCH  41  42
ENDBRANCH  34  36
ENDBRANCH  33  34
ENDBRANCH  32  33
ENDBRANCH   1  32
TORSDOF 14
ENDMDL
MODEL 3
REMARK VINA RESULT:     -12.2      3.742      9.186
REMARK SMILES Cc1ccc2cc(C[N@H+]3CC[NH2+][C@H](C(=O)OCCOC(=O)c4ccc(-c5c6nc(c(-c7ccccc7)c7ccc([nH]7)c(-c7ccccc7)c7nc(c(-c8ccccc8)c8ccc5[nH]8)C=C7)C=C6)cc4)C3)c(N3CCOCC3)nc2c1
REMARK SMILES IDX 17 1 16 2 14 3 15 4 13 5 9 6 10 7 70 8 11 10 12 11 8 14 7 15
REMARK SMILES IDX 1 16 2 17 3 18 80 19 4 20 79 21 5 22 78 23 6 24 71 25 72 26
REMARK SMILES IDX 73 27 77 28 74 29 76 30 75 31 18 32 19 33 20 34 21 35 22 36
REMARK SMILES IDX 23 37 69 38 24 39 68 40 25 41 26 42 27 43 62 44 28 45 67 46
REMARK SMILES IDX 61 47 63 48 29 49 66 50 60 51 59 52 30 54 52 55 37 56 51 57
REMARK SMILES IDX 38 58 41 59 50 60 64 61 39 62 40 63 49 65 65 66 42 67 31 68
REMARK SMILES IDX 32 69 36 70 33 71 35 72 34 73 53 74 54 75 58 76 55 77 57 78
REMARK SMILES IDX 56 79 43 80 44 81 48 82 45 83 47 84 46 85
REMARK H PARENT 9 9 12 12 12 13 63 53 41 64
REMARK Flexibility Score: inf
ROOT
ATOM      1  C   UNL A   1      34.735  21.316  24.829  1.00  0.00     0.274 C 
ENDROOT
BRANCH   1   2
ATOM      2  O   UNL A   1      34.563  22.519  24.044  1.00  0.00    -0.457 OA
BRANCH   2   3
ATOM      3  C   UNL A   1      33.558  23.399  24.379  1.00  0.00     0.371 C 
ATOM      4  O   UNL A   1      32.973  23.406  25.452  1.00  0.00    -0.245 OA
BRANCH   3   5
ATOM      5  C   UNL A   1      33.244  24.283  23.158  1.00  0.00     0.348 C 
ATOM      6  N   UNL A   1      32.020  26.392  22.463  1.00  0.00    -0.321 N 
ATOM      7  C   UNL A   1      32.027  25.851  21.095  1.00  0.00     0.324 C 
ATOM      8  C   UNL A   1      32.157  25.337  23.460  1.00  0.00     0.341 C 
ATOM      9  H   UNL A   1      31.083  26.786  22.547  1.00  0.00     0.348 HD
ATOM     10  C   UNL A   1      32.903  24.587  20.825  1.00  0.00     0.323 C 
ATOM     11  N   UNL A   1      32.906  23.563  21.903  1.00  0.00    -0.325 N 
ATOM     12  H   UNL A   1      33.604  22.845  21.707  1.00  0.00     0.347 HD
ATOM     13  H   UNL A   1      32.002  23.095  21.974  1.00  0.00     0.347 HD
BRANCH   6  14
ATOM     14  C   UNL A   1      32.802  27.605  22.742  1.00  0.00     0.303 C 
BRANCH  14  15
ATOM     15  C   UNL A   1      32.590  28.264  24.087  1.00  0.00     0.049 A 
ATOM     16  C   UNL A   1      34.275  32.284  28.854  1.00  0.00     0.044 C 
ATOM     17  C   UNL A   1      34.044  31.154  27.895  1.00  0.00    -0.049 A 
ATOM     18  C   UNL A   1      35.025  30.176  27.757  1.00  0.00     0.004 A 
ATOM     19  C   UNL A   1      32.881  31.078  27.100  1.00  0.00     0.032 A 
ATOM     20  C   UNL A   1      34.819  29.120  26.881  1.00  0.00     0.010 A 
ATOM     21  C   UNL A   1      32.683  30.066  26.157  1.00  0.00     0.073 A 
ATOM     22  C   UNL A   1      33.669  29.070  26.080  1.00  0.00     0.001 A 
ATOM     23  N   UNL A   1      31.614  30.074  25.323  1.00  0.00    -0.230 NA
ATOM     24  C   UNL A   1      33.550  28.104  25.087  1.00  0.00     0.023 A 
ATOM     25  C   UNL A   1      31.556  29.179  24.305  1.00  0.00     0.138 A 
BRANCH  25  26
ATOM     26  N   UNL A   1      30.486  29.203  23.437  1.00  0.00    -0.352 N 
ATOM     27  C   UNL A   1      30.667  29.778  22.096  1.00  0.00     0.146 C 
ATOM     28  C   UNL A   1      29.441  28.189  23.509  1.00  0.00     0.146 C 
ATOM     29  C   UNL A   1      29.321  30.366  21.636  1.00  0.00     0.181 C 
ATOM     30  C   UNL A   1      28.135  28.835  23.002  1.00  0.00     0.181 C 
ATOM     31  O   UNL A   1      28.279  29.375  21.672  1.00  0.00    -0.378 OA
ENDBRANCH  25  26
ENDBRANCH  14  15
ENDBRANCH   6  14
ENDBRANCH   3   5
ENDBRANCH   2   3
ENDBRANCH   1   2
BRANCH   1  32
ATOM     32  C   UNL A   1      35.801  21.498  25.914  1.00  0.00     0.275 C 
BRANCH  32  33
ATOM     33  O   UNL A   1      36.965  22.106  25.336  1.00  0.00    -0.458 OA
BRANCH  33  34
ATOM     34  C   UNL A   1      38.133  21.515  25.675  1.00  0.00     0.338 C 
ATOM     35  O   UNL A   1      38.570  20.448  25.286  1.00  0.00    -0.246 OA
BRANCH  34  36
ATOM     36  C   UNL A   1      38.969  22.562  26.275  1.00  0.00     0.060 A 
ATOM     37  C   UNL A   1      40.054  22.330  27.107  1.00  0.00     0.016 A 
ATOM     38  C   UNL A   1      38.571  23.862  25.983  1.00  0.00     0.016 A 
ATOM     39  C   UNL A   1      40.730  23.433  27.636  1.00  0.00     0.010 A 
ATOM     40  C   UNL A   1      39.220  24.961  26.505  1.00  0.00     0.010 A 
ATOM     41  C   UNL A   1      40.314  24.750  27.335  1.00  0.00    -0.014 A 
BRANCH  41  42
ATOM     42  C   UNL A   1      41.114  25.916  27.741  1.00  0.00     0.031 A 
ATOM     43  C   UNL A   1      42.496  26.137  27.216  1.00  0.00     0.074 A 
ATOM     44  C   UNL A   1      40.577  26.730  28.667  1.00  0.00     0.049 A 
ATOM     45  N   UNL A   1      43.242  27.204  27.323  1.00  0.00    -0.248 NA
ATOM     46  C   UNL A   1      43.140  25.019  26.504  1.00  0.00     0.031 C 
ATOM     47  C   UNL A   1      39.299  26.491  29.347  1.00  0.00     0.029 A 
ATOM     48  N   UNL A   1      41.011  27.922  29.175  1.00  0.00    -0.354 N 
ATOM     49  C   UNL A   1      44.429  26.901  26.670  1.00  0.00     0.074 A 
ATOM     50  C   UNL A   1      44.337  25.527  26.231  1.00  0.00     0.031 C 
ATOM     51  C   UNL A   1      39.010  27.551  30.115  1.00  0.00     0.029 A 
ATOM     52  C   UNL A   1      40.078  28.532  29.979  1.00  0.00     0.049 A 
ATOM     53  H   UNL A   1      41.898  28.304  28.985  1.00  0.00     0.167 HD
ATOM     54  C   UNL A   1      45.479  27.722  26.438  1.00  0.00     0.031 A 
ATOM     55  C   UNL A   1      40.060  29.777  30.489  1.00  0.00     0.031 A 
ATOM     56  C   UNL A   1      45.530  29.084  26.902  1.00  0.00     0.049 A 
ATOM     57  C   UNL A   1      41.190  30.700  30.140  1.00  0.00     0.074 A 
ATOM     58  C   UNL A   1      46.504  30.040  26.672  1.00  0.00     0.029 A 
ATOM     59  N   UNL A   1      44.559  29.681  27.694  1.00  0.00    -0.354 N 
ATOM     60  N   UNL A   1      42.247  30.460  29.402  1.00  0.00    -0.248 NA
ATOM     61  C   UNL A   1      41.113  32.069  30.662  1.00  0.00     0.031 C 
ATOM     62  C   UNL A   1      46.139  31.202  27.356  1.00  0.00     0.029 A 
ATOM     63  C   UNL A   1      44.913  30.988  27.967  1.00  0.00     0.049 A 
ATOM     64  H   UNL A   1      43.739  29.238  28.014  1.00  0.00     0.167 HD
ATOM     65  C   UNL A   1      42.953  31.652  29.352  1.00  0.00     0.074 A 
ATOM     66  C   UNL A   1      42.190  32.619  30.118  1.00  0.00     0.031 C 
ATOM     67  C   UNL A   1      44.128  31.922  28.734  1.00  0.00     0.031 A 
BRANCH  54  68
ATOM     68  C   UNL A   1      46.624  27.209  25.609  1.00  0.00    -0.014 A 
ATOM     69  C   UNL A   1      47.649  26.455  26.200  1.00  0.00     0.009 A 
ATOM     70  C   UNL A   1      46.750  27.580  24.260  1.00  0.00     0.009 A 
ATOM     71  C   UNL A   1      48.783  26.098  25.464  1.00  0.00     0.001 A 
ATOM     72  C   UNL A   1      47.871  27.202  23.520  1.00  0.00     0.001 A 
ATOM     73  C   UNL A   1      48.892  26.471  24.125  1.00  0.00     0.000 A 
ENDBRANCH  54  68
BRANCH  55  74
ATOM     74  C   UNL A   1      38.864  30.236  31.238  1.00  0.00    -0.014 A 
ATOM     75  C   UNL A   1      38.817  30.172  32.640  1.00  0.00     0.009 A 
ATOM     76  C   UNL A   1      37.719  30.658  30.542  1.00  0.00     0.009 A 
ATOM     77  C   UNL A   1      37.647  30.504  33.326  1.00  0.00     0.001 A 
ATOM     78  C   UNL A   1      36.561  31.016  31.232  1.00  0.00     0.001 A 
ATOM     79  C   UNL A   1      36.522  30.931  32.623  1.00  0.00     0.000 A 
ENDBRANCH  55  74
BRANCH  67  80
ATOM     80  C   UNL A   1      44.666  33.316  28.859  1.00  0.00    -0.014 A 
ATOM     81  C   UNL A   1      44.352  34.273  27.881  1.00  0.00     0.009 A 
ATOM     82  C   UNL A   1      45.567  33.649  29.881  1.00  0.00     0.009 A 
ATOM     83  C   UNL A   1      44.941  35.536  27.918  1.00  0.00     0.001 A 
ATOM     84  C   UNL A   1      46.134  34.922  29.930  1.00  0.00     0.001 A 
ATOM     85  C   UNL A   1      45.829  35.860  28.943  1.00  0.00     0.000 A 
ENDBRANCH  67  80
ENDBRANCH  41  42
ENDBRANCH  34  36
ENDBRANCH  33  34
ENDBRANCH  32  33
ENDBRANCH   1  32
TORSDOF 14
ENDMDL
