MODEL 1
REMARK VINA RESULT:     -10.4      0.000      0.000
REMARK SMILES COC(=O)Cc1nc(NC(=O)[C@H]2CC[C@@H]2C(=O)OCCOC(=O)c2ccc(-c3c4nc(c(-c5ccccc5)c5ccc([nH]5)c(-c5ccccc5)c5nc(c(-c6ccccc6)c6ccc3[nH]6)C=C5)C=C4)cc2)sc1C
REMARK SMILES IDX 18 1 16 2 17 3 15 4 12 5 13 6 14 7 10 8 9 9 11 11 8 12 6 13
REMARK SMILES IDX 7 14 73 15 72 16 74 17 5 18 3 19 4 20 2 21 1 22 19 23 20 24
REMARK SMILES IDX 21 25 22 26 23 27 24 28 25 29 71 30 26 31 70 32 27 33 28 34
REMARK SMILES IDX 29 35 64 36 30 37 69 38 63 39 65 40 31 41 68 42 62 43 61 44
REMARK SMILES IDX 32 46 54 47 39 48 53 49 40 50 43 51 52 52 66 53 41 54 42 55
REMARK SMILES IDX 51 57 67 58 44 59 33 60 34 61 38 62 35 63 37 64 36 65 55 66
REMARK SMILES IDX 56 67 60 68 57 69 59 70 58 71 45 72 46 73 50 74 47 75 49 76
REMARK SMILES IDX 48 77
REMARK H PARENT 9 10 65 45 43 56
REMARK Flexibility Score: inf
ROOT
ATOM      1  O   UNL A   1      31.880  30.112  26.195  1.00  0.00    -0.462 OA
ENDROOT
BRANCH   1   2
ATOM      2  C   UNL A   1      31.670  29.603  24.942  1.00  0.00     0.309 C 
ATOM      3  O   UNL A   1      30.607  29.729  24.337  1.00  0.00    -0.252 OA
BRANCH   2   4
ATOM      4  C   UNL A   1      32.924  28.903  24.358  1.00  0.00     0.111 C 
ATOM      5  C   UNL A   1      32.754  27.430  23.887  1.00  0.00     0.093 C 
ATOM      6  C   UNL A   1      33.481  27.013  25.204  1.00  0.00     0.015 C 
ATOM      7  C   UNL A   1      34.040  28.426  25.314  1.00  0.00     0.017 C 
BRANCH   5   8
ATOM      8  C   UNL A   1      33.398  27.024  22.527  1.00  0.00     0.230 C 
ATOM      9  N   UNL A   1      33.419  25.706  22.111  1.00  0.00    -0.302 N 
ATOM     10  H   UNL A   1      33.898  25.531  21.267  1.00  0.00     0.172 HD
ATOM     11  O   UNL A   1      33.986  27.844  21.805  1.00  0.00    -0.274 OA
BRANCH   9  12
ATOM     12  C   UNL A   1      32.864  24.617  22.715  1.00  0.00     0.189 A 
ATOM     13  C   UNL A   1      32.806  22.788  23.938  1.00  0.00     0.068 A 
ATOM     14  N   UNL A   1      33.515  23.506  22.972  1.00  0.00    -0.224 NA
ATOM     15  C   UNL A   1      31.655  23.434  24.370  1.00  0.00     0.027 A 
ATOM     16  S   UNL A   1      31.223  24.571  23.167  1.00  0.00    -0.102 S 
ATOM     17  C   UNL A   1      30.794  23.269  25.566  1.00  0.00     0.058 C 
BRANCH  13  18
ATOM     18  C   UNL A   1      33.378  21.508  24.453  1.00  0.00     0.180 C 
BRANCH  18  19
ATOM     19  C   UNL A   1      32.502  20.350  24.028  1.00  0.00     0.311 C 
ATOM     20  O   UNL A   1      32.124  20.137  22.884  1.00  0.00    -0.252 OA
BRANCH  19  21
ATOM     21  O   UNL A   1      32.105  19.639  25.122  1.00  0.00    -0.469 OA
ATOM     22  C   UNL A   1      32.705  18.350  25.250  1.00  0.00     0.282 C 
ENDBRANCH  19  21
ENDBRANCH  18  19
ENDBRANCH  13  18
ENDBRANCH   9  12
ENDBRANCH   5   8
ENDBRANCH   2   4
ENDBRANCH   1   2
BRANCH   1  23
ATOM     23  C   UNL A   1      31.462  31.472  26.421  1.00  0.00     0.274 C 
BRANCH  23  24
ATOM     24  C   UNL A   1      32.262  32.101  27.565  1.00  0.00     0.275 C 
BRANCH  24  25
ATOM     25  O   UNL A   1      32.437  33.515  27.358  1.00  0.00    -0.458 OA
BRANCH  25  26
ATOM     26  C   UNL A   1      33.010  34.181  28.387  1.00  0.00     0.338 C 
ATOM     27  O   UNL A   1      32.527  35.079  29.054  1.00  0.00    -0.246 OA
BRANCH  26  28
ATOM     28  C   UNL A   1      34.307  33.566  28.704  1.00  0.00     0.060 A 
ATOM     29  C   UNL A   1      34.422  32.854  29.898  1.00  0.00     0.016 A 
ATOM     30  C   UNL A   1      35.417  33.758  27.883  1.00  0.00     0.016 A 
ATOM     31  C   UNL A   1      35.645  32.312  30.280  1.00  0.00     0.010 A 
ATOM     32  C   UNL A   1      36.651  33.224  28.271  1.00  0.00     0.010 A 
ATOM     33  C   UNL A   1      36.771  32.504  29.475  1.00  0.00    -0.014 A 
BRANCH  33  34
ATOM     34  C   UNL A   1      38.088  32.011  29.934  1.00  0.00     0.031 A 
ATOM     35  C   UNL A   1      38.606  30.699  29.426  1.00  0.00     0.074 A 
ATOM     36  C   UNL A   1      38.829  32.756  30.775  1.00  0.00     0.049 A 
ATOM     37  N   UNL A   1      39.689  30.050  29.769  1.00  0.00    -0.248 NA
ATOM     38  C   UNL A   1      37.799  30.027  28.395  1.00  0.00     0.031 C 
ATOM     39  C   UNL A   1      38.464  34.080  31.280  1.00  0.00     0.029 A 
ATOM     40  N   UNL A   1      40.047  32.500  31.350  1.00  0.00    -0.354 N 
ATOM     41  C   UNL A   1      39.682  28.883  29.016  1.00  0.00     0.074 A 
ATOM     42  C   UNL A   1      38.483  28.909  28.205  1.00  0.00     0.031 C 
ATOM     43  C   UNL A   1      39.441  34.521  32.089  1.00  0.00     0.029 A 
ATOM     44  C   UNL A   1      40.472  33.493  32.195  1.00  0.00     0.049 A 
ATOM     45  H   UNL A   1      40.567  31.682  31.173  1.00  0.00     0.167 HD
ATOM     46  C   UNL A   1      40.591  27.880  29.006  1.00  0.00     0.031 A 
ATOM     47  C   UNL A   1      41.557  33.554  32.990  1.00  0.00     0.031 A 
ATOM     48  C   UNL A   1      41.783  27.860  29.811  1.00  0.00     0.049 A 
ATOM     49  C   UNL A   1      42.514  32.396  33.014  1.00  0.00     0.074 A 
ATOM     50  C   UNL A   1      42.765  26.887  29.877  1.00  0.00     0.029 A 
ATOM     51  N   UNL A   1      42.155  28.864  30.691  1.00  0.00    -0.354 N 
ATOM     52  N   UNL A   1      42.483  31.284  32.320  1.00  0.00    -0.248 NA
ATOM     53  C   UNL A   1      43.652  32.499  33.938  1.00  0.00     0.031 C 
ATOM     54  C   UNL A   1      43.711  27.284  30.829  1.00  0.00     0.029 A 
ATOM     55  C   UNL A   1      43.341  28.526  31.319  1.00  0.00     0.049 A 
ATOM     56  H   UNL A   1      41.651  29.695  30.846  1.00  0.00     0.167 HD
ATOM     57  C   UNL A   1      43.604  30.563  32.709  1.00  0.00     0.074 A 
ATOM     58  C   UNL A   1      44.303  31.370  33.688  1.00  0.00     0.031 C 
ATOM     59  C   UNL A   1      44.018  29.341  32.294  1.00  0.00     0.031 A 
BRANCH  46  60
ATOM     60  C   UNL A   1      40.302  26.699  28.126  1.00  0.00    -0.014 A 
ATOM     61  C   UNL A   1      39.508  25.631  28.571  1.00  0.00     0.009 A 
ATOM     62  C   UNL A   1      40.816  26.667  26.821  1.00  0.00     0.009 A 
ATOM     63  C   UNL A   1      39.261  24.539  27.735  1.00  0.00     0.001 A 
ATOM     64  C   UNL A   1      40.549  25.587  25.979  1.00  0.00     0.001 A 
ATOM     65  C   UNL A   1      39.779  24.520  26.439  1.00  0.00     0.000 A 
ENDBRANCH  46  60
BRANCH  47  66
ATOM     66  C   UNL A   1      41.774  34.739  33.859  1.00  0.00    -0.014 A 
ATOM     67  C   UNL A   1      42.534  35.828  33.407  1.00  0.00     0.009 A 
ATOM     68  C   UNL A   1      41.224  34.783  35.150  1.00  0.00     0.009 A 
ATOM     69  C   UNL A   1      42.752  36.930  34.238  1.00  0.00     0.001 A 
ATOM     70  C   UNL A   1      41.421  35.897  35.968  1.00  0.00     0.001 A 
ATOM     71  C   UNL A   1      42.192  36.966  35.513  1.00  0.00     0.000 A 
ENDBRANCH  47  66
BRANCH  59  72
ATOM     72  C   UNL A   1      45.298  28.819  32.880  1.00  0.00    -0.014 A 
ATOM     73  C   UNL A   1      46.531  29.059  32.255  1.00  0.00     0.009 A 
ATOM     74  C   UNL A   1      45.271  28.108  34.089  1.00  0.00     0.009 A 
ATOM     75  C   UNL A   1      47.712  28.571  32.818  1.00  0.00     0.001 A 
ATOM     76  C   UNL A   1      46.455  27.643  34.661  1.00  0.00     0.001 A 
ATOM     77  C   UNL A   1      47.673  27.867  34.021  1.00  0.00     0.000 A 
ENDBRANCH  59  72
ENDBRANCH  33  34
ENDBRANCH  26  28
ENDBRANCH  25  26
ENDBRANCH  24  25
ENDBRANCH  23  24
ENDBRANCH   1  23
TORSDOF 16
ENDMDL
MODEL 2
REMARK VINA RESULT:     -10.3      2.244      4.112
REMARK SMILES COC(=O)Cc1nc(NC(=O)[C@H]2CC[C@@H]2C(=O)OCCOC(=O)c2ccc(-c3c4nc(c(-c5ccccc5)c5ccc([nH]5)c(-c5ccccc5)c5nc(c(-c6ccccc6)c6ccc3[nH]6)C=C5)C=C4)cc2)sc1C
REMARK SMILES IDX 18 1 16 2 17 3 15 4 12 5 13 6 14 7 10 8 9 9 11 11 8 12 6 13
REMARK SMILES IDX 7 14 73 15 72 16 74 17 5 18 3 19 4 20 2 21 1 22 19 23 20 24
REMARK SMILES IDX 21 25 22 26 23 27 24 28 25 29 71 30 26 31 70 32 27 33 28 34
REMARK SMILES IDX 29 35 64 36 30 37 69 38 63 39 65 40 31 41 68 42 62 43 61 44
REMARK SMILES IDX 32 46 54 47 39 48 53 49 40 50 43 51 52 52 66 53 41 54 42 55
REMARK SMILES IDX 51 57 67 58 44 59 33 60 34 61 38 62 35 63 37 64 36 65 55 66
REMARK SMILES IDX 56 67 60 68 57 69 59 70 58 71 45 72 46 73 50 74 47 75 49 76
REMARK SMILES IDX 48 77
REMARK H PARENT 9 10 65 45 43 56
REMARK Flexibility Score: inf
ROOT
ATOM      1  O   UNL A   1      31.715  30.751  25.844  1.00  0.00    -0.462 OA
ENDROOT
BRANCH   1   2
ATOM      2  C   UNL A   1      32.153  29.516  26.242  1.00  0.00     0.309 C 
ATOM      3  O   UNL A   1      31.806  28.989  27.297  1.00  0.00    -0.252 OA
BRANCH   2   4
ATOM      4  C   UNL A   1      33.085  28.843  25.202  1.00  0.00     0.111 C 
ATOM      5  C   UNL A   1      32.622  27.477  24.618  1.00  0.00     0.093 C 
ATOM      6  C   UNL A   1      33.669  26.812  25.567  1.00  0.00     0.015 C 
ATOM      7  C   UNL A   1      34.382  28.154  25.680  1.00  0.00     0.017 C 
BRANCH   5   8
ATOM      8  C   UNL A   1      32.772  27.256  23.082  1.00  0.00     0.230 C 
ATOM      9  N   UNL A   1      31.832  27.742  22.195  1.00  0.00    -0.302 N 
ATOM     10  H   UNL A   1      31.974  27.507  21.248  1.00  0.00     0.172 HD
ATOM     11  O   UNL A   1      33.687  26.570  22.602  1.00  0.00    -0.274 OA
BRANCH   9  12
ATOM     12  C   UNL A   1      30.733  28.507  22.458  1.00  0.00     0.189 A 
ATOM     13  C   UNL A   1      29.080  29.895  22.027  1.00  0.00     0.068 A 
ATOM     14  N   UNL A   1      30.429  29.607  21.808  1.00  0.00    -0.224 NA
ATOM     15  C   UNL A   1      28.439  28.957  22.827  1.00  0.00     0.027 A 
ATOM     16  S   UNL A   1      29.646  28.129  23.712  1.00  0.00    -0.102 S 
ATOM     17  C   UNL A   1      27.011  28.632  23.054  1.00  0.00     0.058 C 
BRANCH  13  18
ATOM     18  C   UNL A   1      28.470  31.069  21.337  1.00  0.00     0.180 C 
BRANCH  18  19
ATOM     19  C   UNL A   1      28.502  32.273  22.252  1.00  0.00     0.311 C 
ATOM     20  O   UNL A   1      28.883  32.263  23.415  1.00  0.00    -0.252 OA
BRANCH  19  21
ATOM     21  O   UNL A   1      27.942  33.350  21.629  1.00  0.00    -0.469 OA
ATOM     22  C   UNL A   1      27.505  33.108  20.291  1.00  0.00     0.282 C 
ENDBRANCH  19  21
ENDBRANCH  18  19
ENDBRANCH  13  18
ENDBRANCH   9  12
ENDBRANCH   5   8
ENDBRANCH   2   4
ENDBRANCH   1   2
BRANCH   1  23
ATOM     23  C   UNL A   1      31.416  31.698  26.887  1.00  0.00     0.274 C 
BRANCH  23  24
ATOM     24  C   UNL A   1      32.698  32.356  27.403  1.00  0.00     0.275 C 
BRANCH  24  25
ATOM     25  O   UNL A   1      32.579  33.791  27.405  1.00  0.00    -0.458 OA
BRANCH  25  26
ATOM     26  C   UNL A   1      33.131  34.414  28.473  1.00  0.00     0.338 C 
ATOM     27  O   UNL A   1      32.639  35.292  29.159  1.00  0.00    -0.246 OA
BRANCH  26  28
ATOM     28  C   UNL A   1      34.413  33.774  28.800  1.00  0.00     0.060 A 
ATOM     29  C   UNL A   1      34.464  32.935  29.914  1.00  0.00     0.016 A 
ATOM     30  C   UNL A   1      35.569  34.060  28.075  1.00  0.00     0.016 A 
ATOM     31  C   UNL A   1      35.668  32.361  30.309  1.00  0.00     0.010 A 
ATOM     32  C   UNL A   1      36.783  33.493  28.477  1.00  0.00     0.010 A 
ATOM     33  C   UNL A   1      36.838  32.646  29.600  1.00  0.00    -0.014 A 
BRANCH  33  34
ATOM     34  C   UNL A   1      38.130  32.112  30.083  1.00  0.00     0.031 A 
ATOM     35  C   UNL A   1      38.639  30.806  29.548  1.00  0.00     0.074 A 
ATOM     36  C   UNL A   1      38.859  32.813  30.971  1.00  0.00     0.049 A 
ATOM     37  N   UNL A   1      39.698  30.125  29.902  1.00  0.00    -0.248 NA
ATOM     38  C   UNL A   1      37.852  30.185  28.471  1.00  0.00     0.031 C 
ATOM     39  C   UNL A   1      38.503  34.128  31.508  1.00  0.00     0.029 A 
ATOM     40  N   UNL A   1      40.053  32.514  31.574  1.00  0.00    -0.354 N 
ATOM     41  C   UNL A   1      39.692  28.984  29.111  1.00  0.00     0.074 A 
ATOM     42  C   UNL A   1      38.521  29.060  28.265  1.00  0.00     0.031 C 
ATOM     43  C   UNL A   1      39.462  34.522  32.361  1.00  0.00     0.029 A 
ATOM     44  C   UNL A   1      40.470  33.471  32.464  1.00  0.00     0.049 A 
ATOM     45  H   UNL A   1      40.562  31.693  31.387  1.00  0.00     0.167 HD
ATOM     46  C   UNL A   1      40.582  27.963  29.096  1.00  0.00     0.031 A 
ATOM     47  C   UNL A   1      41.530  33.484  33.294  1.00  0.00     0.031 A 
ATOM     48  C   UNL A   1      41.748  27.893  29.936  1.00  0.00     0.049 A 
ATOM     49  C   UNL A   1      42.464  32.307  33.309  1.00  0.00     0.074 A 
ATOM     50  C   UNL A   1      42.708  26.899  30.000  1.00  0.00     0.029 A 
ATOM     51  N   UNL A   1      42.111  28.861  30.861  1.00  0.00    -0.354 N 
ATOM     52  N   UNL A   1      42.434  31.219  32.578  1.00  0.00    -0.248 NA
ATOM     53  C   UNL A   1      43.575  32.357  34.270  1.00  0.00     0.031 C 
ATOM     54  C   UNL A   1      43.631  27.246  30.993  1.00  0.00     0.029 A 
ATOM     55  C   UNL A   1      43.270  28.478  31.513  1.00  0.00     0.049 A 
ATOM     56  H   UNL A   1      41.618  29.696  31.027  1.00  0.00     0.167 HD
ATOM     57  C   UNL A   1      43.528  30.464  32.977  1.00  0.00     0.074 A 
ATOM     58  C   UNL A   1      44.211  31.224  34.003  1.00  0.00     0.031 C 
ATOM     59  C   UNL A   1      43.931  29.248  32.535  1.00  0.00     0.031 A 
BRANCH  46  60
ATOM     60  C   UNL A   1      40.298  26.818  28.169  1.00  0.00    -0.014 A 
ATOM     61  C   UNL A   1      39.523  25.721  28.575  1.00  0.00     0.009 A 
ATOM     62  C   UNL A   1      40.799  26.849  26.858  1.00  0.00     0.009 A 
ATOM     63  C   UNL A   1      39.280  24.664  27.696  1.00  0.00     0.001 A 
ATOM     64  C   UNL A   1      40.536  25.803  25.973  1.00  0.00     0.001 A 
ATOM     65  C   UNL A   1      39.784  24.707  26.395  1.00  0.00     0.000 A 
ENDBRANCH  46  60
BRANCH  47  66
ATOM     66  C   UNL A   1      41.743  34.636  34.208  1.00  0.00    -0.014 A 
ATOM     67  C   UNL A   1      41.179  34.643  35.493  1.00  0.00     0.009 A 
ATOM     68  C   UNL A   1      42.510  35.736  33.796  1.00  0.00     0.009 A 
ATOM     69  C   UNL A   1      41.366  35.739  36.339  1.00  0.00     0.001 A 
ATOM     70  C   UNL A   1      42.718  36.818  34.653  1.00  0.00     0.001 A 
ATOM     71  C   UNL A   1      42.139  36.821  35.921  1.00  0.00     0.000 A 
ENDBRANCH  47  66
BRANCH  59  72
ATOM     72  C   UNL A   1      45.182  28.681  33.142  1.00  0.00    -0.014 A 
ATOM     73  C   UNL A   1      45.127  27.841  34.264  1.00  0.00     0.009 A 
ATOM     74  C   UNL A   1      46.427  28.965  32.561  1.00  0.00     0.009 A 
ATOM     75  C   UNL A   1      46.301  27.319  34.810  1.00  0.00     0.001 A 
ATOM     76  C   UNL A   1      47.596  28.423  33.094  1.00  0.00     0.001 A 
ATOM     77  C   UNL A   1      47.533  27.606  34.223  1.00  0.00     0.000 A 
ENDBRANCH  59  72
ENDBRANCH  33  34
ENDBRANCH  26  28
ENDBRANCH  25  26
ENDBRANCH  24  25
ENDBRANCH  23  24
ENDBRANCH   1  23
TORSDOF 16
ENDMDL
MODEL 3
REMARK VINA RESULT:     -10.3      2.575      6.984
REMARK SMILES COC(=O)Cc1nc(NC(=O)[C@H]2CC[C@@H]2C(=O)OCCOC(=O)c2ccc(-c3c4nc(c(-c5ccccc5)c5ccc([nH]5)c(-c5ccccc5)c5nc(c(-c6ccccc6)c6ccc3[nH]6)C=C5)C=C4)cc2)sc1C
REMARK SMILES IDX 18 1 16 2 17 3 15 4 12 5 13 6 14 7 10 8 9 9 11 11 8 12 6 13
REMARK SMILES IDX 7 14 73 15 72 16 74 17 5 18 3 19 4 20 2 21 1 22 19 23 20 24
REMARK SMILES IDX 21 25 22 26 23 27 24 28 25 29 71 30 26 31 70 32 27 33 28 34
REMARK SMILES IDX 29 35 64 36 30 37 69 38 63 39 65 40 31 41 68 42 62 43 61 44
REMARK SMILES IDX 32 46 54 47 39 48 53 49 40 50 43 51 52 52 66 53 41 54 42 55
REMARK SMILES IDX 51 57 67 58 44 59 33 60 34 61 38 62 35 63 37 64 36 65 55 66
REMARK SMILES IDX 56 67 60 68 57 69 59 70 58 71 45 72 46 73 50 74 47 75 49 76
REMARK SMILES IDX 48 77
REMARK H PARENT 9 10 65 45 43 56
REMARK Flexibility Score: inf
ROOT
ATOM      1  O   UNL A   1      32.162  27.102  26.486  1.00  0.00    -0.462 OA
ENDROOT
BRANCH   1   2
ATOM      2  C   UNL A   1      31.314  26.693  25.492  1.00  0.00     0.309 C 
ATOM      3  O   UNL A   1      30.234  26.150  25.713  1.00  0.00    -0.252 OA
BRANCH   2   4
ATOM      4  C   UNL A   1      31.841  27.032  24.074  1.00  0.00     0.111 C 
ATOM      5  C   UNL A   1      33.210  26.418  23.663  1.00  0.00     0.093 C 
ATOM      6  C   UNL A   1      33.826  27.829  23.923  1.00  0.00     0.015 C 
ATOM      7  C   UNL A   1      32.433  28.433  23.800  1.00  0.00     0.017 C 
BRANCH   5   8
ATOM      8  C   UNL A   1      33.333  25.809  22.233  1.00  0.00     0.230 C 
ATOM      9  N   UNL A   1      33.185  24.452  22.019  1.00  0.00    -0.302 N 
ATOM     10  H   UNL A   1      33.336  24.145  21.095  1.00  0.00     0.172 HD
ATOM     11  O   UNL A   1      33.647  26.496  21.250  1.00  0.00    -0.274 OA
BRANCH   9  12
ATOM     12  C   UNL A   1      32.855  23.482  22.920  1.00  0.00     0.189 A 
ATOM     13  C   UNL A   1      33.178  22.027  24.539  1.00  0.00     0.068 A 
ATOM     14  N   UNL A   1      33.692  22.572  23.361  1.00  0.00    -0.224 NA
ATOM     15  C   UNL A   1      31.970  22.593  24.927  1.00  0.00     0.027 A 
ATOM     16  S   UNL A   1      31.278  23.322  23.543  1.00  0.00    -0.102 S 
ATOM     17  C   UNL A   1      31.232  22.615  26.213  1.00  0.00     0.058 C 
BRANCH  13  18
ATOM     18  C   UNL A   1      33.983  21.009  25.278  1.00  0.00     0.180 C 
BRANCH  18  19
ATOM     19  C   UNL A   1      35.233  21.655  25.834  1.00  0.00     0.311 C 
ATOM     20  O   UNL A   1      35.273  22.738  26.401  1.00  0.00    -0.252 OA
BRANCH  19  21
ATOM     21  O   UNL A   1      36.327  20.905  25.515  1.00  0.00    -0.469 OA
ATOM     22  C   UNL A   1      37.550  21.636  25.424  1.00  0.00     0.282 C 
ENDBRANCH  19  21
ENDBRANCH  18  19
ENDBRANCH  13  18
ENDBRANCH   9  12
ENDBRANCH   5   8
ENDBRANCH   2   4
ENDBRANCH   1   2
BRANCH   1  23
ATOM     23  C   UNL A   1      31.667  28.115  27.383  1.00  0.00     0.274 C 
BRANCH  23  24
ATOM     24  C   UNL A   1      32.474  29.408  27.237  1.00  0.00     0.275 C 
BRANCH  24  25
ATOM     25  O   UNL A   1      33.838  29.216  27.655  1.00  0.00    -0.458 OA
BRANCH  25  26
ATOM     26  C   UNL A   1      34.509  30.349  27.971  1.00  0.00     0.338 C 
ATOM     27  O   UNL A   1      34.061  31.478  28.059  1.00  0.00    -0.246 OA
BRANCH  26  28
ATOM     28  C   UNL A   1      35.890  30.011  28.340  1.00  0.00     0.060 A 
ATOM     29  C   UNL A   1      36.880  30.131  27.363  1.00  0.00     0.016 A 
ATOM     30  C   UNL A   1      36.198  29.501  29.601  1.00  0.00     0.016 A 
ATOM     31  C   UNL A   1      38.191  29.758  27.639  1.00  0.00     0.010 A 
ATOM     32  C   UNL A   1      37.513  29.114  29.876  1.00  0.00     0.010 A 
ATOM     33  C   UNL A   1      38.514  29.235  28.894  1.00  0.00    -0.014 A 
BRANCH  33  34
ATOM     34  C   UNL A   1      39.888  28.748  29.148  1.00  0.00     0.031 A 
ATOM     35  C   UNL A   1      40.873  29.639  29.845  1.00  0.00     0.074 A 
ATOM     36  C   UNL A   1      40.237  27.500  28.787  1.00  0.00     0.049 A 
ATOM     37  N   UNL A   1      42.143  29.438  30.084  1.00  0.00    -0.248 NA
ATOM     38  C   UNL A   1      40.361  30.927  30.338  1.00  0.00     0.031 C 
ATOM     39  C   UNL A   1      39.346  26.516  28.170  1.00  0.00     0.029 A 
ATOM     40  N   UNL A   1      41.438  26.847  28.892  1.00  0.00    -0.354 N 
ATOM     41  C   UNL A   1      42.589  30.582  30.732  1.00  0.00     0.074 A 
ATOM     42  C   UNL A   1      41.457  31.476  30.842  1.00  0.00     0.031 C 
ATOM     43  C   UNL A   1      40.033  25.383  27.952  1.00  0.00     0.029 A 
ATOM     44  C   UNL A   1      41.418  25.578  28.371  1.00  0.00     0.049 A 
ATOM     45  H   UNL A   1      42.238  27.249  29.302  1.00  0.00     0.167 HD
ATOM     46  C   UNL A   1      43.832  30.861  31.191  1.00  0.00     0.031 A 
ATOM     47  C   UNL A   1      42.413  24.684  28.219  1.00  0.00     0.031 A 
ATOM     48  C   UNL A   1      44.955  29.968  31.084  1.00  0.00     0.049 A 
ATOM     49  C   UNL A   1      43.799  25.046  28.672  1.00  0.00     0.074 A 
ATOM     50  C   UNL A   1      46.256  30.161  31.512  1.00  0.00     0.029 A 
ATOM     51  N   UNL A   1      44.905  28.709  30.505  1.00  0.00    -0.354 N 
ATOM     52  N   UNL A   1      44.217  26.143  29.258  1.00  0.00    -0.248 NA
ATOM     53  C   UNL A   1      44.853  24.050  28.436  1.00  0.00     0.031 C 
ATOM     54  C   UNL A   1      47.005  29.033  31.157  1.00  0.00     0.029 A 
ATOM     55  C   UNL A   1      46.158  28.121  30.549  1.00  0.00     0.049 A 
ATOM     56  H   UNL A   1      44.100  28.294  30.122  1.00  0.00     0.167 HD
ATOM     57  C   UNL A   1      45.576  25.961  29.475  1.00  0.00     0.074 A 
ATOM     58  C   UNL A   1      45.910  24.644  28.974  1.00  0.00     0.031 C 
ATOM     59  C   UNL A   1      46.469  26.811  30.039  1.00  0.00     0.031 A 
BRANCH  46  60
ATOM     60  C   UNL A   1      44.048  32.211  31.810  1.00  0.00    -0.014 A 
ATOM     61  C   UNL A   1      43.889  32.419  33.189  1.00  0.00     0.009 A 
ATOM     62  C   UNL A   1      44.438  33.289  31.000  1.00  0.00     0.009 A 
ATOM     63  C   UNL A   1      44.088  33.687  33.739  1.00  0.00     0.001 A 
ATOM     64  C   UNL A   1      44.659  34.550  31.555  1.00  0.00     0.001 A 
ATOM     65  C   UNL A   1      44.476  34.750  32.922  1.00  0.00     0.000 A 
ENDBRANCH  46  60
BRANCH  47  66
ATOM     66  C   UNL A   1      42.142  23.374  27.574  1.00  0.00    -0.014 A 
ATOM     67  C   UNL A   1      41.576  22.320  28.307  1.00  0.00     0.009 A 
ATOM     68  C   UNL A   1      42.453  23.171  26.221  1.00  0.00     0.009 A 
ATOM     69  C   UNL A   1      41.343  21.083  27.699  1.00  0.00     0.001 A 
ATOM     70  C   UNL A   1      42.194  21.944  25.609  1.00  0.00     0.001 A 
ATOM     71  C   UNL A   1      41.647  20.898  26.351  1.00  0.00     0.000 A 
ENDBRANCH  47  66
BRANCH  59  72
ATOM     72  C   UNL A   1      47.885  26.327  30.166  1.00  0.00    -0.014 A 
ATOM     73  C   UNL A   1      48.794  26.459  29.105  1.00  0.00     0.009 A 
ATOM     74  C   UNL A   1      48.321  25.762  31.374  1.00  0.00     0.009 A 
ATOM     75  C   UNL A   1      50.108  26.009  29.245  1.00  0.00     0.001 A 
ATOM     76  C   UNL A   1      49.641  25.335  31.518  1.00  0.00     0.001 A 
ATOM     77  C   UNL A   1      50.531  25.451  30.450  1.00  0.00     0.000 A 
ENDBRANCH  59  72
ENDBRANCH  33  34
ENDBRANCH  26  28
ENDBRANCH  25  26
ENDBRANCH  24  25
ENDBRANCH  23  24
ENDBRANCH   1  23
TORSDOF 16
ENDMDL
