MODEL 1
REMARK VINA RESULT:     -11.1      0.000      0.000
REMARK SMILES CC(C)(C)OC(=O)N1CCN(C(=O)c2ccc3c(c2)OCO3)[C@H](C(=O)OCCOC(=O)c2ccc(-c3c4nc(c(-c5ccccc5)c5ccc([nH]5)c(-c5ccccc5)c5nc(c(-c6ccccc6)c6ccc3[nH]6)C=C5)C=C4)cc2)C1
REMARK SMILES IDX 27 1 26 2 24 3 25 4 23 5 8 6 9 7 80 8 10 9 11 10 6 11 7 12
REMARK SMILES IDX 5 13 2 14 1 15 3 16 4 17 12 18 13 19 14 20 15 21 19 22 16 23
REMARK SMILES IDX 18 24 17 25 20 26 22 27 21 28 28 29 29 30 30 31 31 32 32 33
REMARK SMILES IDX 33 34 79 35 34 36 78 37 35 38 36 39 37 40 72 41 38 42 77 43
REMARK SMILES IDX 71 44 73 45 39 46 76 47 70 48 69 49 40 51 62 52 47 53 61 54
REMARK SMILES IDX 48 55 51 56 60 57 74 58 49 59 50 60 59 62 75 63 52 64 41 65
REMARK SMILES IDX 42 66 46 67 43 68 45 69 44 70 63 71 64 72 68 73 65 74 67 75
REMARK SMILES IDX 66 76 53 77 54 78 58 79 55 80 57 81 56 82
REMARK H PARENT 73 50 51 61
REMARK Flexibility Score: inf
ROOT
ATOM      1  C   UNL A   1      33.368  28.673  26.657  1.00  0.00     0.274 C 
ENDROOT
BRANCH   1   2
ATOM      2  O   UNL A   1      33.180  28.690  25.235  1.00  0.00    -0.460 OA
BRANCH   2   3
ATOM      3  C   UNL A   1      33.476  27.561  24.523  1.00  0.00     0.330 C 
ATOM      4  O   UNL A   1      34.093  27.546  23.468  1.00  0.00    -0.250 OA
BRANCH   3   5
ATOM      5  C   UNL A   1      33.105  26.316  25.355  1.00  0.00     0.215 C 
ATOM      6  N   UNL A   1      33.916  23.962  25.764  1.00  0.00    -0.304 N 
ATOM      7  C   UNL A   1      32.637  23.410  25.344  1.00  0.00     0.144 C 
ATOM      8  C   UNL A   1      34.228  25.255  25.177  1.00  0.00     0.160 C 
ATOM      9  C   UNL A   1      31.512  24.432  25.664  1.00  0.00     0.142 C 
ATOM     10  N   UNL A   1      31.738  25.780  25.070  1.00  0.00    -0.321 N 
BRANCH   6  11
ATOM     11  C   UNL A   1      34.812  23.239  26.517  1.00  0.00     0.410 C 
ATOM     12  O   UNL A   1      34.524  22.686  27.570  1.00  0.00    -0.224 OA
BRANCH  11  13
ATOM     13  O   UNL A   1      36.051  23.302  25.979  1.00  0.00    -0.444 OA
BRANCH  13  14
ATOM     14  C   UNL A   1      36.635  22.280  25.127  1.00  0.00     0.106 C 
ATOM     15  C   UNL A   1      38.046  22.083  25.701  1.00  0.00     0.056 C 
ATOM     16  C   UNL A   1      36.733  22.838  23.707  1.00  0.00     0.056 C 
ATOM     17  C   UNL A   1      35.915  20.927  25.139  1.00  0.00     0.056 C 
ENDBRANCH  13  14
ENDBRANCH  11  13
ENDBRANCH   6  11
BRANCH  10  18
ATOM     18  C   UNL A   1      31.274  25.864  23.760  1.00  0.00     0.254 C 
ATOM     19  O   UNL A   1      31.684  25.044  22.952  1.00  0.00    -0.269 OA
BRANCH  18  20
ATOM     20  C   UNL A   1      30.310  26.892  23.270  1.00  0.00     0.044 A 
ATOM     21  C   UNL A   1      29.011  26.835  23.824  1.00  0.00     0.018 A 
ATOM     22  C   UNL A   1      30.627  27.968  22.445  1.00  0.00     0.064 A 
ATOM     23  C   UNL A   1      28.004  27.751  23.555  1.00  0.00     0.051 A 
ATOM     24  C   UNL A   1      29.619  28.904  22.214  1.00  0.00     0.166 A 
ATOM     25  C   UNL A   1      28.349  28.788  22.745  1.00  0.00     0.165 A 
ATOM     26  O   UNL A   1      29.737  30.051  21.484  1.00  0.00    -0.454 OA
ATOM     27  O   UNL A   1      27.518  29.803  22.402  1.00  0.00    -0.454 OA
ATOM     28  C   UNL A   1      28.407  30.609  21.613  1.00  0.00     0.468 C 
ENDBRANCH  18  20
ENDBRANCH  10  18
ENDBRANCH   3   5
ENDBRANCH   2   3
ENDBRANCH   1   2
BRANCH   1  29
ATOM     29  C   UNL A   1      32.914  30.036  27.244  1.00  0.00     0.275 C 
BRANCH  29  30
ATOM     30  O   UNL A   1      33.966  31.043  27.208  1.00  0.00    -0.458 OA
BRANCH  30  31
ATOM     31  C   UNL A   1      34.503  31.421  28.412  1.00  0.00     0.338 C 
ATOM     32  O   UNL A   1      34.118  32.360  29.091  1.00  0.00    -0.246 OA
BRANCH  31  33
ATOM     33  C   UNL A   1      35.811  30.730  28.664  1.00  0.00     0.060 A 
ATOM     34  C   UNL A   1      36.105  30.068  29.856  1.00  0.00     0.016 A 
ATOM     35  C   UNL A   1      36.732  30.645  27.607  1.00  0.00     0.016 A 
ATOM     36  C   UNL A   1      37.236  29.224  29.944  1.00  0.00     0.010 A 
ATOM     37  C   UNL A   1      37.877  29.826  27.704  1.00  0.00     0.010 A 
ATOM     38  C   UNL A   1      38.137  29.090  28.871  1.00  0.00    -0.014 A 
BRANCH  38  39
ATOM     39  C   UNL A   1      39.493  28.505  29.128  1.00  0.00     0.031 A 
ATOM     40  C   UNL A   1      40.406  29.347  29.988  1.00  0.00     0.074 A 
ATOM     41  C   UNL A   1      39.931  27.295  28.714  1.00  0.00     0.049 A 
ATOM     42  N   UNL A   1      41.605  29.092  30.447  1.00  0.00    -0.248 NA
ATOM     43  C   UNL A   1      39.870  30.657  30.400  1.00  0.00     0.031 C 
ATOM     44  C   UNL A   1      39.175  26.320  27.928  1.00  0.00     0.029 A 
ATOM     45  N   UNL A   1      41.145  26.667  28.929  1.00  0.00    -0.354 N 
ATOM     46  C   UNL A   1      41.942  30.191  31.225  1.00  0.00     0.074 A 
ATOM     47  C   UNL A   1      40.846  31.128  31.152  1.00  0.00     0.031 C 
ATOM     48  C   UNL A   1      39.934  25.219  27.744  1.00  0.00     0.029 A 
ATOM     49  C   UNL A   1      41.242  25.406  28.378  1.00  0.00     0.049 A 
ATOM     50  H   UNL A   1      41.880  27.086  29.433  1.00  0.00     0.167 HD
ATOM     51  C   UNL A   1      43.061  30.423  31.949  1.00  0.00     0.031 A 
ATOM     52  C   UNL A   1      42.261  24.515  28.386  1.00  0.00     0.031 A 
ATOM     53  C   UNL A   1      44.201  29.560  31.986  1.00  0.00     0.049 A 
ATOM     54  C   UNL A   1      43.560  24.856  29.094  1.00  0.00     0.074 A 
ATOM     55  C   UNL A   1      45.413  29.764  32.620  1.00  0.00     0.029 A 
ATOM     56  N   UNL A   1      44.275  28.334  31.349  1.00  0.00    -0.354 N 
ATOM     57  N   UNL A   1      43.858  25.899  29.832  1.00  0.00    -0.248 NA
ATOM     58  C   UNL A   1      44.667  23.888  28.969  1.00  0.00     0.031 C 
ATOM     59  C   UNL A   1      46.239  28.673  32.333  1.00  0.00     0.029 A 
ATOM     60  C   UNL A   1      45.519  27.771  31.566  1.00  0.00     0.049 A 
ATOM     61  H   UNL A   1      43.551  27.925  30.820  1.00  0.00     0.167 HD
ATOM     62  C   UNL A   1      45.160  25.693  30.281  1.00  0.00     0.074 A 
ATOM     63  C   UNL A   1      45.595  24.421  29.752  1.00  0.00     0.031 C 
ATOM     64  C   UNL A   1      45.932  26.492  31.058  1.00  0.00     0.031 A 
BRANCH  51  65
ATOM     65  C   UNL A   1      43.098  31.710  32.716  1.00  0.00    -0.014 A 
ATOM     66  C   UNL A   1      43.614  32.878  32.132  1.00  0.00     0.009 A 
ATOM     67  C   UNL A   1      42.659  31.741  34.047  1.00  0.00     0.009 A 
ATOM     68  C   UNL A   1      43.723  34.047  32.883  1.00  0.00     0.001 A 
ATOM     69  C   UNL A   1      42.745  32.919  34.786  1.00  0.00     0.001 A 
ATOM     70  C   UNL A   1      43.286  34.068  34.208  1.00  0.00     0.000 A 
ENDBRANCH  51  65
BRANCH  52  71
ATOM     71  C   UNL A   1      42.160  23.196  27.685  1.00  0.00    -0.014 A 
ATOM     72  C   UNL A   1      42.604  23.049  26.357  1.00  0.00     0.009 A 
ATOM     73  C   UNL A   1      41.497  22.115  28.287  1.00  0.00     0.009 A 
ATOM     74  C   UNL A   1      42.347  21.873  25.640  1.00  0.00     0.001 A 
ATOM     75  C   UNL A   1      41.270  20.930  27.579  1.00  0.00     0.001 A 
ATOM     76  C   UNL A   1      41.681  20.815  26.253  1.00  0.00     0.000 A 
ENDBRANCH  52  71
BRANCH  64  77
ATOM     77  C   UNL A   1      47.306  26.010  31.433  1.00  0.00    -0.014 A 
ATOM     78  C   UNL A   1      48.399  26.172  30.569  1.00  0.00     0.009 A 
ATOM     79  C   UNL A   1      47.524  25.465  32.709  1.00  0.00     0.009 A 
ATOM     80  C   UNL A   1      49.679  25.777  30.967  1.00  0.00     0.001 A 
ATOM     81  C   UNL A   1      48.808  25.096  33.114  1.00  0.00     0.001 A 
ATOM     82  C   UNL A   1      49.883  25.246  32.240  1.00  0.00     0.000 A 
ENDBRANCH  64  77
ENDBRANCH  38  39
ENDBRANCH  31  33
ENDBRANCH  30  31
ENDBRANCH  29  30
ENDBRANCH   1  29
TORSDOF 16
ENDMDL
MODEL 2
REMARK VINA RESULT:     -11.1      2.171      6.634
REMARK SMILES CC(C)(C)OC(=O)N1CCN(C(=O)c2ccc3c(c2)OCO3)[C@H](C(=O)OCCOC(=O)c2ccc(-c3c4nc(c(-c5ccccc5)c5ccc([nH]5)c(-c5ccccc5)c5nc(c(-c6ccccc6)c6ccc3[nH]6)C=C5)C=C4)cc2)C1
REMARK SMILES IDX 27 1 26 2 24 3 25 4 23 5 8 6 9 7 80 8 10 9 11 10 6 11 7 12
REMARK SMILES IDX 5 13 2 14 1 15 3 16 4 17 12 18 13 19 14 20 15 21 19 22 16 23
REMARK SMILES IDX 18 24 17 25 20 26 22 27 21 28 28 29 29 30 30 31 31 32 32 33
REMARK SMILES IDX 33 34 79 35 34 36 78 37 35 38 36 39 37 40 72 41 38 42 77 43
REMARK SMILES IDX 71 44 73 45 39 46 76 47 70 48 69 49 40 51 62 52 47 53 61 54
REMARK SMILES IDX 48 55 51 56 60 57 74 58 49 59 50 60 59 62 75 63 52 64 41 65
REMARK SMILES IDX 42 66 46 67 43 68 45 69 44 70 63 71 64 72 68 73 65 74 67 75
REMARK SMILES IDX 66 76 53 77 54 78 58 79 55 80 57 81 56 82
REMARK H PARENT 73 50 51 61
REMARK Flexibility Score: inf
ROOT
ATOM      1  C   UNL A   1      32.631  30.952  26.923  1.00  0.00     0.274 C 
ENDROOT
BRANCH   1   2
ATOM      2  O   UNL A   1      31.728  29.978  26.385  1.00  0.00    -0.460 OA
BRANCH   2   3
ATOM      3  C   UNL A   1      32.188  29.119  25.426  1.00  0.00     0.330 C 
ATOM      4  O   UNL A   1      33.203  29.292  24.766  1.00  0.00    -0.250 OA
BRANCH   3   5
ATOM      5  C   UNL A   1      31.360  27.818  25.459  1.00  0.00     0.215 C 
ATOM      6  N   UNL A   1      31.651  25.340  25.087  1.00  0.00    -0.304 N 
ATOM      7  C   UNL A   1      30.630  25.339  24.051  1.00  0.00     0.144 C 
ATOM      8  C   UNL A   1      32.325  26.616  25.257  1.00  0.00     0.160 C 
ATOM      9  C   UNL A   1      29.595  26.458  24.354  1.00  0.00     0.142 C 
ATOM     10  N   UNL A   1      30.203  27.810  24.512  1.00  0.00    -0.321 N 
BRANCH   6  11
ATOM     11  C   UNL A   1      32.046  24.187  25.724  1.00  0.00     0.410 C 
ATOM     12  O   UNL A   1      31.918  23.996  26.926  1.00  0.00    -0.224 OA
BRANCH  11  13
ATOM     13  O   UNL A   1      32.662  23.349  24.860  1.00  0.00    -0.444 OA
BRANCH  13  14
ATOM     14  C   UNL A   1      34.080  23.383  24.544  1.00  0.00     0.106 C 
ATOM     15  C   UNL A   1      34.448  21.906  24.337  1.00  0.00     0.056 C 
ATOM     16  C   UNL A   1      34.829  23.932  25.759  1.00  0.00     0.056 C 
ATOM     17  C   UNL A   1      34.450  24.155  23.273  1.00  0.00     0.056 C 
ENDBRANCH  13  14
ENDBRANCH  11  13
ENDBRANCH   6  11
BRANCH  10  18
ATOM     18  C   UNL A   1      30.366  28.461  23.291  1.00  0.00     0.254 C 
ATOM     19  O   UNL A   1      31.192  28.015  22.509  1.00  0.00    -0.269 OA
BRANCH  18  20
ATOM     20  C   UNL A   1      29.601  29.671  22.871  1.00  0.00     0.044 A 
ATOM     21  C   UNL A   1      29.500  30.702  23.831  1.00  0.00     0.018 A 
ATOM     22  C   UNL A   1      29.123  29.918  21.587  1.00  0.00     0.064 A 
ATOM     23  C   UNL A   1      28.901  31.933  23.600  1.00  0.00     0.051 A 
ATOM     24  C   UNL A   1      28.559  31.172  21.354  1.00  0.00     0.166 A 
ATOM     25  C   UNL A   1      28.444  32.139  22.335  1.00  0.00     0.165 A 
ATOM     26  O   UNL A   1      28.081  31.632  20.162  1.00  0.00    -0.454 OA
ATOM     27  O   UNL A   1      27.868  33.289  21.905  1.00  0.00    -0.454 OA
ATOM     28  C   UNL A   1      27.653  32.968  20.522  1.00  0.00     0.468 C 
ENDBRANCH  18  20
ENDBRANCH  10  18
ENDBRANCH   3   5
ENDBRANCH   2   3
ENDBRANCH   1   2
BRANCH   1  29
ATOM     29  C   UNL A   1      31.842  32.249  27.250  1.00  0.00     0.275 C 
BRANCH  29  30
ATOM     30  O   UNL A   1      32.656  33.451  27.120  1.00  0.00    -0.458 OA
BRANCH  30  31
ATOM     31  C   UNL A   1      32.998  34.095  28.280  1.00  0.00     0.338 C 
ATOM     32  O   UNL A   1      32.457  35.101  28.713  1.00  0.00    -0.246 OA
BRANCH  31  33
ATOM     33  C   UNL A   1      34.309  33.596  28.812  1.00  0.00     0.060 A 
ATOM     34  C   UNL A   1      34.424  32.884  30.007  1.00  0.00     0.016 A 
ATOM     35  C   UNL A   1      35.453  33.748  28.011  1.00  0.00     0.016 A 
ATOM     36  C   UNL A   1      35.631  32.221  30.328  1.00  0.00     0.010 A 
ATOM     37  C   UNL A   1      36.666  33.111  28.346  1.00  0.00     0.010 A 
ATOM     38  C   UNL A   1      36.768  32.324  29.505  1.00  0.00    -0.014 A 
BRANCH  38  39
ATOM     39  C   UNL A   1      38.105  31.935  30.059  1.00  0.00     0.031 A 
ATOM     40  C   UNL A   1      38.625  30.591  29.605  1.00  0.00     0.074 A 
ATOM     41  C   UNL A   1      38.886  32.692  30.862  1.00  0.00     0.049 A 
ATOM     42  N   UNL A   1      39.769  30.004  29.847  1.00  0.00    -0.248 NA
ATOM     43  C   UNL A   1      37.721  29.814  28.737  1.00  0.00     0.031 C 
ATOM     44  C   UNL A   1      38.581  34.034  31.355  1.00  0.00     0.029 A 
ATOM     45  N   UNL A   1      40.137  32.428  31.392  1.00  0.00    -0.354 N 
ATOM     46  C   UNL A   1      39.730  28.814  29.132  1.00  0.00     0.074 A 
ATOM     47  C   UNL A   1      38.445  28.742  28.478  1.00  0.00     0.031 C 
ATOM     48  C   UNL A   1      39.619  34.477  32.097  1.00  0.00     0.029 A 
ATOM     49  C   UNL A   1      40.661  33.450  32.155  1.00  0.00     0.049 A 
ATOM     50  H   UNL A   1      40.613  31.579  31.237  1.00  0.00     0.167 HD
ATOM     51  C   UNL A   1      40.671  27.850  29.014  1.00  0.00     0.031 A 
ATOM     52  C   UNL A   1      41.838  33.542  32.818  1.00  0.00     0.031 A 
ATOM     53  C   UNL A   1      41.923  27.843  29.705  1.00  0.00     0.049 A 
ATOM     54  C   UNL A   1      42.822  32.387  32.779  1.00  0.00     0.074 A 
ATOM     55  C   UNL A   1      42.895  26.860  29.714  1.00  0.00     0.029 A 
ATOM     56  N   UNL A   1      42.369  28.865  30.524  1.00  0.00    -0.354 N 
ATOM     57  N   UNL A   1      42.771  31.271  32.091  1.00  0.00    -0.248 NA
ATOM     58  C   UNL A   1      44.034  32.508  33.613  1.00  0.00     0.031 C 
ATOM     59  C   UNL A   1      43.918  27.271  30.573  1.00  0.00     0.029 A 
ATOM     60  C   UNL A   1      43.602  28.532  31.053  1.00  0.00     0.049 A 
ATOM     61  H   UNL A   1      41.883  29.702  30.703  1.00  0.00     0.167 HD
ATOM     62  C   UNL A   1      43.948  30.585  32.381  1.00  0.00     0.074 A 
ATOM     63  C   UNL A   1      44.706  31.411  33.292  1.00  0.00     0.031 C 
ATOM     64  C   UNL A   1      44.361  29.373  31.937  1.00  0.00     0.031 A 
BRANCH  51  65
ATOM     65  C   UNL A   1      40.324  26.693  28.126  1.00  0.00    -0.014 A 
ATOM     66  C   UNL A   1      39.525  25.641  28.599  1.00  0.00     0.009 A 
ATOM     67  C   UNL A   1      40.842  26.634  26.825  1.00  0.00     0.009 A 
ATOM     68  C   UNL A   1      39.280  24.530  27.794  1.00  0.00     0.001 A 
ATOM     69  C   UNL A   1      40.574  25.533  26.013  1.00  0.00     0.001 A 
ATOM     70  C   UNL A   1      39.802  24.478  26.501  1.00  0.00     0.000 A 
ENDBRANCH  51  65
BRANCH  52  71
ATOM     71  C   UNL A   1      42.195  34.752  33.625  1.00  0.00    -0.014 A 
ATOM     72  C   UNL A   1      41.719  34.908  34.941  1.00  0.00     0.009 A 
ATOM     73  C   UNL A   1      42.899  35.817  33.042  1.00  0.00     0.009 A 
ATOM     74  C   UNL A   1      41.898  36.114  35.630  1.00  0.00     0.001 A 
ATOM     75  C   UNL A   1      43.105  37.009  33.746  1.00  0.00     0.001 A 
ATOM     76  C   UNL A   1      42.592  37.162  35.032  1.00  0.00     0.000 A 
ENDBRANCH  52  71
BRANCH  64  77
ATOM     77  C   UNL A   1      45.709  28.873  32.380  1.00  0.00    -0.014 A 
ATOM     78  C   UNL A   1      45.854  28.075  33.525  1.00  0.00     0.009 A 
ATOM     79  C   UNL A   1      46.839  29.133  31.586  1.00  0.00     0.009 A 
ATOM     80  C   UNL A   1      47.106  27.568  33.878  1.00  0.00     0.001 A 
ATOM     81  C   UNL A   1      48.083  28.603  31.927  1.00  0.00     0.001 A 
ATOM     82  C   UNL A   1      48.218  27.825  33.076  1.00  0.00     0.000 A 
ENDBRANCH  64  77
ENDBRANCH  38  39
ENDBRANCH  31  33
ENDBRANCH  30  31
ENDBRANCH  29  30
ENDBRANCH   1  29
TORSDOF 16
ENDMDL
MODEL 3
REMARK VINA RESULT:     -11.1      1.089      5.833
REMARK SMILES CC(C)(C)OC(=O)N1CCN(C(=O)c2ccc3c(c2)OCO3)[C@H](C(=O)OCCOC(=O)c2ccc(-c3c4nc(c(-c5ccccc5)c5ccc([nH]5)c(-c5ccccc5)c5nc(c(-c6ccccc6)c6ccc3[nH]6)C=C5)C=C4)cc2)C1
REMARK SMILES IDX 27 1 26 2 24 3 25 4 23 5 8 6 9 7 80 8 10 9 11 10 6 11 7 12
REMARK SMILES IDX 5 13 2 14 1 15 3 16 4 17 12 18 13 19 14 20 15 21 19 22 16 23
REMARK SMILES IDX 18 24 17 25 20 26 22 27 21 28 28 29 29 30 30 31 31 32 32 33
REMARK SMILES IDX 33 34 79 35 34 36 78 37 35 38 36 39 37 40 72 41 38 42 77 43
REMARK SMILES IDX 71 44 73 45 39 46 76 47 70 48 69 49 40 51 62 52 47 53 61 54
REMARK SMILES IDX 48 55 51 56 60 57 74 58 49 59 50 60 59 62 75 63 52 64 41 65
REMARK SMILES IDX 42 66 46 67 43 68 45 69 44 70 63 71 64 72 68 73 65 74 67 75
REMARK SMILES IDX 66 76 53 77 54 78 58 79 55 80 57 81 56 82
REMARK H PARENT 73 50 51 61
REMARK Flexibility Score: inf
ROOT
ATOM      1  C   UNL A   1      33.342  27.886  26.014  1.00  0.00     0.274 C 
ENDROOT
BRANCH   1   2
ATOM      2  O   UNL A   1      33.168  26.522  26.420  1.00  0.00    -0.460 OA
BRANCH   2   3
ATOM      3  C   UNL A   1      31.901  26.013  26.476  1.00  0.00     0.330 C 
ATOM      4  O   UNL A   1      30.912  26.645  26.821  1.00  0.00    -0.250 OA
BRANCH   3   5
ATOM      5  C   UNL A   1      31.882  24.608  25.841  1.00  0.00     0.215 C 
ATOM      6  N   UNL A   1      33.487  22.823  25.064  1.00  0.00    -0.304 N 
ATOM      7  C   UNL A   1      32.935  22.862  23.719  1.00  0.00     0.144 C 
ATOM      8  C   UNL A   1      33.338  24.065  25.804  1.00  0.00     0.160 C 
ATOM      9  C   UNL A   1      31.438  23.267  23.794  1.00  0.00     0.142 C 
ATOM     10  N   UNL A   1      31.199  24.551  24.511  1.00  0.00    -0.321 N 
BRANCH   6  11
ATOM     11  C   UNL A   1      34.226  21.757  25.520  1.00  0.00     0.410 C 
ATOM     12  O   UNL A   1      34.049  21.221  26.607  1.00  0.00    -0.224 OA
BRANCH  11  13
ATOM     13  O   UNL A   1      35.213  21.450  24.649  1.00  0.00    -0.444 OA
BRANCH  13  14
ATOM     14  C   UNL A   1      36.558  21.998  24.695  1.00  0.00     0.106 C 
ATOM     15  C   UNL A   1      36.699  22.744  23.361  1.00  0.00     0.056 C 
ATOM     16  C   UNL A   1      37.549  20.835  24.739  1.00  0.00     0.056 C 
ATOM     17  C   UNL A   1      36.821  22.990  25.834  1.00  0.00     0.056 C 
ENDBRANCH  13  14
ENDBRANCH  11  13
ENDBRANCH   6  11
BRANCH  10  18
ATOM     18  C   UNL A   1      31.330  25.656  23.673  1.00  0.00     0.254 C 
ATOM     19  O   UNL A   1      32.418  25.857  23.154  1.00  0.00    -0.269 OA
BRANCH  18  20
ATOM     20  C   UNL A   1      30.231  26.618  23.366  1.00  0.00     0.044 A 
ATOM     21  C   UNL A   1      28.972  26.318  23.931  1.00  0.00     0.018 A 
ATOM     22  C   UNL A   1      30.385  27.836  22.708  1.00  0.00     0.064 A 
ATOM     23  C   UNL A   1      27.852  27.132  23.826  1.00  0.00     0.051 A 
ATOM     24  C   UNL A   1      29.265  28.663  22.643  1.00  0.00     0.166 A 
ATOM     25  C   UNL A   1      28.039  28.313  23.176  1.00  0.00     0.165 A 
ATOM     26  O   UNL A   1      29.216  29.911  22.094  1.00  0.00    -0.454 OA
ATOM     27  O   UNL A   1      27.080  29.257  23.009  1.00  0.00    -0.454 OA
ATOM     28  C   UNL A   1      27.835  30.275  22.334  1.00  0.00     0.468 C 
ENDBRANCH  18  20
ENDBRANCH  10  18
ENDBRANCH   3   5
ENDBRANCH   2   3
ENDBRANCH   1   2
BRANCH   1  29
ATOM     29  C   UNL A   1      33.579  28.763  27.273  1.00  0.00     0.275 C 
BRANCH  29  30
ATOM     30  O   UNL A   1      34.084  30.090  26.948  1.00  0.00    -0.458 OA
BRANCH  30  31
ATOM     31  C   UNL A   1      34.571  30.839  27.988  1.00  0.00     0.338 C 
ATOM     32  O   UNL A   1      34.074  31.875  28.403  1.00  0.00    -0.246 OA
BRANCH  31  33
ATOM     33  C   UNL A   1      35.954  30.401  28.372  1.00  0.00     0.060 A 
ATOM     34  C   UNL A   1      36.272  29.911  29.639  1.00  0.00     0.016 A 
ATOM     35  C   UNL A   1      36.943  30.371  27.374  1.00  0.00     0.016 A 
ATOM     36  C   UNL A   1      37.516  29.278  29.867  1.00  0.00     0.010 A 
ATOM     37  C   UNL A   1      38.195  29.766  27.610  1.00  0.00     0.010 A 
ATOM     38  C   UNL A   1      38.494  29.195  28.858  1.00  0.00    -0.014 A 
BRANCH  38  39
ATOM     39  C   UNL A   1      39.907  28.869  29.239  1.00  0.00     0.031 A 
ATOM     40  C   UNL A   1      40.369  27.479  28.871  1.00  0.00     0.074 A 
ATOM     41  C   UNL A   1      40.792  29.712  29.816  1.00  0.00     0.049 A 
ATOM     42  N   UNL A   1      41.545  26.920  28.999  1.00  0.00    -0.248 NA
ATOM     43  C   UNL A   1      39.352  26.609  28.252  1.00  0.00     0.031 C 
ATOM     44  C   UNL A   1      40.548  31.104  30.190  1.00  0.00     0.029 A 
ATOM     45  N   UNL A   1      42.113  29.507  30.173  1.00  0.00    -0.354 N 
ATOM     46  C   UNL A   1      41.413  25.654  28.444  1.00  0.00     0.074 A 
ATOM     47  C   UNL A   1      40.043  25.511  28.011  1.00  0.00     0.031 C 
ATOM     48  C   UNL A   1      41.681  31.628  30.704  1.00  0.00     0.029 A 
ATOM     49  C   UNL A   1      42.735  30.610  30.720  1.00  0.00     0.049 A 
ATOM     50  H   UNL A   1      42.571  28.645  30.047  1.00  0.00     0.167 HD
ATOM     51  C   UNL A   1      42.337  24.678  28.295  1.00  0.00     0.031 A 
ATOM     52  C   UNL A   1      43.999  30.775  31.176  1.00  0.00     0.031 A 
ATOM     53  C   UNL A   1      43.682  24.748  28.779  1.00  0.00     0.049 A 
ATOM     54  C   UNL A   1      44.981  29.619  31.120  1.00  0.00     0.074 A 
ATOM     55  C   UNL A   1      44.657  23.768  28.752  1.00  0.00     0.029 A 
ATOM     56  N   UNL A   1      44.235  25.857  29.392  1.00  0.00    -0.354 N 
ATOM     57  N   UNL A   1      44.839  28.430  30.584  1.00  0.00    -0.248 NA
ATOM     58  C   UNL A   1      46.306  29.833  31.735  1.00  0.00     0.031 C 
ATOM     59  C   UNL A   1      45.795  24.274  29.387  1.00  0.00     0.029 A 
ATOM     60  C   UNL A   1      45.539  25.584  29.759  1.00  0.00     0.049 A 
ATOM     61  H   UNL A   1      43.769  26.712  29.545  1.00  0.00     0.167 HD
ATOM     62  C   UNL A   1      46.057  27.779  30.766  1.00  0.00     0.074 A 
ATOM     63  C   UNL A   1      46.936  28.704  31.445  1.00  0.00     0.031 C 
ATOM     64  C   UNL A   1      46.414  26.520  30.409  1.00  0.00     0.031 A 
BRANCH  51  65
ATOM     65  C   UNL A   1      41.874  23.426  27.613  1.00  0.00    -0.014 A 
ATOM     66  C   UNL A   1      41.231  22.411  28.339  1.00  0.00     0.009 A 
ATOM     67  C   UNL A   1      42.126  23.242  26.247  1.00  0.00     0.009 A 
ATOM     68  C   UNL A   1      40.882  21.215  27.714  1.00  0.00     0.001 A 
ATOM     69  C   UNL A   1      41.751  22.055  25.619  1.00  0.00     0.001 A 
ATOM     70  C   UNL A   1      41.140  21.040  26.354  1.00  0.00     0.000 A 
ENDBRANCH  51  65
BRANCH  52  71
ATOM     71  C   UNL A   1      44.459  32.070  31.770  1.00  0.00    -0.014 A 
ATOM     72  C   UNL A   1      44.255  32.351  33.134  1.00  0.00     0.009 A 
ATOM     73  C   UNL A   1      44.980  33.086  30.952  1.00  0.00     0.009 A 
ATOM     74  C   UNL A   1      44.519  33.626  33.651  1.00  0.00     0.001 A 
ATOM     75  C   UNL A   1      45.273  34.348  31.479  1.00  0.00     0.001 A 
ATOM     76  C   UNL A   1      45.028  34.623  32.823  1.00  0.00     0.000 A 
ENDBRANCH  52  71
BRANCH  64  77
ATOM     77  C   UNL A   1      47.821  26.071  30.693  1.00  0.00    -0.014 A 
ATOM     78  C   UNL A   1      48.824  26.147  29.714  1.00  0.00     0.009 A 
ATOM     79  C   UNL A   1      48.166  25.649  31.987  1.00  0.00     0.009 A 
ATOM     80  C   UNL A   1      50.138  25.787  30.021  1.00  0.00     0.001 A 
ATOM     81  C   UNL A   1      49.484  25.315  32.298  1.00  0.00     0.001 A 
ATOM     82  C   UNL A   1      50.469  25.379  31.313  1.00  0.00     0.000 A 
ENDBRANCH  64  77
ENDBRANCH  38  39
ENDBRANCH  31  33
ENDBRANCH  30  31
ENDBRANCH  29  30
ENDBRANCH   1  29
TORSDOF 16
ENDMDL
