MODEL 1
REMARK VINA RESULT:     -10.8      0.000      0.000
REMARK SMILES CC(C)[C@H](NC(=O)Cn1ccc2c(Br)cccc21)C(=O)OCCOC(=O)c1ccc(-c2c3nc(c(-c4ccccc4)c4ccc([nH]4)c(-c4ccccc4)c4nc(c(-c5ccccc5)c5ccc2[nH]5)C=C4)C=C3)cc1
REMARK SMILES IDX 22 1 21 2 19 3 20 4 4 5 2 6 1 7 3 8 5 9 6 10 7 12 8 13 9 14
REMARK SMILES IDX 10 15 18 16 11 17 12 18 17 19 13 20 16 21 14 22 15 23 23 24
REMARK SMILES IDX 24 25 25 26 26 27 27 28 28 29 74 30 29 31 73 32 30 33 31 34
REMARK SMILES IDX 32 35 67 36 33 37 72 38 66 39 68 40 34 41 71 42 65 43 64 44
REMARK SMILES IDX 35 46 57 47 42 48 56 49 43 50 46 51 55 52 69 53 44 54 45 55
REMARK SMILES IDX 54 57 70 58 47 59 36 60 37 61 41 62 38 63 40 64 39 65 58 66
REMARK SMILES IDX 59 67 63 68 60 69 62 70 61 71 48 72 49 73 53 74 50 75 52 76
REMARK SMILES IDX 51 77
REMARK H PARENT 5 11 68 45 46 56
REMARK Flexibility Score: inf
ROOT
ATOM      1  C   UNL A   1      36.144  33.634  33.521  1.00  0.00     0.274 C 
ENDROOT
BRANCH   1   2
ATOM      2  O   UNL A   1      35.304  33.519  32.351  1.00  0.00    -0.461 OA
BRANCH   2   3
ATOM      3  C   UNL A   1      34.044  34.011  32.501  1.00  0.00     0.329 C 
ATOM      4  O   UNL A   1      33.119  33.379  33.006  1.00  0.00    -0.250 OA
BRANCH   3   5
ATOM      5  C   UNL A   1      33.825  35.396  31.862  1.00  0.00     0.194 C 
BRANCH   5   6
ATOM      6  C   UNL A   1      33.480  36.459  32.947  1.00  0.00     0.017 C 
ATOM      7  C   UNL A   1      34.036  37.855  32.626  1.00  0.00     0.010 C 
ATOM      8  C   UNL A   1      31.980  36.566  33.234  1.00  0.00     0.010 C 
ENDBRANCH   5   6
BRANCH   5   9
ATOM      9  N   UNL A   1      32.858  35.523  30.757  1.00  0.00    -0.341 N 
ATOM     10  C   UNL A   1      33.078  35.666  29.412  1.00  0.00     0.240 C 
ATOM     11  H   UNL A   1      31.910  35.503  31.025  1.00  0.00     0.164 HD
ATOM     12  O   UNL A   1      32.177  36.158  28.729  1.00  0.00    -0.273 OA
BRANCH  10  13
ATOM     13  C   UNL A   1      34.332  35.119  28.776  1.00  0.00     0.222 C 
BRANCH  13  14
ATOM     14  N   UNL A   1      34.561  33.675  28.794  1.00  0.00    -0.338 N 
ATOM     15  C   UNL A   1      33.680  32.724  28.348  1.00  0.00     0.087 A 
ATOM     16  C   UNL A   1      35.820  33.096  28.942  1.00  0.00     0.050 A 
ATOM     17  C   UNL A   1      34.391  31.589  28.032  1.00  0.00     0.029 A 
ATOM     18  C   UNL A   1      35.750  31.807  28.394  1.00  0.00     0.014 A 
ATOM     19  C   UNL A   1      37.024  33.601  29.467  1.00  0.00     0.027 A 
ATOM     20  C   UNL A   1      36.933  31.038  28.312  1.00  0.00     0.027 A 
ATOM     21  C   UNL A   1      38.174  32.805  29.398  1.00  0.00     0.003 A 
ATOM     22  Br  UNL A   1      36.923  29.322  27.507  1.00  0.00    -0.050 Br
ATOM     23  C   UNL A   1      38.136  31.544  28.814  1.00  0.00     0.016 A 
ENDBRANCH  13  14
ENDBRANCH  10  13
ENDBRANCH   5   9
ENDBRANCH   3   5
ENDBRANCH   2   3
ENDBRANCH   1   2
BRANCH   1  24
ATOM     24  C   UNL A   1      37.617  33.893  33.185  1.00  0.00     0.275 C 
BRANCH  24  25
ATOM     25  O   UNL A   1      38.549  33.207  34.039  1.00  0.00    -0.458 OA
BRANCH  25  26
ATOM     26  C   UNL A   1      38.476  31.866  33.927  1.00  0.00     0.338 C 
ATOM     27  O   UNL A   1      38.236  31.056  34.808  1.00  0.00    -0.246 OA
BRANCH  26  28
ATOM     28  C   UNL A   1      38.911  31.384  32.617  1.00  0.00     0.060 A 
ATOM     29  C   UNL A   1      38.304  30.213  32.163  1.00  0.00     0.016 A 
ATOM     30  C   UNL A   1      40.210  31.725  32.239  1.00  0.00     0.016 A 
ATOM     31  C   UNL A   1      39.092  29.245  31.566  1.00  0.00     0.010 A 
ATOM     32  C   UNL A   1      40.976  30.777  31.577  1.00  0.00     0.010 A 
ATOM     33  C   UNL A   1      40.456  29.493  31.360  1.00  0.00    -0.014 A 
BRANCH  33  34
ATOM     34  C   UNL A   1      41.300  28.386  30.879  1.00  0.00     0.031 A 
ATOM     35  C   UNL A   1      42.263  27.816  31.864  1.00  0.00     0.074 A 
ATOM     36  C   UNL A   1      41.111  27.785  29.682  1.00  0.00     0.049 A 
ATOM     37  N   UNL A   1      43.469  27.379  31.667  1.00  0.00    -0.248 NA
ATOM     38  C   UNL A   1      41.808  27.735  33.264  1.00  0.00     0.031 C 
ATOM     39  C   UNL A   1      40.039  28.071  28.724  1.00  0.00     0.029 A 
ATOM     40  N   UNL A   1      41.728  26.684  29.140  1.00  0.00    -0.354 N 
ATOM     41  C   UNL A   1      43.869  26.841  32.886  1.00  0.00     0.074 A 
ATOM     42  C   UNL A   1      42.851  27.164  33.855  1.00  0.00     0.031 C 
ATOM     43  C   UNL A   1      39.898  27.017  27.896  1.00  0.00     0.029 A 
ATOM     44  C   UNL A   1      40.948  26.051  28.180  1.00  0.00     0.049 A 
ATOM     45  H   UNL A   1      42.626  26.375  29.403  1.00  0.00     0.167 HD
ATOM     46  C   UNL A   1      44.896  25.965  33.027  1.00  0.00     0.031 A 
ATOM     47  C   UNL A   1      41.072  24.790  27.705  1.00  0.00     0.031 A 
ATOM     48  C   UNL A   1      45.814  25.912  31.936  1.00  0.00     0.049 A 
ATOM     49  C   UNL A   1      42.444  24.291  27.935  1.00  0.00     0.074 A 
ATOM     50  C   UNL A   1      47.028  26.472  31.605  1.00  0.00     0.029 A 
ATOM     51  N   UNL A   1      45.362  25.246  30.834  1.00  0.00    -0.354 N 
ATOM     52  N   UNL A   1      43.507  24.782  27.366  1.00  0.00    -0.248 NA
ATOM     53  C   UNL A   1      42.696  23.299  28.978  1.00  0.00     0.031 C 
ATOM     54  C   UNL A   1      47.236  26.214  30.215  1.00  0.00     0.029 A 
ATOM     55  C   UNL A   1      46.141  25.509  29.735  1.00  0.00     0.049 A 
ATOM     56  H   UNL A   1      44.577  24.653  30.828  1.00  0.00     0.167 HD
ATOM     57  C   UNL A   1      44.537  24.454  28.221  1.00  0.00     0.074 A 
ATOM     58  C   UNL A   1      44.021  23.406  29.087  1.00  0.00     0.031 C 
ATOM     59  C   UNL A   1      45.587  25.297  28.419  1.00  0.00     0.031 A 
BRANCH  46  60
ATOM     60  C   UNL A   1      44.808  24.855  34.033  1.00  0.00    -0.014 A 
ATOM     61  C   UNL A   1      45.780  24.709  35.029  1.00  0.00     0.009 A 
ATOM     62  C   UNL A   1      43.889  23.796  33.859  1.00  0.00     0.009 A 
ATOM     63  C   UNL A   1      45.809  23.565  35.837  1.00  0.00     0.001 A 
ATOM     64  C   UNL A   1      43.895  22.672  34.682  1.00  0.00     0.001 A 
ATOM     65  C   UNL A   1      44.863  22.554  35.669  1.00  0.00     0.000 A 
ENDBRANCH  46  60
BRANCH  47  66
ATOM     66  C   UNL A   1      39.993  23.890  27.227  1.00  0.00    -0.014 A 
ATOM     67  C   UNL A   1      38.736  24.413  26.880  1.00  0.00     0.009 A 
ATOM     68  C   UNL A   1      40.256  22.552  26.881  1.00  0.00     0.009 A 
ATOM     69  C   UNL A   1      37.800  23.641  26.182  1.00  0.00     0.001 A 
ATOM     70  C   UNL A   1      39.313  21.772  26.205  1.00  0.00     0.001 A 
ATOM     71  C   UNL A   1      38.091  22.323  25.840  1.00  0.00     0.000 A 
ENDBRANCH  47  66
BRANCH  59  72
ATOM     72  C   UNL A   1      45.949  26.240  27.319  1.00  0.00    -0.014 A 
ATOM     73  C   UNL A   1      46.727  25.850  26.217  1.00  0.00     0.009 A 
ATOM     74  C   UNL A   1      45.455  27.552  27.365  1.00  0.00     0.009 A 
ATOM     75  C   UNL A   1      47.026  26.760  25.201  1.00  0.00     0.001 A 
ATOM     76  C   UNL A   1      45.743  28.458  26.342  1.00  0.00     0.001 A 
ATOM     77  C   UNL A   1      46.533  28.062  25.262  1.00  0.00     0.000 A 
ENDBRANCH  59  72
ENDBRANCH  33  34
ENDBRANCH  26  28
ENDBRANCH  25  26
ENDBRANCH  24  25
ENDBRANCH   1  24
TORSDOF 15
ENDMDL
MODEL 2
REMARK VINA RESULT:     -10.6      3.994      6.472
REMARK SMILES CC(C)[C@H](NC(=O)Cn1ccc2c(Br)cccc21)C(=O)OCCOC(=O)c1ccc(-c2c3nc(c(-c4ccccc4)c4ccc([nH]4)c(-c4ccccc4)c4nc(c(-c5ccccc5)c5ccc2[nH]5)C=C4)C=C3)cc1
REMARK SMILES IDX 22 1 21 2 19 3 20 4 4 5 2 6 1 7 3 8 5 9 6 10 7 12 8 13 9 14
REMARK SMILES IDX 10 15 18 16 11 17 12 18 17 19 13 20 16 21 14 22 15 23 23 24
REMARK SMILES IDX 24 25 25 26 26 27 27 28 28 29 74 30 29 31 73 32 30 33 31 34
REMARK SMILES IDX 32 35 67 36 33 37 72 38 66 39 68 40 34 41 71 42 65 43 64 44
REMARK SMILES IDX 35 46 57 47 42 48 56 49 43 50 46 51 55 52 69 53 44 54 45 55
REMARK SMILES IDX 54 57 70 58 47 59 36 60 37 61 41 62 38 63 40 64 39 65 58 66
REMARK SMILES IDX 59 67 63 68 60 69 62 70 61 71 48 72 49 73 53 74 50 75 52 76
REMARK SMILES IDX 51 77
REMARK H PARENT 5 11 68 45 46 56
REMARK Flexibility Score: inf
ROOT
ATOM      1  C   UNL A   1      32.711  30.251  27.276  1.00  0.00     0.274 C 
ENDROOT
BRANCH   1   2
ATOM      2  O   UNL A   1      32.437  29.289  26.235  1.00  0.00    -0.461 OA
BRANCH   2   3
ATOM      3  C   UNL A   1      31.922  28.107  26.669  1.00  0.00     0.329 C 
ATOM      4  O   UNL A   1      31.389  27.955  27.766  1.00  0.00    -0.250 OA
BRANCH   3   5
ATOM      5  C   UNL A   1      32.177  26.919  25.720  1.00  0.00     0.194 C 
BRANCH   5   6
ATOM      6  C   UNL A   1      33.654  26.914  25.223  1.00  0.00     0.017 C 
ATOM      7  C   UNL A   1      34.337  25.545  25.365  1.00  0.00     0.010 C 
ATOM      8  C   UNL A   1      33.809  27.410  23.783  1.00  0.00     0.010 C 
ENDBRANCH   5   6
BRANCH   5   9
ATOM      9  N   UNL A   1      31.291  26.735  24.558  1.00  0.00    -0.341 N 
ATOM     10  C   UNL A   1      30.787  25.582  24.015  1.00  0.00     0.240 C 
ATOM     11  H   UNL A   1      31.019  27.565  24.102  1.00  0.00     0.164 HD
ATOM     12  O   UNL A   1      30.419  25.612  22.837  1.00  0.00    -0.273 OA
BRANCH  10  13
ATOM     13  C   UNL A   1      30.574  24.358  24.870  1.00  0.00     0.222 C 
BRANCH  13  14
ATOM     14  N   UNL A   1      31.466  23.212  24.697  1.00  0.00    -0.338 N 
ATOM     15  C   UNL A   1      31.859  22.686  23.493  1.00  0.00     0.087 A 
ATOM     16  C   UNL A   1      32.297  22.723  25.702  1.00  0.00     0.050 A 
ATOM     17  C   UNL A   1      33.044  22.010  23.684  1.00  0.00     0.029 A 
ATOM     18  C   UNL A   1      33.342  22.030  25.075  1.00  0.00     0.014 A 
ATOM     19  C   UNL A   1      32.251  22.865  27.102  1.00  0.00     0.027 A 
ATOM     20  C   UNL A   1      34.397  21.526  25.869  1.00  0.00     0.027 A 
ATOM     21  C   UNL A   1      33.296  22.330  27.866  1.00  0.00     0.003 A 
ATOM     22  Br  UNL A   1      35.879  20.651  25.076  1.00  0.00    -0.050 Br
ATOM     23  C   UNL A   1      34.366  21.681  27.259  1.00  0.00     0.016 A 
ENDBRANCH  13  14
ENDBRANCH  10  13
ENDBRANCH   5   9
ENDBRANCH   3   5
ENDBRANCH   2   3
ENDBRANCH   1   2
BRANCH   1  24
ATOM     24  C   UNL A   1      34.135  30.816  27.219  1.00  0.00     0.275 C 
BRANCH  24  25
ATOM     25  O   UNL A   1      34.982  30.399  28.304  1.00  0.00    -0.458 OA
BRANCH  25  26
ATOM     26  C   UNL A   1      35.972  31.275  28.567  1.00  0.00     0.338 C 
ATOM     27  O   UNL A   1      36.238  32.303  27.964  1.00  0.00    -0.246 OA
BRANCH  26  28
ATOM     28  C   UNL A   1      36.894  30.794  29.594  1.00  0.00     0.060 A 
ATOM     29  C   UNL A   1      38.168  31.361  29.586  1.00  0.00     0.016 A 
ATOM     30  C   UNL A   1      36.677  29.494  30.051  1.00  0.00     0.016 A 
ATOM     31  C   UNL A   1      39.263  30.534  29.765  1.00  0.00     0.010 A 
ATOM     32  C   UNL A   1      37.778  28.689  30.299  1.00  0.00     0.010 A 
ATOM     33  C   UNL A   1      39.067  29.171  30.027  1.00  0.00    -0.014 A 
BRANCH  33  34
ATOM     34  C   UNL A   1      40.245  28.288  30.044  1.00  0.00     0.031 A 
ATOM     35  C   UNL A   1      41.023  28.252  31.316  1.00  0.00     0.074 A 
ATOM     36  C   UNL A   1      40.526  27.418  29.047  1.00  0.00     0.049 A 
ATOM     37  N   UNL A   1      42.307  28.161  31.484  1.00  0.00    -0.248 NA
ATOM     38  C   UNL A   1      40.249  28.340  32.567  1.00  0.00     0.031 C 
ATOM     39  C   UNL A   1      39.707  27.163  27.858  1.00  0.00     0.029 A 
ATOM     40  N   UNL A   1      41.507  26.461  28.961  1.00  0.00    -0.354 N 
ATOM     41  C   UNL A   1      42.488  28.038  32.858  1.00  0.00     0.074 A 
ATOM     42  C   UNL A   1      41.206  28.243  33.483  1.00  0.00     0.031 C 
ATOM     43  C   UNL A   1      40.043  25.964  27.343  1.00  0.00     0.029 A 
ATOM     44  C   UNL A   1      41.180  25.436  28.081  1.00  0.00     0.049 A 
ATOM     45  H   UNL A   1      42.350  26.495  29.468  1.00  0.00     0.167 HD
ATOM     46  C   UNL A   1      43.619  27.556  33.433  1.00  0.00     0.031 A 
ATOM     47  C   UNL A   1      41.720  24.197  28.007  1.00  0.00     0.031 A 
ATOM     48  C   UNL A   1      44.778  27.547  32.598  1.00  0.00     0.049 A 
ATOM     49  C   UNL A   1      43.061  24.188  28.628  1.00  0.00     0.074 A 
ATOM     50  C   UNL A   1      45.867  28.357  32.367  1.00  0.00     0.029 A 
ATOM     51  N   UNL A   1      44.802  26.558  31.657  1.00  0.00    -0.354 N 
ATOM     52  N   UNL A   1      44.087  24.840  28.162  1.00  0.00    -0.248 NA
ATOM     53  C   UNL A   1      43.258  23.561  29.933  1.00  0.00     0.031 C 
ATOM     54  C   UNL A   1      46.487  27.884  31.171  1.00  0.00     0.029 A 
ATOM     55  C   UNL A   1      45.757  26.800  30.701  1.00  0.00     0.049 A 
ATOM     56  H   UNL A   1      44.210  25.772  31.664  1.00  0.00     0.167 HD
ATOM     57  C   UNL A   1      44.904  25.021  29.258  1.00  0.00     0.074 A 
ATOM     58  C   UNL A   1      44.443  24.076  30.262  1.00  0.00     0.031 C 
ATOM     59  C   UNL A   1      45.635  26.158  29.414  1.00  0.00     0.031 A 
BRANCH  46  60
ATOM     60  C   UNL A   1      43.537  26.710  34.669  1.00  0.00    -0.014 A 
ATOM     61  C   UNL A   1      43.031  25.408  34.616  1.00  0.00     0.009 A 
ATOM     62  C   UNL A   1      43.738  27.280  35.947  1.00  0.00     0.009 A 
ATOM     63  C   UNL A   1      42.768  24.694  35.793  1.00  0.00     0.001 A 
ATOM     64  C   UNL A   1      43.509  26.562  37.119  1.00  0.00     0.001 A 
ATOM     65  C   UNL A   1      43.016  25.267  37.040  1.00  0.00     0.000 A 
ENDBRANCH  46  60
BRANCH  47  66
ATOM     66  C   UNL A   1      41.050  22.939  27.597  1.00  0.00    -0.014 A 
ATOM     67  C   UNL A   1      39.864  22.979  26.845  1.00  0.00     0.009 A 
ATOM     68  C   UNL A   1      41.689  21.692  27.732  1.00  0.00     0.009 A 
ATOM     69  C   UNL A   1      39.362  21.829  26.223  1.00  0.00     0.001 A 
ATOM     70  C   UNL A   1      41.177  20.539  27.132  1.00  0.00     0.001 A 
ATOM     71  C   UNL A   1      40.022  20.612  26.362  1.00  0.00     0.000 A 
ENDBRANCH  47  66
BRANCH  59  72
ATOM     72  C   UNL A   1      46.038  26.910  28.188  1.00  0.00    -0.014 A 
ATOM     73  C   UNL A   1      45.312  28.010  27.705  1.00  0.00     0.009 A 
ATOM     74  C   UNL A   1      47.211  26.530  27.519  1.00  0.00     0.009 A 
ATOM     75  C   UNL A   1      45.736  28.696  26.565  1.00  0.00     0.001 A 
ATOM     76  C   UNL A   1      47.642  27.224  26.387  1.00  0.00     0.001 A 
ATOM     77  C   UNL A   1      46.902  28.304  25.907  1.00  0.00     0.000 A 
ENDBRANCH  59  72
ENDBRANCH  33  34
ENDBRANCH  26  28
ENDBRANCH  25  26
ENDBRANCH  24  25
ENDBRANCH   1  24
TORSDOF 15
ENDMDL
MODEL 3
REMARK VINA RESULT:     -10.5      3.895      6.698
REMARK SMILES CC(C)[C@H](NC(=O)Cn1ccc2c(Br)cccc21)C(=O)OCCOC(=O)c1ccc(-c2c3nc(c(-c4ccccc4)c4ccc([nH]4)c(-c4ccccc4)c4nc(c(-c5ccccc5)c5ccc2[nH]5)C=C4)C=C3)cc1
REMARK SMILES IDX 22 1 21 2 19 3 20 4 4 5 2 6 1 7 3 8 5 9 6 10 7 12 8 13 9 14
REMARK SMILES IDX 10 15 18 16 11 17 12 18 17 19 13 20 16 21 14 22 15 23 23 24
REMARK SMILES IDX 24 25 25 26 26 27 27 28 28 29 74 30 29 31 73 32 30 33 31 34
REMARK SMILES IDX 32 35 67 36 33 37 72 38 66 39 68 40 34 41 71 42 65 43 64 44
REMARK SMILES IDX 35 46 57 47 42 48 56 49 43 50 46 51 55 52 69 53 44 54 45 55
REMARK SMILES IDX 54 57 70 58 47 59 36 60 37 61 41 62 38 63 40 64 39 65 58 66
REMARK SMILES IDX 59 67 63 68 60 69 62 70 61 71 48 72 49 73 53 74 50 75 52 76
REMARK SMILES IDX 51 77
REMARK H PARENT 5 11 68 45 46 56
REMARK Flexibility Score: inf
ROOT
ATOM      1  C   UNL A   1      33.103  29.761  26.043  1.00  0.00     0.274 C 
ENDROOT
BRANCH   1   2
ATOM      2  O   UNL A   1      33.448  28.365  26.181  1.00  0.00    -0.461 OA
BRANCH   2   3
ATOM      3  C   UNL A   1      33.330  27.632  25.041  1.00  0.00     0.329 C 
ATOM      4  O   UNL A   1      33.986  27.839  24.023  1.00  0.00    -0.250 OA
BRANCH   3   5
ATOM      5  C   UNL A   1      32.199  26.585  25.077  1.00  0.00     0.194 C 
BRANCH   5   6
ATOM      6  C   UNL A   1      30.814  27.257  24.839  1.00  0.00     0.017 C 
ATOM      7  C   UNL A   1      30.817  28.254  23.669  1.00  0.00     0.010 C 
ATOM      8  C   UNL A   1      29.679  26.250  24.640  1.00  0.00     0.010 C 
ENDBRANCH   5   6
BRANCH   5   9
ATOM      9  N   UNL A   1      32.093  25.693  26.246  1.00  0.00    -0.341 N 
ATOM     10  C   UNL A   1      31.925  24.335  26.298  1.00  0.00     0.240 C 
ATOM     11  H   UNL A   1      32.151  26.141  27.121  1.00  0.00     0.164 HD
ATOM     12  O   UNL A   1      31.458  23.850  27.332  1.00  0.00    -0.273 OA
BRANCH  10  13
ATOM     13  C   UNL A   1      32.418  23.455  25.175  1.00  0.00     0.222 C 
BRANCH  13  14
ATOM     14  N   UNL A   1      33.399  22.412  25.475  1.00  0.00    -0.338 N 
ATOM     15  C   UNL A   1      33.171  21.062  25.400  1.00  0.00     0.087 A 
ATOM     16  C   UNL A   1      34.771  22.640  25.539  1.00  0.00     0.050 A 
ATOM     17  C   UNL A   1      34.381  20.428  25.231  1.00  0.00     0.029 A 
ATOM     18  C   UNL A   1      35.407  21.411  25.308  1.00  0.00     0.014 A 
ATOM     19  C   UNL A   1      35.513  23.820  25.735  1.00  0.00     0.027 A 
ATOM     20  C   UNL A   1      36.816  21.384  25.206  1.00  0.00     0.027 A 
ATOM     21  C   UNL A   1      36.909  23.757  25.656  1.00  0.00     0.003 A 
ATOM     22  Br  UNL A   1      37.731  19.770  24.813  1.00  0.00    -0.050 Br
ATOM     23  C   UNL A   1      37.556  22.557  25.380  1.00  0.00     0.016 A 
ENDBRANCH  13  14
ENDBRANCH  10  13
ENDBRANCH   5   9
ENDBRANCH   3   5
ENDBRANCH   2   3
ENDBRANCH   1   2
BRANCH   1  24
ATOM     24  C   UNL A   1      33.624  30.630  27.194  1.00  0.00     0.275 C 
BRANCH  24  25
ATOM     25  O   UNL A   1      34.967  30.323  27.607  1.00  0.00    -0.458 OA
BRANCH  25  26
ATOM     26  C   UNL A   1      35.617  31.388  28.117  1.00  0.00     0.338 C 
ATOM     27  O   UNL A   1      35.625  32.531  27.691  1.00  0.00    -0.246 OA
BRANCH  26  28
ATOM     28  C   UNL A   1      36.530  31.027  29.201  1.00  0.00     0.060 A 
ATOM     29  C   UNL A   1      37.747  31.708  29.228  1.00  0.00     0.016 A 
ATOM     30  C   UNL A   1      36.411  29.727  29.694  1.00  0.00     0.016 A 
ATOM     31  C   UNL A   1      38.903  30.991  29.483  1.00  0.00     0.010 A 
ATOM     32  C   UNL A   1      37.568  29.035  30.017  1.00  0.00     0.010 A 
ATOM     33  C   UNL A   1      38.819  29.625  29.785  1.00  0.00    -0.014 A 
BRANCH  33  34
ATOM     34  C   UNL A   1      40.071  28.856  29.885  1.00  0.00     0.031 A 
ATOM     35  C   UNL A   1      40.686  28.772  31.241  1.00  0.00     0.074 A 
ATOM     36  C   UNL A   1      40.559  28.112  28.866  1.00  0.00     0.049 A 
ATOM     37  N   UNL A   1      41.941  28.783  31.569  1.00  0.00    -0.248 NA
ATOM     38  C   UNL A   1      39.758  28.671  32.383  1.00  0.00     0.031 C 
ATOM     39  C   UNL A   1      39.923  27.896  27.563  1.00  0.00     0.029 A 
ATOM     40  N   UNL A   1      41.636  27.260  28.833  1.00  0.00    -0.354 N 
ATOM     41  C   UNL A   1      41.964  28.548  32.940  1.00  0.00     0.074 A 
ATOM     42  C   UNL A   1      40.600  28.576  33.406  1.00  0.00     0.031 C 
ATOM     43  C   UNL A   1      40.441  26.787  27.001  1.00  0.00     0.029 A 
ATOM     44  C   UNL A   1      41.526  26.297  27.836  1.00  0.00     0.049 A 
ATOM     45  H   UNL A   1      42.403  27.324  29.447  1.00  0.00     0.167 HD
ATOM     46  C   UNL A   1      43.059  28.120  33.617  1.00  0.00     0.031 A 
ATOM     47  C   UNL A   1      42.196  25.126  27.733  1.00  0.00     0.031 A 
ATOM     48  C   UNL A   1      44.306  28.295  32.944  1.00  0.00     0.049 A 
ATOM     49  C   UNL A   1      43.444  25.180  28.522  1.00  0.00     0.074 A 
ATOM     50  C   UNL A   1      45.327  29.219  32.925  1.00  0.00     0.029 A 
ATOM     51  N   UNL A   1      44.547  27.405  31.938  1.00  0.00    -0.354 N 
ATOM     52  N   UNL A   1      44.448  25.964  28.251  1.00  0.00    -0.248 NA
ATOM     53  C   UNL A   1      43.542  24.454  29.787  1.00  0.00     0.031 C 
ATOM     54  C   UNL A   1      46.135  28.918  31.786  1.00  0.00     0.029 A 
ATOM     55  C   UNL A   1      45.583  27.821  31.138  1.00  0.00     0.049 A 
ATOM     56  H   UNL A   1      44.043  26.571  31.802  1.00  0.00     0.167 HD
ATOM     57  C   UNL A   1      45.101  26.116  29.455  1.00  0.00     0.074 A 
ATOM     58  C   UNL A   1      44.619  25.042  30.310  1.00  0.00     0.031 C 
ATOM     59  C   UNL A   1      45.686  27.295  29.798  1.00  0.00     0.031 A 
BRANCH  46  60
ATOM     60  C   UNL A   1      42.913  27.158  34.759  1.00  0.00    -0.014 A 
ATOM     61  C   UNL A   1      43.099  27.578  36.081  1.00  0.00     0.009 A 
ATOM     62  C   UNL A   1      42.824  25.767  34.523  1.00  0.00     0.009 A 
ATOM     63  C   UNL A   1      43.160  26.646  37.125  1.00  0.00     0.001 A 
ATOM     64  C   UNL A   1      42.853  24.840  35.563  1.00  0.00     0.001 A 
ATOM     65  C   UNL A   1      43.028  25.282  36.867  1.00  0.00     0.000 A 
ENDBRANCH  46  60
BRANCH  47  66
ATOM     66  C   UNL A   1      41.714  23.855  27.138  1.00  0.00    -0.014 A 
ATOM     67  C   UNL A   1      42.464  23.210  26.142  1.00  0.00     0.009 A 
ATOM     68  C   UNL A   1      40.640  23.142  27.705  1.00  0.00     0.009 A 
ATOM     69  C   UNL A   1      42.177  21.894  25.758  1.00  0.00     0.001 A 
ATOM     70  C   UNL A   1      40.337  21.838  27.306  1.00  0.00     0.001 A 
ATOM     71  C   UNL A   1      41.118  21.207  26.345  1.00  0.00     0.000 A 
ENDBRANCH  47  66
BRANCH  59  72
ATOM     72  C   UNL A   1      46.158  28.192  28.701  1.00  0.00    -0.014 A 
ATOM     73  C   UNL A   1      47.518  28.455  28.475  1.00  0.00     0.009 A 
ATOM     74  C   UNL A   1      45.209  28.756  27.836  1.00  0.00     0.009 A 
ATOM     75  C   UNL A   1      47.916  29.285  27.425  1.00  0.00     0.001 A 
ATOM     76  C   UNL A   1      45.608  29.575  26.777  1.00  0.00     0.001 A 
ATOM     77  C   UNL A   1      46.961  29.843  26.576  1.00  0.00     0.000 A 
ENDBRANCH  59  72
ENDBRANCH  33  34
ENDBRANCH  26  28
ENDBRANCH  25  26
ENDBRANCH  24  25
ENDBRANCH   1  24
TORSDOF 15
ENDMDL
