MODEL 1
REMARK VINA RESULT:     -13.6      0.000      0.000
REMARK SMILES O=C(OCCOC(=O)c1ccc(-c2c3nc(c(-c4ccccc4)c4ccc([nH]4)c(-c4ccccc4)c4nc(c(-c5ccccc5)c5ccc2[nH]5)C=C4)C=C3)cc1)C1=Cc2cc(Cl)cc(C#Cc3ccccc3)c2O[C@@H]1C(F)(F)F
REMARK SMILES IDX 4 1 3 2 2 3 1 4 57 5 58 6 75 7 59 8 74 9 60 10 73 11 61 12
REMARK SMILES IDX 64 13 62 14 63 15 76 16 77 17 78 18 79 19 65 20 66 21 67 22
REMARK SMILES IDX 68 23 72 24 69 25 71 26 70 27 5 28 6 29 7 30 8 31 9 32 10 33
REMARK SMILES IDX 56 34 11 35 55 36 12 37 13 38 14 39 49 40 15 41 54 42 48 43
REMARK SMILES IDX 50 44 16 45 53 46 47 47 46 48 17 50 39 51 24 52 38 53 25 54
REMARK SMILES IDX 28 55 37 56 51 57 26 58 27 59 36 61 52 62 29 63 18 64 19 65
REMARK SMILES IDX 23 66 20 67 22 68 21 69 40 70 41 71 45 72 42 73 44 74 43 75
REMARK SMILES IDX 30 76 31 77 35 78 32 79 34 80 33 81
REMARK H PARENT 50 49 28 60
REMARK Flexibility Score: inf
ROOT
ATOM      1  C   UNL A   1      32.323  28.641  26.993  1.00  0.00     0.275 C 
ENDROOT
BRANCH   1   2
ATOM      2  O   UNL A   1      33.035  27.273  26.829  1.00  0.00    -0.459 OA
BRANCH   2   3
ATOM      3  C   UNL A   1      32.243  26.325  26.313  1.00  0.00     0.338 C 
ATOM      4  O   UNL A   1      31.403  25.647  26.846  1.00  0.00    -0.246 OA
BRANCH   3   5
ATOM      5  C   UNL A   1      33.046  26.125  25.126  1.00  0.00     0.087 C 
ATOM      6  C   UNL A   1      34.432  25.834  25.407  1.00  0.00     0.027 C 
ATOM      7  C   UNL A   1      31.795  24.959  24.256  1.00  0.00     0.316 C 
ATOM      8  C   UNL A   1      35.152  24.224  25.168  1.00  0.00     0.020 A 
ATOM      9  O   UNL A   1      32.520  23.157  24.090  1.00  0.00    -0.474 OA
ATOM     10  C   UNL A   1      36.445  24.085  25.588  1.00  0.00     0.032 A 
ATOM     11  C   UNL A   1      34.236  22.835  24.664  1.00  0.00     0.143 A 
ATOM     12  C   UNL A   1      36.920  22.775  25.586  1.00  0.00     0.043 A 
ATOM     13  C   UNL A   1      34.786  21.581  24.747  1.00  0.00     0.069 A 
ATOM     14  Cl  UNL A   1      38.547  22.539  26.132  1.00  0.00    -0.084 Cl
ATOM     15  C   UNL A   1      36.144  21.609  25.209  1.00  0.00     0.041 A 
BRANCH   7  16
ATOM     16  C   UNL A   1      31.440  26.171  23.245  1.00  0.00     0.430 C 
ATOM     17  F   UNL A   1      31.088  25.749  22.041  1.00  0.00    -0.167 F 
ATOM     18  F   UNL A   1      30.291  26.790  23.671  1.00  0.00    -0.167 F 
ATOM     19  F   UNL A   1      32.313  27.200  23.153  1.00  0.00    -0.167 F 
ENDBRANCH   7  16
BRANCH  13  20
ATOM     20  C   UNL A   1      34.185  20.310  24.621  1.00  0.00    -0.058 C 
ATOM     21  C   UNL A   1      33.921  19.127  24.712  1.00  0.00    -0.062 C 
BRANCH  21  22
ATOM     22  C   UNL A   1      33.723  17.733  24.932  1.00  0.00     0.025 A 
ATOM     23  C   UNL A   1      32.466  17.271  25.324  1.00  0.00     0.017 A 
ATOM     24  C   UNL A   1      34.779  16.824  24.783  1.00  0.00     0.017 A 
ATOM     25  C   UNL A   1      32.251  15.906  25.526  1.00  0.00     0.001 A 
ATOM     26  C   UNL A   1      34.562  15.457  24.986  1.00  0.00     0.001 A 
ATOM     27  C   UNL A   1      33.295  14.999  25.348  1.00  0.00     0.000 A 
ENDBRANCH  21  22
ENDBRANCH  13  20
ENDBRANCH   3   5
ENDBRANCH   2   3
ENDBRANCH   1   2
BRANCH   1  28
ATOM     28  C   UNL A   1      33.269  30.601  26.985  1.00  0.00     0.275 C 
BRANCH  28  29
ATOM     29  O   UNL A   1      33.947  31.359  28.426  1.00  0.00    -0.458 OA
BRANCH  29  30
ATOM     30  C   UNL A   1      35.148  31.637  29.060  1.00  0.00     0.338 C 
ATOM     31  O   UNL A   1      35.405  32.501  29.877  1.00  0.00    -0.246 OA
BRANCH  30  32
ATOM     32  C   UNL A   1      36.035  30.433  28.878  1.00  0.00     0.060 A 
ATOM     33  C   UNL A   1      36.819  30.317  27.711  1.00  0.00     0.016 A 
ATOM     34  C   UNL A   1      36.362  29.671  29.994  1.00  0.00     0.016 A 
ATOM     35  C   UNL A   1      38.095  29.702  27.788  1.00  0.00     0.010 A 
ATOM     36  C   UNL A   1      37.610  29.042  30.054  1.00  0.00     0.010 A 
ATOM     37  C   UNL A   1      38.538  29.157  29.004  1.00  0.00    -0.014 A 
BRANCH  37  38
ATOM     38  C   UNL A   1      39.886  28.534  29.184  1.00  0.00     0.031 A 
ATOM     39  C   UNL A   1      40.969  29.455  29.650  1.00  0.00     0.074 A 
ATOM     40  C   UNL A   1      40.202  27.267  28.823  1.00  0.00     0.049 A 
ATOM     41  N   UNL A   1      42.259  29.266  29.706  1.00  0.00    -0.248 NA
ATOM     42  C   UNL A   1      40.527  30.796  30.070  1.00  0.00     0.031 C 
ATOM     43  C   UNL A   1      39.270  26.239  28.360  1.00  0.00     0.029 A 
ATOM     44  N   UNL A   1      41.429  26.629  28.767  1.00  0.00    -0.354 N 
ATOM     45  C   UNL A   1      42.782  30.472  30.142  1.00  0.00     0.074 A 
ATOM     46  C   UNL A   1      41.680  31.393  30.299  1.00  0.00     0.031 C 
ATOM     47  C   UNL A   1      39.954  25.116  28.054  1.00  0.00     0.029 A 
ATOM     48  C   UNL A   1      41.382  25.342  28.264  1.00  0.00     0.049 A 
ATOM     49  H   UNL A   1      42.266  27.057  29.060  1.00  0.00     0.167 HD
ATOM     50  C   UNL A   1      44.068  30.795  30.397  1.00  0.00     0.031 A 
ATOM     51  C   UNL A   1      42.374  24.462  27.990  1.00  0.00     0.031 A 
ATOM     52  C   UNL A   1      45.175  29.903  30.230  1.00  0.00     0.049 A 
ATOM     53  C   UNL A   1      43.814  24.874  28.229  1.00  0.00     0.074 A 
ATOM     54  C   UNL A   1      46.510  30.138  30.499  1.00  0.00     0.029 A 
ATOM     55  N   UNL A   1      45.077  28.613  29.738  1.00  0.00    -0.354 N 
ATOM     56  N   UNL A   1      44.285  25.991  28.731  1.00  0.00    -0.248 NA
ATOM     57  C   UNL A   1      44.863  23.904  27.861  1.00  0.00     0.031 C 
ATOM     58  C   UNL A   1      47.232  29.007  30.112  1.00  0.00     0.029 A 
ATOM     59  C   UNL A   1      46.337  28.049  29.662  1.00  0.00     0.049 A 
ATOM     60  H   UNL A   1      44.238  28.166  29.482  1.00  0.00     0.167 HD
ATOM     61  C   UNL A   1      45.669  25.841  28.769  1.00  0.00     0.074 A 
ATOM     62  C   UNL A   1      45.966  24.520  28.263  1.00  0.00     0.031 C 
ATOM     63  C   UNL A   1      46.612  26.722  29.179  1.00  0.00     0.031 A 
BRANCH  50  64
ATOM     64  C   UNL A   1      44.325  32.196  30.858  1.00  0.00    -0.014 A 
ATOM     65  C   UNL A   1      44.586  33.223  29.937  1.00  0.00     0.009 A 
ATOM     66  C   UNL A   1      44.331  32.483  32.230  1.00  0.00     0.009 A 
ATOM     67  C   UNL A   1      44.887  34.507  30.386  1.00  0.00     0.001 A 
ATOM     68  C   UNL A   1      44.601  33.777  32.673  1.00  0.00     0.001 A 
ATOM     69  C   UNL A   1      44.889  34.784  31.752  1.00  0.00     0.000 A 
ENDBRANCH  50  64
BRANCH  51  70
ATOM     70  C   UNL A   1      42.107  23.102  27.417  1.00  0.00    -0.014 A 
ATOM     71  C   UNL A   1      41.678  22.046  28.244  1.00  0.00     0.009 A 
ATOM     72  C   UNL A   1      42.413  22.809  26.079  1.00  0.00     0.009 A 
ATOM     73  C   UNL A   1      41.618  20.732  27.764  1.00  0.00     0.001 A 
ATOM     74  C   UNL A   1      42.318  21.499  25.591  1.00  0.00     0.001 A 
ATOM     75  C   UNL A   1      41.939  20.459  26.437  1.00  0.00     0.000 A 
ENDBRANCH  51  70
BRANCH  63  76
ATOM     76  C   UNL A   1      48.052  26.291  29.142  1.00  0.00    -0.014 A 
ATOM     77  C   UNL A   1      48.849  26.510  28.008  1.00  0.00     0.009 A 
ATOM     78  C   UNL A   1      48.644  25.756  30.297  1.00  0.00     0.009 A 
ATOM     79  C   UNL A   1      50.208  26.187  28.029  1.00  0.00     0.001 A 
ATOM     80  C   UNL A   1      50.008  25.464  30.325  1.00  0.00     0.001 A 
ATOM     81  C   UNL A   1      50.788  25.675  29.190  1.00  0.00     0.000 A 
ENDBRANCH  63  76
ENDBRANCH  37  38
ENDBRANCH  30  32
ENDBRANCH  29  30
ENDBRANCH  28  29
ENDBRANCH   1  28
TORSDOF 14
ENDMDL
MODEL 2
REMARK VINA RESULT:     -13.6      3.262      7.142
REMARK SMILES O=C(OCCOC(=O)c1ccc(-c2c3nc(c(-c4ccccc4)c4ccc([nH]4)c(-c4ccccc4)c4nc(c(-c5ccccc5)c5ccc2[nH]5)C=C4)C=C3)cc1)C1=Cc2cc(Cl)cc(C#Cc3ccccc3)c2O[C@@H]1C(F)(F)F
REMARK SMILES IDX 4 1 3 2 2 3 1 4 57 5 58 6 75 7 59 8 74 9 60 10 73 11 61 12
REMARK SMILES IDX 64 13 62 14 63 15 76 16 77 17 78 18 79 19 65 20 66 21 67 22
REMARK SMILES IDX 68 23 72 24 69 25 71 26 70 27 5 28 6 29 7 30 8 31 9 32 10 33
REMARK SMILES IDX 56 34 11 35 55 36 12 37 13 38 14 39 49 40 15 41 54 42 48 43
REMARK SMILES IDX 50 44 16 45 53 46 47 47 46 48 17 50 39 51 24 52 38 53 25 54
REMARK SMILES IDX 28 55 37 56 51 57 26 58 27 59 36 61 52 62 29 63 18 64 19 65
REMARK SMILES IDX 23 66 20 67 22 68 21 69 40 70 41 71 45 72 42 73 44 74 43 75
REMARK SMILES IDX 30 76 31 77 35 78 32 79 34 80 33 81
REMARK H PARENT 50 49 28 60
REMARK Flexibility Score: inf
ROOT
ATOM      1  C   UNL A   1      32.170  28.413  27.200  1.00  0.00     0.275 C 
ENDROOT
BRANCH   1   2
ATOM      2  O   UNL A   1      32.975  27.157  26.780  1.00  0.00    -0.459 OA
BRANCH   2   3
ATOM      3  C   UNL A   1      32.210  26.186  26.265  1.00  0.00     0.338 C 
ATOM      4  O   UNL A   1      31.382  25.493  26.797  1.00  0.00    -0.246 OA
BRANCH   3   5
ATOM      5  C   UNL A   1      33.025  25.997  25.085  1.00  0.00     0.087 C 
ATOM      6  C   UNL A   1      34.409  25.707  25.379  1.00  0.00     0.027 C 
ATOM      7  C   UNL A   1      31.787  24.834  24.194  1.00  0.00     0.316 C 
ATOM      8  C   UNL A   1      35.136  24.101  25.135  1.00  0.00     0.020 A 
ATOM      9  O   UNL A   1      32.518  23.035  24.024  1.00  0.00    -0.474 OA
ATOM     10  C   UNL A   1      36.425  23.962  25.569  1.00  0.00     0.032 A 
ATOM     11  C   UNL A   1      34.229  22.713  24.613  1.00  0.00     0.143 A 
ATOM     12  C   UNL A   1      36.903  22.654  25.561  1.00  0.00     0.043 A 
ATOM     13  C   UNL A   1      34.782  21.460  24.693  1.00  0.00     0.069 A 
ATOM     14  Cl  UNL A   1      38.525  22.418  26.123  1.00  0.00    -0.084 Cl
ATOM     15  C   UNL A   1      36.134  21.488  25.169  1.00  0.00     0.041 A 
BRANCH   7  16
ATOM     16  C   UNL A   1      31.439  26.052  23.188  1.00  0.00     0.430 C 
ATOM     17  F   UNL A   1      31.153  25.640  21.963  1.00  0.00    -0.167 F 
ATOM     18  F   UNL A   1      30.254  26.629  23.573  1.00  0.00    -0.167 F 
ATOM     19  F   UNL A   1      32.282  27.109  23.152  1.00  0.00    -0.167 F 
ENDBRANCH   7  16
BRANCH  13  20
ATOM     20  C   UNL A   1      34.185  20.188  24.552  1.00  0.00    -0.058 C 
ATOM     21  C   UNL A   1      33.906  19.009  24.653  1.00  0.00    -0.062 C 
BRANCH  21  22
ATOM     22  C   UNL A   1      33.681  17.623  24.894  1.00  0.00     0.025 A 
ATOM     23  C   UNL A   1      34.707  16.709  24.655  1.00  0.00     0.017 A 
ATOM     24  C   UNL A   1      32.436  17.164  25.346  1.00  0.00     0.017 A 
ATOM     25  C   UNL A   1      34.508  15.349  24.903  1.00  0.00     0.001 A 
ATOM     26  C   UNL A   1      32.238  15.802  25.594  1.00  0.00     0.001 A 
ATOM     27  C   UNL A   1      33.279  14.897  25.381  1.00  0.00     0.000 A 
ENDBRANCH  21  22
ENDBRANCH  13  20
ENDBRANCH   3   5
ENDBRANCH   2   3
ENDBRANCH   1   2
BRANCH   1  28
ATOM     28  C   UNL A   1      32.432  30.434  26.436  1.00  0.00     0.275 C 
BRANCH  28  29
ATOM     29  O   UNL A   1      33.167  31.738  27.369  1.00  0.00    -0.458 OA
BRANCH  29  30
ATOM     30  C   UNL A   1      33.069  33.096  27.626  1.00  0.00     0.338 C 
ATOM     31  O   UNL A   1      32.152  33.861  27.389  1.00  0.00    -0.246 OA
BRANCH  30  32
ATOM     32  C   UNL A   1      34.142  33.438  28.626  1.00  0.00     0.060 A 
ATOM     33  C   UNL A   1      34.043  32.952  29.947  1.00  0.00     0.016 A 
ATOM     34  C   UNL A   1      35.374  33.880  28.157  1.00  0.00     0.016 A 
ATOM     35  C   UNL A   1      35.223  32.610  30.654  1.00  0.00     0.010 A 
ATOM     36  C   UNL A   1      36.535  33.566  28.872  1.00  0.00     0.010 A 
ATOM     37  C   UNL A   1      36.480  32.818  30.062  1.00  0.00    -0.014 A 
BRANCH  37  38
ATOM     38  C   UNL A   1      37.771  32.443  30.718  1.00  0.00     0.031 A 
ATOM     39  C   UNL A   1      38.456  31.236  30.157  1.00  0.00     0.074 A 
ATOM     40  C   UNL A   1      38.261  33.022  31.840  1.00  0.00     0.049 A 
ATOM     41  N   UNL A   1      39.465  30.555  30.627  1.00  0.00    -0.248 NA
ATOM     42  C   UNL A   1      37.885  30.704  28.908  1.00  0.00     0.031 C 
ATOM     43  C   UNL A   1      37.725  34.207  32.509  1.00  0.00     0.029 A 
ATOM     44  N   UNL A   1      39.330  32.664  32.642  1.00  0.00    -0.354 N 
ATOM     45  C   UNL A   1      39.630  29.500  29.745  1.00  0.00     0.074 A 
ATOM     46  C   UNL A   1      38.600  29.608  28.738  1.00  0.00     0.031 C 
ATOM     47  C   UNL A   1      38.450  34.466  33.618  1.00  0.00     0.029 A 
ATOM     48  C   UNL A   1      39.489  33.450  33.769  1.00  0.00     0.049 A 
ATOM     49  H   UNL A   1      39.929  31.912  32.428  1.00  0.00     0.167 HD
ATOM     50  C   UNL A   1      40.560  28.521  29.760  1.00  0.00     0.031 A 
ATOM     51  C   UNL A   1      40.356  33.347  34.804  1.00  0.00     0.031 A 
ATOM     52  C   UNL A   1      41.577  28.386  30.759  1.00  0.00     0.049 A 
ATOM     53  C   UNL A   1      41.350  32.201  34.825  1.00  0.00     0.074 A 
ATOM     54  C   UNL A   1      42.583  27.441  30.831  1.00  0.00     0.029 A 
ATOM     55  N   UNL A   1      41.707  29.209  31.864  1.00  0.00    -0.354 N 
ATOM     56  N   UNL A   1      41.553  31.262  33.931  1.00  0.00    -0.248 NA
ATOM     57  C   UNL A   1      42.235  32.098  36.001  1.00  0.00     0.031 C 
ATOM     58  C   UNL A   1      43.289  27.656  32.017  1.00  0.00     0.029 A 
ATOM     59  C   UNL A   1      42.759  28.772  32.646  1.00  0.00     0.049 A 
ATOM     60  H   UNL A   1      41.137  29.987  32.062  1.00  0.00     0.167 HD
ATOM     61  C   UNL A   1      42.602  30.488  34.420  1.00  0.00     0.074 A 
ATOM     62  C   UNL A   1      43.012  31.075  35.676  1.00  0.00     0.031 C 
ATOM     63  C   UNL A   1      43.171  29.383  33.881  1.00  0.00     0.031 A 
BRANCH  50  64
ATOM     64  C   UNL A   1      40.480  27.508  28.662  1.00  0.00    -0.014 A 
ATOM     65  C   UNL A   1      41.177  27.691  27.456  1.00  0.00     0.009 A 
ATOM     66  C   UNL A   1      39.677  26.371  28.826  1.00  0.00     0.009 A 
ATOM     67  C   UNL A   1      41.039  26.771  26.420  1.00  0.00     0.001 A 
ATOM     68  C   UNL A   1      39.568  25.435  27.798  1.00  0.00     0.001 A 
ATOM     69  C   UNL A   1      40.239  25.642  26.593  1.00  0.00     0.000 A 
ENDBRANCH  50  64
BRANCH  51  70
ATOM     70  C   UNL A   1      40.346  34.305  35.958  1.00  0.00    -0.014 A 
ATOM     71  C   UNL A   1      39.468  34.113  37.042  1.00  0.00     0.009 A 
ATOM     72  C   UNL A   1      41.102  35.487  35.923  1.00  0.00     0.009 A 
ATOM     73  C   UNL A   1      39.308  35.099  38.023  1.00  0.00     0.001 A 
ATOM     74  C   UNL A   1      40.966  36.457  36.925  1.00  0.00     0.001 A 
ATOM     75  C   UNL A   1      40.056  36.272  37.964  1.00  0.00     0.000 A 
ENDBRANCH  51  70
BRANCH  63  76
ATOM     76  C   UNL A   1      44.321  28.748  34.612  1.00  0.00    -0.014 A 
ATOM     77  C   UNL A   1      44.116  27.712  35.535  1.00  0.00     0.009 A 
ATOM     78  C   UNL A   1      45.636  29.121  34.289  1.00  0.00     0.009 A 
ATOM     79  C   UNL A   1      45.205  27.074  36.132  1.00  0.00     0.001 A 
ATOM     80  C   UNL A   1      46.722  28.460  34.862  1.00  0.00     0.001 A 
ATOM     81  C   UNL A   1      46.507  27.440  35.787  1.00  0.00     0.000 A 
ENDBRANCH  63  76
ENDBRANCH  37  38
ENDBRANCH  30  32
ENDBRANCH  29  30
ENDBRANCH  28  29
ENDBRANCH   1  28
TORSDOF 14
ENDMDL
MODEL 3
REMARK VINA RESULT:     -12.9      3.235      4.181
REMARK SMILES O=C(OCCOC(=O)c1ccc(-c2c3nc(c(-c4ccccc4)c4ccc([nH]4)c(-c4ccccc4)c4nc(c(-c5ccccc5)c5ccc2[nH]5)C=C4)C=C3)cc1)C1=Cc2cc(Cl)cc(C#Cc3ccccc3)c2O[C@@H]1C(F)(F)F
REMARK SMILES IDX 4 1 3 2 2 3 1 4 57 5 58 6 75 7 59 8 74 9 60 10 73 11 61 12
REMARK SMILES IDX 64 13 62 14 63 15 76 16 77 17 78 18 79 19 65 20 66 21 67 22
REMARK SMILES IDX 68 23 72 24 69 25 71 26 70 27 5 28 6 29 7 30 8 31 9 32 10 33
REMARK SMILES IDX 56 34 11 35 55 36 12 37 13 38 14 39 49 40 15 41 54 42 48 43
REMARK SMILES IDX 50 44 16 45 53 46 47 47 46 48 17 50 39 51 24 52 38 53 25 54
REMARK SMILES IDX 28 55 37 56 51 57 26 58 27 59 36 61 52 62 29 63 18 64 19 65
REMARK SMILES IDX 23 66 20 67 22 68 21 69 40 70 41 71 45 72 42 73 44 74 43 75
REMARK SMILES IDX 30 76 31 77 35 78 32 79 34 80 33 81
REMARK H PARENT 50 49 28 60
REMARK Flexibility Score: inf
ROOT
ATOM      1  C   UNL A   1      31.472  28.433  26.374  1.00  0.00     0.275 C 
ENDROOT
BRANCH   1   2
ATOM      2  O   UNL A   1      32.520  27.306  26.562  1.00  0.00    -0.459 OA
BRANCH   2   3
ATOM      3  C   UNL A   1      32.060  26.096  26.218  1.00  0.00     0.338 C 
ATOM      4  O   UNL A   1      31.441  25.293  26.867  1.00  0.00    -0.246 OA
BRANCH   3   5
ATOM      5  C   UNL A   1      32.922  25.958  25.064  1.00  0.00     0.087 C 
ATOM      6  C   UNL A   1      34.305  25.717  25.401  1.00  0.00     0.027 C 
ATOM      7  C   UNL A   1      31.761  24.764  24.112  1.00  0.00     0.316 C 
ATOM      8  C   UNL A   1      35.102  24.145  25.158  1.00  0.00     0.020 A 
ATOM      9  O   UNL A   1      32.568  22.998  23.940  1.00  0.00    -0.474 OA
ATOM     10  C   UNL A   1      36.380  24.049  25.634  1.00  0.00     0.032 A 
ATOM     11  C   UNL A   1      34.268  22.732  24.583  1.00  0.00     0.143 A 
ATOM     12  C   UNL A   1      36.909  22.760  25.623  1.00  0.00     0.043 A 
ATOM     13  C   UNL A   1      34.867  21.500  24.663  1.00  0.00     0.069 A 
ATOM     14  Cl  UNL A   1      38.519  22.578  26.237  1.00  0.00    -0.084 Cl
ATOM     15  C   UNL A   1      36.200  21.573  25.186  1.00  0.00     0.041 A 
BRANCH   7  16
ATOM     16  C   UNL A   1      31.400  25.985  23.114  1.00  0.00     0.430 C 
ATOM     17  F   UNL A   1      31.100  25.576  21.892  1.00  0.00    -0.167 F 
ATOM     18  F   UNL A   1      30.220  26.559  23.515  1.00  0.00    -0.167 F 
ATOM     19  F   UNL A   1      32.242  27.042  23.071  1.00  0.00    -0.167 F 
ENDBRANCH   7  16
BRANCH  13  20
ATOM     20  C   UNL A   1      34.326  20.209  24.481  1.00  0.00    -0.058 C 
ATOM     21  C   UNL A   1      34.030  19.036  24.606  1.00  0.00    -0.062 C 
BRANCH  21  22
ATOM     22  C   UNL A   1      33.749  17.670  24.897  1.00  0.00     0.025 A 
ATOM     23  C   UNL A   1      34.738  16.707  24.693  1.00  0.00     0.017 A 
ATOM     24  C   UNL A   1      32.487  17.277  25.362  1.00  0.00     0.017 A 
ATOM     25  C   UNL A   1      34.485  15.367  24.990  1.00  0.00     0.001 A 
ATOM     26  C   UNL A   1      32.235  15.934  25.660  1.00  0.00     0.001 A 
ATOM     27  C   UNL A   1      33.239  14.982  25.482  1.00  0.00     0.000 A 
ENDBRANCH  21  22
ENDBRANCH  13  20
ENDBRANCH   3   5
ENDBRANCH   2   3
ENDBRANCH   1   2
BRANCH   1  28
ATOM     28  C   UNL A   1      31.730  30.536  26.873  1.00  0.00     0.275 C 
BRANCH  28  29
ATOM     29  O   UNL A   1      33.299  31.340  26.912  1.00  0.00    -0.458 OA
BRANCH  29  30
ATOM     30  C   UNL A   1      34.112  32.126  27.714  1.00  0.00     0.338 C 
ATOM     31  O   UNL A   1      33.803  32.999  28.503  1.00  0.00    -0.246 OA
BRANCH  30  32
ATOM     32  C   UNL A   1      35.464  31.465  27.760  1.00  0.00     0.060 A 
ATOM     33  C   UNL A   1      36.605  32.234  28.075  1.00  0.00     0.016 A 
ATOM     34  C   UNL A   1      35.527  30.081  27.876  1.00  0.00     0.016 A 
ATOM     35  C   UNL A   1      37.664  31.641  28.808  1.00  0.00     0.010 A 
ATOM     36  C   UNL A   1      36.588  29.497  28.575  1.00  0.00     0.010 A 
ATOM     37  C   UNL A   1      37.600  30.282  29.157  1.00  0.00    -0.014 A 
BRANCH  37  38
ATOM     38  C   UNL A   1      38.649  29.590  29.968  1.00  0.00     0.031 A 
ATOM     39  C   UNL A   1      38.759  30.029  31.394  1.00  0.00     0.074 A 
ATOM     40  C   UNL A   1      39.565  28.727  29.467  1.00  0.00     0.049 A 
ATOM     41  N   UNL A   1      39.683  29.769  32.278  1.00  0.00    -0.248 NA
ATOM     42  C   UNL A   1      37.692  30.927  31.868  1.00  0.00     0.031 C 
ATOM     43  C   UNL A   1      39.597  28.190  28.107  1.00  0.00     0.029 A 
ATOM     44  N   UNL A   1      40.683  28.163  30.054  1.00  0.00    -0.354 N 
ATOM     45  C   UNL A   1      39.321  30.492  33.403  1.00  0.00     0.074 A 
ATOM     46  C   UNL A   1      38.120  31.227  33.080  1.00  0.00     0.031 C 
ATOM     47  C   UNL A   1      40.678  27.395  27.961  1.00  0.00     0.029 A 
ATOM     48  C   UNL A   1      41.446  27.383  29.204  1.00  0.00     0.049 A 
ATOM     49  H   UNL A   1      40.917  28.305  31.001  1.00  0.00     0.167 HD
ATOM     50  C   UNL A   1      39.926  30.543  34.609  1.00  0.00     0.031 A 
ATOM     51  C   UNL A   1      42.628  26.754  29.402  1.00  0.00     0.031 A 
ATOM     52  C   UNL A   1      41.125  29.837  34.943  1.00  0.00     0.049 A 
ATOM     53  C   UNL A   1      43.316  26.880  30.748  1.00  0.00     0.074 A 
ATOM     54  C   UNL A   1      41.789  29.806  36.155  1.00  0.00     0.029 A 
ATOM     55  N   UNL A   1      41.847  29.053  34.060  1.00  0.00    -0.354 N 
ATOM     56  N   UNL A   1      42.910  27.495  31.834  1.00  0.00    -0.248 NA
ATOM     57  C   UNL A   1      44.629  26.225  30.897  1.00  0.00     0.031 C 
ATOM     58  C   UNL A   1      42.950  29.047  35.990  1.00  0.00     0.029 A 
ATOM     59  C   UNL A   1      42.972  28.558  34.693  1.00  0.00     0.049 A 
ATOM     60  H   UNL A   1      41.596  28.874  33.125  1.00  0.00     0.167 HD
ATOM     61  C   UNL A   1      43.894  27.271  32.792  1.00  0.00     0.074 A 
ATOM     62  C   UNL A   1      44.908  26.447  32.174  1.00  0.00     0.031 C 
ATOM     63  C   UNL A   1      43.959  27.717  34.070  1.00  0.00     0.031 A 
BRANCH  50  64
ATOM     64  C   UNL A   1      39.292  31.428  35.636  1.00  0.00    -0.014 A 
ATOM     65  C   UNL A   1      38.276  30.946  36.477  1.00  0.00     0.009 A 
ATOM     66  C   UNL A   1      39.699  32.765  35.744  1.00  0.00     0.009 A 
ATOM     67  C   UNL A   1      37.652  31.802  37.383  1.00  0.00     0.001 A 
ATOM     68  C   UNL A   1      39.094  33.609  36.675  1.00  0.00     0.001 A 
ATOM     69  C   UNL A   1      38.065  33.129  37.485  1.00  0.00     0.000 A 
ENDBRANCH  50  64
BRANCH  51  70
ATOM     70  C   UNL A   1      43.310  25.966  28.323  1.00  0.00    -0.014 A 
ATOM     71  C   UNL A   1      43.252  24.559  28.317  1.00  0.00     0.009 A 
ATOM     72  C   UNL A   1      44.136  26.597  27.380  1.00  0.00     0.009 A 
ATOM     73  C   UNL A   1      44.044  23.809  27.438  1.00  0.00     0.001 A 
ATOM     74  C   UNL A   1      44.900  25.845  26.478  1.00  0.00     0.001 A 
ATOM     75  C   UNL A   1      44.869  24.453  26.519  1.00  0.00     0.000 A 
ENDBRANCH  51  70
BRANCH  63  76
ATOM     76  C   UNL A   1      45.134  27.300  34.910  1.00  0.00    -0.014 A 
ATOM     77  C   UNL A   1      46.278  28.105  35.012  1.00  0.00     0.009 A 
ATOM     78  C   UNL A   1      45.048  26.137  35.692  1.00  0.00     0.009 A 
ATOM     79  C   UNL A   1      47.319  27.745  35.871  1.00  0.00     0.001 A 
ATOM     80  C   UNL A   1      46.075  25.797  36.572  1.00  0.00     0.001 A 
ATOM     81  C   UNL A   1      47.212  26.597  36.658  1.00  0.00     0.000 A 
ENDBRANCH  63  76
ENDBRANCH  37  38
ENDBRANCH  30  32
ENDBRANCH  29  30
ENDBRANCH  28  29
ENDBRANCH   1  28
TORSDOF 14
ENDMDL
