MODEL 1
REMARK VINA RESULT:      -9.5      0.000      0.000
REMARK SMILES CC(C)([NH2+]C[C@@H]1CCCO1)C(=O)OCCOC(=O)c1ccc(-c2c3nc(c(-c4ccccc4)c4ccc([nH]4)c(-c4ccccc4)c4nc(c(-c5ccccc5)c5ccc2[nH]5)C=C4)C=C3)cc1
REMARK SMILES IDX 14 1 13 2 11 3 12 4 2 5 1 6 3 7 4 8 5 11 6 12 7 13 10 14
REMARK SMILES IDX 8 15 9 16 15 17 16 18 17 19 18 20 19 21 20 22 66 23 21 24
REMARK SMILES IDX 65 25 22 26 23 27 24 28 59 29 25 30 64 31 58 32 60 33 26 34
REMARK SMILES IDX 63 35 57 36 56 37 27 39 49 40 34 41 48 42 35 43 38 44 47 45
REMARK SMILES IDX 61 46 36 47 37 48 46 50 62 51 39 52 28 53 29 54 33 55 30 56
REMARK SMILES IDX 32 57 31 58 50 59 51 60 55 61 52 62 54 63 53 64 40 65 41 66
REMARK SMILES IDX 45 67 42 68 44 69 43 70
REMARK H PARENT 4 9 4 10 60 38 38 49
REMARK Flexibility Score: inf
ROOT
ATOM      1  C   UNL A   1      33.576  34.054  28.732  1.00  0.00     0.274 C 
ENDROOT
BRANCH   1   2
ATOM      2  O   UNL A   1      33.960  34.784  29.916  1.00  0.00    -0.457 OA
BRANCH   2   3
ATOM      3  C   UNL A   1      33.032  35.630  30.436  1.00  0.00     0.367 C 
ATOM      4  O   UNL A   1      32.300  36.338  29.746  1.00  0.00    -0.245 OA
BRANCH   3   5
ATOM      5  C   UNL A   1      32.996  35.677  31.986  1.00  0.00     0.188 C 
ATOM      6  C   UNL A   1      31.532  35.852  32.446  1.00  0.00     0.092 C 
ATOM      7  C   UNL A   1      33.729  36.966  32.391  1.00  0.00     0.092 C 
BRANCH   5   8
ATOM      8  N   UNL A   1      33.406  34.422  32.669  1.00  0.00    -0.330 N 
ATOM      9  H   UNL A   1      33.713  33.779  31.939  1.00  0.00     0.347 HD
ATOM     10  H   UNL A   1      32.576  34.171  33.205  1.00  0.00     0.347 HD
BRANCH   8  11
ATOM     11  C   UNL A   1      34.463  34.439  33.687  1.00  0.00     0.293 C 
BRANCH  11  12
ATOM     12  C   UNL A   1      35.686  33.593  33.339  1.00  0.00     0.173 C 
ATOM     13  C   UNL A   1      35.445  32.407  32.431  1.00  0.00     0.040 C 
ATOM     14  O   UNL A   1      36.251  32.987  34.517  1.00  0.00    -0.372 OA
ATOM     15  C   UNL A   1      36.748  31.656  32.620  1.00  0.00     0.031 C 
ATOM     16  C   UNL A   1      37.120  31.940  34.067  1.00  0.00     0.161 C 
ENDBRANCH  11  12
ENDBRANCH   8  11
ENDBRANCH   5   8
ENDBRANCH   3   5
ENDBRANCH   2   3
ENDBRANCH   1   2
BRANCH   1  17
ATOM     17  C   UNL A   1      34.706  33.128  28.294  1.00  0.00     0.275 C 
BRANCH  17  18
ATOM     18  O   UNL A   1      34.591  31.892  29.018  1.00  0.00    -0.458 OA
BRANCH  18  19
ATOM     19  C   UNL A   1      34.767  30.760  28.301  1.00  0.00     0.338 C 
ATOM     20  O   UNL A   1      33.950  30.190  27.599  1.00  0.00    -0.246 OA
BRANCH  19  21
ATOM     21  C   UNL A   1      36.150  30.283  28.497  1.00  0.00     0.060 A 
ATOM     22  C   UNL A   1      37.068  30.355  27.451  1.00  0.00     0.016 A 
ATOM     23  C   UNL A   1      36.521  29.692  29.701  1.00  0.00     0.016 A 
ATOM     24  C   UNL A   1      38.322  29.765  27.563  1.00  0.00     0.010 A 
ATOM     25  C   UNL A   1      37.826  29.209  29.856  1.00  0.00     0.010 A 
ATOM     26  C   UNL A   1      38.737  29.222  28.782  1.00  0.00    -0.014 A 
BRANCH  26  27
ATOM     27  C   UNL A   1      40.109  28.672  28.944  1.00  0.00     0.031 A 
ATOM     28  C   UNL A   1      41.228  29.568  29.398  1.00  0.00     0.074 A 
ATOM     29  C   UNL A   1      40.369  27.378  28.667  1.00  0.00     0.049 A 
ATOM     30  N   UNL A   1      42.521  29.374  29.335  1.00  0.00    -0.248 NA
ATOM     31  C   UNL A   1      40.842  30.862  29.984  1.00  0.00     0.031 C 
ATOM     32  C   UNL A   1      39.378  26.367  28.287  1.00  0.00     0.029 A 
ATOM     33  N   UNL A   1      41.559  26.690  28.657  1.00  0.00    -0.354 N 
ATOM     34  C   UNL A   1      43.102  30.545  29.804  1.00  0.00     0.074 A 
ATOM     35  C   UNL A   1      42.022  31.441  30.161  1.00  0.00     0.031 C 
ATOM     36  C   UNL A   1      39.993  25.187  28.114  1.00  0.00     0.029 A 
ATOM     37  C   UNL A   1      41.430  25.380  28.260  1.00  0.00     0.049 A 
ATOM     38  H   UNL A   1      42.420  27.095  28.909  1.00  0.00     0.167 HD
ATOM     39  C   UNL A   1      44.416  30.848  29.910  1.00  0.00     0.031 A 
ATOM     40  C   UNL A   1      42.360  24.451  27.974  1.00  0.00     0.031 A 
ATOM     41  C   UNL A   1      45.484  29.938  29.597  1.00  0.00     0.049 A 
ATOM     42  C   UNL A   1      43.811  24.827  28.040  1.00  0.00     0.074 A 
ATOM     43  C   UNL A   1      46.850  30.144  29.682  1.00  0.00     0.029 A 
ATOM     44  N   UNL A   1      45.303  28.637  29.154  1.00  0.00    -0.354 N 
ATOM     45  N   UNL A   1      44.352  25.965  28.404  1.00  0.00    -0.248 NA
ATOM     46  C   UNL A   1      44.778  23.803  27.621  1.00  0.00     0.031 C 
ATOM     47  C   UNL A   1      47.496  28.979  29.254  1.00  0.00     0.029 A 
ATOM     48  C   UNL A   1      46.531  28.035  28.942  1.00  0.00     0.049 A 
ATOM     49  H   UNL A   1      44.430  28.204  29.012  1.00  0.00     0.167 HD
ATOM     50  C   UNL A   1      45.720  25.794  28.257  1.00  0.00     0.074 A 
ATOM     51  C   UNL A   1      45.929  24.437  27.795  1.00  0.00     0.031 C 
ATOM     52  C   UNL A   1      46.715  26.687  28.475  1.00  0.00     0.031 A 
BRANCH  39  53
ATOM     53  C   UNL A   1      44.774  32.245  30.332  1.00  0.00    -0.014 A 
ATOM     54  C   UNL A   1      45.008  32.574  31.675  1.00  0.00     0.009 A 
ATOM     55  C   UNL A   1      44.911  33.243  29.353  1.00  0.00     0.009 A 
ATOM     56  C   UNL A   1      45.345  33.883  32.032  1.00  0.00     0.001 A 
ATOM     57  C   UNL A   1      45.271  34.543  29.709  1.00  0.00     0.001 A 
ATOM     58  C   UNL A   1      45.480  34.864  31.049  1.00  0.00     0.000 A 
ENDBRANCH  39  53
BRANCH  40  59
ATOM     59  C   UNL A   1      41.942  23.101  27.512  1.00  0.00    -0.014 A 
ATOM     60  C   UNL A   1      41.571  22.114  28.435  1.00  0.00     0.009 A 
ATOM     61  C   UNL A   1      41.898  22.802  26.141  1.00  0.00     0.009 A 
ATOM     62  C   UNL A   1      41.171  20.850  27.992  1.00  0.00     0.001 A 
ATOM     63  C   UNL A   1      41.470  21.548  25.700  1.00  0.00     0.001 A 
ATOM     64  C   UNL A   1      41.113  20.571  26.628  1.00  0.00     0.000 A 
ENDBRANCH  40  59
BRANCH  52  65
ATOM     65  C   UNL A   1      48.117  26.214  28.231  1.00  0.00    -0.014 A 
ATOM     66  C   UNL A   1      48.870  25.631  29.262  1.00  0.00     0.009 A 
ATOM     67  C   UNL A   1      48.676  26.322  26.949  1.00  0.00     0.009 A 
ATOM     68  C   UNL A   1      50.169  25.184  29.016  1.00  0.00     0.001 A 
ATOM     69  C   UNL A   1      49.968  25.855  26.702  1.00  0.00     0.001 A 
ATOM     70  C   UNL A   1      50.715  25.294  27.736  1.00  0.00     0.000 A 
ENDBRANCH  52  65
ENDBRANCH  26  27
ENDBRANCH  19  21
ENDBRANCH  18  19
ENDBRANCH  17  18
ENDBRANCH   1  17
TORSDOF 14
ENDMDL
MODEL 2
REMARK VINA RESULT:      -9.3      4.338     11.456
REMARK SMILES CC(C)([NH2+]C[C@@H]1CCCO1)C(=O)OCCOC(=O)c1ccc(-c2c3nc(c(-c4ccccc4)c4ccc([nH]4)c(-c4ccccc4)c4nc(c(-c5ccccc5)c5ccc2[nH]5)C=C4)C=C3)cc1
REMARK SMILES IDX 14 1 13 2 11 3 12 4 2 5 1 6 3 7 4 8 5 11 6 12 7 13 10 14
REMARK SMILES IDX 8 15 9 16 15 17 16 18 17 19 18 20 19 21 20 22 66 23 21 24
REMARK SMILES IDX 65 25 22 26 23 27 24 28 59 29 25 30 64 31 58 32 60 33 26 34
REMARK SMILES IDX 63 35 57 36 56 37 27 39 49 40 34 41 48 42 35 43 38 44 47 45
REMARK SMILES IDX 61 46 36 47 37 48 46 50 62 51 39 52 28 53 29 54 33 55 30 56
REMARK SMILES IDX 32 57 31 58 50 59 51 60 55 61 52 62 54 63 53 64 40 65 41 66
REMARK SMILES IDX 45 67 42 68 44 69 43 70
REMARK H PARENT 4 9 4 10 60 38 38 49
REMARK Flexibility Score: inf
ROOT
ATOM      1  C   UNL A   1      41.757  19.571  26.455  1.00  0.00     0.274 C 
ENDROOT
BRANCH   1   2
ATOM      2  O   UNL A   1      42.482  19.326  25.232  1.00  0.00    -0.457 OA
BRANCH   2   3
ATOM      3  C   UNL A   1      43.739  18.823  25.360  1.00  0.00     0.367 C 
ATOM      4  O   UNL A   1      44.019  17.886  26.107  1.00  0.00    -0.245 OA
BRANCH   3   5
ATOM      5  C   UNL A   1      44.818  19.557  24.523  1.00  0.00     0.188 C 
ATOM      6  C   UNL A   1      44.907  18.894  23.131  1.00  0.00     0.092 C 
ATOM      7  C   UNL A   1      46.160  19.277  25.217  1.00  0.00     0.092 C 
BRANCH   5   8
ATOM      8  N   UNL A   1      44.510  20.974  24.192  1.00  0.00    -0.330 N 
ATOM      9  H   UNL A   1      43.648  21.208  24.685  1.00  0.00     0.347 HD
ATOM     10  H   UNL A   1      44.489  20.971  23.173  1.00  0.00     0.347 HD
BRANCH   8  11
ATOM     11  C   UNL A   1      45.473  22.038  24.499  1.00  0.00     0.293 C 
BRANCH  11  12
ATOM     12  C   UNL A   1      44.862  23.267  25.169  1.00  0.00     0.173 C 
ATOM     13  C   UNL A   1      43.383  23.488  24.940  1.00  0.00     0.040 C 
ATOM     14  O   UNL A   1      45.452  24.480  24.665  1.00  0.00    -0.372 OA
ATOM     15  C   UNL A   1      43.250  24.919  25.424  1.00  0.00     0.031 C 
ATOM     16  C   UNL A   1      44.580  25.551  25.046  1.00  0.00     0.161 C 
ENDBRANCH  11  12
ENDBRANCH   8  11
ENDBRANCH   5   8
ENDBRANCH   3   5
ENDBRANCH   2   3
ENDBRANCH   1   2
BRANCH   1  17
ATOM     17  C   UNL A   1      40.512  20.404  26.172  1.00  0.00     0.275 C 
BRANCH  17  18
ATOM     18  O   UNL A   1      40.752  21.750  26.613  1.00  0.00    -0.458 OA
BRANCH  18  19
ATOM     19  C   UNL A   1      39.697  22.595  26.559  1.00  0.00     0.338 C 
ATOM     20  O   UNL A   1      38.589  22.372  26.106  1.00  0.00    -0.246 OA
BRANCH  19  21
ATOM     21  C   UNL A   1      40.094  23.887  27.151  1.00  0.00     0.060 A 
ATOM     22  C   UNL A   1      39.695  25.080  26.553  1.00  0.00     0.016 A 
ATOM     23  C   UNL A   1      40.929  23.920  28.264  1.00  0.00     0.016 A 
ATOM     24  C   UNL A   1      40.191  26.301  26.998  1.00  0.00     0.010 A 
ATOM     25  C   UNL A   1      41.328  25.155  28.788  1.00  0.00     0.010 A 
ATOM     26  C   UNL A   1      40.979  26.360  28.150  1.00  0.00    -0.014 A 
BRANCH  26  27
ATOM     27  C   UNL A   1      41.440  27.667  28.692  1.00  0.00     0.031 A 
ATOM     28  C   UNL A   1      40.438  28.652  29.227  1.00  0.00     0.074 A 
ATOM     29  C   UNL A   1      42.749  27.991  28.690  1.00  0.00     0.049 A 
ATOM     30  N   UNL A   1      40.585  29.928  29.478  1.00  0.00    -0.248 NA
ATOM     31  C   UNL A   1      39.086  28.138  29.499  1.00  0.00     0.031 C 
ATOM     32  C   UNL A   1      43.848  27.114  28.272  1.00  0.00     0.029 A 
ATOM     33  N   UNL A   1      43.380  29.157  29.049  1.00  0.00    -0.354 N 
ATOM     34  C   UNL A   1      39.332  30.384  29.866  1.00  0.00     0.074 A 
ATOM     35  C   UNL A   1      38.437  29.246  29.832  1.00  0.00     0.031 C 
ATOM     36  C   UNL A   1      45.013  27.760  28.429  1.00  0.00     0.029 A 
ATOM     37  C   UNL A   1      44.740  29.127  28.850  1.00  0.00     0.049 A 
ATOM     38  H   UNL A   1      42.905  29.938  29.413  1.00  0.00     0.167 HD
ATOM     39  C   UNL A   1      38.961  31.641  30.204  1.00  0.00     0.031 A 
ATOM     40  C   UNL A   1      45.663  30.104  28.926  1.00  0.00     0.031 A 
ATOM     41  C   UNL A   1      39.864  32.757  30.281  1.00  0.00     0.049 A 
ATOM     42  C   UNL A   1      45.220  31.502  29.243  1.00  0.00     0.074 A 
ATOM     43  C   UNL A   1      39.590  34.069  30.626  1.00  0.00     0.029 A 
ATOM     44  N   UNL A   1      41.224  32.687  30.025  1.00  0.00    -0.354 N 
ATOM     45  N   UNL A   1      44.018  31.942  29.527  1.00  0.00    -0.248 NA
ATOM     46  C   UNL A   1      46.255  32.544  29.214  1.00  0.00     0.031 C 
ATOM     47  C   UNL A   1      40.779  34.801  30.541  1.00  0.00     0.029 A 
ATOM     48  C   UNL A   1      41.800  33.936  30.184  1.00  0.00     0.049 A 
ATOM     49  H   UNL A   1      41.710  31.869  29.768  1.00  0.00     0.167 HD
ATOM     50  C   UNL A   1      44.152  33.310  29.710  1.00  0.00     0.074 A 
ATOM     51  C   UNL A   1      45.555  33.625  29.529  1.00  0.00     0.031 C 
ATOM     52  C   UNL A   1      43.195  34.227  29.992  1.00  0.00     0.031 A 
BRANCH  39  53
ATOM     53  C   UNL A   1      37.502  31.887  30.463  1.00  0.00    -0.014 A 
ATOM     54  C   UNL A   1      36.613  32.216  29.430  1.00  0.00     0.009 A 
ATOM     55  C   UNL A   1      37.006  31.753  31.771  1.00  0.00     0.009 A 
ATOM     56  C   UNL A   1      35.260  32.433  29.706  1.00  0.00     0.001 A 
ATOM     57  C   UNL A   1      35.651  31.947  32.040  1.00  0.00     0.001 A 
ATOM     58  C   UNL A   1      34.781  32.295  31.008  1.00  0.00     0.000 A 
ENDBRANCH  39  53
BRANCH  40  59
ATOM     59  C   UNL A   1      47.084  29.807  28.608  1.00  0.00    -0.014 A 
ATOM     60  C   UNL A   1      47.553  29.893  27.290  1.00  0.00     0.009 A 
ATOM     61  C   UNL A   1      47.981  29.449  29.627  1.00  0.00     0.009 A 
ATOM     62  C   UNL A   1      48.892  29.619  26.999  1.00  0.00     0.001 A 
ATOM     63  C   UNL A   1      49.325  29.204  29.338  1.00  0.00     0.001 A 
ATOM     64  C   UNL A   1      49.778  29.284  28.022  1.00  0.00     0.000 A 
ENDBRANCH  40  59
BRANCH  52  65
ATOM     65  C   UNL A   1      43.641  35.651  30.136  1.00  0.00    -0.014 A 
ATOM     66  C   UNL A   1      43.624  36.526  29.039  1.00  0.00     0.009 A 
ATOM     67  C   UNL A   1      44.050  36.130  31.390  1.00  0.00     0.009 A 
ATOM     68  C   UNL A   1      44.031  37.852  29.192  1.00  0.00     0.001 A 
ATOM     69  C   UNL A   1      44.436  37.462  31.544  1.00  0.00     0.001 A 
ATOM     70  C   UNL A   1      44.433  38.319  30.444  1.00  0.00     0.000 A 
ENDBRANCH  52  65
ENDBRANCH  26  27
ENDBRANCH  19  21
ENDBRANCH  18  19
ENDBRANCH  17  18
ENDBRANCH   1  17
TORSDOF 14
ENDMDL
MODEL 3
REMARK VINA RESULT:      -9.3      4.375     11.391
REMARK SMILES CC(C)([NH2+]C[C@@H]1CCCO1)C(=O)OCCOC(=O)c1ccc(-c2c3nc(c(-c4ccccc4)c4ccc([nH]4)c(-c4ccccc4)c4nc(c(-c5ccccc5)c5ccc2[nH]5)C=C4)C=C3)cc1
REMARK SMILES IDX 14 1 13 2 11 3 12 4 2 5 1 6 3 7 4 8 5 11 6 12 7 13 10 14
REMARK SMILES IDX 8 15 9 16 15 17 16 18 17 19 18 20 19 21 20 22 66 23 21 24
REMARK SMILES IDX 65 25 22 26 23 27 24 28 59 29 25 30 64 31 58 32 60 33 26 34
REMARK SMILES IDX 63 35 57 36 56 37 27 39 49 40 34 41 48 42 35 43 38 44 47 45
REMARK SMILES IDX 61 46 36 47 37 48 46 50 62 51 39 52 28 53 29 54 33 55 30 56
REMARK SMILES IDX 32 57 31 58 50 59 51 60 55 61 52 62 54 63 53 64 40 65 41 66
REMARK SMILES IDX 45 67 42 68 44 69 43 70
REMARK H PARENT 4 9 4 10 60 38 38 49
REMARK Flexibility Score: inf
ROOT
ATOM      1  C   UNL A   1      42.157  19.308  26.487  1.00  0.00     0.274 C 
ENDROOT
BRANCH   1   2
ATOM      2  O   UNL A   1      42.732  19.052  25.189  1.00  0.00    -0.457 OA
BRANCH   2   3
ATOM      3  C   UNL A   1      44.071  18.814  25.153  1.00  0.00     0.367 C 
ATOM      4  O   UNL A   1      44.614  17.907  25.782  1.00  0.00    -0.245 OA
BRANCH   3   5
ATOM      5  C   UNL A   1      44.883  19.816  24.291  1.00  0.00     0.188 C 
ATOM      6  C   UNL A   1      44.964  19.278  22.845  1.00  0.00     0.092 C 
ATOM      7  C   UNL A   1      46.318  19.786  24.840  1.00  0.00     0.092 C 
BRANCH   5   8
ATOM      8  N   UNL A   1      44.255  21.151  24.109  1.00  0.00    -0.330 N 
ATOM      9  H   UNL A   1      43.596  21.271  24.878  1.00  0.00     0.347 HD
ATOM     10  H   UNL A   1      43.878  21.100  23.163  1.00  0.00     0.347 HD
BRANCH   8  11
ATOM     11  C   UNL A   1      45.081  22.364  24.069  1.00  0.00     0.293 C 
BRANCH  11  12
ATOM     12  C   UNL A   1      45.020  23.210  25.339  1.00  0.00     0.173 C 
ATOM     13  C   UNL A   1      46.333  23.442  26.054  1.00  0.00     0.040 C 
ATOM     14  O   UNL A   1      44.211  22.576  26.347  1.00  0.00    -0.372 OA
ATOM     15  C   UNL A   1      45.825  23.971  27.380  1.00  0.00     0.031 C 
ATOM     16  C   UNL A   1      44.518  23.222  27.589  1.00  0.00     0.161 C 
ENDBRANCH  11  12
ENDBRANCH   8  11
ENDBRANCH   5   8
ENDBRANCH   3   5
ENDBRANCH   2   3
ENDBRANCH   1   2
BRANCH   1  17
ATOM     17  C   UNL A   1      40.754  19.886  26.337  1.00  0.00     0.275 C 
BRANCH  17  18
ATOM     18  O   UNL A   1      40.728  21.187  26.945  1.00  0.00    -0.458 OA
BRANCH  18  19
ATOM     19  C   UNL A   1      39.705  21.995  26.585  1.00  0.00     0.338 C 
ATOM     20  O   UNL A   1      38.675  21.683  26.015  1.00  0.00    -0.246 OA
BRANCH  19  21
ATOM     21  C   UNL A   1      40.025  23.377  26.994  1.00  0.00     0.060 A 
ATOM     22  C   UNL A   1      39.542  24.454  26.254  1.00  0.00     0.016 A 
ATOM     23  C   UNL A   1      40.873  23.607  28.074  1.00  0.00     0.016 A 
ATOM     24  C   UNL A   1      39.964  25.751  26.526  1.00  0.00     0.010 A 
ATOM     25  C   UNL A   1      41.198  24.923  28.424  1.00  0.00     0.010 A 
ATOM     26  C   UNL A   1      40.764  26.010  27.642  1.00  0.00    -0.014 A 
BRANCH  26  27
ATOM     27  C   UNL A   1      41.146  27.403  27.998  1.00  0.00     0.031 A 
ATOM     28  C   UNL A   1      42.590  27.822  27.943  1.00  0.00     0.074 A 
ATOM     29  C   UNL A   1      40.214  28.294  28.394  1.00  0.00     0.049 A 
ATOM     30  N   UNL A   1      43.167  28.872  28.469  1.00  0.00    -0.248 NA
ATOM     31  C   UNL A   1      43.508  26.932  27.214  1.00  0.00     0.031 C 
ATOM     32  C   UNL A   1      38.767  28.061  28.429  1.00  0.00     0.029 A 
ATOM     33  N   UNL A   1      40.349  29.583  28.850  1.00  0.00    -0.354 N 
ATOM     34  C   UNL A   1      44.522  28.732  28.199  1.00  0.00     0.074 A 
ATOM     35  C   UNL A   1      44.681  27.503  27.450  1.00  0.00     0.031 C 
ATOM     36  C   UNL A   1      38.150  29.175  28.850  1.00  0.00     0.029 A 
ATOM     37  C   UNL A   1      39.157  30.160  29.218  1.00  0.00     0.049 A 
ATOM     38  H   UNL A   1      41.215  30.048  28.907  1.00  0.00     0.167 HD
ATOM     39  C   UNL A   1      45.540  29.549  28.557  1.00  0.00     0.031 A 
ATOM     40  C   UNL A   1      38.899  31.321  29.848  1.00  0.00     0.031 A 
ATOM     41  C   UNL A   1      45.370  30.791  29.261  1.00  0.00     0.049 A 
ATOM     42  C   UNL A   1      40.046  32.181  30.292  1.00  0.00     0.074 A 
ATOM     43  C   UNL A   1      46.337  31.698  29.661  1.00  0.00     0.029 A 
ATOM     44  N   UNL A   1      44.147  31.311  29.654  1.00  0.00    -0.354 N 
ATOM     45  N   UNL A   1      41.331  32.001  30.106  1.00  0.00    -0.248 NA
ATOM     46  C   UNL A   1      39.708  33.386  31.062  1.00  0.00     0.031 C 
ATOM     47  C   UNL A   1      45.700  32.748  30.331  1.00  0.00     0.029 A 
ATOM     48  C   UNL A   1      44.334  32.516  30.310  1.00  0.00     0.049 A 
ATOM     49  H   UNL A   1      43.273  30.887  29.490  1.00  0.00     0.167 HD
ATOM     50  C   UNL A   1      41.955  33.067  30.736  1.00  0.00     0.074 A 
ATOM     51  C   UNL A   1      40.908  33.903  31.288  1.00  0.00     0.031 C 
ATOM     52  C   UNL A   1      43.279  33.325  30.857  1.00  0.00     0.031 A 
BRANCH  39  53
ATOM     53  C   UNL A   1      46.937  29.095  28.243  1.00  0.00    -0.014 A 
ATOM     54  C   UNL A   1      47.589  29.474  27.062  1.00  0.00     0.009 A 
ATOM     55  C   UNL A   1      47.623  28.296  29.174  1.00  0.00     0.009 A 
ATOM     56  C   UNL A   1      48.892  29.038  26.804  1.00  0.00     0.001 A 
ATOM     57  C   UNL A   1      48.932  27.882  28.926  1.00  0.00     0.001 A 
ATOM     58  C   UNL A   1      49.562  28.247  27.737  1.00  0.00     0.000 A 
ENDBRANCH  39  53
BRANCH  40  59
ATOM     59  C   UNL A   1      37.497  31.690  30.177  1.00  0.00    -0.014 A 
ATOM     60  C   UNL A   1      36.934  31.326  31.408  1.00  0.00     0.009 A 
ATOM     61  C   UNL A   1      36.721  32.420  29.262  1.00  0.00     0.009 A 
ATOM     62  C   UNL A   1      35.617  31.682  31.712  1.00  0.00     0.001 A 
ATOM     63  C   UNL A   1      35.416  32.800  29.582  1.00  0.00     0.001 A 
ATOM     64  C   UNL A   1      34.863  32.425  30.804  1.00  0.00     0.000 A 
ENDBRANCH  40  59
BRANCH  52  65
ATOM     65  C   UNL A   1      43.663  34.570  31.601  1.00  0.00    -0.014 A 
ATOM     66  C   UNL A   1      43.781  35.799  30.935  1.00  0.00     0.009 A 
ATOM     67  C   UNL A   1      43.875  34.517  32.987  1.00  0.00     0.009 A 
ATOM     68  C   UNL A   1      44.126  36.951  31.642  1.00  0.00     0.001 A 
ATOM     69  C   UNL A   1      44.201  35.674  33.694  1.00  0.00     0.001 A 
ATOM     70  C   UNL A   1      44.333  36.888  33.021  1.00  0.00     0.000 A 
ENDBRANCH  52  65
ENDBRANCH  26  27
ENDBRANCH  19  21
ENDBRANCH  18  19
ENDBRANCH  17  18
ENDBRANCH   1  17
TORSDOF 14
ENDMDL
