MODEL 1
REMARK VINA RESULT:     -11.1      0.000      0.000
REMARK SMILES Cc1c[nH]c(C[N@H+]2C[C@@H]3CN(S(C)(=O)=O)C[C@]3(C(=O)OCCOC(=O)c3ccc(-c4c5nc(c(-c6ccccc6)c6ccc([nH]6)c(-c6ccccc6)c6nc(c(-c7ccccc7)c7ccc4[nH]7)C=C6)C=C5)cc3)C2)n1
REMARK SMILES IDX 21 1 20 2 18 3 19 4 17 5 7 6 8 7 74 8 9 10 10 11 16 12 11 13
REMARK SMILES IDX 6 14 5 15 1 16 2 17 3 18 75 19 4 20 12 22 13 23 14 24 15 25
REMARK SMILES IDX 22 26 23 27 24 28 25 29 26 30 27 31 73 32 28 33 72 34 29 35
REMARK SMILES IDX 30 36 31 37 66 38 32 39 71 40 65 41 67 42 33 43 70 44 64 45
REMARK SMILES IDX 63 46 34 48 56 49 41 50 55 51 42 52 45 53 54 54 68 55 43 56
REMARK SMILES IDX 44 57 53 59 69 60 46 61 35 62 36 63 40 64 37 65 39 66 38 67
REMARK SMILES IDX 57 68 58 69 62 70 59 71 61 72 60 73 47 74 48 75 52 76 49 77
REMARK SMILES IDX 51 78 50 79
REMARK H PARENT 7 9 4 21 67 47 45 58
REMARK Flexibility Score: inf
ROOT
ATOM      1  C   UNL A   1      33.115  29.248  24.657  1.00  0.00     0.274 C 
ENDROOT
BRANCH   1   2
ATOM      2  O   UNL A   1      32.863  28.967  23.252  1.00  0.00    -0.461 OA
BRANCH   2   3
ATOM      3  C   UNL A   1      32.827  27.640  22.915  1.00  0.00     0.319 C 
ATOM      4  O   UNL A   1      33.603  27.225  22.063  1.00  0.00    -0.251 OA
BRANCH   3   5
ATOM      5  C   UNL A   1      31.641  26.813  23.653  1.00  0.00     0.140 C 
ATOM      6  N   UNL A   1      29.270  27.831  23.605  1.00  0.00    -0.327 N 
ATOM      7  C   UNL A   1      29.101  26.454  23.973  1.00  0.00     0.268 C 
ATOM      8  C   UNL A   1      30.628  27.919  23.058  1.00  0.00     0.283 C 
ATOM      9  H   UNL A   1      29.138  28.423  24.425  1.00  0.00     0.348 HD
ATOM     10  C   UNL A   1      30.367  25.813  23.436  1.00  0.00     0.084 C 
ATOM     11  C   UNL A   1      30.563  24.495  24.175  1.00  0.00     0.113 C 
ATOM     12  C   UNL A   1      32.495  25.485  23.358  1.00  0.00     0.127 C 
ATOM     13  N   UNL A   1      32.003  24.449  24.305  1.00  0.00    -0.200 NA
BRANCH   6  14
ATOM     14  C   UNL A   1      28.254  28.362  22.670  1.00  0.00     0.338 C 
BRANCH  14  15
ATOM     15  C   UNL A   1      28.295  29.840  22.363  1.00  0.00     0.161 A 
ATOM     16  C   UNL A   1      28.850  33.317  22.961  1.00  0.00     0.068 C 
ATOM     17  C   UNL A   1      28.541  31.986  22.394  1.00  0.00     0.056 A 
ATOM     18  C   UNL A   1      28.080  31.678  21.136  1.00  0.00     0.107 A 
ATOM     19  N   UNL A   1      28.671  30.837  23.144  1.00  0.00    -0.233 NA
ATOM     20  N   UNL A   1      27.922  30.323  21.130  1.00  0.00    -0.344 N 
ATOM     21  H   UNL A   1      27.595  29.783  20.374  1.00  0.00     0.167 HD
ENDBRANCH  14  15
ENDBRANCH   6  14
BRANCH  13  22
ATOM     22  S   UNL A   1      32.644  24.377  25.874  1.00  0.00     0.211 S 
ATOM     23  C   UNL A   1      32.826  22.623  26.182  1.00  0.00     0.176 C 
ATOM     24  O   UNL A   1      33.968  24.946  25.831  1.00  0.00    -0.213 OA
ATOM     25  O   UNL A   1      31.639  24.876  26.794  1.00  0.00    -0.213 OA
ENDBRANCH  13  22
ENDBRANCH   3   5
ENDBRANCH   2   3
ENDBRANCH   1   2
BRANCH   1  26
ATOM     26  C   UNL A   1      32.009  30.076  25.356  1.00  0.00     0.275 C 
BRANCH  26  27
ATOM     27  O   UNL A   1      32.287  30.307  26.759  1.00  0.00    -0.458 OA
BRANCH  27  28
ATOM     28  C   UNL A   1      32.874  31.487  27.086  1.00  0.00     0.338 C 
ATOM     29  O   UNL A   1      32.381  32.598  26.995  1.00  0.00    -0.246 OA
BRANCH  28  30
ATOM     30  C   UNL A   1      34.202  31.263  27.702  1.00  0.00     0.060 A 
ATOM     31  C   UNL A   1      34.537  29.967  28.073  1.00  0.00     0.016 A 
ATOM     32  C   UNL A   1      35.050  32.306  28.069  1.00  0.00     0.016 A 
ATOM     33  C   UNL A   1      35.711  29.684  28.758  1.00  0.00     0.010 A 
ATOM     34  C   UNL A   1      36.256  32.022  28.742  1.00  0.00     0.010 A 
ATOM     35  C   UNL A   1      36.603  30.701  29.090  1.00  0.00    -0.014 A 
BRANCH  35  36
ATOM     36  C   UNL A   1      37.846  30.356  29.840  1.00  0.00     0.031 A 
ATOM     37  C   UNL A   1      38.943  29.569  29.177  1.00  0.00     0.074 A 
ATOM     38  C   UNL A   1      38.041  30.824  31.092  1.00  0.00     0.049 A 
ATOM     39  N   UNL A   1      40.040  29.076  29.698  1.00  0.00    -0.248 NA
ATOM     40  C   UNL A   1      38.803  29.319  27.733  1.00  0.00     0.031 C 
ATOM     41  C   UNL A   1      37.127  31.706  31.822  1.00  0.00     0.029 A 
ATOM     42  N   UNL A   1      39.084  30.636  31.970  1.00  0.00    -0.354 N 
ATOM     43  C   UNL A   1      40.700  28.432  28.658  1.00  0.00     0.074 A 
ATOM     44  C   UNL A   1      39.886  28.601  27.474  1.00  0.00     0.031 C 
ATOM     45  C   UNL A   1      37.661  32.006  33.016  1.00  0.00     0.029 A 
ATOM     46  C   UNL A   1      38.897  31.252  33.186  1.00  0.00     0.049 A 
ATOM     47  H   UNL A   1      39.886  30.111  31.749  1.00  0.00     0.167 HD
ATOM     48  C   UNL A   1      41.871  27.751  28.691  1.00  0.00     0.031 A 
ATOM     49  C   UNL A   1      39.596  31.171  34.335  1.00  0.00     0.031 A 
ATOM     50  C   UNL A   1      42.673  27.573  29.873  1.00  0.00     0.049 A 
ATOM     51  C   UNL A   1      40.794  30.266  34.394  1.00  0.00     0.074 A 
ATOM     52  C   UNL A   1      43.853  26.863  30.017  1.00  0.00     0.029 A 
ATOM     53  N   UNL A   1      42.372  28.106  31.116  1.00  0.00    -0.354 N 
ATOM     54  N   UNL A   1      41.371  29.598  33.425  1.00  0.00    -0.248 NA
ATOM     55  C   UNL A   1      41.414  30.074  35.712  1.00  0.00     0.031 C 
ATOM     56  C   UNL A   1      44.229  26.911  31.364  1.00  0.00     0.029 A 
ATOM     57  C   UNL A   1      43.319  27.704  32.044  1.00  0.00     0.049 A 
ATOM     58  H   UNL A   1      41.601  28.685  31.312  1.00  0.00     0.167 HD
ATOM     59  C   UNL A   1      42.421  28.909  34.013  1.00  0.00     0.074 A 
ATOM     60  C   UNL A   1      42.421  29.262  35.419  1.00  0.00     0.031 C 
ATOM     61  C   UNL A   1      43.301  28.053  33.442  1.00  0.00     0.031 A 
BRANCH  48  62
ATOM     62  C   UNL A   1      42.311  27.072  27.423  1.00  0.00    -0.014 A 
ATOM     63  C   UNL A   1      43.158  27.705  26.501  1.00  0.00     0.009 A 
ATOM     64  C   UNL A   1      41.883  25.760  27.163  1.00  0.00     0.009 A 
ATOM     65  C   UNL A   1      43.538  27.048  25.327  1.00  0.00     0.001 A 
ATOM     66  C   UNL A   1      42.286  25.097  26.003  1.00  0.00     0.001 A 
ATOM     67  C   UNL A   1      43.105  25.745  25.081  1.00  0.00     0.000 A 
ENDBRANCH  48  62
BRANCH  49  68
ATOM     68  C   UNL A   1      39.114  31.878  35.553  1.00  0.00    -0.014 A 
ATOM     69  C   UNL A   1      38.196  31.276  36.425  1.00  0.00     0.009 A 
ATOM     70  C   UNL A   1      39.572  33.174  35.847  1.00  0.00     0.009 A 
ATOM     71  C   UNL A   1      37.745  31.958  37.560  1.00  0.00     0.001 A 
ATOM     72  C   UNL A   1      39.148  33.838  36.998  1.00  0.00     0.001 A 
ATOM     73  C   UNL A   1      38.229  33.234  37.850  1.00  0.00     0.000 A 
ENDBRANCH  49  68
BRANCH  61  74
ATOM     74  C   UNL A   1      44.348  27.448  34.332  1.00  0.00    -0.014 A 
ATOM     75  C   UNL A   1      45.561  28.110  34.575  1.00  0.00     0.009 A 
ATOM     76  C   UNL A   1      44.098  26.224  34.972  1.00  0.00     0.009 A 
ATOM     77  C   UNL A   1      46.515  27.545  35.425  1.00  0.00     0.001 A 
ATOM     78  C   UNL A   1      45.042  25.676  35.842  1.00  0.00     0.001 A 
ATOM     79  C   UNL A   1      46.252  26.333  36.062  1.00  0.00     0.000 A 
ENDBRANCH  61  74
ENDBRANCH  35  36
ENDBRANCH  28  30
ENDBRANCH  27  28
ENDBRANCH  26  27
ENDBRANCH   1  26
TORSDOF 14
ENDMDL
MODEL 2
REMARK VINA RESULT:     -11.1      3.330      7.785
REMARK SMILES Cc1c[nH]c(C[N@H+]2C[C@@H]3CN(S(C)(=O)=O)C[C@]3(C(=O)OCCOC(=O)c3ccc(-c4c5nc(c(-c6ccccc6)c6ccc([nH]6)c(-c6ccccc6)c6nc(c(-c7ccccc7)c7ccc4[nH]7)C=C6)C=C5)cc3)C2)n1
REMARK SMILES IDX 21 1 20 2 18 3 19 4 17 5 7 6 8 7 74 8 9 10 10 11 16 12 11 13
REMARK SMILES IDX 6 14 5 15 1 16 2 17 3 18 75 19 4 20 12 22 13 23 14 24 15 25
REMARK SMILES IDX 22 26 23 27 24 28 25 29 26 30 27 31 73 32 28 33 72 34 29 35
REMARK SMILES IDX 30 36 31 37 66 38 32 39 71 40 65 41 67 42 33 43 70 44 64 45
REMARK SMILES IDX 63 46 34 48 56 49 41 50 55 51 42 52 45 53 54 54 68 55 43 56
REMARK SMILES IDX 44 57 53 59 69 60 46 61 35 62 36 63 40 64 37 65 39 66 38 67
REMARK SMILES IDX 57 68 58 69 62 70 59 71 61 72 60 73 47 74 48 75 52 76 49 77
REMARK SMILES IDX 51 78 50 79
REMARK H PARENT 7 9 4 21 67 47 45 58
REMARK Flexibility Score: inf
ROOT
ATOM      1  C   UNL A   1      31.914  27.954  27.675  1.00  0.00     0.274 C 
ENDROOT
BRANCH   1   2
ATOM      2  O   UNL A   1      30.942  27.356  26.773  1.00  0.00    -0.461 OA
BRANCH   2   3
ATOM      3  C   UNL A   1      31.294  26.138  26.254  1.00  0.00     0.319 C 
ATOM      4  O   UNL A   1      31.249  25.151  26.978  1.00  0.00    -0.251 OA
BRANCH   3   5
ATOM      5  C   UNL A   1      31.840  26.215  24.727  1.00  0.00     0.140 C 
ATOM      6  N   UNL A   1      33.924  24.814  24.133  1.00  0.00    -0.327 N 
ATOM      7  C   UNL A   1      33.322  25.175  22.882  1.00  0.00     0.268 C 
ATOM      8  C   UNL A   1      32.891  25.063  25.144  1.00  0.00     0.283 C 
ATOM      9  H   UNL A   1      34.764  25.372  24.283  1.00  0.00     0.348 HD
ATOM     10  C   UNL A   1      31.886  25.460  23.279  1.00  0.00     0.084 C 
ATOM     11  C   UNL A   1      31.270  26.321  22.183  1.00  0.00     0.113 C 
ATOM     12  C   UNL A   1      30.332  26.556  24.292  1.00  0.00     0.127 C 
ATOM     13  N   UNL A   1      30.416  27.199  22.953  1.00  0.00    -0.200 NA
BRANCH   6  14
ATOM     14  C   UNL A   1      34.452  23.433  24.202  1.00  0.00     0.338 C 
BRANCH  14  15
ATOM     15  C   UNL A   1      35.796  23.233  24.863  1.00  0.00     0.161 A 
ATOM     16  C   UNL A   1      38.794  21.527  25.785  1.00  0.00     0.068 C 
ATOM     17  C   UNL A   1      37.698  22.497  25.575  1.00  0.00     0.056 A 
ATOM     18  C   UNL A   1      37.582  23.777  26.065  1.00  0.00     0.107 A 
ATOM     19  N   UNL A   1      36.584  22.174  24.831  1.00  0.00    -0.233 NA
ATOM     20  N   UNL A   1      36.376  24.229  25.615  1.00  0.00    -0.344 N 
ATOM     21  H   UNL A   1      35.986  25.115  25.798  1.00  0.00     0.167 HD
ENDBRANCH  14  15
ENDBRANCH   6  14
BRANCH  13  22
ATOM     22  S   UNL A   1      30.705  28.866  22.842  1.00  0.00     0.211 S 
ATOM     23  C   UNL A   1      32.467  28.978  22.556  1.00  0.00     0.176 C 
ATOM     24  O   UNL A   1      30.044  29.346  21.653  1.00  0.00    -0.213 OA
ATOM     25  O   UNL A   1      30.439  29.457  24.141  1.00  0.00    -0.213 OA
ENDBRANCH  13  22
ENDBRANCH   3   5
ENDBRANCH   2   3
ENDBRANCH   1   2
BRANCH   1  26
ATOM     26  C   UNL A   1      32.626  29.209  27.113  1.00  0.00     0.275 C 
BRANCH  26  27
ATOM     27  O   UNL A   1      34.065  29.149  27.264  1.00  0.00    -0.458 OA
BRANCH  27  28
ATOM     28  C   UNL A   1      34.677  30.236  27.800  1.00  0.00     0.338 C 
ATOM     29  O   UNL A   1      34.186  31.338  27.975  1.00  0.00    -0.246 OA
BRANCH  28  30
ATOM     30  C   UNL A   1      36.037  29.895  28.277  1.00  0.00     0.060 A 
ATOM     31  C   UNL A   1      37.086  29.991  27.372  1.00  0.00     0.016 A 
ATOM     32  C   UNL A   1      36.279  29.333  29.529  1.00  0.00     0.016 A 
ATOM     33  C   UNL A   1      38.372  29.583  27.700  1.00  0.00     0.010 A 
ATOM     34  C   UNL A   1      37.589  28.942  29.877  1.00  0.00     0.010 A 
ATOM     35  C   UNL A   1      38.655  29.068  28.963  1.00  0.00    -0.014 A 
BRANCH  35  36
ATOM     36  C   UNL A   1      40.047  28.628  29.269  1.00  0.00     0.031 A 
ATOM     37  C   UNL A   1      40.960  29.500  30.087  1.00  0.00     0.074 A 
ATOM     38  C   UNL A   1      40.474  27.402  28.895  1.00  0.00     0.049 A 
ATOM     39  N   UNL A   1      42.233  29.342  30.358  1.00  0.00    -0.248 NA
ATOM     40  C   UNL A   1      40.363  30.697  30.701  1.00  0.00     0.031 C 
ATOM     41  C   UNL A   1      39.664  26.392  28.210  1.00  0.00     0.029 A 
ATOM     42  N   UNL A   1      41.695  26.788  29.054  1.00  0.00    -0.354 N 
ATOM     43  C   UNL A   1      42.594  30.431  31.141  1.00  0.00     0.074 A 
ATOM     44  C   UNL A   1      41.407  31.241  31.309  1.00  0.00     0.031 C 
ATOM     45  C   UNL A   1      40.395  25.281  28.037  1.00  0.00     0.029 A 
ATOM     46  C   UNL A   1      41.756  25.533  28.494  1.00  0.00     0.049 A 
ATOM     47  H   UNL A   1      42.451  27.206  29.524  1.00  0.00     0.167 HD
ATOM     48  C   UNL A   1      43.808  30.736  31.661  1.00  0.00     0.031 A 
ATOM     49  C   UNL A   1      42.798  24.701  28.302  1.00  0.00     0.031 A 
ATOM     50  C   UNL A   1      44.991  29.935  31.482  1.00  0.00     0.049 A 
ATOM     51  C   UNL A   1      44.169  25.141  28.731  1.00  0.00     0.074 A 
ATOM     52  C   UNL A   1      46.277  30.181  31.933  1.00  0.00     0.029 A 
ATOM     53  N   UNL A   1      45.032  28.735  30.790  1.00  0.00    -0.354 N 
ATOM     54  N   UNL A   1      44.517  26.210  29.406  1.00  0.00    -0.248 NA
ATOM     55  C   UNL A   1      45.294  24.280  28.341  1.00  0.00     0.031 C 
ATOM     56  C   UNL A   1      47.109  29.163  31.455  1.00  0.00     0.029 A 
ATOM     57  C   UNL A   1      46.330  28.250  30.763  1.00  0.00     0.049 A 
ATOM     58  H   UNL A   1      44.256  28.292  30.379  1.00  0.00     0.167 HD
ATOM     59  C   UNL A   1      45.899  26.150  29.522  1.00  0.00     0.074 A 
ATOM     60  C   UNL A   1      46.323  24.925  28.874  1.00  0.00     0.031 C 
ATOM     61  C   UNL A   1      46.741  27.036  30.105  1.00  0.00     0.031 A 
BRANCH  48  62
ATOM     62  C   UNL A   1      43.935  32.037  32.404  1.00  0.00    -0.014 A 
ATOM     63  C   UNL A   1      44.232  33.239  31.745  1.00  0.00     0.009 A 
ATOM     64  C   UNL A   1      43.727  32.057  33.792  1.00  0.00     0.009 A 
ATOM     65  C   UNL A   1      44.354  34.429  32.469  1.00  0.00     0.001 A 
ATOM     66  C   UNL A   1      43.823  33.251  34.509  1.00  0.00     0.001 A 
ATOM     67  C   UNL A   1      44.146  34.434  33.849  1.00  0.00     0.000 A 
ENDBRANCH  48  62
BRANCH  49  68
ATOM     68  C   UNL A   1      42.604  23.418  27.570  1.00  0.00    -0.014 A 
ATOM     69  C   UNL A   1      42.806  23.337  26.185  1.00  0.00     0.009 A 
ATOM     70  C   UNL A   1      42.205  22.261  28.262  1.00  0.00     0.009 A 
ATOM     71  C   UNL A   1      42.610  22.127  25.511  1.00  0.00     0.001 A 
ATOM     72  C   UNL A   1      42.044  21.048  27.594  1.00  0.00     0.001 A 
ATOM     73  C   UNL A   1      42.239  20.983  26.217  1.00  0.00     0.000 A 
ENDBRANCH  49  68
BRANCH  61  74
ATOM     74  C   UNL A   1      48.206  26.707  30.084  1.00  0.00    -0.014 A 
ATOM     75  C   UNL A   1      48.801  25.988  31.131  1.00  0.00     0.009 A 
ATOM     76  C   UNL A   1      48.989  27.082  28.981  1.00  0.00     0.009 A 
ATOM     77  C   UNL A   1      50.160  25.670  31.085  1.00  0.00     0.001 A 
ATOM     78  C   UNL A   1      50.340  26.738  28.924  1.00  0.00     0.001 A 
ATOM     79  C   UNL A   1      50.926  26.040  29.979  1.00  0.00     0.000 A 
ENDBRANCH  61  74
ENDBRANCH  35  36
ENDBRANCH  28  30
ENDBRANCH  27  28
ENDBRANCH  26  27
ENDBRANCH   1  26
TORSDOF 14
ENDMDL
MODEL 3
REMARK VINA RESULT:     -11.0      3.715      6.826
REMARK SMILES Cc1c[nH]c(C[N@H+]2C[C@@H]3CN(S(C)(=O)=O)C[C@]3(C(=O)OCCOC(=O)c3ccc(-c4c5nc(c(-c6ccccc6)c6ccc([nH]6)c(-c6ccccc6)c6nc(c(-c7ccccc7)c7ccc4[nH]7)C=C6)C=C5)cc3)C2)n1
REMARK SMILES IDX 21 1 20 2 18 3 19 4 17 5 7 6 8 7 74 8 9 10 10 11 16 12 11 13
REMARK SMILES IDX 6 14 5 15 1 16 2 17 3 18 75 19 4 20 12 22 13 23 14 24 15 25
REMARK SMILES IDX 22 26 23 27 24 28 25 29 26 30 27 31 73 32 28 33 72 34 29 35
REMARK SMILES IDX 30 36 31 37 66 38 32 39 71 40 65 41 67 42 33 43 70 44 64 45
REMARK SMILES IDX 63 46 34 48 56 49 41 50 55 51 42 52 45 53 54 54 68 55 43 56
REMARK SMILES IDX 44 57 53 59 69 60 46 61 35 62 36 63 40 64 37 65 39 66 38 67
REMARK SMILES IDX 57 68 58 69 62 70 59 71 61 72 60 73 47 74 48 75 52 76 49 77
REMARK SMILES IDX 51 78 50 79
REMARK H PARENT 7 9 4 21 67 47 45 58
REMARK Flexibility Score: inf
ROOT
ATOM      1  C   UNL A   1      31.816  29.680  27.203  1.00  0.00     0.274 C 
ENDROOT
BRANCH   1   2
ATOM      2  O   UNL A   1      31.555  28.673  26.187  1.00  0.00    -0.461 OA
BRANCH   2   3
ATOM      3  C   UNL A   1      31.477  27.383  26.643  1.00  0.00     0.319 C 
ATOM      4  O   UNL A   1      31.477  27.182  27.852  1.00  0.00    -0.251 OA
BRANCH   3   5
ATOM      5  C   UNL A   1      31.506  26.272  25.461  1.00  0.00     0.140 C 
ATOM      6  N   UNL A   1      30.364  26.876  23.227  1.00  0.00    -0.327 N 
ATOM      7  C   UNL A   1      31.205  25.748  22.947  1.00  0.00     0.268 C 
ATOM      8  C   UNL A   1      30.831  27.393  24.518  1.00  0.00     0.283 C 
ATOM      9  H   UNL A   1      29.389  26.579  23.252  1.00  0.00     0.348 HD
ATOM     10  C   UNL A   1      32.226  25.815  24.067  1.00  0.00     0.084 C 
ATOM     11  C   UNL A   1      32.857  24.433  24.194  1.00  0.00     0.113 C 
ATOM     12  C   UNL A   1      32.861  25.721  26.124  1.00  0.00     0.127 C 
ATOM     13  N   UNL A   1      33.040  24.331  25.626  1.00  0.00    -0.200 NA
BRANCH   6  14
ATOM     14  C   UNL A   1      30.343  27.922  22.180  1.00  0.00     0.338 C 
BRANCH  14  15
ATOM     15  C   UNL A   1      29.459  29.124  22.413  1.00  0.00     0.161 A 
ATOM     16  C   UNL A   1      28.583  32.579  22.628  1.00  0.00     0.068 C 
ATOM     17  C   UNL A   1      28.611  31.100  22.610  1.00  0.00     0.056 A 
ATOM     18  C   UNL A   1      27.590  30.223  22.891  1.00  0.00     0.107 A 
ATOM     19  N   UNL A   1      29.763  30.406  22.315  1.00  0.00    -0.233 NA
ATOM     20  N   UNL A   1      28.138  28.979  22.770  1.00  0.00    -0.344 N 
ATOM     21  H   UNL A   1      27.670  28.125  22.915  1.00  0.00     0.167 HD
ENDBRANCH  14  15
ENDBRANCH   6  14
BRANCH  13  22
ATOM     22  S   UNL A   1      32.263  23.051  26.423  1.00  0.00     0.211 S 
ATOM     23  C   UNL A   1      33.607  21.979  26.921  1.00  0.00     0.176 C 
ATOM     24  O   UNL A   1      31.669  23.581  27.625  1.00  0.00    -0.213 OA
ATOM     25  O   UNL A   1      31.470  22.327  25.447  1.00  0.00    -0.213 OA
ENDBRANCH  13  22
ENDBRANCH   3   5
ENDBRANCH   2   3
ENDBRANCH   1   2
BRANCH   1  26
ATOM     26  C   UNL A   1      33.107  30.504  26.976  1.00  0.00     0.275 C 
BRANCH  26  27
ATOM     27  O   UNL A   1      34.253  29.947  27.665  1.00  0.00    -0.458 OA
BRANCH  27  28
ATOM     28  C   UNL A   1      34.900  30.755  28.542  1.00  0.00     0.338 C 
ATOM     29  O   UNL A   1      34.417  31.674  29.183  1.00  0.00    -0.246 OA
BRANCH  28  30
ATOM     30  C   UNL A   1      36.301  30.313  28.734  1.00  0.00     0.060 A 
ATOM     31  C   UNL A   1      37.138  30.308  27.626  1.00  0.00     0.016 A 
ATOM     32  C   UNL A   1      36.760  29.756  29.926  1.00  0.00     0.016 A 
ATOM     33  C   UNL A   1      38.430  29.803  27.691  1.00  0.00     0.010 A 
ATOM     34  C   UNL A   1      38.080  29.266  30.004  1.00  0.00     0.010 A 
ATOM     35  C   UNL A   1      38.934  29.289  28.884  1.00  0.00    -0.014 A 
BRANCH  35  36
ATOM     36  C   UNL A   1      40.322  28.742  28.905  1.00  0.00     0.031 A 
ATOM     37  C   UNL A   1      41.478  29.611  29.321  1.00  0.00     0.074 A 
ATOM     38  C   UNL A   1      40.546  27.437  28.642  1.00  0.00     0.049 A 
ATOM     39  N   UNL A   1      42.762  29.351  29.292  1.00  0.00    -0.248 NA
ATOM     40  C   UNL A   1      41.149  30.941  29.860  1.00  0.00     0.031 C 
ATOM     41  C   UNL A   1      39.515  26.438  28.350  1.00  0.00     0.029 A 
ATOM     42  N   UNL A   1      41.719  26.717  28.594  1.00  0.00    -0.354 N 
ATOM     43  C   UNL A   1      43.393  30.491  29.774  1.00  0.00     0.074 A 
ATOM     44  C   UNL A   1      42.353  31.444  30.095  1.00  0.00     0.031 C 
ATOM     45  C   UNL A   1      40.093  25.239  28.186  1.00  0.00     0.029 A 
ATOM     46  C   UNL A   1      41.541  25.398  28.248  1.00  0.00     0.049 A 
ATOM     47  H   UNL A   1      42.600  27.109  28.789  1.00  0.00     0.167 HD
ATOM     48  C   UNL A   1      44.719  30.727  29.923  1.00  0.00     0.031 A 
ATOM     49  C   UNL A   1      42.433  24.436  27.943  1.00  0.00     0.031 A 
ATOM     50  C   UNL A   1      45.753  29.782  29.591  1.00  0.00     0.049 A 
ATOM     51  C   UNL A   1      43.896  24.775  27.945  1.00  0.00     0.074 A 
ATOM     52  C   UNL A   1      47.126  29.943  29.667  1.00  0.00     0.029 A 
ATOM     53  N   UNL A   1      45.525  28.500  29.116  1.00  0.00    -0.354 N 
ATOM     54  N   UNL A   1      44.485  25.881  28.330  1.00  0.00    -0.248 NA
ATOM     55  C   UNL A   1      44.815  23.748  27.435  1.00  0.00     0.031 C 
ATOM     56  C   UNL A   1      47.729  28.781  29.171  1.00  0.00     0.029 A 
ATOM     57  C   UNL A   1      46.732  27.874  28.849  1.00  0.00     0.049 A 
ATOM     58  H   UNL A   1      44.638  28.094  28.986  1.00  0.00     0.167 HD
ATOM     59  C   UNL A   1      45.841  25.684  28.111  1.00  0.00     0.074 A 
ATOM     60  C   UNL A   1      45.992  24.341  27.587  1.00  0.00     0.031 C 
ATOM     61  C   UNL A   1      46.868  26.543  28.317  1.00  0.00     0.031 A 
BRANCH  48  62
ATOM     62  C   UNL A   1      45.129  32.096  30.391  1.00  0.00    -0.014 A 
ATOM     63  C   UNL A   1      45.295  32.395  31.751  1.00  0.00     0.009 A 
ATOM     64  C   UNL A   1      45.376  33.099  29.440  1.00  0.00     0.009 A 
ATOM     65  C   UNL A   1      45.667  33.683  32.150  1.00  0.00     0.001 A 
ATOM     66  C   UNL A   1      45.773  34.376  29.839  1.00  0.00     0.001 A 
ATOM     67  C   UNL A   1      45.908  34.670  31.194  1.00  0.00     0.000 A 
ENDBRANCH  48  62
BRANCH  49  68
ATOM     68  C   UNL A   1      41.962  23.094  27.500  1.00  0.00    -0.014 A 
ATOM     69  C   UNL A   1      41.738  22.817  26.144  1.00  0.00     0.009 A 
ATOM     70  C   UNL A   1      41.728  22.079  28.443  1.00  0.00     0.009 A 
ATOM     71  C   UNL A   1      41.286  21.555  25.745  1.00  0.00     0.001 A 
ATOM     72  C   UNL A   1      41.311  20.810  28.040  1.00  0.00     0.001 A 
ATOM     73  C   UNL A   1      41.083  20.551  26.692  1.00  0.00     0.000 A 
ENDBRANCH  49  68
BRANCH  61  74
ATOM     74  C   UNL A   1      48.250  26.052  27.990  1.00  0.00    -0.014 A 
ATOM     75  C   UNL A   1      48.752  26.125  26.682  1.00  0.00     0.009 A 
ATOM     76  C   UNL A   1      49.073  25.555  29.011  1.00  0.00     0.009 A 
ATOM     77  C   UNL A   1      50.047  25.687  26.399  1.00  0.00     0.001 A 
ATOM     78  C   UNL A   1      50.377  25.143  28.730  1.00  0.00     0.001 A 
ATOM     79  C   UNL A   1      50.860  25.203  27.423  1.00  0.00     0.000 A 
ENDBRANCH  61  74
ENDBRANCH  35  36
ENDBRANCH  28  30
ENDBRANCH  27  28
ENDBRANCH  26  27
ENDBRANCH   1  26
TORSDOF 14
ENDMDL
