MODEL 1
REMARK VINA RESULT:     -12.9      0.000      0.000
REMARK SMILES Cc1nn(-c2nc3ccccc3o2)c2c1[C@H](c1ccc(C(=O)OCCOC(=O)c3ccc(-c4c5nc(c(-c6ccccc6)c6ccc([nH]6)c(-c6ccccc6)c6nc(c(-c7ccccc7)c7ccc4[nH]7)C=C6)C=C5)cc3)cc1)CC(=O)N2
REMARK SMILES IDX 24 1 23 2 21 3 22 4 20 5 17 6 18 7 78 8 19 9 77 10 16 11
REMARK SMILES IDX 1 12 2 13 3 14 15 15 4 16 14 17 82 18 79 19 80 20 81 22 5 23
REMARK SMILES IDX 6 24 13 25 7 26 12 27 8 28 11 29 9 30 10 31 25 32 26 33
REMARK SMILES IDX 27 34 28 35 29 36 30 37 76 38 31 39 75 40 32 41 33 42 34 43
REMARK SMILES IDX 69 44 35 45 74 46 68 47 70 48 36 49 73 50 67 51 66 52 37 54
REMARK SMILES IDX 59 55 44 56 58 57 45 58 48 59 57 60 71 61 46 62 47 63 56 65
REMARK SMILES IDX 72 66 49 67 38 68 39 69 43 70 40 71 42 72 41 73 60 74 61 75
REMARK SMILES IDX 65 76 62 77 64 78 63 79 50 80 51 81 55 82 52 83 54 84 53 85
REMARK H PARENT 82 21 70 53 48 64
REMARK Flexibility Score: inf
ROOT
ATOM      1  C   UNL A   1      32.976  31.647  27.577  1.00  0.00     0.275 C 
ENDROOT
BRANCH   1   2
ATOM      2  O   UNL A   1      32.676  30.752  26.495  1.00  0.00    -0.458 OA
BRANCH   2   3
ATOM      3  C   UNL A   1      33.533  29.715  26.317  1.00  0.00     0.338 C 
ATOM      4  O   UNL A   1      34.746  29.749  26.471  1.00  0.00    -0.246 OA
BRANCH   3   5
ATOM      5  C   UNL A   1      32.781  28.468  26.013  1.00  0.00     0.060 A 
ATOM      6  C   UNL A   1      31.281  26.087  25.648  1.00  0.00    -0.040 A 
ATOM      7  C   UNL A   1      32.465  26.092  26.405  1.00  0.00     0.005 A 
ATOM      8  C   UNL A   1      30.883  27.301  25.060  1.00  0.00     0.005 A 
ATOM      9  C   UNL A   1      33.191  27.272  26.611  1.00  0.00     0.016 A 
ATOM     10  C   UNL A   1      31.632  28.471  25.220  1.00  0.00     0.016 A 
BRANCH   6  11
ATOM     11  C   UNL A   1      30.497  24.790  25.483  1.00  0.00     0.064 C 
ATOM     12  C   UNL A   1      32.495  24.852  22.649  1.00  0.00     0.069 C 
ATOM     13  C   UNL A   1      32.179  23.768  23.613  1.00  0.00     0.066 A 
ATOM     14  N   UNL A   1      32.649  22.536  23.347  1.00  0.00    -0.167 NA
ATOM     15  C   UNL A   1      31.375  23.787  24.796  1.00  0.00     0.026 A 
ATOM     16  N   UNL A   1      32.221  21.780  24.383  1.00  0.00    -0.166 N 
ATOM     17  C   UNL A   1      31.354  22.468  25.189  1.00  0.00     0.145 A 
ATOM     18  N   UNL A   1      30.520  21.925  26.137  1.00  0.00    -0.310 N 
ATOM     19  C   UNL A   1      29.949  24.227  26.817  1.00  0.00     0.113 C 
ATOM     20  C   UNL A   1      29.653  22.735  26.824  1.00  0.00     0.226 C 
ATOM     21  H   UNL A   1      30.545  20.958  26.323  1.00  0.00     0.171 HD
ATOM     22  O   UNL A   1      28.765  22.252  27.522  1.00  0.00    -0.275 OA
BRANCH  16  23
ATOM     23  C   UNL A   1      32.748  20.505  24.561  1.00  0.00     0.325 A 
ATOM     24  N   UNL A   1      31.976  19.497  24.943  1.00  0.00    -0.191 NA
ATOM     25  O   UNL A   1      34.051  20.145  24.287  1.00  0.00    -0.422 OA
ATOM     26  C   UNL A   1      32.839  18.441  25.042  1.00  0.00     0.111 A 
ATOM     27  C   UNL A   1      34.089  18.812  24.579  1.00  0.00     0.156 A 
ATOM     28  C   UNL A   1      32.642  17.138  25.510  1.00  0.00     0.032 A 
ATOM     29  C   UNL A   1      35.173  17.951  24.463  1.00  0.00     0.049 A 
ATOM     30  C   UNL A   1      33.727  16.251  25.461  1.00  0.00     0.003 A 
ATOM     31  C   UNL A   1      34.961  16.647  24.927  1.00  0.00     0.004 A 
ENDBRANCH  16  23
ENDBRANCH   6  11
ENDBRANCH   3   5
ENDBRANCH   2   3
ENDBRANCH   1   2
BRANCH   1  32
ATOM     32  C   UNL A   1      32.275  32.981  27.375  1.00  0.00     0.275 C 
BRANCH  32  33
ATOM     33  O   UNL A   1      33.144  34.077  27.663  1.00  0.00    -0.458 OA
BRANCH  33  34
ATOM     34  C   UNL A   1      33.238  34.413  28.969  1.00  0.00     0.338 C 
ATOM     35  O   UNL A   1      32.439  35.059  29.625  1.00  0.00    -0.246 OA
BRANCH  34  36
ATOM     36  C   UNL A   1      34.602  34.122  29.430  1.00  0.00     0.060 A 
ATOM     37  C   UNL A   1      35.659  34.567  28.631  1.00  0.00     0.016 A 
ATOM     38  C   UNL A   1      34.805  33.201  30.469  1.00  0.00     0.016 A 
ATOM     39  C   UNL A   1      36.897  33.974  28.782  1.00  0.00     0.010 A 
ATOM     40  C   UNL A   1      36.036  32.601  30.609  1.00  0.00     0.010 A 
ATOM     41  C   UNL A   1      37.051  32.947  29.720  1.00  0.00    -0.014 A 
BRANCH  41  42
ATOM     42  C   UNL A   1      38.348  32.310  29.830  1.00  0.00     0.031 A 
ATOM     43  C   UNL A   1      38.337  30.874  29.471  1.00  0.00     0.074 A 
ATOM     44  C   UNL A   1      39.481  32.987  30.095  1.00  0.00     0.049 A 
ATOM     45  N   UNL A   1      38.637  29.868  30.221  1.00  0.00    -0.248 NA
ATOM     46  C   UNL A   1      37.809  30.508  28.145  1.00  0.00     0.031 C 
ATOM     47  C   UNL A   1      39.670  34.438  30.171  1.00  0.00     0.029 A 
ATOM     48  N   UNL A   1      40.745  32.501  30.228  1.00  0.00    -0.354 N 
ATOM     49  C   UNL A   1      38.499  28.743  29.416  1.00  0.00     0.074 A 
ATOM     50  C   UNL A   1      37.850  29.178  28.205  1.00  0.00     0.031 C 
ATOM     51  C   UNL A   1      40.994  34.715  30.096  1.00  0.00     0.029 A 
ATOM     52  C   UNL A   1      41.735  33.464  30.103  1.00  0.00     0.049 A 
ATOM     53  H   UNL A   1      40.938  31.551  30.399  1.00  0.00     0.167 HD
ATOM     54  C   UNL A   1      39.144  27.580  29.700  1.00  0.00     0.031 A 
ATOM     55  C   UNL A   1      43.061  33.236  29.939  1.00  0.00     0.031 A 
ATOM     56  C   UNL A   1      39.580  27.526  31.070  1.00  0.00     0.049 A 
ATOM     57  C   UNL A   1      43.338  31.844  30.365  1.00  0.00     0.074 A 
ATOM     58  C   UNL A   1      38.946  27.574  32.295  1.00  0.00     0.029 A 
ATOM     59  N   UNL A   1      40.906  27.783  31.321  1.00  0.00    -0.354 N 
ATOM     60  N   UNL A   1      43.270  31.442  31.601  1.00  0.00    -0.248 NA
ATOM     61  C   UNL A   1      43.279  30.791  29.364  1.00  0.00     0.031 C 
ATOM     62  C   UNL A   1      39.824  28.319  33.136  1.00  0.00     0.029 A 
ATOM     63  C   UNL A   1      40.963  28.634  32.394  1.00  0.00     0.049 A 
ATOM     64  H   UNL A   1      41.675  27.423  30.822  1.00  0.00     0.167 HD
ATOM     65  C   UNL A   1      42.718  30.171  31.528  1.00  0.00     0.074 A 
ATOM     66  C   UNL A   1      42.854  29.780  30.127  1.00  0.00     0.031 C 
ATOM     67  C   UNL A   1      41.952  29.678  32.545  1.00  0.00     0.031 A 
BRANCH  54  68
ATOM     68  C   UNL A   1      39.744  26.707  28.630  1.00  0.00    -0.014 A 
ATOM     69  C   UNL A   1      40.641  27.281  27.713  1.00  0.00     0.009 A 
ATOM     70  C   UNL A   1      39.238  25.431  28.308  1.00  0.00     0.009 A 
ATOM     71  C   UNL A   1      40.950  26.645  26.504  1.00  0.00     0.001 A 
ATOM     72  C   UNL A   1      39.578  24.775  27.123  1.00  0.00     0.001 A 
ATOM     73  C   UNL A   1      40.410  25.397  26.207  1.00  0.00     0.000 A 
ENDBRANCH  54  68
BRANCH  55  74
ATOM     74  C   UNL A   1      44.048  34.031  29.179  1.00  0.00    -0.014 A 
ATOM     75  C   UNL A   1      44.147  33.909  27.784  1.00  0.00     0.009 A 
ATOM     76  C   UNL A   1      44.708  35.113  29.791  1.00  0.00     0.009 A 
ATOM     77  C   UNL A   1      44.846  34.858  27.027  1.00  0.00     0.001 A 
ATOM     78  C   UNL A   1      45.410  36.057  29.035  1.00  0.00     0.001 A 
ATOM     79  C   UNL A   1      45.465  35.939  27.651  1.00  0.00     0.000 A 
ENDBRANCH  55  74
BRANCH  67  80
ATOM     80  C   UNL A   1      41.928  30.444  33.845  1.00  0.00    -0.014 A 
ATOM     81  C   UNL A   1      42.684  30.069  34.971  1.00  0.00     0.009 A 
ATOM     82  C   UNL A   1      41.233  31.662  33.888  1.00  0.00     0.009 A 
ATOM     83  C   UNL A   1      42.712  30.872  36.115  1.00  0.00     0.001 A 
ATOM     84  C   UNL A   1      41.281  32.475  35.022  1.00  0.00     0.001 A 
ATOM     85  C   UNL A   1      42.014  32.077  36.137  1.00  0.00     0.000 A 
ENDBRANCH  67  80
ENDBRANCH  41  42
ENDBRANCH  34  36
ENDBRANCH  33  34
ENDBRANCH  32  33
ENDBRANCH   1  32
TORSDOF 13
ENDMDL
MODEL 2
REMARK VINA RESULT:     -12.9      3.089      6.657
REMARK SMILES Cc1nn(-c2nc3ccccc3o2)c2c1[C@H](c1ccc(C(=O)OCCOC(=O)c3ccc(-c4c5nc(c(-c6ccccc6)c6ccc([nH]6)c(-c6ccccc6)c6nc(c(-c7ccccc7)c7ccc4[nH]7)C=C6)C=C5)cc3)cc1)CC(=O)N2
REMARK SMILES IDX 24 1 23 2 21 3 22 4 20 5 17 6 18 7 78 8 19 9 77 10 16 11
REMARK SMILES IDX 1 12 2 13 3 14 15 15 4 16 14 17 82 18 79 19 80 20 81 22 5 23
REMARK SMILES IDX 6 24 13 25 7 26 12 27 8 28 11 29 9 30 10 31 25 32 26 33
REMARK SMILES IDX 27 34 28 35 29 36 30 37 76 38 31 39 75 40 32 41 33 42 34 43
REMARK SMILES IDX 69 44 35 45 74 46 68 47 70 48 36 49 73 50 67 51 66 52 37 54
REMARK SMILES IDX 59 55 44 56 58 57 45 58 48 59 57 60 71 61 46 62 47 63 56 65
REMARK SMILES IDX 72 66 49 67 38 68 39 69 43 70 40 71 42 72 41 73 60 74 61 75
REMARK SMILES IDX 65 76 62 77 64 78 63 79 50 80 51 81 55 82 52 83 54 84 53 85
REMARK H PARENT 82 21 70 53 48 64
REMARK Flexibility Score: inf
ROOT
ATOM      1  C   UNL A   1      33.624  33.479  28.038  1.00  0.00     0.275 C 
ENDROOT
BRANCH   1   2
ATOM      2  O   UNL A   1      33.194  32.162  27.661  1.00  0.00    -0.458 OA
BRANCH   2   3
ATOM      3  C   UNL A   1      32.078  32.090  26.893  1.00  0.00     0.338 C 
ATOM      4  O   UNL A   1      31.361  33.029  26.577  1.00  0.00    -0.246 OA
BRANCH   3   5
ATOM      5  C   UNL A   1      31.894  30.708  26.376  1.00  0.00     0.060 A 
ATOM      6  C   UNL A   1      31.403  28.034  25.562  1.00  0.00    -0.040 A 
ATOM      7  C   UNL A   1      32.149  28.318  26.720  1.00  0.00     0.005 A 
ATOM      8  C   UNL A   1      30.932  29.126  24.812  1.00  0.00     0.005 A 
ATOM      9  C   UNL A   1      32.367  29.635  27.139  1.00  0.00     0.016 A 
ATOM     10  C   UNL A   1      31.192  30.445  25.198  1.00  0.00     0.016 A 
BRANCH   6  11
ATOM     11  C   UNL A   1      31.152  26.585  25.163  1.00  0.00     0.064 C 
ATOM     12  C   UNL A   1      33.452  27.652  22.797  1.00  0.00     0.069 C 
ATOM     13  C   UNL A   1      33.371  26.410  23.608  1.00  0.00     0.066 A 
ATOM     14  N   UNL A   1      34.273  25.442  23.365  1.00  0.00    -0.167 NA
ATOM     15  C   UNL A   1      32.423  26.017  24.604  1.00  0.00     0.026 A 
ATOM     16  N   UNL A   1      33.964  24.464  24.245  1.00  0.00    -0.166 N 
ATOM     17  C   UNL A   1      32.790  24.725  24.902  1.00  0.00     0.145 A 
ATOM     18  N   UNL A   1      32.048  23.824  25.628  1.00  0.00    -0.310 N 
ATOM     19  C   UNL A   1      30.615  25.710  26.322  1.00  0.00     0.113 C 
ATOM     20  C   UNL A   1      30.853  24.215  26.176  1.00  0.00     0.226 C 
ATOM     21  H   UNL A   1      32.372  22.903  25.754  1.00  0.00     0.171 HD
ATOM     22  O   UNL A   1      30.081  23.385  26.650  1.00  0.00    -0.275 OA
BRANCH  16  23
ATOM     23  C   UNL A   1      34.859  23.418  24.446  1.00  0.00     0.325 A 
ATOM     24  N   UNL A   1      34.460  22.156  24.362  1.00  0.00    -0.191 NA
ATOM     25  O   UNL A   1      36.213  23.569  24.654  1.00  0.00    -0.422 OA
ATOM     26  C   UNL A   1      35.586  21.436  24.650  1.00  0.00     0.111 A 
ATOM     27  C   UNL A   1      36.672  22.288  24.761  1.00  0.00     0.156 A 
ATOM     28  C   UNL A   1      35.774  20.062  24.829  1.00  0.00     0.032 A 
ATOM     29  C   UNL A   1      37.981  21.871  24.964  1.00  0.00     0.049 A 
ATOM     30  C   UNL A   1      37.073  19.605  25.089  1.00  0.00     0.003 A 
ATOM     31  C   UNL A   1      38.157  20.492  25.134  1.00  0.00     0.004 A 
ENDBRANCH  16  23
ENDBRANCH   6  11
ENDBRANCH   3   5
ENDBRANCH   2   3
ENDBRANCH   1   2
BRANCH   1  32
ATOM     32  C   UNL A   1      35.142  33.543  28.118  1.00  0.00     0.275 C 
BRANCH  32  33
ATOM     33  O   UNL A   1      35.721  32.237  28.107  1.00  0.00    -0.458 OA
BRANCH  33  34
ATOM     34  C   UNL A   1      36.214  31.814  29.291  1.00  0.00     0.338 C 
ATOM     35  O   UNL A   1      35.913  32.213  30.403  1.00  0.00    -0.246 OA
BRANCH  34  36
ATOM     36  C   UNL A   1      37.397  30.980  29.035  1.00  0.00     0.060 A 
ATOM     37  C   UNL A   1      37.181  29.629  28.748  1.00  0.00     0.016 A 
ATOM     38  C   UNL A   1      38.675  31.469  29.346  1.00  0.00     0.016 A 
ATOM     39  C   UNL A   1      38.225  28.741  28.918  1.00  0.00     0.010 A 
ATOM     40  C   UNL A   1      39.711  30.581  29.529  1.00  0.00     0.010 A 
ATOM     41  C   UNL A   1      39.457  29.220  29.376  1.00  0.00    -0.014 A 
BRANCH  41  42
ATOM     42  C   UNL A   1      40.526  28.264  29.589  1.00  0.00     0.031 A 
ATOM     43  C   UNL A   1      41.010  28.214  30.988  1.00  0.00     0.074 A 
ATOM     44  C   UNL A   1      40.942  27.402  28.642  1.00  0.00     0.049 A 
ATOM     45  N   UNL A   1      42.196  28.473  31.425  1.00  0.00    -0.248 NA
ATOM     46  C   UNL A   1      40.014  27.962  32.044  1.00  0.00     0.031 C 
ATOM     47  C   UNL A   1      40.348  27.147  27.328  1.00  0.00     0.029 A 
ATOM     48  N   UNL A   1      41.932  26.472  28.722  1.00  0.00    -0.354 N 
ATOM     49  C   UNL A   1      42.148  28.255  32.797  1.00  0.00     0.074 A 
ATOM     50  C   UNL A   1      40.758  28.088  33.141  1.00  0.00     0.031 C 
ATOM     51  C   UNL A   1      40.834  25.980  26.843  1.00  0.00     0.029 A 
ATOM     52  C   UNL A   1      41.860  25.488  27.747  1.00  0.00     0.049 A 
ATOM     53  H   UNL A   1      42.636  26.497  29.410  1.00  0.00     0.167 HD
ATOM     54  C   UNL A   1      43.271  27.986  33.515  1.00  0.00     0.031 A 
ATOM     55  C   UNL A   1      42.546  24.318  27.735  1.00  0.00     0.031 A 
ATOM     56  C   UNL A   1      44.464  28.380  32.816  1.00  0.00     0.049 A 
ATOM     57  C   UNL A   1      43.694  24.455  28.661  1.00  0.00     0.074 A 
ATOM     58  C   UNL A   1      44.958  29.574  32.329  1.00  0.00     0.029 A 
ATOM     59  N   UNL A   1      45.187  27.391  32.192  1.00  0.00    -0.354 N 
ATOM     60  N   UNL A   1      44.716  25.228  28.430  1.00  0.00    -0.248 NA
ATOM     61  C   UNL A   1      43.515  24.058  30.048  1.00  0.00     0.031 C 
ATOM     62  C   UNL A   1      45.606  29.233  31.105  1.00  0.00     0.029 A 
ATOM     63  C   UNL A   1      45.517  27.850  30.944  1.00  0.00     0.049 A 
ATOM     64  H   UNL A   1      45.422  26.513  32.572  1.00  0.00     0.167 HD
ATOM     65  C   UNL A   1      45.034  25.769  29.668  1.00  0.00     0.074 A 
ATOM     66  C   UNL A   1      44.340  24.926  30.638  1.00  0.00     0.031 C 
ATOM     67  C   UNL A   1      45.593  27.010  29.769  1.00  0.00     0.031 A 
BRANCH  54  68
ATOM     68  C   UNL A   1      43.290  26.985  34.640  1.00  0.00    -0.014 A 
ATOM     69  C   UNL A   1      43.238  25.616  34.327  1.00  0.00     0.009 A 
ATOM     70  C   UNL A   1      43.057  27.338  35.985  1.00  0.00     0.009 A 
ATOM     71  C   UNL A   1      42.893  24.664  35.295  1.00  0.00     0.001 A 
ATOM     72  C   UNL A   1      42.755  26.386  36.960  1.00  0.00     0.001 A 
ATOM     73  C   UNL A   1      42.643  25.051  36.607  1.00  0.00     0.000 A 
ENDBRANCH  54  68
BRANCH  55  74
ATOM     74  C   UNL A   1      42.121  23.005  27.206  1.00  0.00    -0.014 A 
ATOM     75  C   UNL A   1      42.921  22.308  26.287  1.00  0.00     0.009 A 
ATOM     76  C   UNL A   1      41.058  22.308  27.811  1.00  0.00     0.009 A 
ATOM     77  C   UNL A   1      42.690  20.953  26.016  1.00  0.00     0.001 A 
ATOM     78  C   UNL A   1      40.826  20.957  27.536  1.00  0.00     0.001 A 
ATOM     79  C   UNL A   1      41.652  20.275  26.651  1.00  0.00     0.000 A 
ENDBRANCH  55  74
BRANCH  67  80
ATOM     80  C   UNL A   1      46.083  27.669  28.503  1.00  0.00    -0.014 A 
ATOM     81  C   UNL A   1      47.407  27.554  28.041  1.00  0.00     0.009 A 
ATOM     82  C   UNL A   1      45.145  28.305  27.676  1.00  0.00     0.009 A 
ATOM     83  C   UNL A   1      47.785  28.092  26.806  1.00  0.00     0.001 A 
ATOM     84  C   UNL A   1      45.516  28.820  26.433  1.00  0.00     0.001 A 
ATOM     85  C   UNL A   1      46.837  28.720  26.002  1.00  0.00     0.000 A 
ENDBRANCH  67  80
ENDBRANCH  41  42
ENDBRANCH  34  36
ENDBRANCH  33  34
ENDBRANCH  32  33
ENDBRANCH   1  32
TORSDOF 13
ENDMDL
MODEL 3
REMARK VINA RESULT:     -12.8      2.675      6.305
REMARK SMILES Cc1nn(-c2nc3ccccc3o2)c2c1[C@H](c1ccc(C(=O)OCCOC(=O)c3ccc(-c4c5nc(c(-c6ccccc6)c6ccc([nH]6)c(-c6ccccc6)c6nc(c(-c7ccccc7)c7ccc4[nH]7)C=C6)C=C5)cc3)cc1)CC(=O)N2
REMARK SMILES IDX 24 1 23 2 21 3 22 4 20 5 17 6 18 7 78 8 19 9 77 10 16 11
REMARK SMILES IDX 1 12 2 13 3 14 15 15 4 16 14 17 82 18 79 19 80 20 81 22 5 23
REMARK SMILES IDX 6 24 13 25 7 26 12 27 8 28 11 29 9 30 10 31 25 32 26 33
REMARK SMILES IDX 27 34 28 35 29 36 30 37 76 38 31 39 75 40 32 41 33 42 34 43
REMARK SMILES IDX 69 44 35 45 74 46 68 47 70 48 36 49 73 50 67 51 66 52 37 54
REMARK SMILES IDX 59 55 44 56 58 57 45 58 48 59 57 60 71 61 46 62 47 63 56 65
REMARK SMILES IDX 72 66 49 67 38 68 39 69 43 70 40 71 42 72 41 73 60 74 61 75
REMARK SMILES IDX 65 76 62 77 64 78 63 79 50 80 51 81 55 82 52 83 54 84 53 85
REMARK H PARENT 82 21 70 53 48 64
REMARK Flexibility Score: inf
ROOT
ATOM      1  C   UNL A   1      33.567  31.649  27.367  1.00  0.00     0.275 C 
ENDROOT
BRANCH   1   2
ATOM      2  O   UNL A   1      33.367  30.248  27.607  1.00  0.00    -0.458 OA
BRANCH   2   3
ATOM      3  C   UNL A   1      34.057  29.396  26.807  1.00  0.00     0.338 C 
ATOM      4  O   UNL A   1      35.240  29.487  26.510  1.00  0.00    -0.246 OA
BRANCH   3   5
ATOM      5  C   UNL A   1      33.201  28.244  26.416  1.00  0.00     0.060 A 
ATOM      6  C   UNL A   1      31.590  25.970  25.881  1.00  0.00    -0.040 A 
ATOM      7  C   UNL A   1      32.974  25.848  26.095  1.00  0.00     0.005 A 
ATOM      8  C   UNL A   1      31.041  27.264  25.919  1.00  0.00     0.005 A 
ATOM      9  C   UNL A   1      33.766  26.965  26.388  1.00  0.00     0.016 A 
ATOM     10  C   UNL A   1      31.836  28.389  26.160  1.00  0.00     0.016 A 
BRANCH   6  11
ATOM     11  C   UNL A   1      30.757  24.724  25.607  1.00  0.00     0.064 C 
ATOM     12  C   UNL A   1      32.929  24.812  22.905  1.00  0.00     0.069 C 
ATOM     13  C   UNL A   1      32.501  23.702  23.795  1.00  0.00     0.066 A 
ATOM     14  N   UNL A   1      32.928  22.461  23.499  1.00  0.00    -0.167 NA
ATOM     15  C   UNL A   1      31.627  23.709  24.927  1.00  0.00     0.026 A 
ATOM     16  N   UNL A   1      32.400  21.682  24.469  1.00  0.00    -0.166 N 
ATOM     17  C   UNL A   1      31.518  22.377  25.253  1.00  0.00     0.145 A 
ATOM     18  N   UNL A   1      30.601  21.834  26.122  1.00  0.00    -0.310 N 
ATOM     19  C   UNL A   1      30.099  24.129  26.877  1.00  0.00     0.113 C 
ATOM     20  C   UNL A   1      29.733  22.656  26.794  1.00  0.00     0.226 C 
ATOM     21  H   UNL A   1      30.568  20.860  26.262  1.00  0.00     0.171 HD
ATOM     22  O   UNL A   1      28.780  22.188  27.413  1.00  0.00    -0.275 OA
BRANCH  16  23
ATOM     23  C   UNL A   1      32.853  20.376  24.617  1.00  0.00     0.325 A 
ATOM     24  N   UNL A   1      32.014  19.394  24.919  1.00  0.00    -0.191 NA
ATOM     25  O   UNL A   1      34.148  19.959  24.390  1.00  0.00    -0.422 OA
ATOM     26  C   UNL A   1      32.816  18.292  25.013  1.00  0.00     0.111 A 
ATOM     27  C   UNL A   1      34.105  18.616  24.626  1.00  0.00     0.156 A 
ATOM     28  C   UNL A   1      32.531  16.983  25.415  1.00  0.00     0.032 A 
ATOM     29  C   UNL A   1      35.149  17.705  24.524  1.00  0.00     0.049 A 
ATOM     30  C   UNL A   1      33.571  16.043  25.379  1.00  0.00     0.003 A 
ATOM     31  C   UNL A   1      34.849  16.395  24.922  1.00  0.00     0.004 A 
ENDBRANCH  16  23
ENDBRANCH   6  11
ENDBRANCH   3   5
ENDBRANCH   2   3
ENDBRANCH   1   2
BRANCH   1  32
ATOM     32  C   UNL A   1      34.124  32.328  28.609  1.00  0.00     0.275 C 
BRANCH  32  33
ATOM     33  O   UNL A   1      35.038  31.479  29.303  1.00  0.00    -0.458 OA
BRANCH  33  34
ATOM     34  C   UNL A   1      36.186  32.070  29.703  1.00  0.00     0.338 C 
ATOM     35  O   UNL A   1      36.336  33.223  30.070  1.00  0.00    -0.246 OA
BRANCH  34  36
ATOM     36  C   UNL A   1      37.311  31.188  29.362  1.00  0.00     0.060 A 
ATOM     37  C   UNL A   1      37.021  29.843  29.117  1.00  0.00     0.016 A 
ATOM     38  C   UNL A   1      38.628  31.631  29.556  1.00  0.00     0.016 A 
ATOM     39  C   UNL A   1      38.042  28.918  29.213  1.00  0.00     0.010 A 
ATOM     40  C   UNL A   1      39.642  30.707  29.666  1.00  0.00     0.010 A 
ATOM     41  C   UNL A   1      39.326  29.355  29.558  1.00  0.00    -0.014 A 
BRANCH  41  42
ATOM     42  C   UNL A   1      40.372  28.361  29.696  1.00  0.00     0.031 A 
ATOM     43  C   UNL A   1      40.882  28.222  31.080  1.00  0.00     0.074 A 
ATOM     44  C   UNL A   1      40.745  27.542  28.696  1.00  0.00     0.049 A 
ATOM     45  N   UNL A   1      42.083  28.426  31.504  1.00  0.00    -0.248 NA
ATOM     46  C   UNL A   1      39.901  27.939  32.141  1.00  0.00     0.031 C 
ATOM     47  C   UNL A   1      40.118  27.373  27.382  1.00  0.00     0.029 A 
ATOM     48  N   UNL A   1      41.711  26.583  28.704  1.00  0.00    -0.354 N 
ATOM     49  C   UNL A   1      42.056  28.135  32.864  1.00  0.00     0.074 A 
ATOM     50  C   UNL A   1      40.670  27.986  33.228  1.00  0.00     0.031 C 
ATOM     51  C   UNL A   1      40.563  26.223  26.825  1.00  0.00     0.029 A 
ATOM     52  C   UNL A   1      41.594  25.656  27.679  1.00  0.00     0.049 A 
ATOM     53  H   UNL A   1      42.429  26.552  29.377  1.00  0.00     0.167 HD
ATOM     54  C   UNL A   1      43.185  27.799  33.542  1.00  0.00     0.031 A 
ATOM     55  C   UNL A   1      42.247  24.471  27.590  1.00  0.00     0.031 A 
ATOM     56  C   UNL A   1      44.375  28.199  32.840  1.00  0.00     0.049 A 
ATOM     57  C   UNL A   1      43.416  24.528  28.497  1.00  0.00     0.074 A 
ATOM     58  C   UNL A   1      44.891  29.404  32.407  1.00  0.00     0.029 A 
ATOM     59  N   UNL A   1      45.058  27.227  32.149  1.00  0.00    -0.354 N 
ATOM     60  N   UNL A   1      44.454  25.285  28.286  1.00  0.00    -0.248 NA
ATOM     61  C   UNL A   1      43.254  24.060  29.864  1.00  0.00     0.031 C 
ATOM     62  C   UNL A   1      45.505  29.114  31.154  1.00  0.00     0.029 A 
ATOM     63  C   UNL A   1      45.376  27.744  30.920  1.00  0.00     0.049 A 
ATOM     64  H   UNL A   1      45.277  26.324  32.476  1.00  0.00     0.167 HD
ATOM     65  C   UNL A   1      44.812  25.749  29.544  1.00  0.00     0.074 A 
ATOM     66  C   UNL A   1      44.114  24.873  30.483  1.00  0.00     0.031 C 
ATOM     67  C   UNL A   1      45.406  26.968  29.701  1.00  0.00     0.031 A 
BRANCH  54  68
ATOM     68  C   UNL A   1      43.200  26.738  34.611  1.00  0.00    -0.014 A 
ATOM     69  C   UNL A   1      43.065  25.392  34.229  1.00  0.00     0.009 A 
ATOM     70  C   UNL A   1      43.042  27.027  35.981  1.00  0.00     0.009 A 
ATOM     71  C   UNL A   1      42.711  24.407  35.159  1.00  0.00     0.001 A 
ATOM     72  C   UNL A   1      42.732  26.040  36.918  1.00  0.00     0.001 A 
ATOM     73  C   UNL A   1      42.536  24.733  36.500  1.00  0.00     0.000 A 
ENDBRANCH  54  68
BRANCH  55  74
ATOM     74  C   UNL A   1      41.776  23.200  27.000  1.00  0.00    -0.014 A 
ATOM     75  C   UNL A   1      42.690  22.249  26.520  1.00  0.00     0.009 A 
ATOM     76  C   UNL A   1      40.436  22.800  27.156  1.00  0.00     0.009 A 
ATOM     77  C   UNL A   1      42.285  20.936  26.246  1.00  0.00     0.001 A 
ATOM     78  C   UNL A   1      40.031  21.491  26.878  1.00  0.00     0.001 A 
ATOM     79  C   UNL A   1      40.959  20.555  26.439  1.00  0.00     0.000 A 
ENDBRANCH  55  74
BRANCH  67  80
ATOM     80  C   UNL A   1      45.888  27.682  28.461  1.00  0.00    -0.014 A 
ATOM     81  C   UNL A   1      47.192  27.541  27.953  1.00  0.00     0.009 A 
ATOM     82  C   UNL A   1      44.955  28.405  27.703  1.00  0.00     0.009 A 
ATOM     83  C   UNL A   1      47.558  28.137  26.742  1.00  0.00     0.001 A 
ATOM     84  C   UNL A   1      45.314  28.979  26.482  1.00  0.00     0.001 A 
ATOM     85  C   UNL A   1      46.616  28.851  26.005  1.00  0.00     0.000 A 
ENDBRANCH  67  80
ENDBRANCH  41  42
ENDBRANCH  34  36
ENDBRANCH  33  34
ENDBRANCH  32  33
ENDBRANCH   1  32
TORSDOF 13
ENDMDL
