MODEL 1
REMARK VINA RESULT:     -12.0      0.000      0.000
REMARK SMILES COc1cc(/C=C2/S/C(=[NH+]\C(C)=O)NC2=O)cc(Br)c1OCC(=O)OCCOC(=O)c1ccc(-c2c3nc(c(-c4ccccc4)c4ccc([nH]4)c(-c4ccccc4)c4nc(c(-c5ccccc5)c5ccc2[nH]5)C=C4)C=C3)cc1
REMARK SMILES IDX 26 1 25 2 23 3 24 4 22 5 21 6 20 7 3 8 4 9 5 10 18 11 17 12
REMARK SMILES IDX 19 13 2 14 1 15 6 16 7 17 8 18 15 19 9 20 14 21 16 22 10 23
REMARK SMILES IDX 11 25 12 27 13 28 27 29 28 30 29 31 30 32 31 33 32 34 78 35
REMARK SMILES IDX 33 36 77 37 34 38 35 39 36 40 71 41 37 42 76 43 70 44 72 45
REMARK SMILES IDX 38 46 75 47 69 48 68 49 39 51 61 52 46 53 60 54 47 55 50 56
REMARK SMILES IDX 59 57 73 58 48 59 49 60 58 62 74 63 51 64 40 65 41 66 45 67
REMARK SMILES IDX 42 68 44 69 43 70 62 71 63 72 67 73 64 74 66 75 65 76 52 77
REMARK SMILES IDX 53 78 57 79 54 80 56 81 55 82
REMARK H PARENT 14 24 10 26 72 50 50 61
REMARK Flexibility Score: inf
ROOT
ATOM      1  C   UNL A   1      35.323  20.958  25.088  1.00  0.00     0.274 C 
ENDROOT
BRANCH   1   2
ATOM      2  O   UNL A   1      34.250  20.091  25.534  1.00  0.00    -0.460 OA
BRANCH   2   3
ATOM      3  C   UNL A   1      33.144  20.079  24.748  1.00  0.00     0.344 C 
ATOM      4  O   UNL A   1      32.917  19.206  23.910  1.00  0.00    -0.248 OA
BRANCH   3   5
ATOM      5  C   UNL A   1      32.192  21.284  24.909  1.00  0.00     0.352 C 
BRANCH   5   6
ATOM      6  O   UNL A   1      32.387  22.515  25.579  1.00  0.00    -0.477 OA
BRANCH   6   7
ATOM      7  C   UNL A   1      31.997  23.670  24.958  1.00  0.00     0.176 A 
ATOM      8  C   UNL A   1      31.033  24.436  25.636  1.00  0.00     0.162 A 
ATOM      9  C   UNL A   1      30.421  25.533  25.010  1.00  0.00     0.058 A 
ATOM     10  C   UNL A   1      30.809  25.917  23.725  1.00  0.00    -0.019 A 
ATOM     11  C   UNL A   1      32.550  24.222  23.799  1.00  0.00     0.064 A 
ATOM     12  C   UNL A   1      31.920  25.298  23.148  1.00  0.00     0.028 A 
ATOM     13  Br  UNL A   1      34.322  23.823  23.231  1.00  0.00    -0.047 Br
BRANCH   8  14
ATOM     14  O   UNL A   1      30.750  24.057  26.928  1.00  0.00    -0.493 OA
ATOM     15  C   UNL A   1      29.691  23.115  27.077  1.00  0.00     0.278 C 
ENDBRANCH   8  14
BRANCH  10  16
ATOM     16  C   UNL A   1      30.155  27.039  23.043  1.00  0.00     0.032 C 
ATOM     17  C   UNL A   1      30.249  28.340  23.363  1.00  0.00     0.110 C 
ATOM     18  S   UNL A   1      29.351  29.568  22.518  1.00  0.00     0.007 SA
ATOM     19  C   UNL A   1      31.034  28.998  24.441  1.00  0.00     0.346 C 
ATOM     20  C   UNL A   1      29.821  30.827  23.611  1.00  0.00     0.324 C 
ATOM     21  N   UNL A   1      30.682  30.312  24.529  1.00  0.00    -0.199 N 
ATOM     22  O   UNL A   1      31.912  28.498  25.131  1.00  0.00    -0.240 OA
ATOM     23  N   UNL A   1      29.546  32.071  23.714  1.00  0.00    -0.204 N 
ATOM     24  H   UNL A   1      31.046  30.880  25.245  1.00  0.00     0.316 HD
ATOM     25  C   UNL A   1      28.772  32.903  22.952  1.00  0.00     0.304 C 
ATOM     26  H   UNL A   1      29.971  32.512  24.484  1.00  0.00     0.316 HD
ATOM     27  C   UNL A   1      27.831  32.442  21.875  1.00  0.00     0.144 C 
ATOM     28  O   UNL A   1      28.803  34.115  23.177  1.00  0.00    -0.247 OA
ENDBRANCH  10  16
ENDBRANCH   6   7
ENDBRANCH   5   6
ENDBRANCH   3   5
ENDBRANCH   2   3
ENDBRANCH   1   2
BRANCH   1  29
ATOM     29  C   UNL A   1      36.711  20.298  25.140  1.00  0.00     0.275 C 
BRANCH  29  30
ATOM     30  O   UNL A   1      37.791  21.226  24.896  1.00  0.00    -0.458 OA
BRANCH  30  31
ATOM     31  C   UNL A   1      38.850  21.009  25.698  1.00  0.00     0.338 C 
ATOM     32  O   UNL A   1      39.527  19.995  25.752  1.00  0.00    -0.246 OA
BRANCH  31  33
ATOM     33  C   UNL A   1      39.260  22.178  26.475  1.00  0.00     0.060 A 
ATOM     34  C   UNL A   1      38.719  23.400  26.095  1.00  0.00     0.016 A 
ATOM     35  C   UNL A   1      40.396  22.128  27.283  1.00  0.00     0.016 A 
ATOM     36  C   UNL A   1      39.375  24.578  26.434  1.00  0.00     0.010 A 
ATOM     37  C   UNL A   1      41.004  23.325  27.693  1.00  0.00     0.010 A 
ATOM     38  C   UNL A   1      40.529  24.566  27.232  1.00  0.00    -0.014 A 
BRANCH  38  39
ATOM     39  C   UNL A   1      41.218  25.851  27.544  1.00  0.00     0.031 A 
ATOM     40  C   UNL A   1      40.598  26.881  28.461  1.00  0.00     0.074 A 
ATOM     41  C   UNL A   1      42.445  26.086  27.034  1.00  0.00     0.049 A 
ATOM     42  N   UNL A   1      41.023  28.087  28.757  1.00  0.00    -0.248 NA
ATOM     43  C   UNL A   1      39.338  26.517  29.125  1.00  0.00     0.031 C 
ATOM     44  C   UNL A   1      43.197  25.166  26.177  1.00  0.00     0.029 A 
ATOM     45  N   UNL A   1      43.286  27.163  27.178  1.00  0.00    -0.354 N 
ATOM     46  C   UNL A   1      40.063  28.639  29.598  1.00  0.00     0.074 A 
ATOM     47  C   UNL A   1      39.027  27.639  29.759  1.00  0.00     0.031 C 
ATOM     48  C   UNL A   1      44.401  25.691  25.914  1.00  0.00     0.029 A 
ATOM     49  C   UNL A   1      44.469  27.027  26.493  1.00  0.00     0.049 A 
ATOM     50  H   UNL A   1      43.062  27.955  27.718  1.00  0.00     0.167 HD
ATOM     51  C   UNL A   1      40.042  29.865  30.180  1.00  0.00     0.031 A 
ATOM     52  C   UNL A   1      45.485  27.887  26.305  1.00  0.00     0.031 A 
ATOM     53  C   UNL A   1      41.084  30.855  30.041  1.00  0.00     0.049 A 
ATOM     54  C   UNL A   1      45.410  29.256  26.910  1.00  0.00     0.074 A 
ATOM     55  C   UNL A   1      41.152  32.120  30.603  1.00  0.00     0.029 A 
ATOM     56  N   UNL A   1      42.242  30.691  29.295  1.00  0.00    -0.354 N 
ATOM     57  N   UNL A   1      44.476  29.775  27.669  1.00  0.00    -0.248 NA
ATOM     58  C   UNL A   1      46.534  30.159  26.630  1.00  0.00     0.031 C 
ATOM     59  C   UNL A   1      42.321  32.742  30.149  1.00  0.00     0.029 A 
ATOM     60  C   UNL A   1      43.019  31.838  29.365  1.00  0.00     0.049 A 
ATOM     61  H   UNL A   1      42.476  29.879  28.790  1.00  0.00     0.167 HD
ATOM     62  C   UNL A   1      44.914  31.055  27.981  1.00  0.00     0.074 A 
ATOM     63  C   UNL A   1      46.205  31.223  27.347  1.00  0.00     0.031 C 
ATOM     64  C   UNL A   1      44.299  32.004  28.729  1.00  0.00     0.031 A 
BRANCH  51  65
ATOM     65  C   UNL A   1      38.828  30.238  30.991  1.00  0.00    -0.014 A 
ATOM     66  C   UNL A   1      37.700  30.837  30.407  1.00  0.00     0.009 A 
ATOM     67  C   UNL A   1      38.791  29.929  32.362  1.00  0.00     0.009 A 
ATOM     68  C   UNL A   1      36.579  31.147  31.183  1.00  0.00     0.001 A 
ATOM     69  C   UNL A   1      37.658  30.210  33.128  1.00  0.00     0.001 A 
ATOM     70  C   UNL A   1      36.557  30.828  32.541  1.00  0.00     0.000 A 
ENDBRANCH  51  65
BRANCH  52  71
ATOM     71  C   UNL A   1      46.643  27.490  25.462  1.00  0.00    -0.014 A 
ATOM     72  C   UNL A   1      47.665  26.682  25.982  1.00  0.00     0.009 A 
ATOM     73  C   UNL A   1      46.728  27.917  24.126  1.00  0.00     0.009 A 
ATOM     74  C   UNL A   1      48.760  26.332  25.189  1.00  0.00     0.001 A 
ATOM     75  C   UNL A   1      47.804  27.532  23.326  1.00  0.00     0.001 A 
ATOM     76  C   UNL A   1      48.824  26.751  23.861  1.00  0.00     0.000 A 
ENDBRANCH  52  71
BRANCH  64  77
ATOM     77  C   UNL A   1      45.051  33.289  28.948  1.00  0.00    -0.014 A 
ATOM     78  C   UNL A   1      44.912  34.384  28.080  1.00  0.00     0.009 A 
ATOM     79  C   UNL A   1      45.926  33.398  30.041  1.00  0.00     0.009 A 
ATOM     80  C   UNL A   1      45.675  35.539  28.272  1.00  0.00     0.001 A 
ATOM     81  C   UNL A   1      46.659  34.567  30.251  1.00  0.00     0.001 A 
ATOM     82  C   UNL A   1      46.545  35.630  29.356  1.00  0.00     0.000 A 
ENDBRANCH  64  77
ENDBRANCH  38  39
ENDBRANCH  31  33
ENDBRANCH  30  31
ENDBRANCH  29  30
ENDBRANCH   1  29
TORSDOF 15
ENDMDL
MODEL 2
REMARK VINA RESULT:     -11.8      6.321     11.070
REMARK SMILES COc1cc(/C=C2/S/C(=[NH+]\C(C)=O)NC2=O)cc(Br)c1OCC(=O)OCCOC(=O)c1ccc(-c2c3nc(c(-c4ccccc4)c4ccc([nH]4)c(-c4ccccc4)c4nc(c(-c5ccccc5)c5ccc2[nH]5)C=C4)C=C3)cc1
REMARK SMILES IDX 26 1 25 2 23 3 24 4 22 5 21 6 20 7 3 8 4 9 5 10 18 11 17 12
REMARK SMILES IDX 19 13 2 14 1 15 6 16 7 17 8 18 15 19 9 20 14 21 16 22 10 23
REMARK SMILES IDX 11 25 12 27 13 28 27 29 28 30 29 31 30 32 31 33 32 34 78 35
REMARK SMILES IDX 33 36 77 37 34 38 35 39 36 40 71 41 37 42 76 43 70 44 72 45
REMARK SMILES IDX 38 46 75 47 69 48 68 49 39 51 61 52 46 53 60 54 47 55 50 56
REMARK SMILES IDX 59 57 73 58 48 59 49 60 58 62 74 63 51 64 40 65 41 66 45 67
REMARK SMILES IDX 42 68 44 69 43 70 62 71 63 72 67 73 64 74 66 75 65 76 52 77
REMARK SMILES IDX 53 78 57 79 54 80 56 81 55 82
REMARK H PARENT 14 24 10 26 72 50 50 61
REMARK Flexibility Score: inf
ROOT
ATOM      1  C   UNL A   1      46.027  20.639  24.691  1.00  0.00     0.274 C 
ENDROOT
BRANCH   1   2
ATOM      2  O   UNL A   1      46.075  21.924  25.362  1.00  0.00    -0.460 OA
BRANCH   2   3
ATOM      3  C   UNL A   1      45.814  23.001  24.580  1.00  0.00     0.344 C 
ATOM      4  O   UNL A   1      45.237  22.927  23.494  1.00  0.00    -0.248 OA
BRANCH   3   5
ATOM      5  C   UNL A   1      46.351  24.353  25.097  1.00  0.00     0.352 C 
BRANCH   5   6
ATOM      6  O   UNL A   1      46.408  25.614  24.456  1.00  0.00    -0.477 OA
BRANCH   6   7
ATOM      7  C   UNL A   1      46.383  26.745  25.226  1.00  0.00     0.176 A 
ATOM      8  C   UNL A   1      47.586  27.469  25.292  1.00  0.00     0.162 A 
ATOM      9  C   UNL A   1      47.732  28.531  26.198  1.00  0.00     0.058 A 
ATOM     10  C   UNL A   1      46.661  28.923  27.003  1.00  0.00    -0.019 A 
ATOM     11  C   UNL A   1      45.262  27.313  25.837  1.00  0.00     0.064 A 
ATOM     12  C   UNL A   1      45.407  28.352  26.774  1.00  0.00     0.028 A 
ATOM     13  Br  UNL A   1      43.493  26.995  25.210  1.00  0.00    -0.047 Br
BRANCH   8  14
ATOM     14  O   UNL A   1      48.577  27.087  24.418  1.00  0.00    -0.493 OA
ATOM     15  C   UNL A   1      49.746  26.532  25.015  1.00  0.00     0.278 C 
ENDBRANCH   8  14
BRANCH  10  16
ATOM     16  C   UNL A   1      46.809  30.007  27.980  1.00  0.00     0.032 C 
ATOM     17  C   UNL A   1      46.599  31.316  27.767  1.00  0.00     0.110 C 
ATOM     18  S   UNL A   1      46.891  32.513  28.996  1.00  0.00     0.007 SA
ATOM     19  C   UNL A   1      46.146  32.016  26.536  1.00  0.00     0.346 C 
ATOM     20  C   UNL A   1      46.622  33.847  27.925  1.00  0.00     0.324 C 
ATOM     21  N   UNL A   1      46.258  33.365  26.707  1.00  0.00    -0.199 N 
ATOM     22  O   UNL A   1      45.682  31.512  25.523  1.00  0.00    -0.240 OA
ATOM     23  N   UNL A   1      46.682  35.117  28.047  1.00  0.00    -0.204 N 
ATOM     24  H   UNL A   1      46.077  33.979  25.961  1.00  0.00     0.316 HD
ATOM     25  C   UNL A   1      46.964  35.922  29.117  1.00  0.00     0.304 C 
ATOM     26  H   UNL A   1      46.488  35.608  27.216  1.00  0.00     0.316 HD
ATOM     27  C   UNL A   1      47.524  35.436  30.423  1.00  0.00     0.144 C 
ATOM     28  O   UNL A   1      46.794  37.138  29.007  1.00  0.00    -0.247 OA
ENDBRANCH  10  16
ENDBRANCH   6   7
ENDBRANCH   5   6
ENDBRANCH   3   5
ENDBRANCH   2   3
ENDBRANCH   1   2
BRANCH   1  29
ATOM     29  C   UNL A   1      44.938  19.699  25.234  1.00  0.00     0.275 C 
BRANCH  29  30
ATOM     30  O   UNL A   1      43.631  19.963  24.679  1.00  0.00    -0.458 OA
BRANCH  30  31
ATOM     31  C   UNL A   1      42.649  19.849  25.593  1.00  0.00     0.338 C 
ATOM     32  O   UNL A   1      42.105  18.817  25.953  1.00  0.00    -0.246 OA
BRANCH  31  33
ATOM     33  C   UNL A   1      42.321  21.099  26.277  1.00  0.00     0.060 A 
ATOM     34  C   UNL A   1      42.447  22.268  25.535  1.00  0.00     0.016 A 
ATOM     35  C   UNL A   1      42.262  21.149  27.670  1.00  0.00     0.016 A 
ATOM     36  C   UNL A   1      42.619  23.483  26.188  1.00  0.00     0.010 A 
ATOM     37  C   UNL A   1      42.350  22.391  28.320  1.00  0.00     0.010 A 
ATOM     38  C   UNL A   1      42.580  23.569  27.588  1.00  0.00    -0.014 A 
BRANCH  38  39
ATOM     39  C   UNL A   1      42.803  24.889  28.247  1.00  0.00     0.031 A 
ATOM     40  C   UNL A   1      44.164  25.297  28.763  1.00  0.00     0.074 A 
ATOM     41  C   UNL A   1      41.778  25.761  28.346  1.00  0.00     0.049 A 
ATOM     42  N   UNL A   1      44.503  26.367  29.444  1.00  0.00    -0.248 NA
ATOM     43  C   UNL A   1      45.286  24.388  28.488  1.00  0.00     0.031 C 
ATOM     44  C   UNL A   1      40.420  25.533  27.849  1.00  0.00     0.029 A 
ATOM     45  N   UNL A   1      41.724  27.024  28.884  1.00  0.00    -0.354 N 
ATOM     46  C   UNL A   1      45.860  26.235  29.718  1.00  0.00     0.074 A 
ATOM     47  C   UNL A   1      46.282  24.977  29.138  1.00  0.00     0.031 C 
ATOM     48  C   UNL A   1      39.683  26.633  28.055  1.00  0.00     0.029 A 
ATOM     49  C   UNL A   1      40.482  27.603  28.793  1.00  0.00     0.049 A 
ATOM     50  H   UNL A   1      42.500  27.470  29.294  1.00  0.00     0.167 HD
ATOM     51  C   UNL A   1      46.680  27.081  30.393  1.00  0.00     0.031 A 
ATOM     52  C   UNL A   1      40.009  28.763  29.282  1.00  0.00     0.031 A 
ATOM     53  C   UNL A   1      46.268  28.347  30.952  1.00  0.00     0.049 A 
ATOM     54  C   UNL A   1      40.920  29.651  30.075  1.00  0.00     0.074 A 
ATOM     55  C   UNL A   1      47.033  29.274  31.643  1.00  0.00     0.029 A 
ATOM     56  N   UNL A   1      44.986  28.869  30.879  1.00  0.00    -0.354 N 
ATOM     57  N   UNL A   1      42.189  29.492  30.359  1.00  0.00    -0.248 NA
ATOM     58  C   UNL A   1      40.328  30.881  30.615  1.00  0.00     0.031 C 
ATOM     59  C   UNL A   1      46.200  30.327  32.038  1.00  0.00     0.029 A 
ATOM     60  C   UNL A   1      44.933  30.093  31.530  1.00  0.00     0.049 A 
ATOM     61  H   UNL A   1      44.225  28.434  30.431  1.00  0.00     0.167 HD
ATOM     62  C   UNL A   1      42.556  30.616  31.086  1.00  0.00     0.074 A 
ATOM     63  C   UNL A   1      41.380  31.456  31.180  1.00  0.00     0.031 C 
ATOM     64  C   UNL A   1      43.761  30.923  31.626  1.00  0.00     0.031 A 
BRANCH  51  65
ATOM     65  C   UNL A   1      48.107  26.650  30.615  1.00  0.00    -0.014 A 
ATOM     66  C   UNL A   1      48.484  25.869  31.719  1.00  0.00     0.009 A 
ATOM     67  C   UNL A   1      49.086  26.986  29.664  1.00  0.00     0.009 A 
ATOM     68  C   UNL A   1      49.812  25.464  31.882  1.00  0.00     0.001 A 
ATOM     69  C   UNL A   1      50.405  26.554  29.811  1.00  0.00     0.001 A 
ATOM     70  C   UNL A   1      50.769  25.801  30.925  1.00  0.00     0.000 A 
ENDBRANCH  51  65
BRANCH  52  71
ATOM     71  C   UNL A   1      38.583  29.126  29.075  1.00  0.00    -0.014 A 
ATOM     72  C   UNL A   1      37.653  29.008  30.118  1.00  0.00     0.009 A 
ATOM     73  C   UNL A   1      38.146  29.600  27.825  1.00  0.00     0.009 A 
ATOM     74  C   UNL A   1      36.311  29.332  29.907  1.00  0.00     0.001 A 
ATOM     75  C   UNL A   1      36.813  29.959  27.630  1.00  0.00     0.001 A 
ATOM     76  C   UNL A   1      35.895  29.813  28.666  1.00  0.00     0.000 A 
ENDBRANCH  52  71
BRANCH  64  77
ATOM     77  C   UNL A   1      43.876  32.256  32.315  1.00  0.00    -0.014 A 
ATOM     78  C   UNL A   1      44.191  33.428  31.609  1.00  0.00     0.009 A 
ATOM     79  C   UNL A   1      43.677  32.335  33.703  1.00  0.00     0.009 A 
ATOM     80  C   UNL A   1      44.357  34.639  32.287  1.00  0.00     0.001 A 
ATOM     81  C   UNL A   1      43.808  33.552  34.372  1.00  0.00     0.001 A 
ATOM     82  C   UNL A   1      44.164  34.699  33.666  1.00  0.00     0.000 A 
ENDBRANCH  64  77
ENDBRANCH  38  39
ENDBRANCH  31  33
ENDBRANCH  30  31
ENDBRANCH  29  30
ENDBRANCH   1  29
TORSDOF 15
ENDMDL
MODEL 3
REMARK VINA RESULT:     -11.8      6.329     10.096
REMARK SMILES COc1cc(/C=C2/S/C(=[NH+]\C(C)=O)NC2=O)cc(Br)c1OCC(=O)OCCOC(=O)c1ccc(-c2c3nc(c(-c4ccccc4)c4ccc([nH]4)c(-c4ccccc4)c4nc(c(-c5ccccc5)c5ccc2[nH]5)C=C4)C=C3)cc1
REMARK SMILES IDX 26 1 25 2 23 3 24 4 22 5 21 6 20 7 3 8 4 9 5 10 18 11 17 12
REMARK SMILES IDX 19 13 2 14 1 15 6 16 7 17 8 18 15 19 9 20 14 21 16 22 10 23
REMARK SMILES IDX 11 25 12 27 13 28 27 29 28 30 29 31 30 32 31 33 32 34 78 35
REMARK SMILES IDX 33 36 77 37 34 38 35 39 36 40 71 41 37 42 76 43 70 44 72 45
REMARK SMILES IDX 38 46 75 47 69 48 68 49 39 51 61 52 46 53 60 54 47 55 50 56
REMARK SMILES IDX 59 57 73 58 48 59 49 60 58 62 74 63 51 64 40 65 41 66 45 67
REMARK SMILES IDX 42 68 44 69 43 70 62 71 63 72 67 73 64 74 66 75 65 76 52 77
REMARK SMILES IDX 53 78 57 79 54 80 56 81 55 82
REMARK H PARENT 14 24 10 26 72 50 50 61
REMARK Flexibility Score: inf
ROOT
ATOM      1  C   UNL A   1      45.870  20.136  24.897  1.00  0.00     0.274 C 
ENDROOT
BRANCH   1   2
ATOM      2  O   UNL A   1      45.978  21.451  25.502  1.00  0.00    -0.460 OA
BRANCH   2   3
ATOM      3  C   UNL A   1      45.832  22.497  24.651  1.00  0.00     0.344 C 
ATOM      4  O   UNL A   1      45.086  22.477  23.671  1.00  0.00    -0.248 OA
BRANCH   3   5
ATOM      5  C   UNL A   1      46.723  23.725  24.937  1.00  0.00     0.352 C 
BRANCH   5   6
ATOM      6  O   UNL A   1      46.805  24.967  24.262  1.00  0.00    -0.477 OA
BRANCH   6   7
ATOM      7  C   UNL A   1      46.882  26.114  25.005  1.00  0.00     0.176 A 
ATOM      8  C   UNL A   1      48.087  26.832  24.902  1.00  0.00     0.162 A 
ATOM      9  C   UNL A   1      48.350  27.912  25.758  1.00  0.00     0.058 A 
ATOM     10  C   UNL A   1      47.391  28.328  26.683  1.00  0.00    -0.019 A 
ATOM     11  C   UNL A   1      45.849  26.703  25.739  1.00  0.00     0.064 A 
ATOM     12  C   UNL A   1      46.116  27.762  26.626  1.00  0.00     0.028 A 
ATOM     13  Br  UNL A   1      44.014  26.384  25.347  1.00  0.00    -0.047 Br
BRANCH   8  14
ATOM     14  O   UNL A   1      48.958  26.424  23.919  1.00  0.00    -0.493 OA
ATOM     15  C   UNL A   1      50.261  27.000  23.971  1.00  0.00     0.278 C 
ENDBRANCH   8  14
BRANCH  10  16
ATOM     16  C   UNL A   1      47.666  29.432  27.609  1.00  0.00     0.032 C 
ATOM     17  C   UNL A   1      47.358  30.727  27.432  1.00  0.00     0.110 C 
ATOM     18  S   UNL A   1      47.816  31.953  28.578  1.00  0.00     0.007 SA
ATOM     19  C   UNL A   1      46.651  31.388  26.303  1.00  0.00     0.346 C 
ATOM     20  C   UNL A   1      47.288  33.258  27.568  1.00  0.00     0.324 C 
ATOM     21  N   UNL A   1      46.729  32.742  26.442  1.00  0.00    -0.199 N 
ATOM     22  O   UNL A   1      46.032  30.847  25.396  1.00  0.00    -0.240 OA
ATOM     23  N   UNL A   1      47.309  34.532  27.669  1.00  0.00    -0.204 N 
ATOM     24  H   UNL A   1      46.383  33.336  25.739  1.00  0.00     0.316 HD
ATOM     25  C   UNL A   1      47.747  35.364  28.664  1.00  0.00     0.304 C 
ATOM     26  H   UNL A   1      46.942  35.001  26.886  1.00  0.00     0.316 HD
ATOM     27  C   UNL A   1      48.562  34.923  29.846  1.00  0.00     0.144 C 
ATOM     28  O   UNL A   1      47.501  36.569  28.580  1.00  0.00    -0.247 OA
ENDBRANCH  10  16
ENDBRANCH   6   7
ENDBRANCH   5   6
ENDBRANCH   3   5
ENDBRANCH   2   3
ENDBRANCH   1   2
BRANCH   1  29
ATOM     29  C   UNL A   1      44.637  19.343  25.362  1.00  0.00     0.275 C 
BRANCH  29  30
ATOM     30  O   UNL A   1      43.413  19.772  24.726  1.00  0.00    -0.458 OA
BRANCH  30  31
ATOM     31  C   UNL A   1      42.354  19.720  25.555  1.00  0.00     0.338 C 
ATOM     32  O   UNL A   1      41.697  18.730  25.836  1.00  0.00    -0.246 OA
BRANCH  31  33
ATOM     33  C   UNL A   1      42.080  20.976  26.252  1.00  0.00     0.060 A 
ATOM     34  C   UNL A   1      42.275  22.146  25.529  1.00  0.00     0.016 A 
ATOM     35  C   UNL A   1      42.002  21.010  27.645  1.00  0.00     0.016 A 
ATOM     36  C   UNL A   1      42.499  23.342  26.202  1.00  0.00     0.010 A 
ATOM     37  C   UNL A   1      42.143  22.236  28.314  1.00  0.00     0.010 A 
ATOM     38  C   UNL A   1      42.443  23.411  27.603  1.00  0.00    -0.014 A 
BRANCH  38  39
ATOM     39  C   UNL A   1      42.722  24.708  28.284  1.00  0.00     0.031 A 
ATOM     40  C   UNL A   1      41.634  25.731  28.517  1.00  0.00     0.074 A 
ATOM     41  C   UNL A   1      43.965  24.960  28.745  1.00  0.00     0.049 A 
ATOM     42  N   UNL A   1      41.732  26.945  29.008  1.00  0.00    -0.248 NA
ATOM     43  C   UNL A   1      40.264  25.350  28.147  1.00  0.00     0.031 C 
ATOM     44  C   UNL A   1      45.108  24.050  28.644  1.00  0.00     0.029 A 
ATOM     45  N   UNL A   1      44.471  26.051  29.410  1.00  0.00    -0.354 N 
ATOM     46  C   UNL A   1      40.451  27.484  28.960  1.00  0.00     0.074 A 
ATOM     47  C   UNL A   1      39.593  26.469  28.384  1.00  0.00     0.031 C 
ATOM     48  C   UNL A   1      46.163  24.593  29.267  1.00  0.00     0.029 A 
ATOM     49  C   UNL A   1      45.805  25.931  29.719  1.00  0.00     0.049 A 
ATOM     50  H   UNL A   1      43.932  26.841  29.641  1.00  0.00     0.167 HD
ATOM     51  C   UNL A   1      40.027  28.712  29.355  1.00  0.00     0.031 A 
ATOM     52  C   UNL A   1      46.668  26.806  30.263  1.00  0.00     0.031 A 
ATOM     53  C   UNL A   1      40.874  29.717  29.951  1.00  0.00     0.049 A 
ATOM     54  C   UNL A   1      46.187  28.176  30.636  1.00  0.00     0.074 A 
ATOM     55  C   UNL A   1      40.529  30.985  30.391  1.00  0.00     0.029 A 
ATOM     56  N   UNL A   1      42.231  29.569  30.198  1.00  0.00    -0.354 N 
ATOM     57  N   UNL A   1      44.982  28.683  30.546  1.00  0.00    -0.248 NA
ATOM     58  C   UNL A   1      47.191  29.095  31.186  1.00  0.00     0.031 C 
ATOM     59  C   UNL A   1      41.687  31.624  30.849  1.00  0.00     0.029 A 
ATOM     60  C   UNL A   1      42.740  30.729  30.764  1.00  0.00     0.049 A 
ATOM     61  H   UNL A   1      42.755  28.760  29.999  1.00  0.00     0.167 HD
ATOM     62  C   UNL A   1      45.077  29.971  31.056  1.00  0.00     0.074 A 
ATOM     63  C   UNL A   1      46.452  30.157  31.471  1.00  0.00     0.031 C 
ATOM     64  C   UNL A   1      44.109  30.913  31.171  1.00  0.00     0.031 A 
BRANCH  51  65
ATOM     65  C   UNL A   1      38.582  29.069  29.113  1.00  0.00    -0.014 A 
ATOM     66  C   UNL A   1      37.615  28.977  30.127  1.00  0.00     0.009 A 
ATOM     67  C   UNL A   1      38.194  29.565  27.857  1.00  0.00     0.009 A 
ATOM     68  C   UNL A   1      36.289  29.340  29.877  1.00  0.00     0.001 A 
ATOM     69  C   UNL A   1      36.876  29.958  27.618  1.00  0.00     0.001 A 
ATOM     70  C   UNL A   1      35.922  29.836  28.625  1.00  0.00     0.000 A 
ENDBRANCH  51  65
BRANCH  52  71
ATOM     71  C   UNL A   1      48.093  26.424  30.443  1.00  0.00    -0.014 A 
ATOM     72  C   UNL A   1      49.018  26.596  29.403  1.00  0.00     0.009 A 
ATOM     73  C   UNL A   1      48.535  25.888  31.664  1.00  0.00     0.009 A 
ATOM     74  C   UNL A   1      50.351  26.214  29.574  1.00  0.00     0.001 A 
ATOM     75  C   UNL A   1      49.875  25.545  31.845  1.00  0.00     0.001 A 
ATOM     76  C   UNL A   1      50.779  25.696  30.796  1.00  0.00     0.000 A 
ENDBRANCH  52  71
BRANCH  64  77
ATOM     77  C   UNL A   1      44.498  32.210  31.827  1.00  0.00    -0.014 A 
ATOM     78  C   UNL A   1      44.304  32.430  33.200  1.00  0.00     0.009 A 
ATOM     79  C   UNL A   1      45.059  33.236  31.049  1.00  0.00     0.009 A 
ATOM     80  C   UNL A   1      44.613  33.670  33.767  1.00  0.00     0.001 A 
ATOM     81  C   UNL A   1      45.400  34.460  31.626  1.00  0.00     0.001 A 
ATOM     82  C   UNL A   1      45.162  34.681  32.981  1.00  0.00     0.000 A 
ENDBRANCH  64  77
ENDBRANCH  38  39
ENDBRANCH  31  33
ENDBRANCH  30  31
ENDBRANCH  29  30
ENDBRANCH   1  29
TORSDOF 15
ENDMDL
