MODEL 1
REMARK VINA RESULT:     -12.6      0.000      0.000
REMARK SMILES O=C(OCCOC(=O)C1(n2cnc3ccccc32)CC[NH+](Cc2cccc3nonc23)CC1)c1ccc(-c2c3nc(c(-c4ccccc4)c4ccc([nH]4)c(-c4ccccc4)c4nc(c(-c5ccccc5)c5ccc2[nH]5)C=C4)C=C3)cc1
REMARK SMILES IDX 4 1 3 2 2 3 1 4 34 5 35 6 81 7 36 8 80 9 37 10 38 11 39 12
REMARK SMILES IDX 74 13 40 14 79 15 73 16 75 17 41 18 78 19 72 20 71 21 42 23
REMARK SMILES IDX 64 24 49 25 63 26 50 27 53 28 62 29 76 30 51 31 52 32 61 34
REMARK SMILES IDX 77 35 54 36 43 37 44 38 48 39 45 40 47 41 46 42 65 43 66 44
REMARK SMILES IDX 70 45 67 46 69 47 68 48 55 49 56 50 60 51 57 52 59 53 58 54
REMARK SMILES IDX 5 55 6 56 7 57 8 58 9 59 19 60 33 61 20 62 32 63 21 64 10 66
REMARK SMILES IDX 11 67 18 68 12 69 13 70 17 71 14 72 16 73 15 74 22 75 23 76
REMARK SMILES IDX 24 77 31 78 25 79 27 80 30 81 26 82 28 83 29 84
REMARK H PARENT 75 22 53 33 21 65
REMARK Flexibility Score: inf
ROOT
ATOM      1  C   UNL A   1      34.269  29.598  27.263  1.00  0.00     0.275 C 
ENDROOT
BRANCH   1   2
ATOM      2  O   UNL A   1      35.669  29.729  27.520  1.00  0.00    -0.458 OA
BRANCH   2   3
ATOM      3  C   UNL A   1      35.996  30.867  28.159  1.00  0.00     0.338 C 
ATOM      4  O   UNL A   1      35.884  31.946  27.625  1.00  0.00    -0.246 OA
BRANCH   3   5
ATOM      5  C   UNL A   1      36.830  30.603  29.379  1.00  0.00     0.060 A 
ATOM      6  C   UNL A   1      38.093  31.157  29.290  1.00  0.00     0.016 A 
ATOM      7  C   UNL A   1      36.650  29.476  30.166  1.00  0.00     0.016 A 
ATOM      8  C   UNL A   1      39.200  30.352  29.500  1.00  0.00     0.010 A 
ATOM      9  C   UNL A   1      37.771  28.701  30.480  1.00  0.00     0.010 A 
ATOM     10  C   UNL A   1      39.026  29.053  29.969  1.00  0.00    -0.014 A 
BRANCH  10  11
ATOM     11  C   UNL A   1      40.200  28.153  29.991  1.00  0.00     0.031 A 
ATOM     12  C   UNL A   1      40.924  28.108  31.307  1.00  0.00     0.074 A 
ATOM     13  C   UNL A   1      40.642  27.457  28.906  1.00  0.00     0.049 A 
ATOM     14  N   UNL A   1      42.176  27.824  31.491  1.00  0.00    -0.248 NA
ATOM     15  C   UNL A   1      40.227  28.535  32.540  1.00  0.00     0.031 C 
ATOM     16  C   UNL A   1      40.177  27.522  27.519  1.00  0.00     0.029 A 
ATOM     17  N   UNL A   1      41.595  26.474  28.796  1.00  0.00    -0.354 N 
ATOM     18  C   UNL A   1      42.424  28.019  32.842  1.00  0.00     0.074 A 
ATOM     19  C   UNL A   1      41.201  28.479  33.444  1.00  0.00     0.031 C 
ATOM     20  C   UNL A   1      40.553  26.438  26.817  1.00  0.00     0.029 A 
ATOM     21  C   UNL A   1      41.448  25.678  27.655  1.00  0.00     0.049 A 
ATOM     22  H   UNL A   1      42.312  26.342  29.458  1.00  0.00     0.167 HD
ATOM     23  C   UNL A   1      43.555  27.589  33.452  1.00  0.00     0.031 A 
ATOM     24  C   UNL A   1      42.054  24.517  27.318  1.00  0.00     0.031 A 
ATOM     25  C   UNL A   1      44.741  27.569  32.641  1.00  0.00     0.049 A 
ATOM     26  C   UNL A   1      43.294  24.439  28.091  1.00  0.00     0.074 A 
ATOM     27  C   UNL A   1      45.946  28.235  32.596  1.00  0.00     0.029 A 
ATOM     28  N   UNL A   1      44.678  26.793  31.521  1.00  0.00    -0.354 N 
ATOM     29  N   UNL A   1      44.353  25.138  27.820  1.00  0.00    -0.248 NA
ATOM     30  C   UNL A   1      43.248  23.806  29.398  1.00  0.00     0.031 C 
ATOM     31  C   UNL A   1      46.529  27.944  31.322  1.00  0.00     0.029 A 
ATOM     32  C   UNL A   1      45.721  27.027  30.662  1.00  0.00     0.049 A 
ATOM     33  H   UNL A   1      43.964  26.138  31.350  1.00  0.00     0.167 HD
ATOM     34  C   UNL A   1      44.912  25.380  29.055  1.00  0.00     0.074 A 
ATOM     35  C   UNL A   1      44.276  24.433  29.971  1.00  0.00     0.031 C 
ATOM     36  C   UNL A   1      45.631  26.509  29.314  1.00  0.00     0.031 A 
BRANCH  23  37
ATOM     37  C   UNL A   1      43.395  26.647  34.611  1.00  0.00    -0.014 A 
ATOM     38  C   UNL A   1      43.350  27.125  35.940  1.00  0.00     0.009 A 
ATOM     39  C   UNL A   1      42.960  25.338  34.379  1.00  0.00     0.009 A 
ATOM     40  C   UNL A   1      42.880  26.342  36.989  1.00  0.00     0.001 A 
ATOM     41  C   UNL A   1      42.459  24.559  35.427  1.00  0.00     0.001 A 
ATOM     42  C   UNL A   1      42.413  25.064  36.726  1.00  0.00     0.000 A 
ENDBRANCH  23  37
BRANCH  24  43
ATOM     43  C   UNL A   1      41.459  23.302  26.706  1.00  0.00    -0.014 A 
ATOM     44  C   UNL A   1      40.106  22.981  26.898  1.00  0.00     0.009 A 
ATOM     45  C   UNL A   1      42.316  22.284  26.244  1.00  0.00     0.009 A 
ATOM     46  C   UNL A   1      39.653  21.664  26.751  1.00  0.00     0.001 A 
ATOM     47  C   UNL A   1      41.865  20.965  26.112  1.00  0.00     0.001 A 
ATOM     48  C   UNL A   1      40.539  20.651  26.394  1.00  0.00     0.000 A 
ENDBRANCH  24  43
BRANCH  36  49
ATOM     49  C   UNL A   1      46.202  27.287  28.150  1.00  0.00    -0.014 A 
ATOM     50  C   UNL A   1      47.419  26.865  27.591  1.00  0.00     0.009 A 
ATOM     51  C   UNL A   1      45.590  28.420  27.581  1.00  0.00     0.009 A 
ATOM     52  C   UNL A   1      48.006  27.544  26.518  1.00  0.00     0.001 A 
ATOM     53  C   UNL A   1      46.153  29.075  26.477  1.00  0.00     0.001 A 
ATOM     54  C   UNL A   1      47.366  28.641  25.952  1.00  0.00     0.000 A 
ENDBRANCH  36  49
ENDBRANCH  10  11
ENDBRANCH   3   5
ENDBRANCH   2   3
ENDBRANCH   1   2
BRANCH   1  55
ATOM     55  C   UNL A   1      33.699  28.501  26.304  1.00  0.00     0.274 C 
BRANCH  55  56
ATOM     56  O   UNL A   1      33.887  27.066  26.497  1.00  0.00    -0.460 OA
BRANCH  56  57
ATOM     57  C   UNL A   1      33.849  26.229  25.440  1.00  0.00     0.332 C 
ATOM     58  O   UNL A   1      34.384  26.547  24.378  1.00  0.00    -0.249 OA
BRANCH  57  59
ATOM     59  C   UNL A   1      33.044  24.866  25.586  1.00  0.00     0.154 C 
ATOM     60  C   UNL A   1      32.368  23.979  24.479  1.00  0.00     0.102 C 
ATOM     61  C   UNL A   1      31.838  25.245  26.490  1.00  0.00     0.102 C 
ATOM     62  C   UNL A   1      30.961  24.320  23.934  1.00  0.00     0.265 C 
ATOM     63  C   UNL A   1      30.768  26.046  25.746  1.00  0.00     0.265 C 
ATOM     64  N   UNL A   1      30.220  25.351  24.604  1.00  0.00    -0.331 N 
ATOM     65  H   UNL A   1      29.767  24.667  25.211  1.00  0.00     0.348 HD
BRANCH  59  66
ATOM     66  N   UNL A   1      33.974  23.899  26.292  1.00  0.00    -0.313 N 
ATOM     67  C   UNL A   1      33.529  23.009  27.249  1.00  0.00     0.201 A 
ATOM     68  C   UNL A   1      35.087  23.286  25.724  1.00  0.00     0.069 A 
ATOM     69  N   UNL A   1      33.955  21.791  27.015  1.00  0.00    -0.237 NA
ATOM     70  C   UNL A   1      34.915  21.938  26.057  1.00  0.00     0.088 A 
ATOM     71  C   UNL A   1      36.170  23.718  24.956  1.00  0.00     0.028 A 
ATOM     72  C   UNL A   1      35.688  20.952  25.440  1.00  0.00     0.030 A 
ATOM     73  C   UNL A   1      37.018  22.721  24.464  1.00  0.00     0.002 A 
ATOM     74  C   UNL A   1      36.725  21.368  24.618  1.00  0.00     0.002 A 
ENDBRANCH  59  66
BRANCH  64  75
ATOM     75  C   UNL A   1      29.064  25.939  23.917  1.00  0.00     0.301 C 
BRANCH  75  76
ATOM     76  C   UNL A   1      29.291  27.265  23.239  1.00  0.00     0.038 A 
ATOM     77  C   UNL A   1      30.553  27.656  22.701  1.00  0.00     0.012 A 
ATOM     78  C   UNL A   1      28.313  28.290  23.144  1.00  0.00     0.144 A 
ATOM     79  C   UNL A   1      30.838  28.962  22.194  1.00  0.00     0.003 A 
ATOM     80  C   UNL A   1      28.612  29.627  22.635  1.00  0.00     0.135 A 
ATOM     81  N   UNL A   1      27.020  28.267  23.498  1.00  0.00    -0.049 NA
ATOM     82  C   UNL A   1      29.886  29.999  22.169  1.00  0.00     0.034 A 
ATOM     83  N   UNL A   1      27.502  30.372  22.723  1.00  0.00    -0.050 NA
ATOM     84  O   UNL A   1      26.532  29.536  23.248  1.00  0.00    -0.243 OA
ENDBRANCH  75  76
ENDBRANCH  64  75
ENDBRANCH  57  59
ENDBRANCH  56  57
ENDBRANCH  55  56
ENDBRANCH   1  55
TORSDOF 14
ENDMDL
MODEL 2
REMARK VINA RESULT:     -12.5      1.719      4.821
REMARK SMILES O=C(OCCOC(=O)C1(n2cnc3ccccc32)CC[NH+](Cc2cccc3nonc23)CC1)c1ccc(-c2c3nc(c(-c4ccccc4)c4ccc([nH]4)c(-c4ccccc4)c4nc(c(-c5ccccc5)c5ccc2[nH]5)C=C4)C=C3)cc1
REMARK SMILES IDX 4 1 3 2 2 3 1 4 34 5 35 6 81 7 36 8 80 9 37 10 38 11 39 12
REMARK SMILES IDX 74 13 40 14 79 15 73 16 75 17 41 18 78 19 72 20 71 21 42 23
REMARK SMILES IDX 64 24 49 25 63 26 50 27 53 28 62 29 76 30 51 31 52 32 61 34
REMARK SMILES IDX 77 35 54 36 43 37 44 38 48 39 45 40 47 41 46 42 65 43 66 44
REMARK SMILES IDX 70 45 67 46 69 47 68 48 55 49 56 50 60 51 57 52 59 53 58 54
REMARK SMILES IDX 5 55 6 56 7 57 8 58 9 59 19 60 33 61 20 62 32 63 21 64 10 66
REMARK SMILES IDX 11 67 18 68 12 69 13 70 17 71 14 72 16 73 15 74 22 75 23 76
REMARK SMILES IDX 24 77 31 78 25 79 27 80 30 81 26 82 28 83 29 84
REMARK H PARENT 75 22 53 33 21 65
REMARK Flexibility Score: inf
ROOT
ATOM      1  C   UNL A   1      35.075  29.520  27.380  1.00  0.00     0.275 C 
ENDROOT
BRANCH   1   2
ATOM      2  O   UNL A   1      36.403  30.049  27.411  1.00  0.00    -0.458 OA
BRANCH   2   3
ATOM      3  C   UNL A   1      36.561  31.055  28.291  1.00  0.00     0.338 C 
ATOM      4  O   UNL A   1      36.322  32.202  27.990  1.00  0.00    -0.246 OA
BRANCH   3   5
ATOM      5  C   UNL A   1      37.392  30.640  29.470  1.00  0.00     0.060 A 
ATOM      6  C   UNL A   1      38.712  31.033  29.355  1.00  0.00     0.016 A 
ATOM      7  C   UNL A   1      37.094  29.515  30.223  1.00  0.00     0.016 A 
ATOM      8  C   UNL A   1      39.713  30.086  29.497  1.00  0.00     0.010 A 
ATOM      9  C   UNL A   1      38.116  28.593  30.470  1.00  0.00     0.010 A 
ATOM     10  C   UNL A   1      39.389  28.802  29.927  1.00  0.00    -0.014 A 
BRANCH  10  11
ATOM     11  C   UNL A   1      40.437  27.761  29.875  1.00  0.00     0.031 A 
ATOM     12  C   UNL A   1      41.392  27.781  31.036  1.00  0.00     0.074 A 
ATOM     13  C   UNL A   1      40.582  26.881  28.845  1.00  0.00     0.049 A 
ATOM     14  N   UNL A   1      42.617  27.355  31.037  1.00  0.00    -0.248 NA
ATOM     15  C   UNL A   1      40.997  28.450  32.295  1.00  0.00     0.031 C 
ATOM     16  C   UNL A   1      39.869  26.835  27.567  1.00  0.00     0.029 A 
ATOM     17  N   UNL A   1      41.381  25.771  28.717  1.00  0.00    -0.354 N 
ATOM     18  C   UNL A   1      43.140  27.682  32.279  1.00  0.00     0.074 A 
ATOM     19  C   UNL A   1      42.115  28.376  33.012  1.00  0.00     0.031 C 
ATOM     20  C   UNL A   1      39.980  25.630  26.978  1.00  0.00     0.029 A 
ATOM     21  C   UNL A   1      40.930  24.866  27.749  1.00  0.00     0.049 A 
ATOM     22  H   UNL A   1      42.194  25.626  29.254  1.00  0.00     0.167 HD
ATOM     23  C   UNL A   1      44.313  27.180  32.738  1.00  0.00     0.031 A 
ATOM     24  C   UNL A   1      41.327  23.600  27.487  1.00  0.00     0.031 A 
ATOM     25  C   UNL A   1      45.311  26.898  31.744  1.00  0.00     0.049 A 
ATOM     26  C   UNL A   1      42.677  23.451  28.033  1.00  0.00     0.074 A 
ATOM     27  C   UNL A   1      46.551  27.383  31.390  1.00  0.00     0.029 A 
ATOM     28  N   UNL A   1      44.948  26.004  30.780  1.00  0.00    -0.354 N 
ATOM     29  N   UNL A   1      43.734  23.960  27.481  1.00  0.00    -0.248 NA
ATOM     30  C   UNL A   1      42.814  22.998  29.407  1.00  0.00     0.031 C 
ATOM     31  C   UNL A   1      46.842  26.857  30.091  1.00  0.00     0.029 A 
ATOM     32  C   UNL A   1      45.825  25.985  29.727  1.00  0.00     0.049 A 
ATOM     33  H   UNL A   1      44.146  25.437  30.835  1.00  0.00     0.167 HD
ATOM     34  C   UNL A   1      44.544  24.276  28.548  1.00  0.00     0.074 A 
ATOM     35  C   UNL A   1      43.995  23.546  29.691  1.00  0.00     0.031 C 
ATOM     36  C   UNL A   1      45.420  25.319  28.507  1.00  0.00     0.031 A 
BRANCH  23  37
ATOM     37  C   UNL A   1      44.276  26.422  34.034  1.00  0.00    -0.014 A 
ATOM     38  C   UNL A   1      44.638  27.038  35.253  1.00  0.00     0.009 A 
ATOM     39  C   UNL A   1      43.576  25.212  34.104  1.00  0.00     0.009 A 
ATOM     40  C   UNL A   1      44.306  26.485  36.485  1.00  0.00     0.001 A 
ATOM     41  C   UNL A   1      43.215  24.670  35.341  1.00  0.00     0.001 A 
ATOM     42  C   UNL A   1      43.573  25.310  36.527  1.00  0.00     0.000 A 
ENDBRANCH  23  37
BRANCH  24  43
ATOM     43  C   UNL A   1      40.494  22.411  27.175  1.00  0.00    -0.014 A 
ATOM     44  C   UNL A   1      41.035  21.116  27.214  1.00  0.00     0.009 A 
ATOM     45  C   UNL A   1      39.278  22.594  26.489  1.00  0.00     0.009 A 
ATOM     46  C   UNL A   1      40.445  20.070  26.493  1.00  0.00     0.001 A 
ATOM     47  C   UNL A   1      38.698  21.552  25.756  1.00  0.00     0.001 A 
ATOM     48  C   UNL A   1      39.299  20.297  25.736  1.00  0.00     0.000 A 
ENDBRANCH  24  43
BRANCH  36  49
ATOM     49  C   UNL A   1      45.839  25.860  27.158  1.00  0.00    -0.014 A 
ATOM     50  C   UNL A   1      46.995  25.340  26.554  1.00  0.00     0.009 A 
ATOM     51  C   UNL A   1      45.141  26.864  26.459  1.00  0.00     0.009 A 
ATOM     52  C   UNL A   1      47.441  25.801  25.311  1.00  0.00     0.001 A 
ATOM     53  C   UNL A   1      45.561  27.296  25.193  1.00  0.00     0.001 A 
ATOM     54  C   UNL A   1      46.717  26.770  24.624  1.00  0.00     0.000 A 
ENDBRANCH  36  49
ENDBRANCH  10  11
ENDBRANCH   3   5
ENDBRANCH   2   3
ENDBRANCH   1   2
BRANCH   1  55
ATOM     55  C   UNL A   1      33.857  30.361  26.872  1.00  0.00     0.274 C 
BRANCH  55  56
ATOM     56  O   UNL A   1      32.965  29.943  25.795  1.00  0.00    -0.460 OA
BRANCH  56  57
ATOM     57  C   UNL A   1      31.916  29.137  26.058  1.00  0.00     0.332 C 
ATOM     58  O   UNL A   1      31.401  29.135  27.177  1.00  0.00    -0.249 OA
BRANCH  57  59
ATOM     59  C   UNL A   1      31.415  28.151  24.915  1.00  0.00     0.154 C 
ATOM     60  C   UNL A   1      30.208  27.145  24.918  1.00  0.00     0.102 C 
ATOM     61  C   UNL A   1      32.631  27.213  24.678  1.00  0.00     0.102 C 
ATOM     62  C   UNL A   1      30.344  25.741  25.553  1.00  0.00     0.265 C 
ATOM     63  C   UNL A   1      32.805  26.177  25.791  1.00  0.00     0.265 C 
ATOM     64  N   UNL A   1      31.654  25.320  25.964  1.00  0.00    -0.331 N 
ATOM     65  H   UNL A   1      31.823  24.876  25.061  1.00  0.00     0.348 HD
BRANCH  59  66
ATOM     66  N   UNL A   1      31.148  29.018  23.699  1.00  0.00    -0.313 N 
ATOM     67  C   UNL A   1      31.392  28.581  22.412  1.00  0.00     0.201 A 
ATOM     68  C   UNL A   1      30.113  29.939  23.574  1.00  0.00     0.069 A 
ATOM     69  N   UNL A   1      30.362  28.787  21.627  1.00  0.00    -0.237 NA
ATOM     70  C   UNL A   1      29.545  29.618  22.336  1.00  0.00     0.088 A 
ATOM     71  C   UNL A   1      29.594  30.959  24.375  1.00  0.00     0.028 A 
ATOM     72  C   UNL A   1      28.306  30.145  21.967  1.00  0.00     0.030 A 
ATOM     73  C   UNL A   1      28.426  31.575  23.914  1.00  0.00     0.002 A 
ATOM     74  C   UNL A   1      27.746  31.110  22.791  1.00  0.00     0.002 A 
ENDBRANCH  59  66
BRANCH  64  75
ATOM     75  C   UNL A   1      31.766  24.175  26.875  1.00  0.00     0.301 C 
BRANCH  75  76
ATOM     76  C   UNL A   1      32.684  23.062  26.442  1.00  0.00     0.038 A 
ATOM     77  C   UNL A   1      33.795  22.623  27.222  1.00  0.00     0.012 A 
ATOM     78  C   UNL A   1      32.600  22.401  25.188  1.00  0.00     0.144 A 
ATOM     79  C   UNL A   1      34.770  21.681  26.769  1.00  0.00     0.003 A 
ATOM     80  C   UNL A   1      33.606  21.447  24.725  1.00  0.00     0.135 A 
ATOM     81  N   UNL A   1      31.675  22.520  24.225  1.00  0.00    -0.049 NA
ATOM     82  C   UNL A   1      34.724  21.083  25.496  1.00  0.00     0.034 A 
ATOM     83  N   UNL A   1      33.271  21.043  23.493  1.00  0.00    -0.050 NA
ATOM     84  O   UNL A   1      32.090  21.699  23.192  1.00  0.00    -0.243 OA
ENDBRANCH  75  76
ENDBRANCH  64  75
ENDBRANCH  57  59
ENDBRANCH  56  57
ENDBRANCH  55  56
ENDBRANCH   1  55
TORSDOF 14
ENDMDL
MODEL 3
REMARK VINA RESULT:     -11.8      5.559      9.092
REMARK SMILES O=C(OCCOC(=O)C1(n2cnc3ccccc32)CC[NH+](Cc2cccc3nonc23)CC1)c1ccc(-c2c3nc(c(-c4ccccc4)c4ccc([nH]4)c(-c4ccccc4)c4nc(c(-c5ccccc5)c5ccc2[nH]5)C=C4)C=C3)cc1
REMARK SMILES IDX 4 1 3 2 2 3 1 4 34 5 35 6 81 7 36 8 80 9 37 10 38 11 39 12
REMARK SMILES IDX 74 13 40 14 79 15 73 16 75 17 41 18 78 19 72 20 71 21 42 23
REMARK SMILES IDX 64 24 49 25 63 26 50 27 53 28 62 29 76 30 51 31 52 32 61 34
REMARK SMILES IDX 77 35 54 36 43 37 44 38 48 39 45 40 47 41 46 42 65 43 66 44
REMARK SMILES IDX 70 45 67 46 69 47 68 48 55 49 56 50 60 51 57 52 59 53 58 54
REMARK SMILES IDX 5 55 6 56 7 57 8 58 9 59 19 60 33 61 20 62 32 63 21 64 10 66
REMARK SMILES IDX 11 67 18 68 12 69 13 70 17 71 14 72 16 73 15 74 22 75 23 76
REMARK SMILES IDX 24 77 31 78 25 79 27 80 30 81 26 82 28 83 29 84
REMARK H PARENT 75 22 53 33 21 65
REMARK Flexibility Score: inf
ROOT
ATOM      1  C   UNL A   1      38.935  30.774  32.000  1.00  0.00     0.275 C 
ENDROOT
BRANCH   1   2
ATOM      2  O   UNL A   1      37.723  30.263  31.439  1.00  0.00    -0.458 OA
BRANCH   2   3
ATOM      3  C   UNL A   1      37.415  30.799  30.244  1.00  0.00     0.338 C 
ATOM      4  O   UNL A   1      36.620  31.705  30.144  1.00  0.00    -0.246 OA
BRANCH   3   5
ATOM      5  C   UNL A   1      37.853  29.921  29.108  1.00  0.00     0.060 A 
ATOM      6  C   UNL A   1      37.704  28.576  29.386  1.00  0.00     0.016 A 
ATOM      7  C   UNL A   1      38.833  30.312  28.209  1.00  0.00     0.016 A 
ATOM      8  C   UNL A   1      38.789  27.730  29.232  1.00  0.00     0.010 A 
ATOM      9  C   UNL A   1      39.889  29.430  27.956  1.00  0.00     0.010 A 
ATOM     10  C   UNL A   1      39.953  28.207  28.634  1.00  0.00    -0.014 A 
BRANCH  10  11
ATOM     11  C   UNL A   1      41.158  27.351  28.666  1.00  0.00     0.031 A 
ATOM     12  C   UNL A   1      42.020  27.536  29.883  1.00  0.00     0.074 A 
ATOM     13  C   UNL A   1      41.510  26.499  27.662  1.00  0.00     0.049 A 
ATOM     14  N   UNL A   1      43.295  27.316  29.968  1.00  0.00    -0.248 NA
ATOM     15  C   UNL A   1      41.442  28.141  31.103  1.00  0.00     0.031 C 
ATOM     16  C   UNL A   1      40.898  26.328  26.344  1.00  0.00     0.029 A 
ATOM     17  N   UNL A   1      42.486  25.535  27.604  1.00  0.00    -0.354 N 
ATOM     18  C   UNL A   1      43.678  27.733  31.235  1.00  0.00     0.074 A 
ATOM     19  C   UNL A   1      42.508  28.255  31.890  1.00  0.00     0.031 C 
ATOM     20  C   UNL A   1      41.241  25.154  25.784  1.00  0.00     0.029 A 
ATOM     21  C   UNL A   1      42.251  24.561  26.626  1.00  0.00     0.049 A 
ATOM     22  H   UNL A   1      43.275  25.528  28.193  1.00  0.00     0.167 HD
ATOM     23  C   UNL A   1      44.885  27.434  31.775  1.00  0.00     0.031 A 
ATOM     24  C   UNL A   1      42.866  23.376  26.412  1.00  0.00     0.031 A 
ATOM     25  C   UNL A   1      45.977  27.312  30.849  1.00  0.00     0.049 A 
ATOM     26  C   UNL A   1      44.184  23.453  27.043  1.00  0.00     0.074 A 
ATOM     27  C   UNL A   1      47.141  27.991  30.565  1.00  0.00     0.029 A 
ATOM     28  N   UNL A   1      45.827  26.364  29.881  1.00  0.00    -0.354 N 
ATOM     29  N   UNL A   1      45.177  24.124  26.549  1.00  0.00    -0.248 NA
ATOM     30  C   UNL A   1      44.304  23.039  28.431  1.00  0.00     0.031 C 
ATOM     31  C   UNL A   1      47.597  27.511  29.296  1.00  0.00     0.029 A 
ATOM     32  C   UNL A   1      46.761  26.481  28.884  1.00  0.00     0.049 A 
ATOM     33  H   UNL A   1      45.127  25.673  29.896  1.00  0.00     0.167 HD
ATOM     34  C   UNL A   1      45.855  24.577  27.659  1.00  0.00     0.074 A 
ATOM     35  C   UNL A   1      45.360  23.775  28.778  1.00  0.00     0.031 C 
ATOM     36  C   UNL A   1      46.550  25.749  27.654  1.00  0.00     0.031 A 
BRANCH  23  37
ATOM     37  C   UNL A   1      44.888  26.689  33.079  1.00  0.00    -0.014 A 
ATOM     38  C   UNL A   1      45.106  27.360  34.303  1.00  0.00     0.009 A 
ATOM     39  C   UNL A   1      44.355  25.397  33.135  1.00  0.00     0.009 A 
ATOM     40  C   UNL A   1      44.794  26.778  35.527  1.00  0.00     0.001 A 
ATOM     41  C   UNL A   1      44.012  24.822  34.362  1.00  0.00     0.001 A 
ATOM     42  C   UNL A   1      44.224  25.515  35.553  1.00  0.00     0.000 A 
ENDBRANCH  23  37
BRANCH  24  43
ATOM     43  C   UNL A   1      42.260  22.064  26.070  1.00  0.00    -0.014 A 
ATOM     44  C   UNL A   1      40.948  21.747  26.458  1.00  0.00     0.009 A 
ATOM     45  C   UNL A   1      43.104  21.004  25.685  1.00  0.00     0.009 A 
ATOM     46  C   UNL A   1      40.536  20.414  26.573  1.00  0.00     0.001 A 
ATOM     47  C   UNL A   1      42.696  19.672  25.816  1.00  0.00     0.001 A 
ATOM     48  C   UNL A   1      41.420  19.377  26.287  1.00  0.00     0.000 A 
ENDBRANCH  24  43
BRANCH  36  49
ATOM     49  C   UNL A   1      46.961  26.342  26.324  1.00  0.00    -0.014 A 
ATOM     50  C   UNL A   1      46.186  27.379  25.782  1.00  0.00     0.009 A 
ATOM     51  C   UNL A   1      48.080  25.917  25.583  1.00  0.00     0.009 A 
ATOM     52  C   UNL A   1      46.507  27.966  24.553  1.00  0.00     0.001 A 
ATOM     53  C   UNL A   1      48.430  26.533  24.374  1.00  0.00     0.001 A 
ATOM     54  C   UNL A   1      47.636  27.552  23.855  1.00  0.00     0.000 A 
ENDBRANCH  36  49
ENDBRANCH  10  11
ENDBRANCH   3   5
ENDBRANCH   2   3
ENDBRANCH   1   2
BRANCH   1  55
ATOM     55  C   UNL A   1      39.367  30.459  33.471  1.00  0.00     0.274 C 
BRANCH  55  56
ATOM     56  O   UNL A   1      39.307  31.422  34.566  1.00  0.00    -0.460 OA
BRANCH  56  57
ATOM     57  C   UNL A   1      39.740  32.686  34.381  1.00  0.00     0.332 C 
ATOM     58  O   UNL A   1      40.817  32.897  33.821  1.00  0.00    -0.249 OA
BRANCH  57  59
ATOM     59  C   UNL A   1      38.862  33.878  34.962  1.00  0.00     0.154 C 
ATOM     60  C   UNL A   1      37.463  33.834  35.675  1.00  0.00     0.102 C 
ATOM     61  C   UNL A   1      38.574  34.764  33.718  1.00  0.00     0.102 C 
ATOM     62  C   UNL A   1      36.152  33.762  34.855  1.00  0.00     0.265 C 
ATOM     63  C   UNL A   1      37.521  34.156  32.788  1.00  0.00     0.265 C 
ATOM     64  N   UNL A   1      36.248  33.929  33.432  1.00  0.00    -0.331 N 
ATOM     65  H   UNL A   1      36.086  34.933  33.514  1.00  0.00     0.348 HD
BRANCH  59  66
ATOM     66  N   UNL A   1      39.743  34.605  35.959  1.00  0.00    -0.313 N 
ATOM     67  C   UNL A   1      40.070  35.939  35.822  1.00  0.00     0.201 A 
ATOM     68  C   UNL A   1      39.782  34.366  37.329  1.00  0.00     0.069 A 
ATOM     69  N   UNL A   1      39.862  36.606  36.931  1.00  0.00    -0.237 NA
ATOM     70  C   UNL A   1      39.665  35.647  37.881  1.00  0.00     0.088 A 
ATOM     71  C   UNL A   1      39.866  33.228  38.133  1.00  0.00     0.028 A 
ATOM     72  C   UNL A   1      39.395  35.810  39.241  1.00  0.00     0.030 A 
ATOM     73  C   UNL A   1      39.735  33.430  39.510  1.00  0.00     0.002 A 
ATOM     74  C   UNL A   1      39.407  34.676  40.040  1.00  0.00     0.002 A 
ENDBRANCH  59  66
BRANCH  64  75
ATOM     75  C   UNL A   1      35.109  33.518  32.603  1.00  0.00     0.301 C 
BRANCH  75  76
ATOM     76  C   UNL A   1      34.365  34.620  31.894  1.00  0.00     0.038 A 
ATOM     77  C   UNL A   1      33.944  34.523  30.534  1.00  0.00     0.012 A 
ATOM     78  C   UNL A   1      34.087  35.890  32.464  1.00  0.00     0.144 A 
ATOM     79  C   UNL A   1      33.378  35.605  29.792  1.00  0.00     0.003 A 
ATOM     80  C   UNL A   1      33.517  36.996  31.698  1.00  0.00     0.135 A 
ATOM     81  N   UNL A   1      34.294  36.324  33.716  1.00  0.00    -0.049 NA
ATOM     82  C   UNL A   1      33.171  36.885  30.339  1.00  0.00     0.034 A 
ATOM     83  N   UNL A   1      33.426  38.065  32.500  1.00  0.00    -0.050 NA
ATOM     84  O   UNL A   1      33.899  37.649  33.732  1.00  0.00    -0.243 OA
ENDBRANCH  75  76
ENDBRANCH  64  75
ENDBRANCH  57  59
ENDBRANCH  56  57
ENDBRANCH  55  56
ENDBRANCH   1  55
TORSDOF 14
ENDMDL
