MODEL 1
REMARK VINA RESULT:     -12.0      0.000      0.000
REMARK SMILES O=C(OCCOC(=O)c1sccc1S(=O)(=O)Nc1ccc(-c2nc3ccccc3n2C(F)F)cc1)c1ccc(-c2c3nc(c(-c4ccccc4)c4ccc([nH]4)c(-c4ccccc4)c4nc(c(-c5ccccc5)c5ccc2[nH]5)C=C4)C=C3)cc1
REMARK SMILES IDX 6 1 5 2 4 3 3 4 2 5 1 6 36 7 37 8 83 9 38 10 82 11 39 12
REMARK SMILES IDX 40 13 41 14 76 15 42 16 81 17 75 18 77 19 43 20 80 21 74 22
REMARK SMILES IDX 73 23 44 25 66 26 51 27 65 28 52 29 55 30 64 31 78 32 53 33
REMARK SMILES IDX 54 34 63 36 79 37 56 38 45 39 46 40 50 41 47 42 49 43 48 44
REMARK SMILES IDX 67 45 68 46 72 47 69 48 71 49 70 50 57 51 58 52 62 53 59 54
REMARK SMILES IDX 61 55 60 56 7 57 8 58 9 59 10 60 13 61 11 62 12 63 14 64
REMARK SMILES IDX 15 65 16 66 17 67 18 69 19 70 35 71 20 72 34 73 21 74 22 75
REMARK SMILES IDX 23 76 30 77 24 78 29 79 25 80 28 81 26 82 27 83 31 84 32 85
REMARK SMILES IDX 33 86
REMARK H PARENT 77 24 55 35 17 68
REMARK Flexibility Score: inf
ROOT
ATOM      1  O   UNL A   1      31.791  29.067  26.529  1.00  0.00    -0.458 OA
ENDROOT
BRANCH   1   2
ATOM      2  C   UNL A   1      33.009  29.462  27.183  1.00  0.00     0.275 C 
BRANCH   2   3
ATOM      3  C   UNL A   1      33.306  30.957  27.251  1.00  0.00     0.275 C 
BRANCH   3   4
ATOM      4  O   UNL A   1      34.247  31.313  28.280  1.00  0.00    -0.458 OA
BRANCH   4   5
ATOM      5  C   UNL A   1      35.425  31.955  28.108  1.00  0.00     0.338 C 
ATOM      6  O   UNL A   1      35.480  33.103  27.687  1.00  0.00    -0.246 OA
BRANCH   5   7
ATOM      7  C   UNL A   1      36.690  31.230  28.270  1.00  0.00     0.060 A 
ATOM      8  C   UNL A   1      36.866  29.951  27.754  1.00  0.00     0.016 A 
ATOM      9  C   UNL A   1      37.655  31.797  29.123  1.00  0.00     0.016 A 
ATOM     10  C   UNL A   1      38.023  29.254  28.050  1.00  0.00     0.010 A 
ATOM     11  C   UNL A   1      38.800  31.081  29.455  1.00  0.00     0.010 A 
ATOM     12  C   UNL A   1      38.965  29.799  28.931  1.00  0.00    -0.014 A 
BRANCH  12  13
ATOM     13  C   UNL A   1      40.006  28.881  29.368  1.00  0.00     0.031 A 
ATOM     14  C   UNL A   1      40.200  28.657  30.819  1.00  0.00     0.074 A 
ATOM     15  C   UNL A   1      40.881  28.342  28.504  1.00  0.00     0.049 A 
ATOM     16  N   UNL A   1      41.174  29.077  31.563  1.00  0.00    -0.248 NA
ATOM     17  C   UNL A   1      39.188  27.865  31.525  1.00  0.00     0.031 C 
ATOM     18  C   UNL A   1      40.757  28.210  27.053  1.00  0.00     0.029 A 
ATOM     19  N   UNL A   1      42.071  27.736  28.786  1.00  0.00    -0.354 N 
ATOM     20  C   UNL A   1      40.981  28.492  32.809  1.00  0.00     0.074 A 
ATOM     21  C   UNL A   1      39.701  27.824  32.755  1.00  0.00     0.031 C 
ATOM     22  C   UNL A   1      41.735  27.393  26.604  1.00  0.00     0.029 A 
ATOM     23  C   UNL A   1      42.621  27.070  27.711  1.00  0.00     0.049 A 
ATOM     24  H   UNL A   1      42.495  27.771  29.673  1.00  0.00     0.167 HD
ATOM     25  C   UNL A   1      41.947  28.447  33.766  1.00  0.00     0.031 A 
ATOM     26  C   UNL A   1      43.701  26.260  27.731  1.00  0.00     0.031 A 
ATOM     27  C   UNL A   1      43.034  29.350  33.524  1.00  0.00     0.049 A 
ATOM     28  C   UNL A   1      44.530  26.593  28.910  1.00  0.00     0.074 A 
ATOM     29  C   UNL A   1      43.175  30.719  33.433  1.00  0.00     0.029 A 
ATOM     30  N   UNL A   1      44.213  28.820  33.062  1.00  0.00    -0.354 N 
ATOM     31  N   UNL A   1      45.219  27.691  29.030  1.00  0.00    -0.248 NA
ATOM     32  C   UNL A   1      44.367  25.830  30.138  1.00  0.00     0.031 C 
ATOM     33  C   UNL A   1      44.255  30.931  32.527  1.00  0.00     0.029 A 
ATOM     34  C   UNL A   1      44.695  29.675  32.104  1.00  0.00     0.049 A 
ATOM     35  H   UNL A   1      44.634  27.981  33.362  1.00  0.00     0.167 HD
ATOM     36  C   UNL A   1      45.235  27.962  30.390  1.00  0.00     0.074 A 
ATOM     37  C   UNL A   1      44.837  26.712  31.023  1.00  0.00     0.031 C 
ATOM     38  C   UNL A   1      45.294  29.244  30.857  1.00  0.00     0.031 A 
BRANCH  25  39
ATOM     39  C   UNL A   1      42.033  27.360  34.800  1.00  0.00    -0.014 A 
ATOM     40  C   UNL A   1      42.405  26.060  34.419  1.00  0.00     0.009 A 
ATOM     41  C   UNL A   1      41.526  27.526  36.105  1.00  0.00     0.009 A 
ATOM     42  C   UNL A   1      42.277  24.981  35.302  1.00  0.00     0.001 A 
ATOM     43  C   UNL A   1      41.435  26.458  37.000  1.00  0.00     0.001 A 
ATOM     44  C   UNL A   1      41.799  25.182  36.594  1.00  0.00     0.000 A 
ENDBRANCH  25  39
BRANCH  26  45
ATOM     45  C   UNL A   1      43.927  25.079  26.879  1.00  0.00    -0.014 A 
ATOM     46  C   UNL A   1      44.707  24.002  27.317  1.00  0.00     0.009 A 
ATOM     47  C   UNL A   1      43.183  24.918  25.694  1.00  0.00     0.009 A 
ATOM     48  C   UNL A   1      44.732  22.803  26.593  1.00  0.00     0.001 A 
ATOM     49  C   UNL A   1      43.216  23.727  24.968  1.00  0.00     0.001 A 
ATOM     50  C   UNL A   1      43.984  22.664  25.425  1.00  0.00     0.000 A 
ENDBRANCH  26  45
BRANCH  38  51
ATOM     51  C   UNL A   1      45.676  30.330  29.881  1.00  0.00    -0.014 A 
ATOM     52  C   UNL A   1      44.717  31.038  29.136  1.00  0.00     0.009 A 
ATOM     53  C   UNL A   1      47.016  30.743  29.805  1.00  0.00     0.009 A 
ATOM     54  C   UNL A   1      45.091  32.100  28.308  1.00  0.00     0.001 A 
ATOM     55  C   UNL A   1      47.385  31.820  28.993  1.00  0.00     0.001 A 
ATOM     56  C   UNL A   1      46.425  32.492  28.240  1.00  0.00     0.000 A 
ENDBRANCH  38  51
ENDBRANCH  12  13
ENDBRANCH   5   7
ENDBRANCH   4   5
ENDBRANCH   3   4
ENDBRANCH   2   3
ENDBRANCH   1   2
BRANCH   1  57
ATOM     57  C   UNL A   1      31.522  27.740  26.519  1.00  0.00     0.349 C 
ATOM     58  O   UNL A   1      31.572  27.005  27.500  1.00  0.00    -0.245 OA
BRANCH  57  59
ATOM     59  C   UNL A   1      31.196  27.296  25.198  1.00  0.00     0.133 A 
ATOM     60  S   UNL A   1      30.936  28.487  23.995  1.00  0.00    -0.136 S 
ATOM     61  C   UNL A   1      30.944  26.025  24.719  1.00  0.00     0.113 A 
ATOM     62  C   UNL A   1      30.546  27.319  22.814  1.00  0.00     0.067 A 
ATOM     63  C   UNL A   1      30.595  26.041  23.326  1.00  0.00     0.035 A 
BRANCH  61  64
ATOM     64  S   UNL A   1      31.015  24.538  25.610  1.00  0.00     0.263 S 
ATOM     65  O   UNL A   1      29.949  24.662  26.579  1.00  0.00    -0.201 OA
ATOM     66  O   UNL A   1      30.958  23.542  24.561  1.00  0.00    -0.201 OA
BRANCH  64  67
ATOM     67  N   UNL A   1      32.454  24.271  26.409  1.00  0.00    -0.280 N 
ATOM     68  H   UNL A   1      32.517  24.587  27.340  1.00  0.00     0.180 HD
BRANCH  67  69
ATOM     69  C   UNL A   1      33.606  23.623  25.860  1.00  0.00     0.049 A 
ATOM     70  C   UNL A   1      34.512  24.450  25.182  1.00  0.00     0.027 A 
ATOM     71  C   UNL A   1      34.010  22.342  26.204  1.00  0.00     0.027 A 
ATOM     72  C   UNL A   1      35.858  24.078  25.026  1.00  0.00     0.014 A 
ATOM     73  C   UNL A   1      35.358  21.986  26.063  1.00  0.00     0.014 A 
ATOM     74  C   UNL A   1      36.326  22.889  25.578  1.00  0.00     0.018 A 
BRANCH  74  75
ATOM     75  C   UNL A   1      37.744  22.519  25.774  1.00  0.00     0.145 A 
ATOM     76  N   UNL A   1      38.184  21.318  25.419  1.00  0.00    -0.228 NA
ATOM     77  N   UNL A   1      38.737  23.171  26.502  1.00  0.00    -0.266 N 
ATOM     78  C   UNL A   1      39.364  21.115  26.071  1.00  0.00     0.089 A 
ATOM     79  C   UNL A   1      39.733  22.244  26.783  1.00  0.00     0.074 A 
ATOM     80  C   UNL A   1      40.167  19.966  26.114  1.00  0.00     0.030 A 
ATOM     81  C   UNL A   1      40.890  22.277  27.577  1.00  0.00     0.029 A 
ATOM     82  C   UNL A   1      41.320  19.977  26.907  1.00  0.00     0.002 A 
ATOM     83  C   UNL A   1      41.669  21.115  27.633  1.00  0.00     0.002 A 
BRANCH  77  84
ATOM     84  C   UNL A   1      38.889  24.591  26.787  1.00  0.00     0.451 C 
ATOM     85  F   UNL A   1      39.092  24.896  28.092  1.00  0.00    -0.185 F 
ATOM     86  F   UNL A   1      39.902  25.193  26.104  1.00  0.00    -0.185 F 
ENDBRANCH  77  84
ENDBRANCH  74  75
ENDBRANCH  67  69
ENDBRANCH  64  67
ENDBRANCH  61  64
ENDBRANCH  57  59
ENDBRANCH   1  57
TORSDOF 16
ENDMDL
MODEL 2
REMARK VINA RESULT:     -11.9      1.931      5.598
REMARK SMILES O=C(OCCOC(=O)c1sccc1S(=O)(=O)Nc1ccc(-c2nc3ccccc3n2C(F)F)cc1)c1ccc(-c2c3nc(c(-c4ccccc4)c4ccc([nH]4)c(-c4ccccc4)c4nc(c(-c5ccccc5)c5ccc2[nH]5)C=C4)C=C3)cc1
REMARK SMILES IDX 6 1 5 2 4 3 3 4 2 5 1 6 36 7 37 8 83 9 38 10 82 11 39 12
REMARK SMILES IDX 40 13 41 14 76 15 42 16 81 17 75 18 77 19 43 20 80 21 74 22
REMARK SMILES IDX 73 23 44 25 66 26 51 27 65 28 52 29 55 30 64 31 78 32 53 33
REMARK SMILES IDX 54 34 63 36 79 37 56 38 45 39 46 40 50 41 47 42 49 43 48 44
REMARK SMILES IDX 67 45 68 46 72 47 69 48 71 49 70 50 57 51 58 52 62 53 59 54
REMARK SMILES IDX 61 55 60 56 7 57 8 58 9 59 10 60 13 61 11 62 12 63 14 64
REMARK SMILES IDX 15 65 16 66 17 67 18 69 19 70 35 71 20 72 34 73 21 74 22 75
REMARK SMILES IDX 23 76 30 77 24 78 29 79 25 80 28 81 26 82 27 83 31 84 32 85
REMARK SMILES IDX 33 86
REMARK H PARENT 77 24 55 35 17 68
REMARK Flexibility Score: inf
ROOT
ATOM      1  O   UNL A   1      33.388  27.948  25.566  1.00  0.00    -0.458 OA
ENDROOT
BRANCH   1   2
ATOM      2  C   UNL A   1      34.041  29.106  26.115  1.00  0.00     0.275 C 
BRANCH   2   3
ATOM      3  C   UNL A   1      34.340  29.090  27.610  1.00  0.00     0.275 C 
BRANCH   3   4
ATOM      4  O   UNL A   1      35.428  29.952  27.991  1.00  0.00    -0.458 OA
BRANCH   4   5
ATOM      5  C   UNL A   1      36.381  29.688  28.913  1.00  0.00     0.338 C 
ATOM      6  O   UNL A   1      36.278  30.063  30.075  1.00  0.00    -0.246 OA
BRANCH   5   7
ATOM      7  C   UNL A   1      37.653  29.080  28.507  1.00  0.00     0.060 A 
ATOM      8  C   UNL A   1      38.338  28.204  29.342  1.00  0.00     0.016 A 
ATOM      9  C   UNL A   1      38.248  29.556  27.325  1.00  0.00     0.016 A 
ATOM     10  C   UNL A   1      39.597  27.765  28.977  1.00  0.00     0.010 A 
ATOM     11  C   UNL A   1      39.532  29.149  26.976  1.00  0.00     0.010 A 
ATOM     12  C   UNL A   1      40.209  28.269  27.821  1.00  0.00    -0.014 A 
BRANCH  12  13
ATOM     13  C   UNL A   1      41.619  27.940  27.674  1.00  0.00     0.031 A 
ATOM     14  C   UNL A   1      41.991  26.635  27.081  1.00  0.00     0.074 A 
ATOM     15  C   UNL A   1      42.584  28.722  28.184  1.00  0.00     0.049 A 
ATOM     16  N   UNL A   1      42.490  25.604  27.686  1.00  0.00    -0.248 NA
ATOM     17  C   UNL A   1      41.788  26.461  25.641  1.00  0.00     0.031 C 
ATOM     18  C   UNL A   1      42.497  30.129  28.577  1.00  0.00     0.029 A 
ATOM     19  N   UNL A   1      43.892  28.402  28.402  1.00  0.00    -0.354 N 
ATOM     20  C   UNL A   1      42.796  24.688  26.686  1.00  0.00     0.074 A 
ATOM     21  C   UNL A   1      42.268  25.231  25.456  1.00  0.00     0.031 C 
ATOM     22  C   UNL A   1      43.744  30.596  28.803  1.00  0.00     0.029 A 
ATOM     23  C   UNL A   1      44.684  29.490  28.706  1.00  0.00     0.049 A 
ATOM     24  H   UNL A   1      44.237  27.483  28.348  1.00  0.00     0.167 HD
ATOM     25  C   UNL A   1      43.606  23.613  26.887  1.00  0.00     0.031 A 
ATOM     26  C   UNL A   1      46.029  29.502  28.818  1.00  0.00     0.031 A 
ATOM     27  C   UNL A   1      43.819  23.308  28.272  1.00  0.00     0.049 A 
ATOM     28  C   UNL A   1      46.499  28.128  29.105  1.00  0.00     0.074 A 
ATOM     29  C   UNL A   1      43.021  22.917  29.327  1.00  0.00     0.029 A 
ATOM     30  N   UNL A   1      45.028  23.651  28.822  1.00  0.00    -0.354 N 
ATOM     31  N   UNL A   1      46.304  27.512  30.236  1.00  0.00    -0.248 NA
ATOM     32  C   UNL A   1      46.945  27.281  28.010  1.00  0.00     0.031 C 
ATOM     33  C   UNL A   1      43.645  23.448  30.493  1.00  0.00     0.029 A 
ATOM     34  C   UNL A   1      44.777  24.151  30.075  1.00  0.00     0.049 A 
ATOM     35  H   UNL A   1      45.912  23.556  28.397  1.00  0.00     0.167 HD
ATOM     36  C   UNL A   1      46.213  26.169  29.905  1.00  0.00     0.074 A 
ATOM     37  C   UNL A   1      46.769  26.078  28.561  1.00  0.00     0.031 C 
ATOM     38  C   UNL A   1      45.443  25.310  30.635  1.00  0.00     0.031 A 
BRANCH  25  39
ATOM     39  C   UNL A   1      44.440  22.995  25.801  1.00  0.00    -0.014 A 
ATOM     40  C   UNL A   1      44.274  21.637  25.480  1.00  0.00     0.009 A 
ATOM     41  C   UNL A   1      45.554  23.654  25.245  1.00  0.00     0.009 A 
ATOM     42  C   UNL A   1      45.179  20.974  24.642  1.00  0.00     0.001 A 
ATOM     43  C   UNL A   1      46.437  23.005  24.377  1.00  0.00     0.001 A 
ATOM     44  C   UNL A   1      46.256  21.660  24.086  1.00  0.00     0.000 A 
ENDBRANCH  25  39
BRANCH  26  45
ATOM     45  C   UNL A   1      46.927  30.620  28.483  1.00  0.00    -0.014 A 
ATOM     46  C   UNL A   1      47.114  31.035  27.159  1.00  0.00     0.009 A 
ATOM     47  C   UNL A   1      47.447  31.433  29.510  1.00  0.00     0.009 A 
ATOM     48  C   UNL A   1      47.792  32.229  26.877  1.00  0.00     0.001 A 
ATOM     49  C   UNL A   1      48.131  32.616  29.229  1.00  0.00     0.001 A 
ATOM     50  C   UNL A   1      48.294  33.019  27.910  1.00  0.00     0.000 A 
ENDBRANCH  26  45
BRANCH  38  51
ATOM     51  C   UNL A   1      44.965  25.774  31.989  1.00  0.00    -0.014 A 
ATOM     52  C   UNL A   1      43.888  26.665  32.138  1.00  0.00     0.009 A 
ATOM     53  C   UNL A   1      45.518  25.200  33.145  1.00  0.00     0.009 A 
ATOM     54  C   UNL A   1      43.407  27.007  33.405  1.00  0.00     0.001 A 
ATOM     55  C   UNL A   1      45.021  25.526  34.411  1.00  0.00     0.001 A 
ATOM     56  C   UNL A   1      43.972  26.434  34.541  1.00  0.00     0.000 A 
ENDBRANCH  38  51
ENDBRANCH  12  13
ENDBRANCH   5   7
ENDBRANCH   4   5
ENDBRANCH   3   4
ENDBRANCH   2   3
ENDBRANCH   1   2
BRANCH   1  57
ATOM     57  C   UNL A   1      33.208  27.944  24.224  1.00  0.00     0.349 C 
ATOM     58  O   UNL A   1      34.096  28.111  23.395  1.00  0.00    -0.245 OA
BRANCH  57  59
ATOM     59  C   UNL A   1      31.828  27.747  23.895  1.00  0.00     0.133 A 
ATOM     60  S   UNL A   1      30.819  29.128  23.822  1.00  0.00    -0.136 S 
ATOM     61  C   UNL A   1      31.110  26.581  23.716  1.00  0.00     0.113 A 
ATOM     62  C   UNL A   1      29.432  28.191  23.492  1.00  0.00     0.067 A 
ATOM     63  C   UNL A   1      29.723  26.846  23.452  1.00  0.00     0.035 A 
BRANCH  61  64
ATOM     64  S   UNL A   1      31.718  24.957  23.780  1.00  0.00     0.263 S 
ATOM     65  O   UNL A   1      30.610  24.153  23.311  1.00  0.00    -0.201 OA
ATOM     66  O   UNL A   1      32.945  25.052  23.019  1.00  0.00    -0.201 OA
BRANCH  64  67
ATOM     67  N   UNL A   1      32.167  24.439  25.300  1.00  0.00    -0.280 N 
ATOM     68  H   UNL A   1      31.445  24.184  25.919  1.00  0.00     0.180 HD
BRANCH  67  69
ATOM     69  C   UNL A   1      33.510  24.333  25.782  1.00  0.00     0.049 A 
ATOM     70  C   UNL A   1      33.754  23.306  26.703  1.00  0.00     0.027 A 
ATOM     71  C   UNL A   1      34.595  24.964  25.192  1.00  0.00     0.027 A 
ATOM     72  C   UNL A   1      35.046  22.783  26.882  1.00  0.00     0.014 A 
ATOM     73  C   UNL A   1      35.877  24.424  25.361  1.00  0.00     0.014 A 
ATOM     74  C   UNL A   1      36.107  23.256  26.117  1.00  0.00     0.018 A 
BRANCH  74  75
ATOM     75  C   UNL A   1      37.427  22.607  25.960  1.00  0.00     0.145 A 
ATOM     76  N   UNL A   1      37.536  21.445  25.328  1.00  0.00    -0.228 NA
ATOM     77  N   UNL A   1      38.641  22.908  26.574  1.00  0.00    -0.266 N 
ATOM     78  C   UNL A   1      38.736  20.905  25.687  1.00  0.00     0.089 A 
ATOM     79  C   UNL A   1      39.448  21.781  26.490  1.00  0.00     0.074 A 
ATOM     80  C   UNL A   1      39.272  19.647  25.376  1.00  0.00     0.030 A 
ATOM     81  C   UNL A   1      40.699  21.444  27.030  1.00  0.00     0.029 A 
ATOM     82  C   UNL A   1      40.514  19.291  25.913  1.00  0.00     0.002 A 
ATOM     83  C   UNL A   1      41.211  20.176  26.735  1.00  0.00     0.002 A 
BRANCH  77  84
ATOM     84  C   UNL A   1      39.136  24.190  27.056  1.00  0.00     0.451 C 
ATOM     85  F   UNL A   1      38.940  25.235  26.215  1.00  0.00    -0.185 F 
ATOM     86  F   UNL A   1      38.613  24.576  28.253  1.00  0.00    -0.185 F 
ENDBRANCH  77  84
ENDBRANCH  74  75
ENDBRANCH  67  69
ENDBRANCH  64  67
ENDBRANCH  61  64
ENDBRANCH  57  59
ENDBRANCH   1  57
TORSDOF 16
ENDMDL
MODEL 3
REMARK VINA RESULT:     -11.8      3.527      6.587
REMARK SMILES O=C(OCCOC(=O)c1sccc1S(=O)(=O)Nc1ccc(-c2nc3ccccc3n2C(F)F)cc1)c1ccc(-c2c3nc(c(-c4ccccc4)c4ccc([nH]4)c(-c4ccccc4)c4nc(c(-c5ccccc5)c5ccc2[nH]5)C=C4)C=C3)cc1
REMARK SMILES IDX 6 1 5 2 4 3 3 4 2 5 1 6 36 7 37 8 83 9 38 10 82 11 39 12
REMARK SMILES IDX 40 13 41 14 76 15 42 16 81 17 75 18 77 19 43 20 80 21 74 22
REMARK SMILES IDX 73 23 44 25 66 26 51 27 65 28 52 29 55 30 64 31 78 32 53 33
REMARK SMILES IDX 54 34 63 36 79 37 56 38 45 39 46 40 50 41 47 42 49 43 48 44
REMARK SMILES IDX 67 45 68 46 72 47 69 48 71 49 70 50 57 51 58 52 62 53 59 54
REMARK SMILES IDX 61 55 60 56 7 57 8 58 9 59 10 60 13 61 11 62 12 63 14 64
REMARK SMILES IDX 15 65 16 66 17 67 18 69 19 70 35 71 20 72 34 73 21 74 22 75
REMARK SMILES IDX 23 76 30 77 24 78 29 79 25 80 28 81 26 82 27 83 31 84 32 85
REMARK SMILES IDX 33 86
REMARK H PARENT 77 24 55 35 17 68
REMARK Flexibility Score: inf
ROOT
ATOM      1  O   UNL A   1      35.624  34.869  32.481  1.00  0.00    -0.458 OA
ENDROOT
BRANCH   1   2
ATOM      2  C   UNL A   1      36.754  33.984  32.579  1.00  0.00     0.275 C 
BRANCH   2   3
ATOM      3  C   UNL A   1      38.135  34.629  32.646  1.00  0.00     0.275 C 
BRANCH   3   4
ATOM      4  O   UNL A   1      38.913  34.455  31.448  1.00  0.00    -0.458 OA
BRANCH   4   5
ATOM      5  C   UNL A   1      40.178  33.985  31.369  1.00  0.00     0.338 C 
ATOM      6  O   UNL A   1      41.150  34.714  31.525  1.00  0.00    -0.246 OA
BRANCH   5   7
ATOM      7  C   UNL A   1      40.427  32.608  30.930  1.00  0.00     0.060 A 
ATOM      8  C   UNL A   1      39.482  31.604  31.114  1.00  0.00     0.016 A 
ATOM      9  C   UNL A   1      41.724  32.296  30.484  1.00  0.00     0.016 A 
ATOM     10  C   UNL A   1      39.814  30.297  30.811  1.00  0.00     0.010 A 
ATOM     11  C   UNL A   1      42.074  30.976  30.219  1.00  0.00     0.010 A 
ATOM     12  C   UNL A   1      41.117  29.979  30.407  1.00  0.00    -0.014 A 
BRANCH  12  13
ATOM     13  C   UNL A   1      41.422  28.556  30.366  1.00  0.00     0.031 A 
ATOM     14  C   UNL A   1      42.254  27.971  31.442  1.00  0.00     0.074 A 
ATOM     15  C   UNL A   1      41.087  27.792  29.314  1.00  0.00     0.049 A 
ATOM     16  N   UNL A   1      43.482  27.566  31.362  1.00  0.00    -0.248 NA
ATOM     17  C   UNL A   1      41.643  27.814  32.765  1.00  0.00     0.031 C 
ATOM     18  C   UNL A   1      40.085  28.059  28.282  1.00  0.00     0.029 A 
ATOM     19  N   UNL A   1      41.565  26.556  28.992  1.00  0.00    -0.354 N 
ATOM     20  C   UNL A   1      43.767  26.972  32.587  1.00  0.00     0.074 A 
ATOM     21  C   UNL A   1      42.630  27.226  33.441  1.00  0.00     0.031 C 
ATOM     22  C   UNL A   1      39.892  26.934  27.561  1.00  0.00     0.029 A 
ATOM     23  C   UNL A   1      40.851  25.929  27.992  1.00  0.00     0.049 A 
ATOM     24  H   UNL A   1      42.346  26.149  29.432  1.00  0.00     0.167 HD
ATOM     25  C   UNL A   1      44.845  26.167  32.788  1.00  0.00     0.031 A 
ATOM     26  C   UNL A   1      40.995  24.653  27.576  1.00  0.00     0.031 A 
ATOM     27  C   UNL A   1      45.837  26.270  31.758  1.00  0.00     0.049 A 
ATOM     28  C   UNL A   1      42.348  24.178  27.942  1.00  0.00     0.074 A 
ATOM     29  C   UNL A   1      46.660  27.270  31.281  1.00  0.00     0.029 A 
ATOM     30  N   UNL A   1      45.915  25.251  30.843  1.00  0.00    -0.354 N 
ATOM     31  N   UNL A   1      43.444  24.596  27.377  1.00  0.00    -0.248 NA
ATOM     32  C   UNL A   1      42.535  23.431  29.176  1.00  0.00     0.031 C 
ATOM     33  C   UNL A   1      46.854  26.976  29.900  1.00  0.00     0.029 A 
ATOM     34  C   UNL A   1      46.119  25.824  29.613  1.00  0.00     0.049 A 
ATOM     35  H   UNL A   1      45.838  24.288  31.033  1.00  0.00     0.167 HD
ATOM     36  C   UNL A   1      44.412  24.520  28.367  1.00  0.00     0.074 A 
ATOM     37  C   UNL A   1      43.834  23.656  29.388  1.00  0.00     0.031 C 
ATOM     38  C   UNL A   1      45.468  25.386  28.394  1.00  0.00     0.031 A 
BRANCH  25  39
ATOM     39  C   UNL A   1      44.869  25.061  33.804  1.00  0.00    -0.014 A 
ATOM     40  C   UNL A   1      44.338  23.801  33.479  1.00  0.00     0.009 A 
ATOM     41  C   UNL A   1      45.186  25.293  35.158  1.00  0.00     0.009 A 
ATOM     42  C   UNL A   1      44.137  22.824  34.462  1.00  0.00     0.001 A 
ATOM     43  C   UNL A   1      45.023  24.307  36.133  1.00  0.00     0.001 A 
ATOM     44  C   UNL A   1      44.485  23.074  35.786  1.00  0.00     0.000 A 
ENDBRANCH  25  39
BRANCH  26  45
ATOM     45  C   UNL A   1      39.931  23.774  27.060  1.00  0.00    -0.014 A 
ATOM     46  C   UNL A   1      38.698  24.288  26.641  1.00  0.00     0.009 A 
ATOM     47  C   UNL A   1      40.215  22.424  26.777  1.00  0.00     0.009 A 
ATOM     48  C   UNL A   1      37.786  23.477  25.953  1.00  0.00     0.001 A 
ATOM     49  C   UNL A   1      39.303  21.612  26.101  1.00  0.00     0.001 A 
ATOM     50  C   UNL A   1      38.091  22.143  25.680  1.00  0.00     0.000 A 
ENDBRANCH  26  45
BRANCH  38  51
ATOM     51  C   UNL A   1      45.739  26.201  27.153  1.00  0.00    -0.014 A 
ATOM     52  C   UNL A   1      46.624  25.766  26.151  1.00  0.00     0.009 A 
ATOM     53  C   UNL A   1      44.990  27.365  26.920  1.00  0.00     0.009 A 
ATOM     54  C   UNL A   1      46.788  26.495  24.970  1.00  0.00     0.001 A 
ATOM     55  C   UNL A   1      45.138  28.082  25.729  1.00  0.00     0.001 A 
ATOM     56  C   UNL A   1      46.042  27.652  24.759  1.00  0.00     0.000 A 
ENDBRANCH  38  51
ENDBRANCH  12  13
ENDBRANCH   5   7
ENDBRANCH   4   5
ENDBRANCH   3   4
ENDBRANCH   2   3
ENDBRANCH   1   2
BRANCH   1  57
ATOM     57  C   UNL A   1      34.458  34.306  32.088  1.00  0.00     0.349 C 
ATOM     58  O   UNL A   1      33.814  33.491  32.741  1.00  0.00    -0.245 OA
BRANCH  57  59
ATOM     59  C   UNL A   1      34.084  34.765  30.784  1.00  0.00     0.133 A 
ATOM     60  S   UNL A   1      33.057  36.131  30.682  1.00  0.00    -0.136 S 
ATOM     61  C   UNL A   1      34.333  34.221  29.539  1.00  0.00     0.113 A 
ATOM     62  C   UNL A   1      32.985  36.045  28.979  1.00  0.00     0.067 A 
ATOM     63  C   UNL A   1      33.717  34.986  28.492  1.00  0.00     0.035 A 
BRANCH  61  64
ATOM     64  S   UNL A   1      35.263  32.799  29.186  1.00  0.00     0.263 S 
ATOM     65  O   UNL A   1      36.625  33.282  29.123  1.00  0.00    -0.201 OA
ATOM     66  O   UNL A   1      34.843  31.884  30.224  1.00  0.00    -0.201 OA
BRANCH  64  67
ATOM     67  N   UNL A   1      34.878  32.054  27.744  1.00  0.00    -0.280 N 
ATOM     68  H   UNL A   1      35.191  32.488  26.917  1.00  0.00     0.180 HD
BRANCH  67  69
ATOM     69  C   UNL A   1      34.134  30.841  27.605  1.00  0.00     0.049 A 
ATOM     70  C   UNL A   1      32.790  30.982  27.231  1.00  0.00     0.027 A 
ATOM     71  C   UNL A   1      34.712  29.583  27.526  1.00  0.00     0.027 A 
ATOM     72  C   UNL A   1      32.096  29.934  26.603  1.00  0.00     0.014 A 
ATOM     73  C   UNL A   1      34.021  28.548  26.882  1.00  0.00     0.014 A 
ATOM     74  C   UNL A   1      32.747  28.740  26.308  1.00  0.00     0.018 A 
BRANCH  74  75
ATOM     75  C   UNL A   1      32.263  27.688  25.388  1.00  0.00     0.145 A 
ATOM     76  N   UNL A   1      31.406  26.765  25.809  1.00  0.00    -0.228 NA
ATOM     77  N   UNL A   1      32.725  27.337  24.122  1.00  0.00    -0.266 N 
ATOM     78  C   UNL A   1      31.461  25.733  24.919  1.00  0.00     0.089 A 
ATOM     79  C   UNL A   1      32.297  26.042  23.859  1.00  0.00     0.074 A 
ATOM     80  C   UNL A   1      30.830  24.482  24.972  1.00  0.00     0.030 A 
ATOM     81  C   UNL A   1      32.559  25.127  22.828  1.00  0.00     0.029 A 
ATOM     82  C   UNL A   1      31.086  23.553  23.957  1.00  0.00     0.002 A 
ATOM     83  C   UNL A   1      31.945  23.872  22.906  1.00  0.00     0.002 A 
BRANCH  77  84
ATOM     84  C   UNL A   1      33.364  28.169  23.111  1.00  0.00     0.451 C 
ATOM     85  F   UNL A   1      32.694  29.303  22.792  1.00  0.00    -0.185 F 
ATOM     86  F   UNL A   1      34.628  28.564  23.431  1.00  0.00    -0.185 F 
ENDBRANCH  77  84
ENDBRANCH  74  75
ENDBRANCH  67  69
ENDBRANCH  64  67
ENDBRANCH  61  64
ENDBRANCH  57  59
ENDBRANCH   1  57
TORSDOF 16
ENDMDL
