MODEL 1
REMARK VINA RESULT:      -9.4      0.000      0.000
REMARK SMILES Cc1cc(N2CC[C@H](CC(=O)OCCOC(=O)c3ccc(-c4c5nc(c(-c6ccccc6)c6ccc([nH]6)c(-c6ccccc6)c6nc(c(-c7ccccc7)c7ccc4[nH]7)C=C6)C=C5)cc3)C2)ncc1[N+](=O)[O-]
REMARK SMILES IDX 13 1 12 2 10 3 11 4 9 5 8 6 5 7 6 8 66 9 7 10 4 11 1 12 2 13
REMARK SMILES IDX 3 14 69 15 68 16 67 17 70 18 71 19 72 20 14 21 15 22 16 23
REMARK SMILES IDX 17 24 18 25 19 26 65 27 20 28 64 29 21 30 22 31 23 32 58 33
REMARK SMILES IDX 24 34 63 35 57 36 59 37 25 38 62 39 56 40 55 41 26 43 48 44
REMARK SMILES IDX 33 45 47 46 34 47 37 48 46 49 60 50 35 51 36 52 45 54 61 55
REMARK SMILES IDX 38 56 27 57 28 58 32 59 29 60 31 61 30 62 49 63 50 64 54 65
REMARK SMILES IDX 51 66 53 67 52 68 39 69 40 70 44 71 41 72 43 73 42 74
REMARK H PARENT 59 42 37 53
REMARK Flexibility Score: inf
ROOT
ATOM      1  C   UNL A   1      33.439  34.813  28.611  1.00  0.00     0.274 C 
ENDROOT
BRANCH   1   2
ATOM      2  O   UNL A   1      32.756  34.728  29.876  1.00  0.00    -0.462 OA
BRANCH   2   3
ATOM      3  C   UNL A   1      32.904  35.780  30.718  1.00  0.00     0.306 C 
ATOM      4  O   UNL A   1      32.543  36.926  30.482  1.00  0.00    -0.252 OA
BRANCH   3   5
ATOM      5  C   UNL A   1      33.641  35.408  31.985  1.00  0.00     0.128 C 
BRANCH   5   6
ATOM      6  C   UNL A   1      34.398  34.083  31.936  1.00  0.00     0.021 C 
ATOM      7  N   UNL A   1      35.862  32.726  33.222  1.00  0.00    -0.356 N 
ATOM      8  C   UNL A   1      36.534  32.993  31.954  1.00  0.00     0.118 C 
ATOM      9  C   UNL A   1      34.630  33.505  33.342  1.00  0.00     0.122 C 
ATOM     10  C   UNL A   1      35.820  34.212  31.390  1.00  0.00     0.027 C 
BRANCH   7  11
ATOM     11  C   UNL A   1      36.640  32.673  34.366  1.00  0.00     0.129 A 
ATOM     12  C   UNL A   1      39.555  30.596  35.607  1.00  0.00     0.052 C 
ATOM     13  C   UNL A   1      38.465  31.628  35.596  1.00  0.00     0.032 A 
ATOM     14  C   UNL A   1      37.635  31.699  34.464  1.00  0.00     0.057 A 
ATOM     15  C   UNL A   1      38.193  32.522  36.637  1.00  0.00     0.290 A 
ATOM     16  C   UNL A   1      37.180  33.459  36.477  1.00  0.00     0.199 A 
ATOM     17  N   UNL A   1      36.413  33.552  35.363  1.00  0.00    -0.232 NA
BRANCH  15  18
ATOM     18  N   UNL A   1      38.911  32.526  37.901  1.00  0.00     0.064 N 
ATOM     19  O   UNL A   1      39.980  33.151  37.945  1.00  0.00    -0.258 OA
ATOM     20  O   UNL A   1      38.400  31.936  38.861  1.00  0.00    -0.258 OA
ENDBRANCH  15  18
ENDBRANCH   7  11
ENDBRANCH   5   6
ENDBRANCH   3   5
ENDBRANCH   2   3
ENDBRANCH   1   2
BRANCH   1  21
ATOM     21  C   UNL A   1      33.607  33.437  27.963  1.00  0.00     0.275 C 
BRANCH  21  22
ATOM     22  O   UNL A   1      34.171  32.486  28.885  1.00  0.00    -0.458 OA
BRANCH  22  23
ATOM     23  C   UNL A   1      34.441  31.268  28.361  1.00  0.00     0.338 C 
ATOM     24  O   UNL A   1      33.790  30.659  27.530  1.00  0.00    -0.246 OA
BRANCH  23  25
ATOM     25  C   UNL A   1      35.754  30.805  28.838  1.00  0.00     0.060 A 
ATOM     26  C   UNL A   1      36.887  31.214  28.132  1.00  0.00     0.016 A 
ATOM     27  C   UNL A   1      35.866  29.926  29.916  1.00  0.00     0.016 A 
ATOM     28  C   UNL A   1      38.144  30.741  28.498  1.00  0.00     0.010 A 
ATOM     29  C   UNL A   1      37.130  29.450  30.283  1.00  0.00     0.010 A 
ATOM     30  C   UNL A   1      38.275  29.846  29.569  1.00  0.00    -0.014 A 
BRANCH  30  31
ATOM     31  C   UNL A   1      39.613  29.305  29.902  1.00  0.00     0.031 A 
ATOM     32  C   UNL A   1      40.482  30.007  30.905  1.00  0.00     0.074 A 
ATOM     33  C   UNL A   1      40.026  28.154  29.341  1.00  0.00     0.049 A 
ATOM     34  N   UNL A   1      41.670  29.675  31.343  1.00  0.00    -0.248 NA
ATOM     35  C   UNL A   1      39.943  31.243  31.495  1.00  0.00     0.031 C 
ATOM     36  C   UNL A   1      39.261  27.359  28.379  1.00  0.00     0.029 A 
ATOM     37  N   UNL A   1      41.191  27.449  29.509  1.00  0.00    -0.354 N 
ATOM     38  C   UNL A   1      42.025  30.662  32.255  1.00  0.00     0.074 A 
ATOM     39  C   UNL A   1      40.937  31.616  32.290  1.00  0.00     0.031 C 
ATOM     40  C   UNL A   1      39.971  26.266  28.054  1.00  0.00     0.029 A 
ATOM     41  C   UNL A   1      41.251  26.302  28.757  1.00  0.00     0.049 A 
ATOM     42  H   UNL A   1      41.914  27.738  30.111  1.00  0.00     0.167 HD
ATOM     43  C   UNL A   1      43.153  30.761  32.999  1.00  0.00     0.031 A 
ATOM     44  C   UNL A   1      42.231  25.387  28.640  1.00  0.00     0.031 A 
ATOM     45  C   UNL A   1      44.241  29.819  32.962  1.00  0.00     0.049 A 
ATOM     46  C   UNL A   1      43.496  25.552  29.434  1.00  0.00     0.074 A 
ATOM     47  C   UNL A   1      45.420  29.835  33.687  1.00  0.00     0.029 A 
ATOM     48  N   UNL A   1      44.284  28.696  32.151  1.00  0.00    -0.354 N 
ATOM     49  N   UNL A   1      43.811  26.482  30.303  1.00  0.00    -0.248 NA
ATOM     50  C   UNL A   1      44.540  24.537  29.232  1.00  0.00     0.031 C 
ATOM     51  C   UNL A   1      46.195  28.741  33.284  1.00  0.00     0.029 A 
ATOM     52  C   UNL A   1      45.478  28.021  32.342  1.00  0.00     0.049 A 
ATOM     53  H   UNL A   1      43.571  28.418  31.532  1.00  0.00     0.167 HD
ATOM     54  C   UNL A   1      45.079  26.155  30.764  1.00  0.00     0.074 A 
ATOM     55  C   UNL A   1      45.468  24.931  30.094  1.00  0.00     0.031 C 
ATOM     56  C   UNL A   1      45.855  26.811  31.661  1.00  0.00     0.031 A 
BRANCH  43  57
ATOM     57  C   UNL A   1      43.278  31.953  33.902  1.00  0.00    -0.014 A 
ATOM     58  C   UNL A   1      43.763  33.180  33.425  1.00  0.00     0.009 A 
ATOM     59  C   UNL A   1      42.871  31.856  35.242  1.00  0.00     0.009 A 
ATOM     60  C   UNL A   1      43.861  34.280  34.279  1.00  0.00     0.001 A 
ATOM     61  C   UNL A   1      42.951  32.964  36.088  1.00  0.00     0.001 A 
ATOM     62  C   UNL A   1      43.452  34.173  35.608  1.00  0.00     0.000 A 
ENDBRANCH  43  57
BRANCH  44  63
ATOM     63  C   UNL A   1      42.065  24.233  27.721  1.00  0.00    -0.014 A 
ATOM     64  C   UNL A   1      41.450  23.051  28.159  1.00  0.00     0.009 A 
ATOM     65  C   UNL A   1      42.537  24.305  26.400  1.00  0.00     0.009 A 
ATOM     66  C   UNL A   1      41.331  21.957  27.301  1.00  0.00     0.001 A 
ATOM     67  C   UNL A   1      42.393  23.218  25.537  1.00  0.00     0.001 A 
ATOM     68  C   UNL A   1      41.799  22.042  25.991  1.00  0.00     0.000 A 
ENDBRANCH  44  63
BRANCH  56  69
ATOM     69  C   UNL A   1      47.189  26.201  31.981  1.00  0.00    -0.014 A 
ATOM     70  C   UNL A   1      47.369  25.409  33.125  1.00  0.00     0.009 A 
ATOM     71  C   UNL A   1      48.275  26.408  31.116  1.00  0.00     0.009 A 
ATOM     72  C   UNL A   1      48.621  24.863  33.415  1.00  0.00     0.001 A 
ATOM     73  C   UNL A   1      49.520  25.841  31.396  1.00  0.00     0.001 A 
ATOM     74  C   UNL A   1      49.694  25.078  32.550  1.00  0.00     0.000 A 
ENDBRANCH  56  69
ENDBRANCH  30  31
ENDBRANCH  23  25
ENDBRANCH  22  23
ENDBRANCH  21  22
ENDBRANCH   1  21
TORSDOF 14
ENDMDL
MODEL 2
REMARK VINA RESULT:      -9.3      6.140     11.514
REMARK SMILES Cc1cc(N2CC[C@H](CC(=O)OCCOC(=O)c3ccc(-c4c5nc(c(-c6ccccc6)c6ccc([nH]6)c(-c6ccccc6)c6nc(c(-c7ccccc7)c7ccc4[nH]7)C=C6)C=C5)cc3)C2)ncc1[N+](=O)[O-]
REMARK SMILES IDX 13 1 12 2 10 3 11 4 9 5 8 6 5 7 6 8 66 9 7 10 4 11 1 12 2 13
REMARK SMILES IDX 3 14 69 15 68 16 67 17 70 18 71 19 72 20 14 21 15 22 16 23
REMARK SMILES IDX 17 24 18 25 19 26 65 27 20 28 64 29 21 30 22 31 23 32 58 33
REMARK SMILES IDX 24 34 63 35 57 36 59 37 25 38 62 39 56 40 55 41 26 43 48 44
REMARK SMILES IDX 33 45 47 46 34 47 37 48 46 49 60 50 35 51 36 52 45 54 61 55
REMARK SMILES IDX 38 56 27 57 28 58 32 59 29 60 31 61 30 62 49 63 50 64 54 65
REMARK SMILES IDX 51 66 53 67 52 68 39 69 40 70 44 71 41 72 43 73 42 74
REMARK H PARENT 59 42 37 53
REMARK Flexibility Score: inf
ROOT
ATOM      1  C   UNL A   1      37.806  20.770  24.884  1.00  0.00     0.274 C 
ENDROOT
BRANCH   1   2
ATOM      2  O   UNL A   1      36.786  21.653  25.389  1.00  0.00    -0.462 OA
BRANCH   2   3
ATOM      3  C   UNL A   1      36.437  22.694  24.593  1.00  0.00     0.306 C 
ATOM      4  O   UNL A   1      37.021  23.021  23.567  1.00  0.00    -0.252 OA
BRANCH   3   5
ATOM      5  C   UNL A   1      35.268  23.478  25.144  1.00  0.00     0.128 C 
BRANCH   5   6
ATOM      6  C   UNL A   1      33.890  22.881  24.862  1.00  0.00     0.021 C 
ATOM      7  N   UNL A   1      32.727  20.811  24.833  1.00  0.00    -0.356 N 
ATOM      8  C   UNL A   1      32.589  21.395  23.503  1.00  0.00     0.118 C 
ATOM      9  C   UNL A   1      33.655  21.587  25.656  1.00  0.00     0.122 C 
ATOM     10  C   UNL A   1      33.708  22.423  23.415  1.00  0.00     0.027 C 
BRANCH   7  11
ATOM     11  C   UNL A   1      32.866  19.437  24.923  1.00  0.00     0.129 A 
ATOM     12  C   UNL A   1      34.209  16.665  22.719  1.00  0.00     0.052 C 
ATOM     13  C   UNL A   1      33.578  17.344  23.899  1.00  0.00     0.032 A 
ATOM     14  C   UNL A   1      33.394  18.736  23.838  1.00  0.00     0.057 A 
ATOM     15  C   UNL A   1      33.137  16.698  25.058  1.00  0.00     0.290 A 
ATOM     16  C   UNL A   1      32.610  17.455  26.096  1.00  0.00     0.199 A 
ATOM     17  N   UNL A   1      32.477  18.804  26.049  1.00  0.00    -0.232 NA
BRANCH  15  18
ATOM     18  N   UNL A   1      33.187  15.257  25.244  1.00  0.00     0.064 N 
ATOM     19  O   UNL A   1      32.108  14.649  25.272  1.00  0.00    -0.258 OA
ATOM     20  O   UNL A   1      34.300  14.722  25.330  1.00  0.00    -0.258 OA
ENDBRANCH  15  18
ENDBRANCH   7  11
ENDBRANCH   5   6
ENDBRANCH   3   5
ENDBRANCH   2   3
ENDBRANCH   1   2
BRANCH   1  21
ATOM     21  C   UNL A   1      38.980  20.645  25.857  1.00  0.00     0.275 C 
BRANCH  21  22
ATOM     22  O   UNL A   1      39.868  19.577  25.477  1.00  0.00    -0.458 OA
BRANCH  22  23
ATOM     23  C   UNL A   1      41.066  19.575  26.107  1.00  0.00     0.338 C 
ATOM     24  O   UNL A   1      41.877  18.667  26.151  1.00  0.00    -0.246 OA
BRANCH  23  25
ATOM     25  C   UNL A   1      41.343  20.916  26.644  1.00  0.00     0.060 A 
ATOM     26  C   UNL A   1      41.820  21.889  25.762  1.00  0.00     0.016 A 
ATOM     27  C   UNL A   1      41.207  21.196  28.005  1.00  0.00     0.016 A 
ATOM     28  C   UNL A   1      42.169  23.149  26.238  1.00  0.00     0.010 A 
ATOM     29  C   UNL A   1      41.559  22.463  28.482  1.00  0.00     0.010 A 
ATOM     30  C   UNL A   1      42.053  23.443  27.603  1.00  0.00    -0.014 A 
BRANCH  30  31
ATOM     31  C   UNL A   1      42.490  24.770  28.099  1.00  0.00     0.031 A 
ATOM     32  C   UNL A   1      41.483  25.861  28.321  1.00  0.00     0.074 A 
ATOM     33  C   UNL A   1      43.786  24.977  28.396  1.00  0.00     0.049 A 
ATOM     34  N   UNL A   1      41.669  27.076  28.771  1.00  0.00    -0.248 NA
ATOM     35  C   UNL A   1      40.083  25.543  28.000  1.00  0.00     0.031 C 
ATOM     36  C   UNL A   1      44.855  23.988  28.256  1.00  0.00     0.029 A 
ATOM     37  N   UNL A   1      44.419  26.090  28.888  1.00  0.00    -0.354 N 
ATOM     38  C   UNL A   1      40.414  27.671  28.781  1.00  0.00     0.074 A 
ATOM     39  C   UNL A   1      39.477  26.691  28.271  1.00  0.00     0.031 C 
ATOM     40  C   UNL A   1      46.011  24.533  28.669  1.00  0.00     0.029 A 
ATOM     41  C   UNL A   1      45.769  25.918  29.069  1.00  0.00     0.049 A 
ATOM     42  H   UNL A   1      43.951  26.931  29.092  1.00  0.00     0.167 HD
ATOM     43  C   UNL A   1      40.071  28.919  29.182  1.00  0.00     0.031 A 
ATOM     44  C   UNL A   1      46.708  26.780  29.500  1.00  0.00     0.031 A 
ATOM     45  C   UNL A   1      40.999  29.899  29.683  1.00  0.00     0.049 A 
ATOM     46  C   UNL A   1      46.308  28.176  29.885  1.00  0.00     0.074 A 
ATOM     47  C   UNL A   1      40.740  31.187  30.121  1.00  0.00     0.029 A 
ATOM     48  N   UNL A   1      42.365  29.701  29.805  1.00  0.00    -0.354 N 
ATOM     49  N   UNL A   1      45.116  28.719  29.904  1.00  0.00    -0.248 NA
ATOM     50  C   UNL A   1      47.388  29.078  30.313  1.00  0.00     0.031 C 
ATOM     51  C   UNL A   1      41.957  31.782  30.470  1.00  0.00     0.029 A 
ATOM     52  C   UNL A   1      42.966  30.849  30.292  1.00  0.00     0.049 A 
ATOM     53  H   UNL A   1      42.837  28.867  29.580  1.00  0.00     0.167 HD
ATOM     54  C   UNL A   1      45.298  30.017  30.361  1.00  0.00     0.074 A 
ATOM     55  C   UNL A   1      46.713  30.175  30.627  1.00  0.00     0.031 C 
ATOM     56  C   UNL A   1      44.376  30.994  30.542  1.00  0.00     0.031 A 
BRANCH  43  57
ATOM     57  C   UNL A   1      38.624  29.304  29.071  1.00  0.00    -0.014 A 
ATOM     58  C   UNL A   1      38.098  29.815  27.875  1.00  0.00     0.009 A 
ATOM     59  C   UNL A   1      37.769  29.119  30.169  1.00  0.00     0.009 A 
ATOM     60  C   UNL A   1      36.746  30.157  27.789  1.00  0.00     0.001 A 
ATOM     61  C   UNL A   1      36.414  29.442  30.072  1.00  0.00     0.001 A 
ATOM     62  C   UNL A   1      35.906  29.967  28.885  1.00  0.00     0.000 A 
ENDBRANCH  43  57
BRANCH  44  63
ATOM     63  C   UNL A   1      48.128  26.355  29.578  1.00  0.00    -0.014 A 
ATOM     64  C   UNL A   1      48.978  26.492  28.471  1.00  0.00     0.009 A 
ATOM     65  C   UNL A   1      48.637  25.794  30.761  1.00  0.00     0.009 A 
ATOM     66  C   UNL A   1      50.303  26.055  28.539  1.00  0.00     0.001 A 
ATOM     67  C   UNL A   1      49.968  25.382  30.833  1.00  0.00     0.001 A 
ATOM     68  C   UNL A   1      50.797  25.504  29.719  1.00  0.00     0.000 A 
ENDBRANCH  44  63
BRANCH  56  69
ATOM     69  C   UNL A   1      44.872  32.309  31.072  1.00  0.00    -0.014 A 
ATOM     70  C   UNL A   1      44.949  32.551  32.452  1.00  0.00     0.009 A 
ATOM     71  C   UNL A   1      45.286  33.309  30.180  1.00  0.00     0.009 A 
ATOM     72  C   UNL A   1      45.398  33.785  32.927  1.00  0.00     0.001 A 
ATOM     73  C   UNL A   1      45.757  34.533  30.658  1.00  0.00     0.001 A 
ATOM     74  C   UNL A   1      45.803  34.773  32.030  1.00  0.00     0.000 A 
ENDBRANCH  56  69
ENDBRANCH  30  31
ENDBRANCH  23  25
ENDBRANCH  22  23
ENDBRANCH  21  22
ENDBRANCH   1  21
TORSDOF 14
ENDMDL
MODEL 3
REMARK VINA RESULT:      -9.3      3.475      7.082
REMARK SMILES Cc1cc(N2CC[C@H](CC(=O)OCCOC(=O)c3ccc(-c4c5nc(c(-c6ccccc6)c6ccc([nH]6)c(-c6ccccc6)c6nc(c(-c7ccccc7)c7ccc4[nH]7)C=C6)C=C5)cc3)C2)ncc1[N+](=O)[O-]
REMARK SMILES IDX 13 1 12 2 10 3 11 4 9 5 8 6 5 7 6 8 66 9 7 10 4 11 1 12 2 13
REMARK SMILES IDX 3 14 69 15 68 16 67 17 70 18 71 19 72 20 14 21 15 22 16 23
REMARK SMILES IDX 17 24 18 25 19 26 65 27 20 28 64 29 21 30 22 31 23 32 58 33
REMARK SMILES IDX 24 34 63 35 57 36 59 37 25 38 62 39 56 40 55 41 26 43 48 44
REMARK SMILES IDX 33 45 47 46 34 47 37 48 46 49 60 50 35 51 36 52 45 54 61 55
REMARK SMILES IDX 38 56 27 57 28 58 32 59 29 60 31 61 30 62 49 63 50 64 54 65
REMARK SMILES IDX 51 66 53 67 52 68 39 69 40 70 44 71 41 72 43 73 42 74
REMARK H PARENT 59 42 37 53
REMARK Flexibility Score: inf
ROOT
ATOM      1  C   UNL A   1      33.524  35.849  29.073  1.00  0.00     0.274 C 
ENDROOT
BRANCH   1   2
ATOM      2  O   UNL A   1      33.251  34.440  28.949  1.00  0.00    -0.462 OA
BRANCH   2   3
ATOM      3  C   UNL A   1      34.195  33.691  28.329  1.00  0.00     0.306 C 
ATOM      4  O   UNL A   1      35.039  34.125  27.553  1.00  0.00    -0.252 OA
BRANCH   3   5
ATOM      5  C   UNL A   1      34.063  32.218  28.640  1.00  0.00     0.128 C 
BRANCH   5   6
ATOM      6  C   UNL A   1      34.684  31.274  27.611  1.00  0.00     0.021 C 
ATOM      7  N   UNL A   1      34.249  29.261  26.429  1.00  0.00    -0.356 N 
ATOM      8  C   UNL A   1      35.502  29.067  27.152  1.00  0.00     0.118 C 
ATOM      9  C   UNL A   1      33.612  30.524  26.805  1.00  0.00     0.122 C 
ATOM     10  C   UNL A   1      35.490  30.135  28.236  1.00  0.00     0.027 C 
BRANCH   7  11
ATOM     11  C   UNL A   1      33.393  28.179  26.319  1.00  0.00     0.129 A 
ATOM     12  C   UNL A   1      33.740  24.461  25.687  1.00  0.00     0.052 C 
ATOM     13  C   UNL A   1      33.094  25.791  25.937  1.00  0.00     0.032 A 
ATOM     14  C   UNL A   1      33.925  26.922  26.030  1.00  0.00     0.057 A 
ATOM     15  C   UNL A   1      31.718  26.005  26.069  1.00  0.00     0.290 A 
ATOM     16  C   UNL A   1      31.256  27.286  26.344  1.00  0.00     0.199 A 
ATOM     17  N   UNL A   1      32.066  28.364  26.478  1.00  0.00    -0.232 NA
BRANCH  15  18
ATOM     18  N   UNL A   1      30.724  24.955  25.924  1.00  0.00     0.064 N 
ATOM     19  O   UNL A   1      30.184  24.536  26.958  1.00  0.00    -0.258 OA
ATOM     20  O   UNL A   1      30.453  24.565  24.781  1.00  0.00    -0.258 OA
ENDBRANCH  15  18
ENDBRANCH   7  11
ENDBRANCH   5   6
ENDBRANCH   3   5
ENDBRANCH   2   3
ENDBRANCH   1   2
BRANCH   1  21
ATOM     21  C   UNL A   1      32.550  36.533  30.036  1.00  0.00     0.275 C 
BRANCH  21  22
ATOM     22  O   UNL A   1      33.105  36.637  31.360  1.00  0.00    -0.458 OA
BRANCH  22  23
ATOM     23  C   UNL A   1      32.775  35.629  32.201  1.00  0.00     0.338 C 
ATOM     24  O   UNL A   1      31.655  35.260  32.511  1.00  0.00    -0.246 OA
BRANCH  23  25
ATOM     25  C   UNL A   1      33.991  34.909  32.610  1.00  0.00     0.060 A 
ATOM     26  C   UNL A   1      35.226  35.479  32.291  1.00  0.00     0.016 A 
ATOM     27  C   UNL A   1      33.923  33.661  33.231  1.00  0.00     0.016 A 
ATOM     28  C   UNL A   1      36.404  34.800  32.588  1.00  0.00     0.010 A 
ATOM     29  C   UNL A   1      35.108  32.979  33.528  1.00  0.00     0.010 A 
ATOM     30  C   UNL A   1      36.355  33.538  33.198  1.00  0.00    -0.014 A 
BRANCH  30  31
ATOM     31  C   UNL A   1      37.617  32.804  33.448  1.00  0.00     0.031 A 
ATOM     32  C   UNL A   1      38.373  33.018  34.727  1.00  0.00     0.074 A 
ATOM     33  C   UNL A   1      38.056  31.907  32.547  1.00  0.00     0.049 A 
ATOM     34  N   UNL A   1      39.481  32.452  35.135  1.00  0.00    -0.248 NA
ATOM     35  C   UNL A   1      37.809  33.995  35.673  1.00  0.00     0.031 C 
ATOM     36  C   UNL A   1      37.394  31.583  31.283  1.00  0.00     0.029 A 
ATOM     37  N   UNL A   1      39.162  31.095  32.565  1.00  0.00    -0.354 N 
ATOM     38  C   UNL A   1      39.751  33.006  36.380  1.00  0.00     0.074 A 
ATOM     39  C   UNL A   1      38.704  33.969  36.651  1.00  0.00     0.031 C 
ATOM     40  C   UNL A   1      38.099  30.629  30.653  1.00  0.00     0.029 A 
ATOM     41  C   UNL A   1      39.277  30.300  31.452  1.00  0.00     0.049 A 
ATOM     42  H   UNL A   1      39.811  31.084  33.305  1.00  0.00     0.167 HD
ATOM     43  C   UNL A   1      40.776  32.734  37.224  1.00  0.00     0.031 A 
ATOM     44  C   UNL A   1      40.229  29.412  31.109  1.00  0.00     0.031 A 
ATOM     45  C   UNL A   1      41.822  31.783  36.957  1.00  0.00     0.049 A 
ATOM     46  C   UNL A   1      41.385  29.172  32.039  1.00  0.00     0.074 A 
ATOM     47  C   UNL A   1      42.897  31.436  37.758  1.00  0.00     0.029 A 
ATOM     48  N   UNL A   1      41.929  31.033  35.797  1.00  0.00    -0.354 N 
ATOM     49  N   UNL A   1      41.618  29.691  33.219  1.00  0.00    -0.248 NA
ATOM     50  C   UNL A   1      42.407  28.217  31.587  1.00  0.00     0.031 C 
ATOM     51  C   UNL A   1      43.677  30.504  37.063  1.00  0.00     0.029 A 
ATOM     52  C   UNL A   1      43.062  30.239  35.850  1.00  0.00     0.049 A 
ATOM     53  H   UNL A   1      41.292  31.060  35.046  1.00  0.00     0.167 HD
ATOM     54  C   UNL A   1      42.802  29.115  33.658  1.00  0.00     0.074 A 
ATOM     55  C   UNL A   1      43.229  28.192  32.628  1.00  0.00     0.031 C 
ATOM     56  C   UNL A   1      43.478  29.332  34.813  1.00  0.00     0.031 A 
BRANCH  43  57
ATOM     57  C   UNL A   1      40.826  33.500  38.514  1.00  0.00    -0.014 A 
ATOM     58  C   UNL A   1      41.506  34.725  38.606  1.00  0.00     0.009 A 
ATOM     59  C   UNL A   1      40.154  33.007  39.643  1.00  0.00     0.009 A 
ATOM     60  C   UNL A   1      41.532  35.427  39.813  1.00  0.00     0.001 A 
ATOM     61  C   UNL A   1      40.164  33.723  40.842  1.00  0.00     0.001 A 
ATOM     62  C   UNL A   1      40.859  34.928  40.927  1.00  0.00     0.000 A 
ENDBRANCH  43  57
BRANCH  44  63
ATOM     63  C   UNL A   1      40.141  28.691  29.815  1.00  0.00    -0.014 A 
ATOM     64  C   UNL A   1      39.539  27.426  29.740  1.00  0.00     0.009 A 
ATOM     65  C   UNL A   1      40.674  29.260  28.647  1.00  0.00     0.009 A 
ATOM     66  C   UNL A   1      39.493  26.736  28.527  1.00  0.00     0.001 A 
ATOM     67  C   UNL A   1      40.603  28.579  27.431  1.00  0.00     0.001 A 
ATOM     68  C   UNL A   1      40.022  27.314  27.374  1.00  0.00     0.000 A 
ENDBRANCH  44  63
BRANCH  56  69
ATOM     69  C   UNL A   1      44.736  28.540  35.025  1.00  0.00    -0.014 A 
ATOM     70  C   UNL A   1      44.701  27.272  35.625  1.00  0.00     0.009 A 
ATOM     71  C   UNL A   1      45.968  29.060  34.600  1.00  0.00     0.009 A 
ATOM     72  C   UNL A   1      45.883  26.556  35.828  1.00  0.00     0.001 A 
ATOM     73  C   UNL A   1      47.144  28.332  34.783  1.00  0.00     0.001 A 
ATOM     74  C   UNL A   1      47.102  27.086  35.405  1.00  0.00     0.000 A 
ENDBRANCH  56  69
ENDBRANCH  30  31
ENDBRANCH  23  25
ENDBRANCH  22  23
ENDBRANCH  21  22
ENDBRANCH   1  21
TORSDOF 14
ENDMDL
