MODEL 1
REMARK VINA RESULT:      -9.6      0.000      0.000
REMARK SMILES CC(C)SSC(=O)N1CCC[C@@H]1C(=O)OCCOC(=O)c1ccc(-c2c3nc(c(-c4ccccc4)c4ccc([nH]4)c(-c4ccccc4)c4nc(c(-c5ccccc5)c5ccc2[nH]5)C=C4)C=C3)cc1
REMARK SMILES IDX 16 1 15 2 13 3 14 4 12 5 8 6 9 7 10 8 11 9 6 10 7 11 5 12
REMARK SMILES IDX 4 13 2 14 1 15 3 16 17 17 18 18 19 19 20 20 21 21 22 22
REMARK SMILES IDX 68 23 23 24 67 25 24 26 25 27 26 28 61 29 27 30 66 31 60 32
REMARK SMILES IDX 62 33 28 34 65 35 59 36 58 37 29 39 51 40 36 41 50 42 37 43
REMARK SMILES IDX 40 44 49 45 63 46 38 47 39 48 48 50 64 51 41 52 30 53 31 54
REMARK SMILES IDX 35 55 32 56 34 57 33 58 52 59 53 60 57 61 54 62 56 63 55 64
REMARK SMILES IDX 42 65 43 66 47 67 44 68 46 69 45 70
REMARK H PARENT 62 38 40 49
REMARK Flexibility Score: inf
ROOT
ATOM      1  C   UNL A   1      36.149  19.947  24.974  1.00  0.00     0.274 C 
ENDROOT
BRANCH   1   2
ATOM      2  O   UNL A   1      35.717  21.272  24.607  1.00  0.00    -0.461 OA
BRANCH   2   3
ATOM      3  C   UNL A   1      34.953  21.905  25.538  1.00  0.00     0.329 C 
ATOM      4  O   UNL A   1      35.146  21.810  26.746  1.00  0.00    -0.250 OA
BRANCH   3   5
ATOM      5  C   UNL A   1      33.786  22.706  24.934  1.00  0.00     0.196 C 
ATOM      6  N   UNL A   1      32.987  21.902  24.015  1.00  0.00    -0.319 N 
ATOM      7  C   UNL A   1      32.820  22.577  22.739  1.00  0.00     0.121 C 
ATOM      8  C   UNL A   1      33.944  23.600  22.697  1.00  0.00     0.024 C 
ATOM      9  C   UNL A   1      34.155  23.973  24.160  1.00  0.00     0.039 C 
BRANCH   6  10
ATOM     10  C   UNL A   1      32.236  20.849  24.504  1.00  0.00     0.293 C 
ATOM     11  O   UNL A   1      31.410  20.989  25.399  1.00  0.00    -0.261 OA
BRANCH  10  12
ATOM     12  S   UNL A   1      32.524  19.274  23.762  1.00  0.00     0.005 SA
BRANCH  12  13
ATOM     13  S   UNL A   1      32.564  18.019  25.407  1.00  0.00    -0.081 SA
BRANCH  13  14
ATOM     14  C   UNL A   1      33.626  16.590  24.944  1.00  0.00     0.052 C 
ATOM     15  C   UNL A   1      32.978  15.277  25.373  1.00  0.00     0.020 C 
ATOM     16  C   UNL A   1      34.028  16.567  23.474  1.00  0.00     0.020 C 
ENDBRANCH  13  14
ENDBRANCH  12  13
ENDBRANCH  10  12
ENDBRANCH   6  10
ENDBRANCH   3   5
ENDBRANCH   2   3
ENDBRANCH   1   2
BRANCH   1  17
ATOM     17  C   UNL A   1      37.679  19.825  25.003  1.00  0.00     0.275 C 
BRANCH  17  18
ATOM     18  O   UNL A   1      38.330  21.038  25.428  1.00  0.00    -0.458 OA
BRANCH  18  19
ATOM     19  C   UNL A   1      39.448  20.856  26.169  1.00  0.00     0.338 C 
ATOM     20  O   UNL A   1      40.057  19.813  26.341  1.00  0.00    -0.246 OA
BRANCH  19  21
ATOM     21  C   UNL A   1      39.950  22.142  26.678  1.00  0.00     0.060 A 
ATOM     22  C   UNL A   1      39.428  23.311  26.121  1.00  0.00     0.016 A 
ATOM     23  C   UNL A   1      41.004  22.200  27.588  1.00  0.00     0.016 A 
ATOM     24  C   UNL A   1      39.968  24.549  26.452  1.00  0.00     0.010 A 
ATOM     25  C   UNL A   1      41.545  23.447  27.925  1.00  0.00     0.010 A 
ATOM     26  C   UNL A   1      41.040  24.625  27.345  1.00  0.00    -0.014 A 
BRANCH  26  27
ATOM     27  C   UNL A   1      41.672  25.936  27.621  1.00  0.00     0.031 A 
ATOM     28  C   UNL A   1      40.970  26.931  28.501  1.00  0.00     0.074 A 
ATOM     29  C   UNL A   1      42.881  26.221  27.105  1.00  0.00     0.049 A 
ATOM     30  N   UNL A   1      41.303  28.165  28.780  1.00  0.00    -0.248 NA
ATOM     31  C   UNL A   1      39.731  26.477  29.150  1.00  0.00     0.031 C 
ATOM     32  C   UNL A   1      43.693  25.311  26.297  1.00  0.00     0.029 A 
ATOM     33  N   UNL A   1      43.635  27.365  27.188  1.00  0.00    -0.354 N 
ATOM     34  C   UNL A   1      40.300  28.645  29.614  1.00  0.00     0.074 A 
ATOM     35  C   UNL A   1      39.344  27.572  29.788  1.00  0.00     0.031 C 
ATOM     36  C   UNL A   1      44.834  25.934  25.954  1.00  0.00     0.029 A 
ATOM     37  C   UNL A   1      44.806  27.298  26.473  1.00  0.00     0.049 A 
ATOM     38  H   UNL A   1      43.363  28.155  27.708  1.00  0.00     0.167 HD
ATOM     39  C   UNL A   1      40.187  29.870  30.180  1.00  0.00     0.031 A 
ATOM     40  C   UNL A   1      45.735  28.242  26.236  1.00  0.00     0.031 A 
ATOM     41  C   UNL A   1      41.144  30.931  30.008  1.00  0.00     0.049 A 
ATOM     42  C   UNL A   1      45.550  29.616  26.814  1.00  0.00     0.074 A 
ATOM     43  C   UNL A   1      41.120  32.209  30.542  1.00  0.00     0.029 A 
ATOM     44  N   UNL A   1      42.297  30.837  29.245  1.00  0.00    -0.354 N 
ATOM     45  N   UNL A   1      44.588  30.066  27.584  1.00  0.00    -0.248 NA
ATOM     46  C   UNL A   1      46.577  30.616  26.486  1.00  0.00     0.031 C 
ATOM     47  C   UNL A   1      42.237  32.902  30.063  1.00  0.00     0.029 A 
ATOM     48  C   UNL A   1      42.982  32.040  29.275  1.00  0.00     0.049 A 
ATOM     49  H   UNL A   1      42.585  30.034  28.754  1.00  0.00     0.167 HD
ATOM     50  C   UNL A   1      44.906  31.391  27.851  1.00  0.00     0.074 A 
ATOM     51  C   UNL A   1      46.155  31.668  27.172  1.00  0.00     0.031 C 
ATOM     52  C   UNL A   1      44.224  32.296  28.595  1.00  0.00     0.031 A 
BRANCH  39  53
ATOM     53  C   UNL A   1      38.959  30.141  31.002  1.00  0.00    -0.014 A 
ATOM     54  C   UNL A   1      38.938  29.906  32.385  1.00  0.00     0.009 A 
ATOM     55  C   UNL A   1      37.815  30.667  30.382  1.00  0.00     0.009 A 
ATOM     56  C   UNL A   1      37.781  30.165  33.126  1.00  0.00     0.001 A 
ATOM     57  C   UNL A   1      36.670  30.948  31.129  1.00  0.00     0.001 A 
ATOM     58  C   UNL A   1      36.651  30.688  32.498  1.00  0.00     0.000 A 
ENDBRANCH  39  53
BRANCH  40  59
ATOM     59  C   UNL A   1      46.907  27.929  25.378  1.00  0.00    -0.014 A 
ATOM     60  C   UNL A   1      46.811  28.000  23.980  1.00  0.00     0.009 A 
ATOM     61  C   UNL A   1      48.130  27.554  25.957  1.00  0.00     0.009 A 
ATOM     62  C   UNL A   1      47.911  27.684  23.181  1.00  0.00     0.001 A 
ATOM     63  C   UNL A   1      49.235  27.265  25.155  1.00  0.00     0.001 A 
ATOM     64  C   UNL A   1      49.122  27.322  23.768  1.00  0.00     0.000 A 
ENDBRANCH  40  59
BRANCH  52  65
ATOM     65  C   UNL A   1      44.836  33.660  28.743  1.00  0.00    -0.014 A 
ATOM     66  C   UNL A   1      44.544  34.691  27.838  1.00  0.00     0.009 A 
ATOM     67  C   UNL A   1      45.685  33.923  29.829  1.00  0.00     0.009 A 
ATOM     68  C   UNL A   1      45.115  35.955  28.003  1.00  0.00     0.001 A 
ATOM     69  C   UNL A   1      46.233  35.194  30.006  1.00  0.00     0.001 A 
ATOM     70  C   UNL A   1      45.954  36.206  29.089  1.00  0.00     0.000 A 
ENDBRANCH  52  65
ENDBRANCH  26  27
ENDBRANCH  19  21
ENDBRANCH  18  19
ENDBRANCH  17  18
ENDBRANCH   1  17
TORSDOF 15
ENDMDL
MODEL 2
REMARK VINA RESULT:      -9.3      2.227      2.886
REMARK SMILES CC(C)SSC(=O)N1CCC[C@@H]1C(=O)OCCOC(=O)c1ccc(-c2c3nc(c(-c4ccccc4)c4ccc([nH]4)c(-c4ccccc4)c4nc(c(-c5ccccc5)c5ccc2[nH]5)C=C4)C=C3)cc1
REMARK SMILES IDX 16 1 15 2 13 3 14 4 12 5 8 6 9 7 10 8 11 9 6 10 7 11 5 12
REMARK SMILES IDX 4 13 2 14 1 15 3 16 17 17 18 18 19 19 20 20 21 21 22 22
REMARK SMILES IDX 68 23 23 24 67 25 24 26 25 27 26 28 61 29 27 30 66 31 60 32
REMARK SMILES IDX 62 33 28 34 65 35 59 36 58 37 29 39 51 40 36 41 50 42 37 43
REMARK SMILES IDX 40 44 49 45 63 46 38 47 39 48 48 50 64 51 41 52 30 53 31 54
REMARK SMILES IDX 35 55 32 56 34 57 33 58 52 59 53 60 57 61 54 62 56 63 55 64
REMARK SMILES IDX 42 65 43 66 47 67 44 68 46 69 45 70
REMARK H PARENT 62 38 40 49
REMARK Flexibility Score: inf
ROOT
ATOM      1  C   UNL A   1      38.052  21.362  25.468  1.00  0.00     0.274 C 
ENDROOT
BRANCH   1   2
ATOM      2  O   UNL A   1      36.700  21.120  25.033  1.00  0.00    -0.461 OA
BRANCH   2   3
ATOM      3  C   UNL A   1      36.068  22.199  24.496  1.00  0.00     0.329 C 
ATOM      4  O   UNL A   1      36.200  22.545  23.326  1.00  0.00    -0.250 OA
BRANCH   3   5
ATOM      5  C   UNL A   1      35.217  22.982  25.512  1.00  0.00     0.196 C 
ATOM      6  N   UNL A   1      33.808  22.606  25.453  1.00  0.00    -0.319 N 
ATOM      7  C   UNL A   1      32.959  23.777  25.321  1.00  0.00     0.121 C 
ATOM      8  C   UNL A   1      33.884  24.864  24.798  1.00  0.00     0.024 C 
ATOM      9  C   UNL A   1      35.242  24.508  25.392  1.00  0.00     0.039 C 
BRANCH   6  10
ATOM     10  C   UNL A   1      33.423  21.338  25.849  1.00  0.00     0.293 C 
ATOM     11  O   UNL A   1      33.726  20.868  26.940  1.00  0.00    -0.261 OA
BRANCH  10  12
ATOM     12  S   UNL A   1      32.455  20.420  24.693  1.00  0.00     0.005 SA
BRANCH  12  13
ATOM     13  S   UNL A   1      32.953  18.467  25.163  1.00  0.00    -0.081 SA
BRANCH  13  14
ATOM     14  C   UNL A   1      32.794  17.502  23.605  1.00  0.00     0.052 C 
ATOM     15  C   UNL A   1      32.363  18.407  22.455  1.00  0.00     0.020 C 
ATOM     16  C   UNL A   1      34.032  16.689  23.249  1.00  0.00     0.020 C 
ENDBRANCH  13  14
ENDBRANCH  12  13
ENDBRANCH  10  12
ENDBRANCH   6  10
ENDBRANCH   3   5
ENDBRANCH   2   3
ENDBRANCH   1   2
BRANCH   1  17
ATOM     17  C   UNL A   1      38.949  20.131  25.278  1.00  0.00     0.275 C 
BRANCH  17  18
ATOM     18  O   UNL A   1      39.774  19.854  26.427  1.00  0.00    -0.458 OA
BRANCH  18  19
ATOM     19  C   UNL A   1      41.105  19.855  26.186  1.00  0.00     0.338 C 
ATOM     20  O   UNL A   1      41.746  19.015  25.578  1.00  0.00    -0.246 OA
BRANCH  19  21
ATOM     21  C   UNL A   1      41.718  21.106  26.659  1.00  0.00     0.060 A 
ATOM     22  C   UNL A   1      41.778  21.323  28.037  1.00  0.00     0.016 A 
ATOM     23  C   UNL A   1      42.106  22.106  25.768  1.00  0.00     0.016 A 
ATOM     24  C   UNL A   1      42.207  22.545  28.539  1.00  0.00     0.010 A 
ATOM     25  C   UNL A   1      42.542  23.337  26.274  1.00  0.00     0.010 A 
ATOM     26  C   UNL A   1      42.578  23.567  27.661  1.00  0.00    -0.014 A 
BRANCH  26  27
ATOM     27  C   UNL A   1      42.944  24.899  28.198  1.00  0.00     0.031 A 
ATOM     28  C   UNL A   1      41.874  25.924  28.439  1.00  0.00     0.074 A 
ATOM     29  C   UNL A   1      44.227  25.176  28.492  1.00  0.00     0.049 A 
ATOM     30  N   UNL A   1      41.995  27.176  28.804  1.00  0.00    -0.248 NA
ATOM     31  C   UNL A   1      40.484  25.485  28.243  1.00  0.00     0.031 C 
ATOM     32  C   UNL A   1      45.345  24.240  28.369  1.00  0.00     0.029 A 
ATOM     33  N   UNL A   1      44.803  26.332  28.954  1.00  0.00    -0.354 N 
ATOM     34  C   UNL A   1      40.702  27.680  28.853  1.00  0.00     0.074 A 
ATOM     35  C   UNL A   1      39.812  26.604  28.473  1.00  0.00     0.031 C 
ATOM     36  C   UNL A   1      46.476  24.860  28.746  1.00  0.00     0.029 A 
ATOM     37  C   UNL A   1      46.168  26.247  29.082  1.00  0.00     0.049 A 
ATOM     38  H   UNL A   1      44.289  27.143  29.172  1.00  0.00     0.167 HD
ATOM     39  C   UNL A   1      40.296  28.929  29.182  1.00  0.00     0.031 A 
ATOM     40  C   UNL A   1      47.072  27.191  29.401  1.00  0.00     0.031 A 
ATOM     41  C   UNL A   1      41.185  29.994  29.565  1.00  0.00     0.049 A 
ATOM     42  C   UNL A   1      46.602  28.589  29.690  1.00  0.00     0.074 A 
ATOM     43  C   UNL A   1      40.870  31.296  29.919  1.00  0.00     0.029 A 
ATOM     44  N   UNL A   1      42.563  29.880  29.644  1.00  0.00    -0.354 N 
ATOM     45  N   UNL A   1      45.380  29.062  29.714  1.00  0.00    -0.248 NA
ATOM     46  C   UNL A   1      47.640  29.586  29.993  1.00  0.00     0.031 C 
ATOM     47  C   UNL A   1      42.064  31.980  30.169  1.00  0.00     0.029 A 
ATOM     48  C   UNL A   1      43.117  31.092  30.021  1.00  0.00     0.049 A 
ATOM     49  H   UNL A   1      43.073  29.058  29.460  1.00  0.00     0.167 HD
ATOM     50  C   UNL A   1      45.498  30.402  30.056  1.00  0.00     0.074 A 
ATOM     51  C   UNL A   1      46.911  30.664  30.242  1.00  0.00     0.031 C 
ATOM     52  C   UNL A   1      44.524  31.333  30.204  1.00  0.00     0.031 A 
BRANCH  39  53
ATOM     53  C   UNL A   1      38.824  29.222  29.098  1.00  0.00    -0.014 A 
ATOM     54  C   UNL A   1      37.993  29.126  30.223  1.00  0.00     0.009 A 
ATOM     55  C   UNL A   1      38.271  29.630  27.874  1.00  0.00     0.009 A 
ATOM     56  C   UNL A   1      36.627  29.402  30.115  1.00  0.00     0.001 A 
ATOM     57  C   UNL A   1      36.911  29.929  27.776  1.00  0.00     0.001 A 
ATOM     58  C   UNL A   1      36.089  29.805  28.894  1.00  0.00     0.000 A 
ENDBRANCH  39  53
BRANCH  40  59
ATOM     59  C   UNL A   1      48.519  26.854  29.426  1.00  0.00    -0.014 A 
ATOM     60  C   UNL A   1      49.128  26.396  30.603  1.00  0.00     0.009 A 
ATOM     61  C   UNL A   1      49.298  26.992  28.266  1.00  0.00     0.009 A 
ATOM     62  C   UNL A   1      50.493  26.102  30.623  1.00  0.00     0.001 A 
ATOM     63  C   UNL A   1      50.656  26.671  28.283  1.00  0.00     0.001 A 
ATOM     64  C   UNL A   1      51.254  26.234  29.463  1.00  0.00     0.000 A 
ENDBRANCH  40  59
BRANCH  52  65
ATOM     65  C   UNL A   1      44.951  32.710  30.624  1.00  0.00    -0.014 A 
ATOM     66  C   UNL A   1      45.078  33.052  31.978  1.00  0.00     0.009 A 
ATOM     67  C   UNL A   1      45.270  33.664  29.645  1.00  0.00     0.009 A 
ATOM     68  C   UNL A   1      45.490  34.334  32.344  1.00  0.00     0.001 A 
ATOM     69  C   UNL A   1      45.706  34.937  30.014  1.00  0.00     0.001 A 
ATOM     70  C   UNL A   1      45.808  35.273  31.363  1.00  0.00     0.000 A 
ENDBRANCH  52  65
ENDBRANCH  26  27
ENDBRANCH  19  21
ENDBRANCH  18  19
ENDBRANCH  17  18
ENDBRANCH   1  17
TORSDOF 15
ENDMDL
MODEL 3
REMARK VINA RESULT:      -9.2      4.726      8.975
REMARK SMILES CC(C)SSC(=O)N1CCC[C@@H]1C(=O)OCCOC(=O)c1ccc(-c2c3nc(c(-c4ccccc4)c4ccc([nH]4)c(-c4ccccc4)c4nc(c(-c5ccccc5)c5ccc2[nH]5)C=C4)C=C3)cc1
REMARK SMILES IDX 16 1 15 2 13 3 14 4 12 5 8 6 9 7 10 8 11 9 6 10 7 11 5 12
REMARK SMILES IDX 4 13 2 14 1 15 3 16 17 17 18 18 19 19 20 20 21 21 22 22
REMARK SMILES IDX 68 23 23 24 67 25 24 26 25 27 26 28 61 29 27 30 66 31 60 32
REMARK SMILES IDX 62 33 28 34 65 35 59 36 58 37 29 39 51 40 36 41 50 42 37 43
REMARK SMILES IDX 40 44 49 45 63 46 38 47 39 48 48 50 64 51 41 52 30 53 31 54
REMARK SMILES IDX 35 55 32 56 34 57 33 58 52 59 53 60 57 61 54 62 56 63 55 64
REMARK SMILES IDX 42 65 43 66 47 67 44 68 46 69 45 70
REMARK H PARENT 62 38 40 49
REMARK Flexibility Score: inf
ROOT
ATOM      1  C   UNL A   1      41.275  20.551  26.499  1.00  0.00     0.274 C 
ENDROOT
BRANCH   1   2
ATOM      2  O   UNL A   1      42.560  21.087  26.872  1.00  0.00    -0.461 OA
BRANCH   2   3
ATOM      3  C   UNL A   1      42.944  22.192  26.177  1.00  0.00     0.329 C 
ATOM      4  O   UNL A   1      42.960  22.246  24.952  1.00  0.00    -0.250 OA
BRANCH   3   5
ATOM      5  C   UNL A   1      43.413  23.350  27.076  1.00  0.00     0.196 C 
ATOM      6  N   UNL A   1      44.749  23.119  27.616  1.00  0.00    -0.319 N 
ATOM      7  C   UNL A   1      44.767  23.293  29.058  1.00  0.00     0.121 C 
ATOM      8  C   UNL A   1      43.313  23.151  29.480  1.00  0.00     0.024 C 
ATOM      9  C   UNL A   1      42.531  23.680  28.283  1.00  0.00     0.039 C 
BRANCH   6  10
ATOM     10  C   UNL A   1      45.838  23.112  26.764  1.00  0.00     0.293 C 
ATOM     11  O   UNL A   1      46.029  22.219  25.947  1.00  0.00    -0.261 OA
BRANCH  10  12
ATOM     12  S   UNL A   1      46.950  24.475  26.909  1.00  0.00     0.005 SA
BRANCH  12  13
ATOM     13  S   UNL A   1      45.652  26.079  27.071  1.00  0.00    -0.081 SA
BRANCH  13  14
ATOM     14  C   UNL A   1      45.157  26.521  25.355  1.00  0.00     0.052 C 
ATOM     15  C   UNL A   1      43.705  26.989  25.319  1.00  0.00     0.020 C 
ATOM     16  C   UNL A   1      46.089  27.520  24.680  1.00  0.00     0.020 C 
ENDBRANCH  13  14
ENDBRANCH  12  13
ENDBRANCH  10  12
ENDBRANCH   6  10
ENDBRANCH   3   5
ENDBRANCH   2   3
ENDBRANCH   1   2
BRANCH   1  17
ATOM     17  C   UNL A   1      40.122  21.478  26.907  1.00  0.00     0.275 C 
BRANCH  17  18
ATOM     18  O   UNL A   1      39.652  22.301  25.822  1.00  0.00    -0.458 OA
BRANCH  18  19
ATOM     19  C   UNL A   1      38.690  23.191  26.157  1.00  0.00     0.338 C 
ATOM     20  O   UNL A   1      37.485  23.063  26.019  1.00  0.00    -0.246 OA
BRANCH  19  21
ATOM     21  C   UNL A   1      39.272  24.348  26.855  1.00  0.00     0.060 A 
ATOM     22  C   UNL A   1      38.919  24.549  28.191  1.00  0.00     0.016 A 
ATOM     23  C   UNL A   1      40.043  25.292  26.177  1.00  0.00     0.016 A 
ATOM     24  C   UNL A   1      39.315  25.702  28.858  1.00  0.00     0.010 A 
ATOM     25  C   UNL A   1      40.447  26.451  26.850  1.00  0.00     0.010 A 
ATOM     26  C   UNL A   1      40.069  26.669  28.188  1.00  0.00    -0.014 A 
BRANCH  26  27
ATOM     27  C   UNL A   1      40.409  27.938  28.873  1.00  0.00     0.031 A 
ATOM     28  C   UNL A   1      41.755  28.100  29.518  1.00  0.00     0.074 A 
ATOM     29  C   UNL A   1      39.521  28.949  28.894  1.00  0.00     0.049 A 
ATOM     30  N   UNL A   1      42.207  29.085  30.252  1.00  0.00    -0.248 NA
ATOM     31  C   UNL A   1      42.720  27.009  29.310  1.00  0.00     0.031 C 
ATOM     32  C   UNL A   1      38.211  28.939  28.243  1.00  0.00     0.029 A 
ATOM     33  N   UNL A   1      39.593  30.183  29.490  1.00  0.00    -0.354 N 
ATOM     34  C   UNL A   1      43.496  28.720  30.618  1.00  0.00     0.074 A 
ATOM     35  C   UNL A   1      43.752  27.422  30.033  1.00  0.00     0.031 C 
ATOM     36  C   UNL A   1      37.599  30.112  28.477  1.00  0.00     0.029 A 
ATOM     37  C   UNL A   1      38.451  30.929  29.337  1.00  0.00     0.049 A 
ATOM     38  H   UNL A   1      40.385  30.500  29.981  1.00  0.00     0.167 HD
ATOM     39  C   UNL A   1      44.385  29.406  31.375  1.00  0.00     0.031 A 
ATOM     40  C   UNL A   1      38.116  32.123  29.858  1.00  0.00     0.031 A 
ATOM     41  C   UNL A   1      44.127  30.700  31.950  1.00  0.00     0.049 A 
ATOM     42  C   UNL A   1      39.090  32.831  30.757  1.00  0.00     0.074 A 
ATOM     43  C   UNL A   1      44.965  31.479  32.732  1.00  0.00     0.029 A 
ATOM     44  N   UNL A   1      42.944  31.406  31.804  1.00  0.00    -0.354 N 
ATOM     45  N   UNL A   1      40.298  32.469  31.113  1.00  0.00    -0.248 NA
ATOM     46  C   UNL A   1      38.651  34.113  31.329  1.00  0.00     0.031 C 
ATOM     47  C   UNL A   1      44.269  32.636  33.095  1.00  0.00     0.029 A 
ATOM     48  C   UNL A   1      43.019  32.602  32.498  1.00  0.00     0.049 A 
ATOM     49  H   UNL A   1      42.166  31.102  31.284  1.00  0.00     0.167 HD
ATOM     50  C   UNL A   1      40.773  33.486  31.931  1.00  0.00     0.074 A 
ATOM     51  C   UNL A   1      39.727  34.486  32.007  1.00  0.00     0.031 C 
ATOM     52  C   UNL A   1      41.969  33.584  32.561  1.00  0.00     0.031 A 
BRANCH  39  53
ATOM     53  C   UNL A   1      45.703  28.746  31.663  1.00  0.00    -0.014 A 
ATOM     54  C   UNL A   1      45.867  27.884  32.757  1.00  0.00     0.009 A 
ATOM     55  C   UNL A   1      46.790  28.972  30.804  1.00  0.00     0.009 A 
ATOM     56  C   UNL A   1      47.106  27.285  33.003  1.00  0.00     0.001 A 
ATOM     57  C   UNL A   1      48.019  28.352  31.038  1.00  0.00     0.001 A 
ATOM     58  C   UNL A   1      48.178  27.517  32.142  1.00  0.00     0.000 A 
ENDBRANCH  39  53
BRANCH  40  59
ATOM     59  C   UNL A   1      36.779  32.707  29.575  1.00  0.00    -0.014 A 
ATOM     60  C   UNL A   1      36.550  33.435  28.398  1.00  0.00     0.009 A 
ATOM     61  C   UNL A   1      35.724  32.539  30.486  1.00  0.00     0.009 A 
ATOM     62  C   UNL A   1      35.297  33.999  28.150  1.00  0.00     0.001 A 
ATOM     63  C   UNL A   1      34.466  33.081  30.221  1.00  0.00     0.001 A 
ATOM     64  C   UNL A   1      34.256  33.817  29.057  1.00  0.00     0.000 A 
ENDBRANCH  40  59
BRANCH  52  65
ATOM     65  C   UNL A   1      42.223  34.833  33.356  1.00  0.00    -0.014 A 
ATOM     66  C   UNL A   1      41.739  34.975  34.664  1.00  0.00     0.009 A 
ATOM     67  C   UNL A   1      42.995  35.864  32.797  1.00  0.00     0.009 A 
ATOM     68  C   UNL A   1      41.999  36.139  35.389  1.00  0.00     0.001 A 
ATOM     69  C   UNL A   1      43.275  37.016  33.533  1.00  0.00     0.001 A 
ATOM     70  C   UNL A   1      42.771  37.156  34.825  1.00  0.00     0.000 A 
ENDBRANCH  52  65
ENDBRANCH  26  27
ENDBRANCH  19  21
ENDBRANCH  18  19
ENDBRANCH  17  18
ENDBRANCH   1  17
TORSDOF 15
ENDMDL
