MODEL 1
REMARK VINA RESULT:     -11.1      0.000      0.000
REMARK SMILES CCc1cc(OC(F)(F)F)cc2c1O[C@@H](C(F)(F)F)C(C(=O)OCCOC(=O)c1ccc(-c3c4nc(c(-c5ccccc5)c5ccc([nH]5)c(-c5ccccc5)c5nc(c(-c6ccccc6)c6ccc3[nH]6)C=C5)C=C4)cc1)=C2
REMARK SMILES IDX 24 1 23 2 21 3 22 4 20 5 3 6 4 7 13 8 5 9 12 10 14 11 11 12
REMARK SMILES IDX 77 13 15 14 2 15 1 16 6 17 7 18 8 19 9 20 10 21 16 22 17 23
REMARK SMILES IDX 18 24 19 25 25 26 26 27 27 28 28 29 29 30 30 31 76 32 31 33
REMARK SMILES IDX 75 34 32 35 33 36 34 37 69 38 35 39 74 40 68 41 70 42 36 43
REMARK SMILES IDX 73 44 67 45 66 46 37 48 59 49 44 50 58 51 45 52 48 53 57 54
REMARK SMILES IDX 71 55 46 56 47 57 56 59 72 60 49 61 38 62 39 63 43 64 40 65
REMARK SMILES IDX 42 66 41 67 60 68 61 69 65 70 62 71 64 72 63 73 50 74 51 75
REMARK SMILES IDX 55 76 52 77 54 78 53 79
REMARK H PARENT 70 47 48 58
REMARK Flexibility Score: inf
ROOT
ATOM      1  C   UNL A   1      32.588  29.630  25.564  1.00  0.00     0.275 C 
ENDROOT
BRANCH   1   2
ATOM      2  O   UNL A   1      31.443  28.752  25.622  1.00  0.00    -0.459 OA
BRANCH   2   3
ATOM      3  C   UNL A   1      31.595  27.630  26.369  1.00  0.00     0.338 C 
ATOM      4  O   UNL A   1      31.218  27.495  27.520  1.00  0.00    -0.246 OA
BRANCH   3   5
ATOM      5  C   UNL A   1      32.232  26.536  25.601  1.00  0.00     0.087 C 
ATOM      6  C   UNL A   1      33.818  23.385  23.328  1.00  0.00    -0.002 A 
ATOM      7  C   UNL A   1      35.156  23.011  23.527  1.00  0.00     0.054 A 
ATOM      8  C   UNL A   1      33.276  24.377  24.165  1.00  0.00     0.131 A 
ATOM      9  C   UNL A   1      35.921  23.590  24.546  1.00  0.00     0.130 A 
ATOM     10  C   UNL A   1      34.046  25.015  25.144  1.00  0.00     0.021 A 
ATOM     11  O   UNL A   1      31.940  24.639  24.035  1.00  0.00    -0.475 OA
ATOM     12  C   UNL A   1      35.369  24.611  25.331  1.00  0.00     0.058 A 
ATOM     13  C   UNL A   1      33.443  26.071  25.959  1.00  0.00     0.027 C 
ATOM     14  C   UNL A   1      31.502  25.974  24.396  1.00  0.00     0.316 C 
BRANCH   6  15
ATOM     15  C   UNL A   1      32.974  22.832  22.196  1.00  0.00     0.036 C 
ATOM     16  C   UNL A   1      32.179  21.563  22.474  1.00  0.00     0.009 C 
ENDBRANCH   6  15
BRANCH   9  17
ATOM     17  O   UNL A   1      37.213  23.263  24.857  1.00  0.00    -0.406 OA
BRANCH  17  18
ATOM     18  C   UNL A   1      37.462  21.937  25.301  1.00  0.00     0.573 C 
ATOM     19  F   UNL A   1      38.635  21.850  25.963  1.00  0.00    -0.132 F 
ATOM     20  F   UNL A   1      36.462  21.499  26.095  1.00  0.00    -0.132 F 
ATOM     21  F   UNL A   1      37.529  21.125  24.222  1.00  0.00    -0.132 F 
ENDBRANCH  17  18
ENDBRANCH   9  17
BRANCH  14  22
ATOM     22  C   UNL A   1      29.960  25.949  24.407  1.00  0.00     0.430 C 
ATOM     23  F   UNL A   1      29.430  27.122  23.992  1.00  0.00    -0.167 F 
ATOM     24  F   UNL A   1      29.498  25.016  23.531  1.00  0.00    -0.167 F 
ATOM     25  F   UNL A   1      29.449  25.635  25.617  1.00  0.00    -0.167 F 
ENDBRANCH  14  22
ENDBRANCH   3   5
ENDBRANCH   2   3
ENDBRANCH   1   2
BRANCH   1  26
ATOM     26  C   UNL A   1      32.621  30.606  26.744  1.00  0.00     0.275 C 
BRANCH  26  27
ATOM     27  O   UNL A   1      33.508  30.151  27.781  1.00  0.00    -0.458 OA
BRANCH  27  28
ATOM     28  C   UNL A   1      34.419  31.067  28.187  1.00  0.00     0.338 C 
ATOM     29  O   UNL A   1      34.197  32.223  28.511  1.00  0.00    -0.246 OA
BRANCH  28  30
ATOM     30  C   UNL A   1      35.744  30.438  28.367  1.00  0.00     0.060 A 
ATOM     31  C   UNL A   1      35.996  29.861  29.616  1.00  0.00     0.016 A 
ATOM     32  C   UNL A   1      36.730  30.423  27.378  1.00  0.00     0.016 A 
ATOM     33  C   UNL A   1      37.206  29.222  29.867  1.00  0.00     0.010 A 
ATOM     34  C   UNL A   1      37.971  29.828  27.648  1.00  0.00     0.010 A 
ATOM     35  C   UNL A   1      38.212  29.224  28.894  1.00  0.00    -0.014 A 
BRANCH  35  36
ATOM     36  C   UNL A   1      39.555  28.725  29.271  1.00  0.00     0.031 A 
ATOM     37  C   UNL A   1      40.386  29.541  30.221  1.00  0.00     0.074 A 
ATOM     38  C   UNL A   1      39.995  27.527  28.850  1.00  0.00     0.049 A 
ATOM     39  N   UNL A   1      41.539  29.255  30.770  1.00  0.00    -0.248 NA
ATOM     40  C   UNL A   1      39.832  30.846  30.617  1.00  0.00     0.031 C 
ATOM     41  C   UNL A   1      39.260  26.606  27.985  1.00  0.00     0.029 A 
ATOM     42  N   UNL A   1      41.174  26.874  29.116  1.00  0.00    -0.354 N 
ATOM     43  C   UNL A   1      41.836  30.331  31.596  1.00  0.00     0.074 A 
ATOM     44  C   UNL A   1      40.759  31.287  31.453  1.00  0.00     0.031 C 
ATOM     45  C   UNL A   1      40.009  25.507  27.785  1.00  0.00     0.029 A 
ATOM     46  C   UNL A   1      41.279  25.654  28.494  1.00  0.00     0.049 A 
ATOM     47  H   UNL A   1      41.876  27.245  29.697  1.00  0.00     0.167 HD
ATOM     48  C   UNL A   1      42.909  30.510  32.403  1.00  0.00     0.031 A 
ATOM     49  C   UNL A   1      42.290  24.763  28.494  1.00  0.00     0.031 A 
ATOM     50  C   UNL A   1      44.012  29.594  32.504  1.00  0.00     0.049 A 
ATOM     51  C   UNL A   1      43.525  25.041  29.311  1.00  0.00     0.074 A 
ATOM     52  C   UNL A   1      45.159  29.707  33.268  1.00  0.00     0.029 A 
ATOM     53  N   UNL A   1      44.114  28.403  31.802  1.00  0.00    -0.354 N 
ATOM     54  N   UNL A   1      43.783  26.047  30.111  1.00  0.00    -0.248 NA
ATOM     55  C   UNL A   1      44.605  24.044  29.235  1.00  0.00     0.031 C 
ATOM     56  C   UNL A   1      45.981  28.609  32.988  1.00  0.00     0.029 A 
ATOM     57  C   UNL A   1      45.316  27.783  32.097  1.00  0.00     0.049 A 
ATOM     58  H   UNL A   1      43.433  28.051  31.184  1.00  0.00     0.167 HD
ATOM     59  C   UNL A   1      45.033  25.785  30.662  1.00  0.00     0.074 A 
ATOM     60  C   UNL A   1      45.476  24.522  30.113  1.00  0.00     0.031 C 
ATOM     61  C   UNL A   1      45.744  26.522  31.550  1.00  0.00     0.031 A 
BRANCH  48  62
ATOM     62  C   UNL A   1      42.952  31.778  33.204  1.00  0.00    -0.014 A 
ATOM     63  C   UNL A   1      43.548  32.941  32.691  1.00  0.00     0.009 A 
ATOM     64  C   UNL A   1      42.383  31.812  34.486  1.00  0.00     0.009 A 
ATOM     65  C   UNL A   1      43.602  34.104  33.461  1.00  0.00     0.001 A 
ATOM     66  C   UNL A   1      42.417  32.984  35.243  1.00  0.00     0.001 A 
ATOM     67  C   UNL A   1      43.033  34.125  34.734  1.00  0.00     0.000 A 
ENDBRANCH  48  62
BRANCH  49  68
ATOM     68  C   UNL A   1      42.196  23.520  27.682  1.00  0.00    -0.014 A 
ATOM     69  C   UNL A   1      41.696  22.332  28.237  1.00  0.00     0.009 A 
ATOM     70  C   UNL A   1      42.664  23.505  26.358  1.00  0.00     0.009 A 
ATOM     71  C   UNL A   1      41.697  21.148  27.494  1.00  0.00     0.001 A 
ATOM     72  C   UNL A   1      42.637  22.328  25.609  1.00  0.00     0.001 A 
ATOM     73  C   UNL A   1      42.165  21.148  26.181  1.00  0.00     0.000 A 
ENDBRANCH  49  68
BRANCH  61  74
ATOM     74  C   UNL A   1      47.054  25.956  32.027  1.00  0.00    -0.014 A 
ATOM     75  C   UNL A   1      47.151  25.226  33.222  1.00  0.00     0.009 A 
ATOM     76  C   UNL A   1      48.207  26.129  31.243  1.00  0.00     0.009 A 
ATOM     77  C   UNL A   1      48.382  24.715  33.640  1.00  0.00     0.001 A 
ATOM     78  C   UNL A   1      49.429  25.592  31.648  1.00  0.00     0.001 A 
ATOM     79  C   UNL A   1      49.518  24.894  32.851  1.00  0.00     0.000 A 
ENDBRANCH  61  74
ENDBRANCH  35  36
ENDBRANCH  28  30
ENDBRANCH  27  28
ENDBRANCH  26  27
ENDBRANCH   1  26
TORSDOF 15
ENDMDL
MODEL 2
REMARK VINA RESULT:     -10.8      1.001      1.531
REMARK SMILES CCc1cc(OC(F)(F)F)cc2c1O[C@@H](C(F)(F)F)C(C(=O)OCCOC(=O)c1ccc(-c3c4nc(c(-c5ccccc5)c5ccc([nH]5)c(-c5ccccc5)c5nc(c(-c6ccccc6)c6ccc3[nH]6)C=C5)C=C4)cc1)=C2
REMARK SMILES IDX 24 1 23 2 21 3 22 4 20 5 3 6 4 7 13 8 5 9 12 10 14 11 11 12
REMARK SMILES IDX 77 13 15 14 2 15 1 16 6 17 7 18 8 19 9 20 10 21 16 22 17 23
REMARK SMILES IDX 18 24 19 25 25 26 26 27 27 28 28 29 29 30 30 31 76 32 31 33
REMARK SMILES IDX 75 34 32 35 33 36 34 37 69 38 35 39 74 40 68 41 70 42 36 43
REMARK SMILES IDX 73 44 67 45 66 46 37 48 59 49 44 50 58 51 45 52 48 53 57 54
REMARK SMILES IDX 71 55 46 56 47 57 56 59 72 60 49 61 38 62 39 63 43 64 40 65
REMARK SMILES IDX 42 66 41 67 60 68 61 69 65 70 62 71 64 72 63 73 50 74 51 75
REMARK SMILES IDX 55 76 52 77 54 78 53 79
REMARK H PARENT 70 47 48 58
REMARK Flexibility Score: inf
ROOT
ATOM      1  C   UNL A   1      32.825  29.518  25.552  1.00  0.00     0.275 C 
ENDROOT
BRANCH   1   2
ATOM      2  O   UNL A   1      31.594  28.766  25.623  1.00  0.00    -0.459 OA
BRANCH   2   3
ATOM      3  C   UNL A   1      31.644  27.618  26.343  1.00  0.00     0.338 C 
ATOM      4  O   UNL A   1      31.183  27.468  27.462  1.00  0.00    -0.246 OA
BRANCH   3   5
ATOM      5  C   UNL A   1      32.281  26.516  25.585  1.00  0.00     0.087 C 
ATOM      6  C   UNL A   1      33.867  23.345  23.341  1.00  0.00    -0.002 A 
ATOM      7  C   UNL A   1      35.202  22.967  23.550  1.00  0.00     0.054 A 
ATOM      8  C   UNL A   1      33.324  24.345  24.169  1.00  0.00     0.131 A 
ATOM      9  C   UNL A   1      35.964  23.549  24.569  1.00  0.00     0.130 A 
ATOM     10  C   UNL A   1      34.091  24.985  25.148  1.00  0.00     0.021 A 
ATOM     11  O   UNL A   1      31.990  24.611  24.029  1.00  0.00    -0.475 OA
ATOM     12  C   UNL A   1      35.412  24.577  25.345  1.00  0.00     0.058 A 
ATOM     13  C   UNL A   1      33.487  26.049  25.953  1.00  0.00     0.027 C 
ATOM     14  C   UNL A   1      31.555  25.950  24.379  1.00  0.00     0.316 C 
BRANCH   6  15
ATOM     15  C   UNL A   1      33.027  22.789  22.207  1.00  0.00     0.036 C 
ATOM     16  C   UNL A   1      32.175  21.562  22.507  1.00  0.00     0.009 C 
ENDBRANCH   6  15
BRANCH   9  17
ATOM     17  O   UNL A   1      37.252  23.220  24.890  1.00  0.00    -0.406 OA
BRANCH  17  18
ATOM     18  C   UNL A   1      37.484  21.915  25.402  1.00  0.00     0.573 C 
ATOM     19  F   UNL A   1      37.689  21.023  24.409  1.00  0.00    -0.132 F 
ATOM     20  F   UNL A   1      38.544  21.908  26.239  1.00  0.00    -0.132 F 
ATOM     21  F   UNL A   1      36.395  21.523  26.098  1.00  0.00    -0.132 F 
ENDBRANCH  17  18
ENDBRANCH   9  17
BRANCH  14  22
ATOM     22  C   UNL A   1      30.014  25.931  24.382  1.00  0.00     0.430 C 
ATOM     23  F   UNL A   1      29.515  25.017  23.519  1.00  0.00    -0.167 F 
ATOM     24  F   UNL A   1      29.550  25.559  25.606  1.00  0.00    -0.167 F 
ATOM     25  F   UNL A   1      29.473  27.138  24.110  1.00  0.00    -0.167 F 
ENDBRANCH  14  22
ENDBRANCH   3   5
ENDBRANCH   2   3
ENDBRANCH   1   2
BRANCH   1  26
ATOM     26  C   UNL A   1      33.060  30.353  26.814  1.00  0.00     0.275 C 
BRANCH  26  27
ATOM     27  O   UNL A   1      34.165  29.847  27.584  1.00  0.00    -0.458 OA
BRANCH  27  28
ATOM     28  C   UNL A   1      34.762  30.762  28.384  1.00  0.00     0.338 C 
ATOM     29  O   UNL A   1      34.228  31.715  28.927  1.00  0.00    -0.246 OA
BRANCH  28  30
ATOM     30  C   UNL A   1      36.155  30.365  28.678  1.00  0.00     0.060 A 
ATOM     31  C   UNL A   1      37.041  30.352  27.596  1.00  0.00     0.016 A 
ATOM     32  C   UNL A   1      36.596  29.988  29.949  1.00  0.00     0.016 A 
ATOM     33  C   UNL A   1      38.379  30.018  27.784  1.00  0.00     0.010 A 
ATOM     34  C   UNL A   1      37.931  29.597  30.128  1.00  0.00     0.010 A 
ATOM     35  C   UNL A   1      38.827  29.612  29.046  1.00  0.00    -0.014 A 
BRANCH  35  36
ATOM     36  C   UNL A   1      40.197  29.062  29.162  1.00  0.00     0.031 A 
ATOM     37  C   UNL A   1      41.264  29.910  29.794  1.00  0.00     0.074 A 
ATOM     38  C   UNL A   1      40.472  27.798  28.794  1.00  0.00     0.049 A 
ATOM     39  N   UNL A   1      42.499  29.602  30.095  1.00  0.00    -0.248 NA
ATOM     40  C   UNL A   1      40.877  31.285  30.152  1.00  0.00     0.031 C 
ATOM     41  C   UNL A   1      39.514  26.847  28.234  1.00  0.00     0.029 A 
ATOM     42  N   UNL A   1      41.650  27.094  28.858  1.00  0.00    -0.354 N 
ATOM     43  C   UNL A   1      43.029  30.733  30.700  1.00  0.00     0.074 A 
ATOM     44  C   UNL A   1      41.993  31.744  30.697  1.00  0.00     0.031 C 
ATOM     45  C   UNL A   1      40.145  25.684  27.997  1.00  0.00     0.029 A 
ATOM     46  C   UNL A   1      41.551  25.813  28.374  1.00  0.00     0.049 A 
ATOM     47  H   UNL A   1      42.485  27.473  29.215  1.00  0.00     0.167 HD
ATOM     48  C   UNL A   1      44.268  30.919  31.214  1.00  0.00     0.031 A 
ATOM     49  C   UNL A   1      42.493  24.858  28.247  1.00  0.00     0.031 A 
ATOM     50  C   UNL A   1      45.322  29.942  31.167  1.00  0.00     0.049 A 
ATOM     51  C   UNL A   1      43.897  25.131  28.722  1.00  0.00     0.074 A 
ATOM     52  C   UNL A   1      46.621  30.053  31.630  1.00  0.00     0.029 A 
ATOM     53  N   UNL A   1      45.204  28.682  30.603  1.00  0.00    -0.354 N 
ATOM     54  N   UNL A   1      44.381  26.193  29.319  1.00  0.00    -0.248 NA
ATOM     55  C   UNL A   1      44.884  24.058  28.518  1.00  0.00     0.031 C 
ATOM     56  C   UNL A   1      47.305  28.877  31.300  1.00  0.00     0.029 A 
ATOM     57  C   UNL A   1      46.413  28.012  30.686  1.00  0.00     0.049 A 
ATOM     58  H   UNL A   1      44.381  28.317  30.203  1.00  0.00     0.167 HD
ATOM     59  C   UNL A   1      45.712  25.902  29.597  1.00  0.00     0.074 A 
ATOM     60  C   UNL A   1      45.957  24.561  29.112  1.00  0.00     0.031 C 
ATOM     61  C   UNL A   1      46.644  26.674  30.207  1.00  0.00     0.031 A 
BRANCH  48  62
ATOM     62  C   UNL A   1      44.555  32.256  31.831  1.00  0.00    -0.014 A 
ATOM     63  C   UNL A   1      45.056  33.319  31.061  1.00  0.00     0.009 A 
ATOM     64  C   UNL A   1      44.315  32.459  33.198  1.00  0.00     0.009 A 
ATOM     65  C   UNL A   1      45.341  34.548  31.658  1.00  0.00     0.001 A 
ATOM     66  C   UNL A   1      44.578  33.697  33.786  1.00  0.00     0.001 A 
ATOM     67  C   UNL A   1      45.099  34.737  33.018  1.00  0.00     0.000 A 
ENDBRANCH  48  62
BRANCH  49  68
ATOM     68  C   UNL A   1      42.157  23.548  27.629  1.00  0.00    -0.014 A 
ATOM     69  C   UNL A   1      41.727  22.468  28.416  1.00  0.00     0.009 A 
ATOM     70  C   UNL A   1      42.320  23.356  26.247  1.00  0.00     0.009 A 
ATOM     71  C   UNL A   1      41.501  21.216  27.837  1.00  0.00     0.001 A 
ATOM     72  C   UNL A   1      42.066  22.112  25.668  1.00  0.00     0.001 A 
ATOM     73  C   UNL A   1      41.668  21.040  26.464  1.00  0.00     0.000 A 
ENDBRANCH  49  68
BRANCH  61  74
ATOM     74  C   UNL A   1      48.003  26.070  30.434  1.00  0.00    -0.014 A 
ATOM     75  C   UNL A   1      48.946  25.963  29.400  1.00  0.00     0.009 A 
ATOM     76  C   UNL A   1      48.356  25.631  31.722  1.00  0.00     0.009 A 
ATOM     77  C   UNL A   1      50.199  25.395  29.643  1.00  0.00     0.001 A 
ATOM     78  C   UNL A   1      49.619  25.092  31.968  1.00  0.00     0.001 A 
ATOM     79  C   UNL A   1      50.535  24.965  30.926  1.00  0.00     0.000 A 
ENDBRANCH  61  74
ENDBRANCH  35  36
ENDBRANCH  28  30
ENDBRANCH  27  28
ENDBRANCH  26  27
ENDBRANCH   1  26
TORSDOF 15
ENDMDL
MODEL 3
REMARK VINA RESULT:     -10.7      3.354      8.130
REMARK SMILES CCc1cc(OC(F)(F)F)cc2c1O[C@@H](C(F)(F)F)C(C(=O)OCCOC(=O)c1ccc(-c3c4nc(c(-c5ccccc5)c5ccc([nH]5)c(-c5ccccc5)c5nc(c(-c6ccccc6)c6ccc3[nH]6)C=C5)C=C4)cc1)=C2
REMARK SMILES IDX 24 1 23 2 21 3 22 4 20 5 3 6 4 7 13 8 5 9 12 10 14 11 11 12
REMARK SMILES IDX 77 13 15 14 2 15 1 16 6 17 7 18 8 19 9 20 10 21 16 22 17 23
REMARK SMILES IDX 18 24 19 25 25 26 26 27 27 28 28 29 29 30 30 31 76 32 31 33
REMARK SMILES IDX 75 34 32 35 33 36 34 37 69 38 35 39 74 40 68 41 70 42 36 43
REMARK SMILES IDX 73 44 67 45 66 46 37 48 59 49 44 50 58 51 45 52 48 53 57 54
REMARK SMILES IDX 71 55 46 56 47 57 56 59 72 60 49 61 38 62 39 63 43 64 40 65
REMARK SMILES IDX 42 66 41 67 60 68 61 69 65 70 62 71 64 72 63 73 50 74 51 75
REMARK SMILES IDX 55 76 52 77 54 78 53 79
REMARK H PARENT 70 47 48 58
REMARK Flexibility Score: inf
ROOT
ATOM      1  C   UNL A   1      35.894  20.871  25.120  1.00  0.00     0.275 C 
ENDROOT
BRANCH   1   2
ATOM      2  O   UNL A   1      35.840  22.286  25.403  1.00  0.00    -0.459 OA
BRANCH   2   3
ATOM      3  C   UNL A   1      35.510  23.085  24.359  1.00  0.00     0.338 C 
ATOM      4  O   UNL A   1      36.030  23.054  23.256  1.00  0.00    -0.246 OA
BRANCH   3   5
ATOM      5  C   UNL A   1      34.381  23.986  24.685  1.00  0.00     0.087 C 
ATOM      6  C   UNL A   1      31.041  26.405  25.461  1.00  0.00    -0.002 A 
ATOM      7  C   UNL A   1      31.206  27.560  26.240  1.00  0.00     0.054 A 
ATOM      8  C   UNL A   1      32.187  25.659  25.131  1.00  0.00     0.131 A 
ATOM      9  C   UNL A   1      32.476  27.973  26.655  1.00  0.00     0.130 A 
ATOM     10  C   UNL A   1      33.457  26.019  25.594  1.00  0.00     0.021 A 
ATOM     11  O   UNL A   1      32.019  24.608  24.272  1.00  0.00    -0.475 OA
ATOM     12  C   UNL A   1      33.594  27.183  26.353  1.00  0.00     0.058 A 
ATOM     13  C   UNL A   1      34.610  25.183  25.255  1.00  0.00     0.027 C 
ATOM     14  C   UNL A   1      32.969  23.518  24.386  1.00  0.00     0.316 C 
BRANCH   6  15
ATOM     15  C   UNL A   1      29.677  25.886  25.046  1.00  0.00     0.036 C 
ATOM     16  C   UNL A   1      28.985  26.591  23.887  1.00  0.00     0.009 C 
ENDBRANCH   6  15
BRANCH   9  17
ATOM     17  O   UNL A   1      32.753  29.105  27.371  1.00  0.00    -0.406 OA
BRANCH  17  18
ATOM     18  C   UNL A   1      32.903  30.317  26.645  1.00  0.00     0.573 C 
ATOM     19  F   UNL A   1      33.205  30.083  25.350  1.00  0.00    -0.132 F 
ATOM     20  F   UNL A   1      31.781  31.065  26.719  1.00  0.00    -0.132 F 
ATOM     21  F   UNL A   1      33.917  31.025  27.189  1.00  0.00    -0.132 F 
ENDBRANCH  17  18
ENDBRANCH   9  17
BRANCH  14  22
ATOM     22  C   UNL A   1      32.734  22.594  23.175  1.00  0.00     0.430 C 
ATOM     23  F   UNL A   1      33.120  21.322  23.425  1.00  0.00    -0.167 F 
ATOM     24  F   UNL A   1      31.405  22.516  22.892  1.00  0.00    -0.167 F 
ATOM     25  F   UNL A   1      33.347  23.031  22.055  1.00  0.00    -0.167 F 
ENDBRANCH  14  22
ENDBRANCH   3   5
ENDBRANCH   2   3
ENDBRANCH   1   2
BRANCH   1  26
ATOM     26  C   UNL A   1      37.335  20.364  25.012  1.00  0.00     0.275 C 
BRANCH  26  27
ATOM     27  O   UNL A   1      38.285  21.427  25.206  1.00  0.00    -0.458 OA
BRANCH  27  28
ATOM     28  C   UNL A   1      39.252  21.161  26.116  1.00  0.00     0.338 C 
ATOM     29  O   UNL A   1      39.742  20.071  26.363  1.00  0.00    -0.246 OA
BRANCH  28  30
ATOM     30  C   UNL A   1      39.793  22.415  26.681  1.00  0.00     0.060 A 
ATOM     31  C   UNL A   1      39.239  23.606  26.199  1.00  0.00     0.016 A 
ATOM     32  C   UNL A   1      40.822  22.453  27.625  1.00  0.00     0.016 A 
ATOM     33  C   UNL A   1      39.667  24.834  26.694  1.00  0.00     0.010 A 
ATOM     34  C   UNL A   1      41.293  23.693  28.083  1.00  0.00     0.010 A 
ATOM     35  C   UNL A   1      40.715  24.887  27.619  1.00  0.00    -0.014 A 
BRANCH  35  36
ATOM     36  C   UNL A   1      41.285  26.211  27.959  1.00  0.00     0.031 A 
ATOM     37  C   UNL A   1      42.623  26.588  27.387  1.00  0.00     0.074 A 
ATOM     38  C   UNL A   1      40.591  27.100  28.691  1.00  0.00     0.049 A 
ATOM     39  N   UNL A   1      43.265  27.726  27.460  1.00  0.00    -0.248 NA
ATOM     40  C   UNL A   1      43.317  25.548  26.611  1.00  0.00     0.031 C 
ATOM     41  C   UNL A   1      39.256  26.887  29.246  1.00  0.00     0.029 A 
ATOM     42  N   UNL A   1      40.918  28.377  29.075  1.00  0.00    -0.354 N 
ATOM     43  C   UNL A   1      44.426  27.547  26.720  1.00  0.00     0.074 A 
ATOM     44  C   UNL A   1      44.414  26.184  26.232  1.00  0.00     0.031 C 
ATOM     45  C   UNL A   1      38.880  27.995  29.909  1.00  0.00     0.029 A 
ATOM     46  C   UNL A   1      39.951  28.987  29.836  1.00  0.00     0.049 A 
ATOM     47  H   UNL A   1      41.766  28.813  28.830  1.00  0.00     0.167 HD
ATOM     48  C   UNL A   1      45.416  28.435  26.468  1.00  0.00     0.031 A 
ATOM     49  C   UNL A   1      39.939  30.205  30.412  1.00  0.00     0.031 A 
ATOM     50  C   UNL A   1      45.466  29.770  26.999  1.00  0.00     0.049 A 
ATOM     51  C   UNL A   1      41.109  31.134  30.210  1.00  0.00     0.074 A 
ATOM     52  C   UNL A   1      46.446  30.731  26.827  1.00  0.00     0.029 A 
ATOM     53  N   UNL A   1      44.502  30.325  27.826  1.00  0.00    -0.354 N 
ATOM     54  N   UNL A   1      42.188  30.966  29.486  1.00  0.00    -0.248 NA
ATOM     55  C   UNL A   1      41.046  32.433  30.899  1.00  0.00     0.031 C 
ATOM     56  C   UNL A   1      46.101  31.850  27.592  1.00  0.00     0.029 A 
ATOM     57  C   UNL A   1      44.875  31.608  28.191  1.00  0.00     0.049 A 
ATOM     58  H   UNL A   1      43.674  29.874  28.111  1.00  0.00     0.167 HD
ATOM     59  C   UNL A   1      42.911  32.149  29.598  1.00  0.00     0.074 A 
ATOM     60  C   UNL A   1      42.144  33.029  30.453  1.00  0.00     0.031 C 
ATOM     61  C   UNL A   1      44.100  32.478  29.036  1.00  0.00     0.031 A 
BRANCH  48  62
ATOM     62  C   UNL A   1      46.553  27.961  25.610  1.00  0.00    -0.014 A 
ATOM     63  C   UNL A   1      47.683  27.349  26.174  1.00  0.00     0.009 A 
ATOM     64  C   UNL A   1      46.488  28.122  24.218  1.00  0.00     0.009 A 
ATOM     65  C   UNL A   1      48.741  26.937  25.362  1.00  0.00     0.001 A 
ATOM     66  C   UNL A   1      47.537  27.686  23.407  1.00  0.00     0.001 A 
ATOM     67  C   UNL A   1      48.666  27.103  23.980  1.00  0.00     0.000 A 
ENDBRANCH  48  62
BRANCH  49  68
ATOM     68  C   UNL A   1      38.788  30.628  31.253  1.00  0.00    -0.014 A 
ATOM     69  C   UNL A   1      37.696  31.308  30.693  1.00  0.00     0.009 A 
ATOM     70  C   UNL A   1      38.805  30.399  32.639  1.00  0.00     0.009 A 
ATOM     71  C   UNL A   1      36.662  31.780  31.506  1.00  0.00     0.001 A 
ATOM     72  C   UNL A   1      37.757  30.847  33.445  1.00  0.00     0.001 A 
ATOM     73  C   UNL A   1      36.693  31.547  32.881  1.00  0.00     0.000 A 
ENDBRANCH  49  68
BRANCH  61  74
ATOM     74  C   UNL A   1      44.621  33.868  29.282  1.00  0.00    -0.014 A 
ATOM     75  C   UNL A   1      44.322  34.931  28.416  1.00  0.00     0.009 A 
ATOM     76  C   UNL A   1      45.398  34.121  30.425  1.00  0.00     0.009 A 
ATOM     77  C   UNL A   1      44.822  36.211  28.670  1.00  0.00     0.001 A 
ATOM     78  C   UNL A   1      45.871  35.406  30.692  1.00  0.00     0.001 A 
ATOM     79  C   UNL A   1      45.592  36.448  29.809  1.00  0.00     0.000 A 
ENDBRANCH  61  74
ENDBRANCH  35  36
ENDBRANCH  28  30
ENDBRANCH  27  28
ENDBRANCH  26  27
ENDBRANCH   1  26
TORSDOF 15
ENDMDL
