MODEL 1
REMARK VINA RESULT:     -11.3      0.000      0.000
REMARK SMILES COc1ccc(CCN2/C(=[NH+]/C(=O)CCC(=O)OCCOC(=O)c3ccc(-c4c5nc(c(-c6ccccc6)c6ccc([nH]6)c(-c6ccccc6)c6nc(c(-c7ccccc7)c7ccc4[nH]7)C=C6)C=C5)cc3)S[C@@H]3CS(=O)(=O)C[C@@H]32)cc1
REMARK SMILES IDX 16 1 17 2 15 3 14 4 12 5 9 6 10 7 79 8 11 9 72 10 73 11
REMARK SMILES IDX 78 12 74 14 75 15 13 16 76 17 77 18 8 19 7 20 6 21 3 22 4 23
REMARK SMILES IDX 81 24 5 25 80 26 2 27 1 28 18 29 19 30 20 31 21 32 22 33
REMARK SMILES IDX 23 34 24 35 25 36 71 37 26 38 70 39 27 40 28 41 29 42 64 43
REMARK SMILES IDX 30 44 69 45 63 46 65 47 31 48 68 49 62 50 61 51 32 53 54 54
REMARK SMILES IDX 39 55 53 56 40 57 43 58 52 59 66 60 41 61 42 62 51 64 67 65
REMARK SMILES IDX 44 66 33 67 34 68 38 69 35 70 37 71 36 72 55 73 56 74 60 75
REMARK SMILES IDX 57 76 59 77 58 78 45 79 46 80 50 81 47 82 49 83 48 84
REMARK H PARENT 11 13 65 52 43 63
REMARK Flexibility Score: inf
ROOT
ATOM      1  C   UNL A   1      31.258  27.427  24.699  1.00  0.00     0.306 C 
ATOM      2  O   UNL A   1      30.604  28.226  24.039  1.00  0.00    -0.252 OA
ENDROOT
BRANCH   1   3
ATOM      3  C   UNL A   1      31.275  25.946  24.419  1.00  0.00     0.135 C 
BRANCH   3   4
ATOM      4  C   UNL A   1      30.342  25.159  25.328  1.00  0.00     0.139 C 
BRANCH   4   5
ATOM      5  C   UNL A   1      31.085  24.084  26.096  1.00  0.00     0.308 C 
ATOM      6  N   UNL A   1      33.561  21.730  24.846  1.00  0.00    -0.251 N 
ATOM      7  C   UNL A   1      32.754  22.481  25.694  1.00  0.00     0.314 C 
ATOM      8  C   UNL A   1      34.756  21.124  25.456  1.00  0.00     0.206 C 
ATOM      9  N   UNL A   1      31.804  23.249  25.282  1.00  0.00    -0.205 N 
ATOM     10  S   UNL A   1      33.310  22.271  27.354  1.00  0.00    -0.030 SA
ATOM     11  C   UNL A   1      34.973  21.838  26.801  1.00  0.00     0.120 C 
ATOM     12  C   UNL A   1      36.039  21.257  24.643  1.00  0.00     0.187 C 
ATOM     13  H   UNL A   1      31.582  23.234  24.324  1.00  0.00     0.316 HD
ATOM     14  C   UNL A   1      35.762  23.108  26.540  1.00  0.00     0.156 C 
ATOM     15  S   UNL A   1      36.957  22.610  25.336  1.00  0.00     0.155 S 
ATOM     16  O   UNL A   1      31.008  24.054  27.321  1.00  0.00    -0.247 OA
ATOM     17  O   UNL A   1      37.088  23.648  24.337  1.00  0.00    -0.229 OA
ATOM     18  O   UNL A   1      38.099  22.061  26.037  1.00  0.00    -0.229 OA
BRANCH   6  19
ATOM     19  C   UNL A   1      33.179  21.474  23.453  1.00  0.00     0.242 C 
BRANCH  19  20
ATOM     20  C   UNL A   1      32.117  20.378  23.248  1.00  0.00     0.081 C 
BRANCH  20  21
ATOM     21  C   UNL A   1      32.524  18.980  23.653  1.00  0.00    -0.044 A 
ATOM     22  C   UNL A   1      33.372  16.394  24.398  1.00  0.00     0.118 A 
ATOM     23  C   UNL A   1      32.709  17.211  25.309  1.00  0.00     0.046 A 
ATOM     24  C   UNL A   1      33.600  16.859  23.104  1.00  0.00     0.046 A 
ATOM     25  C   UNL A   1      32.302  18.495  24.946  1.00  0.00     0.007 A 
ATOM     26  C   UNL A   1      33.184  18.145  22.738  1.00  0.00     0.007 A 
BRANCH  22  27
ATOM     27  O   UNL A   1      33.711  15.158  24.871  1.00  0.00    -0.497 OA
ATOM     28  C   UNL A   1      32.761  14.548  25.734  1.00  0.00     0.278 C 
ENDBRANCH  22  27
ENDBRANCH  20  21
ENDBRANCH  19  20
ENDBRANCH   6  19
ENDBRANCH   4   5
ENDBRANCH   3   4
ENDBRANCH   1   3
BRANCH   1  29
ATOM     29  O   UNL A   1      32.020  27.746  25.774  1.00  0.00    -0.462 OA
BRANCH  29  30
ATOM     30  C   UNL A   1      31.833  29.051  26.348  1.00  0.00     0.274 C 
BRANCH  30  31
ATOM     31  C   UNL A   1      33.104  29.890  26.216  1.00  0.00     0.275 C 
BRANCH  31  32
ATOM     32  O   UNL A   1      34.069  29.485  27.199  1.00  0.00    -0.458 OA
BRANCH  32  33
ATOM     33  C   UNL A   1      34.609  30.480  27.936  1.00  0.00     0.338 C 
ATOM     34  O   UNL A   1      34.077  31.498  28.333  1.00  0.00    -0.246 OA
BRANCH  33  35
ATOM     35  C   UNL A   1      35.985  30.100  28.269  1.00  0.00     0.060 A 
ATOM     36  C   UNL A   1      36.956  30.116  27.265  1.00  0.00     0.016 A 
ATOM     37  C   UNL A   1      36.291  29.689  29.566  1.00  0.00     0.016 A 
ATOM     38  C   UNL A   1      38.256  29.714  27.559  1.00  0.00     0.010 A 
ATOM     39  C   UNL A   1      37.594  29.292  29.860  1.00  0.00     0.010 A 
ATOM     40  C   UNL A   1      38.577  29.290  28.856  1.00  0.00    -0.014 A 
BRANCH  40  41
ATOM     41  C   UNL A   1      39.926  28.767  29.158  1.00  0.00     0.031 A 
ATOM     42  C   UNL A   1      40.926  29.663  29.828  1.00  0.00     0.074 A 
ATOM     43  C   UNL A   1      40.253  27.508  28.817  1.00  0.00     0.049 A 
ATOM     44  N   UNL A   1      42.190  29.450  30.080  1.00  0.00    -0.248 NA
ATOM     45  C   UNL A   1      40.435  30.982  30.266  1.00  0.00     0.031 C 
ATOM     46  C   UNL A   1      39.351  26.537  28.193  1.00  0.00     0.029 A 
ATOM     47  N   UNL A   1      41.441  26.834  28.936  1.00  0.00    -0.354 N 
ATOM     48  C   UNL A   1      42.651  30.607  30.693  1.00  0.00     0.074 A 
ATOM     49  C   UNL A   1      41.539  31.531  30.753  1.00  0.00     0.031 C 
ATOM     50  C   UNL A   1      40.023  25.394  27.978  1.00  0.00     0.029 A 
ATOM     51  C   UNL A   1      41.407  25.566  28.410  1.00  0.00     0.049 A 
ATOM     52  H   UNL A   1      42.240  27.221  29.360  1.00  0.00     0.167 HD
ATOM     53  C   UNL A   1      43.890  30.874  31.169  1.00  0.00     0.031 A 
ATOM     54  C   UNL A   1      42.392  24.659  28.269  1.00  0.00     0.031 A 
ATOM     55  C   UNL A   1      44.994  29.955  31.097  1.00  0.00     0.049 A 
ATOM     56  C   UNL A   1      43.773  25.003  28.757  1.00  0.00     0.074 A 
ATOM     57  C   UNL A   1      46.295  30.130  31.534  1.00  0.00     0.029 A 
ATOM     58  N   UNL A   1      44.920  28.680  30.556  1.00  0.00    -0.354 N 
ATOM     59  N   UNL A   1      44.200  26.103  29.330  1.00  0.00    -0.248 NA
ATOM     60  C   UNL A   1      44.809  23.973  28.585  1.00  0.00     0.031 C 
ATOM     61  C   UNL A   1      47.018  28.973  31.226  1.00  0.00     0.029 A 
ATOM     62  C   UNL A   1      46.153  28.059  30.644  1.00  0.00     0.049 A 
ATOM     63  H   UNL A   1      44.110  28.276  30.168  1.00  0.00     0.167 HD
ATOM     64  C   UNL A   1      45.541  25.886  29.617  1.00  0.00     0.074 A 
ATOM     65  C   UNL A   1      45.854  24.546  29.166  1.00  0.00     0.031 C 
ATOM     66  C   UNL A   1      46.435  26.720  30.200  1.00  0.00     0.031 A 
BRANCH  53  67
ATOM     67  C   UNL A   1      44.119  32.222  31.788  1.00  0.00    -0.014 A 
ATOM     68  C   UNL A   1      43.910  32.434  33.161  1.00  0.00     0.009 A 
ATOM     69  C   UNL A   1      44.584  33.285  30.999  1.00  0.00     0.009 A 
ATOM     70  C   UNL A   1      44.137  33.692  33.723  1.00  0.00     0.001 A 
ATOM     71  C   UNL A   1      44.834  34.534  31.570  1.00  0.00     0.001 A 
ATOM     72  C   UNL A   1      44.603  34.739  32.930  1.00  0.00     0.000 A 
ENDBRANCH  53  67
BRANCH  54  73
ATOM     73  C   UNL A   1      42.121  23.350  27.620  1.00  0.00    -0.014 A 
ATOM     74  C   UNL A   1      42.421  23.146  26.265  1.00  0.00     0.009 A 
ATOM     75  C   UNL A   1      41.533  22.304  28.349  1.00  0.00     0.009 A 
ATOM     76  C   UNL A   1      42.105  21.935  25.645  1.00  0.00     0.001 A 
ATOM     77  C   UNL A   1      41.248  21.083  27.734  1.00  0.00     0.001 A 
ATOM     78  C   UNL A   1      41.523  20.904  26.379  1.00  0.00     0.000 A 
ENDBRANCH  54  73
BRANCH  66  79
ATOM     79  C   UNL A   1      47.818  26.183  30.435  1.00  0.00    -0.014 A 
ATOM     80  C   UNL A   1      48.227  25.748  31.705  1.00  0.00     0.009 A 
ATOM     81  C   UNL A   1      48.711  26.082  29.357  1.00  0.00     0.009 A 
ATOM     82  C   UNL A   1      49.518  25.251  31.895  1.00  0.00     0.001 A 
ATOM     83  C   UNL A   1      49.990  25.559  29.546  1.00  0.00     0.001 A 
ATOM     84  C   UNL A   1      50.396  25.154  30.816  1.00  0.00     0.000 A 
ENDBRANCH  66  79
ENDBRANCH  40  41
ENDBRANCH  33  35
ENDBRANCH  32  33
ENDBRANCH  31  32
ENDBRANCH  30  31
ENDBRANCH  29  30
ENDBRANCH   1  29
TORSDOF 17
ENDMDL
MODEL 2
REMARK VINA RESULT:     -11.1      3.187      8.145
REMARK SMILES COc1ccc(CCN2/C(=[NH+]/C(=O)CCC(=O)OCCOC(=O)c3ccc(-c4c5nc(c(-c6ccccc6)c6ccc([nH]6)c(-c6ccccc6)c6nc(c(-c7ccccc7)c7ccc4[nH]7)C=C6)C=C5)cc3)S[C@@H]3CS(=O)(=O)C[C@@H]32)cc1
REMARK SMILES IDX 16 1 17 2 15 3 14 4 12 5 9 6 10 7 79 8 11 9 72 10 73 11
REMARK SMILES IDX 78 12 74 14 75 15 13 16 76 17 77 18 8 19 7 20 6 21 3 22 4 23
REMARK SMILES IDX 81 24 5 25 80 26 2 27 1 28 18 29 19 30 20 31 21 32 22 33
REMARK SMILES IDX 23 34 24 35 25 36 71 37 26 38 70 39 27 40 28 41 29 42 64 43
REMARK SMILES IDX 30 44 69 45 63 46 65 47 31 48 68 49 62 50 61 51 32 53 54 54
REMARK SMILES IDX 39 55 53 56 40 57 43 58 52 59 66 60 41 61 42 62 51 64 67 65
REMARK SMILES IDX 44 66 33 67 34 68 38 69 35 70 37 71 36 72 55 73 56 74 60 75
REMARK SMILES IDX 57 76 59 77 58 78 45 79 46 80 50 81 47 82 49 83 48 84
REMARK H PARENT 11 13 65 52 43 63
REMARK Flexibility Score: inf
ROOT
ATOM      1  C   UNL A   1      39.628  20.954  25.808  1.00  0.00     0.306 C 
ATOM      2  O   UNL A   1      39.461  19.750  25.655  1.00  0.00    -0.252 OA
ENDROOT
BRANCH   1   3
ATOM      3  C   UNL A   1      38.492  21.922  26.026  1.00  0.00     0.135 C 
BRANCH   3   4
ATOM      4  C   UNL A   1      37.305  21.658  25.112  1.00  0.00     0.139 C 
BRANCH   4   5
ATOM      5  C   UNL A   1      36.566  22.936  24.771  1.00  0.00     0.308 C 
ATOM      6  N   UNL A   1      33.097  23.328  23.750  1.00  0.00    -0.251 N 
ATOM      7  C   UNL A   1      34.394  23.599  24.174  1.00  0.00     0.314 C 
ATOM      8  C   UNL A   1      32.102  24.387  23.987  1.00  0.00     0.206 C 
ATOM      9  N   UNL A   1      35.323  22.710  24.241  1.00  0.00    -0.205 N 
ATOM     10  S   UNL A   1      34.495  25.287  24.673  1.00  0.00    -0.030 SA
ATOM     11  C   UNL A   1      32.724  25.353  25.011  1.00  0.00     0.120 C 
ATOM     12  C   UNL A   1      30.766  23.910  24.545  1.00  0.00     0.187 C 
ATOM     13  H   UNL A   1      35.129  21.811  23.890  1.00  0.00     0.316 HD
ATOM     14  C   UNL A   1      32.457  24.804  26.401  1.00  0.00     0.156 C 
ATOM     15  S   UNL A   1      30.796  24.206  26.297  1.00  0.00     0.155 S 
ATOM     16  O   UNL A   1      37.097  24.020  24.999  1.00  0.00    -0.247 OA
ATOM     17  O   UNL A   1      30.701  22.940  26.989  1.00  0.00    -0.229 OA
ATOM     18  O   UNL A   1      29.904  25.312  26.577  1.00  0.00    -0.229 OA
BRANCH   6  19
ATOM     19  C   UNL A   1      32.772  22.101  23.014  1.00  0.00     0.242 C 
BRANCH  19  20
ATOM     20  C   UNL A   1      32.108  20.988  23.845  1.00  0.00     0.081 C 
BRANCH  20  21
ATOM     21  C   UNL A   1      32.846  19.670  23.894  1.00  0.00    -0.044 A 
ATOM     22  C   UNL A   1      34.210  17.206  24.079  1.00  0.00     0.118 A 
ATOM     23  C   UNL A   1      33.019  17.304  23.365  1.00  0.00     0.046 A 
ATOM     24  C   UNL A   1      34.734  18.344  24.691  1.00  0.00     0.046 A 
ATOM     25  C   UNL A   1      32.337  18.518  23.286  1.00  0.00     0.007 A 
ATOM     26  C   UNL A   1      34.053  19.565  24.603  1.00  0.00     0.007 A 
BRANCH  22  27
ATOM     27  O   UNL A   1      34.786  15.967  24.076  1.00  0.00    -0.497 OA
ATOM     28  C   UNL A   1      35.455  15.598  25.275  1.00  0.00     0.278 C 
ENDBRANCH  22  27
ENDBRANCH  20  21
ENDBRANCH  19  20
ENDBRANCH   6  19
ENDBRANCH   4   5
ENDBRANCH   3   4
ENDBRANCH   1   3
BRANCH   1  29
ATOM     29  O   UNL A   1      40.828  21.584  25.775  1.00  0.00    -0.462 OA
BRANCH  29  30
ATOM     30  C   UNL A   1      41.942  20.908  26.383  1.00  0.00     0.274 C 
BRANCH  30  31
ATOM     31  C   UNL A   1      43.261  21.371  25.766  1.00  0.00     0.275 C 
BRANCH  31  32
ATOM     32  O   UNL A   1      43.732  22.553  26.429  1.00  0.00    -0.458 OA
BRANCH  32  33
ATOM     33  C   UNL A   1      43.580  23.709  25.747  1.00  0.00     0.338 C 
ATOM     34  O   UNL A   1      43.746  23.912  24.560  1.00  0.00    -0.246 OA
BRANCH  33  35
ATOM     35  C   UNL A   1      43.091  24.725  26.683  1.00  0.00     0.060 A 
ATOM     36  C   UNL A   1      43.703  25.982  26.705  1.00  0.00     0.016 A 
ATOM     37  C   UNL A   1      42.057  24.409  27.563  1.00  0.00     0.016 A 
ATOM     38  C   UNL A   1      43.276  26.939  27.621  1.00  0.00     0.010 A 
ATOM     39  C   UNL A   1      41.627  25.370  28.476  1.00  0.00     0.010 A 
ATOM     40  C   UNL A   1      42.243  26.633  28.517  1.00  0.00    -0.014 A 
BRANCH  40  41
ATOM     41  C   UNL A   1      41.848  27.603  29.561  1.00  0.00     0.031 A 
ATOM     42  C   UNL A   1      42.585  27.613  30.867  1.00  0.00     0.074 A 
ATOM     43  C   UNL A   1      40.825  28.448  29.342  1.00  0.00     0.049 A 
ATOM     44  N   UNL A   1      42.333  28.294  31.954  1.00  0.00    -0.248 NA
ATOM     45  C   UNL A   1      43.761  26.731  30.965  1.00  0.00     0.031 C 
ATOM     46  C   UNL A   1      40.060  28.550  28.097  1.00  0.00     0.029 A 
ATOM     47  N   UNL A   1      40.246  29.376  30.168  1.00  0.00    -0.354 N 
ATOM     48  C   UNL A   1      43.307  27.916  32.868  1.00  0.00     0.074 A 
ATOM     49  C   UNL A   1      44.140  26.926  32.220  1.00  0.00     0.031 C 
ATOM     50  C   UNL A   1      39.106  29.484  28.247  1.00  0.00     0.029 A 
ATOM     51  C   UNL A   1      39.169  30.015  29.606  1.00  0.00     0.049 A 
ATOM     52  H   UNL A   1      40.573  29.568  31.077  1.00  0.00     0.167 HD
ATOM     53  C   UNL A   1      43.493  28.358  34.134  1.00  0.00     0.031 A 
ATOM     54  C   UNL A   1      38.313  30.906  30.140  1.00  0.00     0.031 A 
ATOM     55  C   UNL A   1      42.655  29.335  34.776  1.00  0.00     0.049 A 
ATOM     56  C   UNL A   1      38.511  31.340  31.567  1.00  0.00     0.074 A 
ATOM     57  C   UNL A   1      42.746  29.841  36.060  1.00  0.00     0.029 A 
ATOM     58  N   UNL A   1      41.572  29.957  34.173  1.00  0.00    -0.354 N 
ATOM     59  N   UNL A   1      39.432  30.971  32.425  1.00  0.00    -0.248 NA
ATOM     60  C   UNL A   1      37.552  32.321  32.098  1.00  0.00     0.031 C 
ATOM     61  C   UNL A   1      41.696  30.747  36.247  1.00  0.00     0.029 A 
ATOM     62  C   UNL A   1      40.983  30.840  35.061  1.00  0.00     0.049 A 
ATOM     63  H   UNL A   1      41.269  29.796  33.251  1.00  0.00     0.167 HD
ATOM     64  C   UNL A   1      39.186  31.698  33.582  1.00  0.00     0.074 A 
ATOM     65  C   UNL A   1      38.036  32.537  33.313  1.00  0.00     0.031 C 
ATOM     66  C   UNL A   1      39.849  31.674  34.764  1.00  0.00     0.031 A 
BRANCH  53  67
ATOM     67  C   UNL A   1      44.635  27.772  34.912  1.00  0.00    -0.014 A 
ATOM     68  C   UNL A   1      44.454  26.638  35.722  1.00  0.00     0.009 A 
ATOM     69  C   UNL A   1      45.916  28.336  34.809  1.00  0.00     0.009 A 
ATOM     70  C   UNL A   1      45.528  26.099  36.432  1.00  0.00     0.001 A 
ATOM     71  C   UNL A   1      46.992  27.779  35.501  1.00  0.00     0.001 A 
ATOM     72  C   UNL A   1      46.797  26.666  36.318  1.00  0.00     0.000 A 
ENDBRANCH  53  67
BRANCH  54  73
ATOM     73  C   UNL A   1      37.179  31.434  29.338  1.00  0.00    -0.014 A 
ATOM     74  C   UNL A   1      37.221  32.730  28.803  1.00  0.00     0.009 A 
ATOM     75  C   UNL A   1      36.033  30.650  29.127  1.00  0.00     0.009 A 
ATOM     76  C   UNL A   1      36.126  33.243  28.103  1.00  0.00     0.001 A 
ATOM     77  C   UNL A   1      34.952  31.155  28.400  1.00  0.00     0.001 A 
ATOM     78  C   UNL A   1      34.995  32.454  27.900  1.00  0.00     0.000 A 
ENDBRANCH  54  73
BRANCH  66  79
ATOM     79  C   UNL A   1      39.382  32.623  35.829  1.00  0.00    -0.014 A 
ATOM     80  C   UNL A   1      38.415  32.244  36.772  1.00  0.00     0.009 A 
ATOM     81  C   UNL A   1      39.949  33.906  35.908  1.00  0.00     0.009 A 
ATOM     82  C   UNL A   1      38.000  33.146  37.755  1.00  0.00     0.001 A 
ATOM     83  C   UNL A   1      39.551  34.794  36.907  1.00  0.00     0.001 A 
ATOM     84  C   UNL A   1      38.570  34.417  37.823  1.00  0.00     0.000 A 
ENDBRANCH  66  79
ENDBRANCH  40  41
ENDBRANCH  33  35
ENDBRANCH  32  33
ENDBRANCH  31  32
ENDBRANCH  30  31
ENDBRANCH  29  30
ENDBRANCH   1  29
TORSDOF 17
ENDMDL
MODEL 3
REMARK VINA RESULT:     -11.1      2.832      7.218
REMARK SMILES COc1ccc(CCN2/C(=[NH+]/C(=O)CCC(=O)OCCOC(=O)c3ccc(-c4c5nc(c(-c6ccccc6)c6ccc([nH]6)c(-c6ccccc6)c6nc(c(-c7ccccc7)c7ccc4[nH]7)C=C6)C=C5)cc3)S[C@@H]3CS(=O)(=O)C[C@@H]32)cc1
REMARK SMILES IDX 16 1 17 2 15 3 14 4 12 5 9 6 10 7 79 8 11 9 72 10 73 11
REMARK SMILES IDX 78 12 74 14 75 15 13 16 76 17 77 18 8 19 7 20 6 21 3 22 4 23
REMARK SMILES IDX 81 24 5 25 80 26 2 27 1 28 18 29 19 30 20 31 21 32 22 33
REMARK SMILES IDX 23 34 24 35 25 36 71 37 26 38 70 39 27 40 28 41 29 42 64 43
REMARK SMILES IDX 30 44 69 45 63 46 65 47 31 48 68 49 62 50 61 51 32 53 54 54
REMARK SMILES IDX 39 55 53 56 40 57 43 58 52 59 66 60 41 61 42 62 51 64 67 65
REMARK SMILES IDX 44 66 33 67 34 68 38 69 35 70 37 71 36 72 55 73 56 74 60 75
REMARK SMILES IDX 57 76 59 77 58 78 45 79 46 80 50 81 47 82 49 83 48 84
REMARK H PARENT 11 13 65 52 43 63
REMARK Flexibility Score: inf
ROOT
ATOM      1  C   UNL A   1      33.511  30.238  26.990  1.00  0.00     0.306 C 
ATOM      2  O   UNL A   1      34.645  30.593  27.287  1.00  0.00    -0.252 OA
ENDROOT
BRANCH   1   3
ATOM      3  C   UNL A   1      33.225  29.119  26.019  1.00  0.00     0.135 C 
BRANCH   3   4
ATOM      4  C   UNL A   1      33.493  27.741  26.607  1.00  0.00     0.139 C 
BRANCH   4   5
ATOM      5  C   UNL A   1      32.325  26.802  26.384  1.00  0.00     0.308 C 
ATOM      6  N   UNL A   1      32.060  24.066  24.002  1.00  0.00    -0.251 N 
ATOM      7  C   UNL A   1      31.809  24.931  25.061  1.00  0.00     0.314 C 
ATOM      8  C   UNL A   1      31.381  22.761  24.055  1.00  0.00     0.206 C 
ATOM      9  N   UNL A   1      32.482  26.008  25.279  1.00  0.00    -0.205 N 
ATOM     10  S   UNL A   1      30.520  24.260  26.060  1.00  0.00    -0.030 SA
ATOM     11  C   UNL A   1      30.883  22.583  25.500  1.00  0.00     0.120 C 
ATOM     12  C   UNL A   1      32.253  21.559  23.710  1.00  0.00     0.187 C 
ATOM     13  H   UNL A   1      33.152  26.277  24.610  1.00  0.00     0.316 HD
ATOM     14  C   UNL A   1      32.022  22.013  26.326  1.00  0.00     0.156 C 
ATOM     15  S   UNL A   1      32.759  20.823  25.246  1.00  0.00     0.155 S 
ATOM     16  O   UNL A   1      31.386  26.807  27.175  1.00  0.00    -0.247 OA
ATOM     17  O   UNL A   1      34.198  20.907  25.355  1.00  0.00    -0.229 OA
ATOM     18  O   UNL A   1      32.041  19.574  25.399  1.00  0.00    -0.229 OA
BRANCH   6  19
ATOM     19  C   UNL A   1      32.871  24.478  22.851  1.00  0.00     0.242 C 
BRANCH  19  20
ATOM     20  C   UNL A   1      34.244  25.085  23.192  1.00  0.00     0.081 C 
BRANCH  20  21
ATOM     21  C   UNL A   1      35.234  24.153  23.852  1.00  0.00    -0.044 A 
ATOM     22  C   UNL A   1      37.149  22.450  25.033  1.00  0.00     0.118 A 
ATOM     23  C   UNL A   1      36.476  23.397  25.800  1.00  0.00     0.046 A 
ATOM     24  C   UNL A   1      36.856  22.338  23.675  1.00  0.00     0.046 A 
ATOM     25  C   UNL A   1      35.539  24.249  25.214  1.00  0.00     0.007 A 
ATOM     26  C   UNL A   1      35.909  23.188  23.089  1.00  0.00     0.007 A 
BRANCH  22  27
ATOM     27  O   UNL A   1      38.035  21.672  25.723  1.00  0.00    -0.497 OA
ATOM     28  C   UNL A   1      38.238  20.364  25.204  1.00  0.00     0.278 C 
ENDBRANCH  22  27
ENDBRANCH  20  21
ENDBRANCH  19  20
ENDBRANCH   6  19
ENDBRANCH   4   5
ENDBRANCH   3   4
ENDBRANCH   1   3
BRANCH   1  29
ATOM     29  O   UNL A   1      32.371  30.805  27.454  1.00  0.00    -0.462 OA
BRANCH  29  30
ATOM     30  C   UNL A   1      31.643  31.652  26.549  1.00  0.00     0.274 C 
BRANCH  30  31
ATOM     31  C   UNL A   1      31.917  33.127  26.845  1.00  0.00     0.275 C 
BRANCH  31  32
ATOM     32  O   UNL A   1      32.185  33.310  28.242  1.00  0.00    -0.458 OA
BRANCH  32  33
ATOM     33  C   UNL A   1      33.044  34.307  28.550  1.00  0.00     0.338 C 
ATOM     34  O   UNL A   1      32.825  35.502  28.598  1.00  0.00    -0.246 OA
BRANCH  33  35
ATOM     35  C   UNL A   1      34.330  33.702  28.908  1.00  0.00     0.060 A 
ATOM     36  C   UNL A   1      34.406  32.884  30.038  1.00  0.00     0.016 A 
ATOM     37  C   UNL A   1      35.460  33.987  28.143  1.00  0.00     0.016 A 
ATOM     38  C   UNL A   1      35.632  32.340  30.412  1.00  0.00     0.010 A 
ATOM     39  C   UNL A   1      36.685  33.438  28.516  1.00  0.00     0.010 A 
ATOM     40  C   UNL A   1      36.779  32.625  29.658  1.00  0.00    -0.014 A 
BRANCH  40  41
ATOM     41  C   UNL A   1      38.103  32.137  30.100  1.00  0.00     0.031 A 
ATOM     42  C   UNL A   1      38.613  30.828  29.573  1.00  0.00     0.074 A 
ATOM     43  C   UNL A   1      38.826  32.854  30.978  1.00  0.00     0.049 A 
ATOM     44  N   UNL A   1      39.686  30.162  29.912  1.00  0.00    -0.248 NA
ATOM     45  C   UNL A   1      37.801  30.178  28.530  1.00  0.00     0.031 C 
ATOM     46  C   UNL A   1      38.444  34.157  31.528  1.00  0.00     0.029 A 
ATOM     47  N   UNL A   1      40.032  32.580  31.570  1.00  0.00    -0.354 N 
ATOM     48  C   UNL A   1      39.673  29.011  29.135  1.00  0.00     0.074 A 
ATOM     49  C   UNL A   1      38.473  29.055  28.327  1.00  0.00     0.031 C 
ATOM     50  C   UNL A   1      39.395  34.563  32.386  1.00  0.00     0.029 A 
ATOM     51  C   UNL A   1      40.429  33.535  32.473  1.00  0.00     0.049 A 
ATOM     52  H   UNL A   1      40.562  31.776  31.366  1.00  0.00     0.167 HD
ATOM     53  C   UNL A   1      40.582  28.010  29.097  1.00  0.00     0.031 A 
ATOM     54  C   UNL A   1      41.493  33.560  33.297  1.00  0.00     0.031 A 
ATOM     55  C   UNL A   1      41.768  27.968  29.911  1.00  0.00     0.049 A 
ATOM     56  C   UNL A   1      42.460  32.407  33.273  1.00  0.00     0.074 A 
ATOM     57  C   UNL A   1      42.748  26.992  29.961  1.00  0.00     0.029 A 
ATOM     58  N   UNL A   1      42.134  28.954  30.814  1.00  0.00    -0.354 N 
ATOM     59  N   UNL A   1      42.435  31.321  32.538  1.00  0.00    -0.248 NA
ATOM     60  C   UNL A   1      43.609  32.490  34.187  1.00  0.00     0.031 C 
ATOM     61  C   UNL A   1      43.691  27.373  30.922  1.00  0.00     0.029 A 
ATOM     62  C   UNL A   1      43.324  28.609  31.431  1.00  0.00     0.049 A 
ATOM     63  H   UNL A   1      41.625  29.778  30.989  1.00  0.00     0.167 HD
ATOM     64  C   UNL A   1      43.578  30.608  32.877  1.00  0.00     0.074 A 
ATOM     65  C   UNL A   1      44.280  31.391  33.873  1.00  0.00     0.031 C 
ATOM     66  C   UNL A   1      44.009  29.412  32.408  1.00  0.00     0.031 A 
BRANCH  53  67
ATOM     67  C   UNL A   1      40.318  26.869  28.158  1.00  0.00    -0.014 A 
ATOM     68  C   UNL A   1      40.870  26.849  26.867  1.00  0.00     0.009 A 
ATOM     69  C   UNL A   1      39.536  25.782  28.579  1.00  0.00     0.009 A 
ATOM     70  C   UNL A   1      40.622  25.776  26.009  1.00  0.00     0.001 A 
ATOM     71  C   UNL A   1      39.311  24.699  27.728  1.00  0.00     0.001 A 
ATOM     72  C   UNL A   1      39.848  24.700  26.441  1.00  0.00     0.000 A 
ENDBRANCH  53  67
BRANCH  54  73
ATOM     73  C   UNL A   1      41.694  34.698  34.231  1.00  0.00    -0.014 A 
ATOM     74  C   UNL A   1      42.420  35.831  33.834  1.00  0.00     0.009 A 
ATOM     75  C   UNL A   1      41.183  34.644  35.537  1.00  0.00     0.009 A 
ATOM     76  C   UNL A   1      42.659  36.870  34.737  1.00  0.00     0.001 A 
ATOM     77  C   UNL A   1      41.397  35.698  36.428  1.00  0.00     0.001 A 
ATOM     78  C   UNL A   1      42.145  36.804  36.031  1.00  0.00     0.000 A 
ENDBRANCH  54  73
BRANCH  66  79
ATOM     79  C   UNL A   1      45.327  28.910  32.925  1.00  0.00    -0.014 A 
ATOM     80  C   UNL A   1      46.535  29.248  32.296  1.00  0.00     0.009 A 
ATOM     81  C   UNL A   1      45.357  28.114  34.081  1.00  0.00     0.009 A 
ATOM     82  C   UNL A   1      47.746  28.769  32.798  1.00  0.00     0.001 A 
ATOM     83  C   UNL A   1      46.571  27.661  34.595  1.00  0.00     0.001 A 
ATOM     84  C   UNL A   1      47.764  27.980  33.948  1.00  0.00     0.000 A 
ENDBRANCH  66  79
ENDBRANCH  40  41
ENDBRANCH  33  35
ENDBRANCH  32  33
ENDBRANCH  31  32
ENDBRANCH  30  31
ENDBRANCH  29  30
ENDBRANCH   1  29
TORSDOF 17
ENDMDL
