MODEL 1
REMARK VINA RESULT:     -11.6      0.000      0.000
REMARK SMILES COc1ccc(/C=C2/SC(=S)N(NC(=O)c3ccc(C(C)(C)C)cc3)C2=O)c(C(=O)OCCOC(=O)c2ccc(-c3c4nc(c(-c5ccccc5)c5ccc([nH]5)c(-c5ccccc5)c5nc(c(-c6ccccc6)c6ccc3[nH]6)C=C5)C=C4)cc2)c1OC
REMARK SMILES IDX 32 1 31 2 29 3 30 4 28 5 3 6 4 7 85 8 5 9 6 10 2 11 1 12
REMARK SMILES IDX 86 13 87 14 7 15 8 16 9 17 26 18 10 19 12 20 27 21 11 22
REMARK SMILES IDX 13 23 14 24 15 26 16 27 17 28 25 29 18 30 24 31 19 32 20 33
REMARK SMILES IDX 21 34 22 35 23 36 33 37 34 38 35 39 36 40 37 41 38 42 84 43
REMARK SMILES IDX 39 44 83 45 40 46 41 47 42 48 77 49 43 50 82 51 76 52 78 53
REMARK SMILES IDX 44 54 81 55 75 56 74 57 45 59 67 60 52 61 66 62 53 63 56 64
REMARK SMILES IDX 65 65 79 66 54 67 55 68 64 70 80 71 57 72 46 73 47 74 51 75
REMARK SMILES IDX 48 76 50 77 49 78 68 79 69 80 73 81 70 82 72 83 71 84 58 85
REMARK SMILES IDX 59 86 63 87 60 88 62 89 61 90
REMARK H PARENT 13 25 78 58 56 69
REMARK Flexibility Score: inf
ROOT
ATOM      1  C   UNL A   1      37.826  22.429  25.679  1.00  0.00     0.275 C 
ENDROOT
BRANCH   1   2
ATOM      2  O   UNL A   1      36.904  22.740  24.596  1.00  0.00    -0.458 OA
BRANCH   2   3
ATOM      3  C   UNL A   1      35.622  23.088  24.919  1.00  0.00     0.342 C 
ATOM      4  O   UNL A   1      35.286  24.038  25.613  1.00  0.00    -0.246 OA
BRANCH   3   5
ATOM      5  C   UNL A   1      34.631  22.173  24.305  1.00  0.00     0.113 A 
ATOM      6  C   UNL A   1      33.108  20.366  24.921  1.00  0.00     0.161 A 
ATOM      7  C   UNL A   1      32.288  20.738  23.854  1.00  0.00     0.051 A 
ATOM      8  C   UNL A   1      34.304  21.058  25.134  1.00  0.00     0.175 A 
ATOM      9  C   UNL A   1      32.644  21.790  22.979  1.00  0.00     0.013 A 
ATOM     10  C   UNL A   1      33.812  22.552  23.173  1.00  0.00    -0.006 A 
BRANCH   6  11
ATOM     11  O   UNL A   1      32.568  19.519  25.857  1.00  0.00    -0.493 OA
ATOM     12  C   UNL A   1      32.582  18.138  25.513  1.00  0.00     0.278 C 
ENDBRANCH   6  11
BRANCH   8  13
ATOM     13  O   UNL A   1      35.003  20.803  26.296  1.00  0.00    -0.492 OA
ATOM     14  C   UNL A   1      34.426  21.431  27.445  1.00  0.00     0.278 C 
ENDBRANCH   8  13
BRANCH  10  15
ATOM     15  C   UNL A   1      33.847  23.903  22.444  1.00  0.00     0.030 C 
ATOM     16  C   UNL A   1      33.402  25.237  22.679  1.00  0.00     0.082 C 
ATOM     17  S   UNL A   1      32.821  27.305  21.414  1.00  0.00    -0.052 SA
ATOM     18  C   UNL A   1      32.728  25.475  24.492  1.00  0.00     0.285 C 
ATOM     19  C   UNL A   1      31.855  28.192  23.313  1.00  0.00     0.168 C 
ATOM     20  N   UNL A   1      31.995  27.056  24.667  1.00  0.00    -0.198 N 
ATOM     21  O   UNL A   1      32.685  24.491  25.208  1.00  0.00    -0.266 OA
ATOM     22  S   UNL A   1      31.014  29.635  23.222  1.00  0.00    -0.050 S 
BRANCH  20  23
ATOM     23  N   UNL A   1      31.137  27.351  25.765  1.00  0.00    -0.255 N 
ATOM     24  C   UNL A   1      31.401  28.049  26.930  1.00  0.00     0.270 C 
ATOM     25  H   UNL A   1      30.217  27.007  25.683  1.00  0.00     0.192 HD
ATOM     26  O   UNL A   1      30.785  27.720  27.947  1.00  0.00    -0.267 OA
BRANCH  24  27
ATOM     27  C   UNL A   1      32.359  29.171  27.040  1.00  0.00     0.041 A 
ATOM     28  C   UNL A   1      31.858  30.461  26.839  1.00  0.00     0.014 A 
ATOM     29  C   UNL A   1      33.699  29.004  27.405  1.00  0.00     0.014 A 
ATOM     30  C   UNL A   1      32.641  31.576  27.158  1.00  0.00     0.005 A 
ATOM     31  C   UNL A   1      34.472  30.133  27.754  1.00  0.00     0.005 A 
ATOM     32  C   UNL A   1      33.930  31.435  27.712  1.00  0.00    -0.043 A 
BRANCH  32  33
ATOM     33  C   UNL A   1      34.618  32.644  28.382  1.00  0.00    -0.013 C 
ATOM     34  C   UNL A   1      33.792  33.927  28.223  1.00  0.00     0.016 C 
ATOM     35  C   UNL A   1      34.765  32.391  29.894  1.00  0.00     0.016 C 
ATOM     36  C   UNL A   1      36.040  32.920  27.839  1.00  0.00     0.016 C 
ENDBRANCH  32  33
ENDBRANCH  24  27
ENDBRANCH  20  23
ENDBRANCH  10  15
ENDBRANCH   3   5
ENDBRANCH   2   3
ENDBRANCH   1   2
BRANCH   1  37
ATOM     37  C   UNL A   1      38.571  23.639  26.286  1.00  0.00     0.275 C 
BRANCH  37  38
ATOM     38  O   UNL A   1      39.470  23.226  27.339  1.00  0.00    -0.458 OA
BRANCH  38  39
ATOM     39  C   UNL A   1      40.713  23.415  26.887  1.00  0.00     0.338 C 
ATOM     40  O   UNL A   1      41.531  22.501  26.754  1.00  0.00    -0.246 OA
BRANCH  39  41
ATOM     41  C   UNL A   1      41.297  24.739  26.778  1.00  0.00     0.060 A 
ATOM     42  C   UNL A   1      41.709  25.700  25.409  1.00  0.00     0.016 A 
ATOM     43  C   UNL A   1      42.486  24.663  28.042  1.00  0.00     0.016 A 
ATOM     44  C   UNL A   1      43.285  26.537  25.244  1.00  0.00     0.010 A 
ATOM     45  C   UNL A   1      44.263  25.618  27.860  1.00  0.00     0.010 A 
ATOM     46  C   UNL A   1      44.595  26.589  26.434  1.00  0.00    -0.014 A 
BRANCH  46  47
ATOM     47  C   UNL A   1      45.638  27.759  26.497  1.00  0.00     0.031 A 
ATOM     48  C   UNL A   1      45.344  29.259  26.791  1.00  0.00     0.074 A 
ATOM     49  C   UNL A   1      46.906  27.537  26.071  1.00  0.00     0.049 A 
ATOM     50  N   UNL A   1      46.135  30.308  26.612  1.00  0.00    -0.248 NA
ATOM     51  C   UNL A   1      44.000  29.672  27.208  1.00  0.00     0.031 C 
ATOM     52  C   UNL A   1      47.374  26.336  25.400  1.00  0.00     0.029 A 
ATOM     53  N   UNL A   1      48.063  28.281  26.159  1.00  0.00    -0.354 N 
ATOM     54  C   UNL A   1      45.339  31.453  26.753  1.00  0.00     0.074 A 
ATOM     55  C   UNL A   1      43.991  30.971  26.933  1.00  0.00     0.031 C 
ATOM     56  C   UNL A   1      48.700  26.259  25.448  1.00  0.00     0.029 A 
ATOM     57  C   UNL A   1      49.199  27.554  25.860  1.00  0.00     0.049 A 
ATOM     58  H   UNL A   1      48.079  29.234  26.408  1.00  0.00     0.167 HD
ATOM     59  C   UNL A   1      45.680  32.773  26.811  1.00  0.00     0.031 A 
ATOM     60  C   UNL A   1      50.506  27.870  25.822  1.00  0.00     0.031 A 
ATOM     61  C   UNL A   1      47.044  33.255  26.792  1.00  0.00     0.049 A 
ATOM     62  C   UNL A   1      50.896  29.288  26.046  1.00  0.00     0.074 A 
ATOM     63  C   UNL A   1      47.514  34.543  26.997  1.00  0.00     0.029 A 
ATOM     64  N   UNL A   1      48.160  32.458  26.586  1.00  0.00    -0.354 N 
ATOM     65  N   UNL A   1      50.120  30.325  26.242  1.00  0.00    -0.248 NA
ATOM     66  C   UNL A   1      52.330  29.589  26.014  1.00  0.00     0.031 C 
ATOM     67  C   UNL A   1      48.907  34.533  26.862  1.00  0.00     0.029 A 
ATOM     68  C   UNL A   1      49.313  33.226  26.654  1.00  0.00     0.049 A 
ATOM     69  H   UNL A   1      48.137  31.489  26.416  1.00  0.00     0.167 HD
ATOM     70  C   UNL A   1      50.972  31.409  26.360  1.00  0.00     0.074 A 
ATOM     71  C   UNL A   1      52.324  30.892  26.252  1.00  0.00     0.031 C 
ATOM     72  C   UNL A   1      50.655  32.713  26.535  1.00  0.00     0.031 A 
BRANCH  59  73
ATOM     73  C   UNL A   1      44.571  33.812  26.950  1.00  0.00    -0.014 A 
ATOM     74  C   UNL A   1      43.905  34.350  25.834  1.00  0.00     0.009 A 
ATOM     75  C   UNL A   1      44.146  34.231  28.225  1.00  0.00     0.009 A 
ATOM     76  C   UNL A   1      42.924  35.340  25.982  1.00  0.00     0.001 A 
ATOM     77  C   UNL A   1      43.127  35.182  28.376  1.00  0.00     0.001 A 
ATOM     78  C   UNL A   1      42.535  35.755  27.253  1.00  0.00     0.000 A 
ENDBRANCH  59  73
BRANCH  60  79
ATOM     79  C   UNL A   1      51.510  26.807  25.531  1.00  0.00    -0.014 A 
ATOM     80  C   UNL A   1      52.053  26.682  24.243  1.00  0.00     0.009 A 
ATOM     81  C   UNL A   1      52.020  25.993  26.558  1.00  0.00     0.009 A 
ATOM     82  C   UNL A   1      53.089  25.777  23.995  1.00  0.00     0.001 A 
ATOM     83  C   UNL A   1      53.093  25.131  26.320  1.00  0.00     0.001 A 
ATOM     84  C   UNL A   1      53.622  25.020  25.038  1.00  0.00     0.000 A 
ENDBRANCH  60  79
BRANCH  72  85
ATOM     85  C   UNL A   1      51.807  33.663  26.688  1.00  0.00    -0.014 A 
ATOM     86  C   UNL A   1      52.364  33.950  27.944  1.00  0.00     0.009 A 
ATOM     87  C   UNL A   1      52.322  34.301  25.550  1.00  0.00     0.009 A 
ATOM     88  C   UNL A   1      53.375  34.904  28.062  1.00  0.00     0.001 A 
ATOM     89  C   UNL A   1      53.361  35.223  25.667  1.00  0.00     0.001 A 
ATOM     90  C   UNL A   1      53.874  35.537  26.923  1.00  0.00     0.000 A 
ENDBRANCH  72  85
ENDBRANCH  46  47
ENDBRANCH  39  41
ENDBRANCH  38  39
ENDBRANCH  37  38
ENDBRANCH   1  37
TORSDOF 17
ENDMDL
MODEL 2
REMARK VINA RESULT:     -11.3      0.629      5.563
REMARK SMILES COc1ccc(/C=C2/SC(=S)N(NC(=O)c3ccc(C(C)(C)C)cc3)C2=O)c(C(=O)OCCOC(=O)c2ccc(-c3c4nc(c(-c5ccccc5)c5ccc([nH]5)c(-c5ccccc5)c5nc(c(-c6ccccc6)c6ccc3[nH]6)C=C5)C=C4)cc2)c1OC
REMARK SMILES IDX 32 1 31 2 29 3 30 4 28 5 3 6 4 7 85 8 5 9 6 10 2 11 1 12
REMARK SMILES IDX 86 13 87 14 7 15 8 16 9 17 26 18 10 19 12 20 27 21 11 22
REMARK SMILES IDX 13 23 14 24 15 26 16 27 17 28 25 29 18 30 24 31 19 32 20 33
REMARK SMILES IDX 21 34 22 35 23 36 33 37 34 38 35 39 36 40 37 41 38 42 84 43
REMARK SMILES IDX 39 44 83 45 40 46 41 47 42 48 77 49 43 50 82 51 76 52 78 53
REMARK SMILES IDX 44 54 81 55 75 56 74 57 45 59 67 60 52 61 66 62 53 63 56 64
REMARK SMILES IDX 65 65 79 66 54 67 55 68 64 70 80 71 57 72 46 73 47 74 51 75
REMARK SMILES IDX 48 76 50 77 49 78 68 79 69 80 73 81 70 82 72 83 71 84 58 85
REMARK SMILES IDX 59 86 63 87 60 88 62 89 61 90
REMARK H PARENT 13 25 78 58 56 69
REMARK Flexibility Score: inf
ROOT
ATOM      1  C   UNL A   1      38.080  23.541  25.280  1.00  0.00     0.275 C 
ENDROOT
BRANCH   1   2
ATOM      2  O   UNL A   1      36.997  22.862  24.582  1.00  0.00    -0.458 OA
BRANCH   2   3
ATOM      3  C   UNL A   1      35.712  23.212  24.890  1.00  0.00     0.342 C 
ATOM      4  O   UNL A   1      35.364  24.198  25.523  1.00  0.00    -0.246 OA
BRANCH   3   5
ATOM      5  C   UNL A   1      34.731  22.243  24.343  1.00  0.00     0.113 A 
ATOM      6  C   UNL A   1      33.281  20.420  25.075  1.00  0.00     0.161 A 
ATOM      7  C   UNL A   1      32.421  20.724  24.017  1.00  0.00     0.051 A 
ATOM      8  C   UNL A   1      34.461  21.155  25.226  1.00  0.00     0.175 A 
ATOM      9  C   UNL A   1      32.721  21.748  23.091  1.00  0.00     0.013 A 
ATOM     10  C   UNL A   1      33.871  22.550  23.220  1.00  0.00    -0.006 A 
BRANCH   6  11
ATOM     11  O   UNL A   1      32.791  19.598  26.061  1.00  0.00    -0.493 OA
ATOM     12  C   UNL A   1      32.712  18.218  25.722  1.00  0.00     0.278 C 
ENDBRANCH   6  11
BRANCH   8  13
ATOM     13  O   UNL A   1      35.199  20.969  26.376  1.00  0.00    -0.492 OA
ATOM     14  C   UNL A   1      34.593  21.559  27.531  1.00  0.00     0.278 C 
ENDBRANCH   8  13
BRANCH  10  15
ATOM     15  C   UNL A   1      33.846  23.870  22.434  1.00  0.00     0.030 C 
ATOM     16  C   UNL A   1      33.387  25.205  22.636  1.00  0.00     0.082 C 
ATOM     17  S   UNL A   1      32.708  27.208  21.316  1.00  0.00    -0.052 SA
ATOM     18  C   UNL A   1      32.793  25.507  24.467  1.00  0.00     0.285 C 
ATOM     19  C   UNL A   1      31.813  28.156  23.219  1.00  0.00     0.168 C 
ATOM     20  N   UNL A   1      32.039  27.080  24.611  1.00  0.00    -0.198 N 
ATOM     21  O   UNL A   1      32.803  24.554  25.224  1.00  0.00    -0.266 OA
ATOM     22  S   UNL A   1      30.942  29.579  23.110  1.00  0.00    -0.050 S 
BRANCH  20  23
ATOM     23  N   UNL A   1      31.226  27.406  25.736  1.00  0.00    -0.255 N 
ATOM     24  C   UNL A   1      31.570  28.031  26.921  1.00  0.00     0.270 C 
ATOM     25  H   UNL A   1      30.279  27.150  25.657  1.00  0.00     0.192 HD
ATOM     26  O   UNL A   1      30.941  27.718  27.936  1.00  0.00    -0.267 OA
BRANCH  24  27
ATOM     27  C   UNL A   1      32.626  29.058  27.057  1.00  0.00     0.041 A 
ATOM     28  C   UNL A   1      32.219  30.396  27.063  1.00  0.00     0.014 A 
ATOM     29  C   UNL A   1      33.976  28.750  27.253  1.00  0.00     0.014 A 
ATOM     30  C   UNL A   1      33.121  31.403  27.423  1.00  0.00     0.005 A 
ATOM     31  C   UNL A   1      34.873  29.768  27.645  1.00  0.00     0.005 A 
ATOM     32  C   UNL A   1      34.442  31.101  27.814  1.00  0.00    -0.043 A 
BRANCH  32  33
ATOM     33  C   UNL A   1      35.293  32.164  28.542  1.00  0.00    -0.013 C 
ATOM     34  C   UNL A   1      35.092  33.561  27.942  1.00  0.00     0.016 C 
ATOM     35  C   UNL A   1      34.873  32.248  30.021  1.00  0.00     0.016 C 
ATOM     36  C   UNL A   1      36.808  31.851  28.530  1.00  0.00     0.016 C 
ENDBRANCH  32  33
ENDBRANCH  24  27
ENDBRANCH  20  23
ENDBRANCH  10  15
ENDBRANCH   3   5
ENDBRANCH   2   3
ENDBRANCH   1   2
BRANCH   1  37
ATOM     37  C   UNL A   1      38.843  22.685  26.315  1.00  0.00     0.275 C 
BRANCH  37  38
ATOM     38  O   UNL A   1      40.182  23.186  26.524  1.00  0.00    -0.458 OA
BRANCH  38  39
ATOM     39  C   UNL A   1      40.085  24.220  27.365  1.00  0.00     0.338 C 
ATOM     40  O   UNL A   1      39.233  24.291  28.255  1.00  0.00    -0.246 OA
BRANCH  39  41
ATOM     41  C   UNL A   1      40.790  25.466  27.133  1.00  0.00     0.060 A 
ATOM     42  C   UNL A   1      41.197  26.299  25.682  1.00  0.00     0.016 A 
ATOM     43  C   UNL A   1      42.053  25.339  28.319  1.00  0.00     0.016 A 
ATOM     44  C   UNL A   1      42.832  26.956  25.359  1.00  0.00     0.010 A 
ATOM     45  C   UNL A   1      43.899  26.091  27.960  1.00  0.00     0.010 A 
ATOM     46  C   UNL A   1      44.224  26.939  26.455  1.00  0.00    -0.014 A 
BRANCH  46  47
ATOM     47  C   UNL A   1      45.381  27.994  26.374  1.00  0.00     0.031 A 
ATOM     48  C   UNL A   1      46.893  27.709  26.137  1.00  0.00     0.074 A 
ATOM     49  C   UNL A   1      45.129  29.278  26.730  1.00  0.00     0.049 A 
ATOM     50  N   UNL A   1      47.925  28.523  26.307  1.00  0.00    -0.248 NA
ATOM     51  C   UNL A   1      47.336  26.352  25.800  1.00  0.00     0.031 C 
ATOM     52  C   UNL A   1      43.903  29.760  27.342  1.00  0.00     0.029 A 
ATOM     53  N   UNL A   1      45.860  30.441  26.607  1.00  0.00    -0.354 N 
ATOM     54  C   UNL A   1      49.084  27.740  26.239  1.00  0.00     0.074 A 
ATOM     55  C   UNL A   1      48.626  26.377  26.112  1.00  0.00     0.031 C 
ATOM     56  C   UNL A   1      43.809  31.081  27.227  1.00  0.00     0.029 A 
ATOM     57  C   UNL A   1      45.109  31.579  26.828  1.00  0.00     0.049 A 
ATOM     58  H   UNL A   1      46.818  30.458  26.384  1.00  0.00     0.167 HD
ATOM     59  C   UNL A   1      50.401  28.096  26.202  1.00  0.00     0.031 A 
ATOM     60  C   UNL A   1      45.405  32.891  26.811  1.00  0.00     0.031 A 
ATOM     61  C   UNL A   1      50.863  29.467  26.167  1.00  0.00     0.049 A 
ATOM     62  C   UNL A   1      46.824  33.291  26.609  1.00  0.00     0.074 A 
ATOM     63  C   UNL A   1      52.151  29.946  25.976  1.00  0.00     0.029 A 
ATOM     64  N   UNL A   1      50.045  30.580  26.295  1.00  0.00    -0.354 N 
ATOM     65  N   UNL A   1      47.877  32.522  26.481  1.00  0.00    -0.248 NA
ATOM     66  C   UNL A   1      47.104  34.728  26.579  1.00  0.00     0.031 C 
ATOM     67  C   UNL A   1      52.117  31.344  26.041  1.00  0.00     0.029 A 
ATOM     68  C   UNL A   1      50.799  31.740  26.192  1.00  0.00     0.049 A 
ATOM     69  H   UNL A   1      49.072  30.551  26.438  1.00  0.00     0.167 HD
ATOM     70  C   UNL A   1      48.951  33.383  26.352  1.00  0.00     0.074 A 
ATOM     71  C   UNL A   1      48.414  34.731  26.379  1.00  0.00     0.031 C 
ATOM     72  C   UNL A   1      50.265  33.078  26.230  1.00  0.00     0.031 A 
BRANCH  59  73
ATOM     73  C   UNL A   1      51.459  26.998  26.147  1.00  0.00    -0.014 A 
ATOM     74  C   UNL A   1      52.057  26.477  27.308  1.00  0.00     0.009 A 
ATOM     75  C   UNL A   1      51.834  26.434  24.913  1.00  0.00     0.009 A 
ATOM     76  C   UNL A   1      53.063  25.504  27.232  1.00  0.00     0.001 A 
ATOM     77  C   UNL A   1      52.801  25.422  24.841  1.00  0.00     0.001 A 
ATOM     78  C   UNL A   1      53.433  24.977  25.998  1.00  0.00     0.000 A 
ENDBRANCH  59  73
BRANCH  60  79
ATOM     79  C   UNL A   1      44.320  33.892  27.021  1.00  0.00    -0.014 A 
ATOM     80  C   UNL A   1      44.019  34.346  28.315  1.00  0.00     0.009 A 
ATOM     81  C   UNL A   1      43.664  34.487  25.930  1.00  0.00     0.009 A 
ATOM     82  C   UNL A   1      43.097  35.378  28.507  1.00  0.00     0.001 A 
ATOM     83  C   UNL A   1      42.787  35.556  26.121  1.00  0.00     0.001 A 
ATOM     84  C   UNL A   1      42.500  35.997  27.410  1.00  0.00     0.000 A 
ENDBRANCH  60  79
BRANCH  72  85
ATOM     85  C   UNL A   1      51.203  34.235  26.047  1.00  0.00    -0.014 A 
ATOM     86  C   UNL A   1      51.488  34.760  24.777  1.00  0.00     0.009 A 
ATOM     87  C   UNL A   1      51.832  34.788  27.173  1.00  0.00     0.009 A 
ATOM     88  C   UNL A   1      52.432  35.778  24.634  1.00  0.00     0.001 A 
ATOM     89  C   UNL A   1      52.744  35.833  27.030  1.00  0.00     0.001 A 
ATOM     90  C   UNL A   1      53.056  36.315  25.760  1.00  0.00     0.000 A 
ENDBRANCH  72  85
ENDBRANCH  46  47
ENDBRANCH  39  41
ENDBRANCH  38  39
ENDBRANCH  37  38
ENDBRANCH   1  37
TORSDOF 17
ENDMDL
MODEL 3
REMARK VINA RESULT:     -11.1      6.024     10.268
REMARK SMILES COc1ccc(/C=C2/SC(=S)N(NC(=O)c3ccc(C(C)(C)C)cc3)C2=O)c(C(=O)OCCOC(=O)c2ccc(-c3c4nc(c(-c5ccccc5)c5ccc([nH]5)c(-c5ccccc5)c5nc(c(-c6ccccc6)c6ccc3[nH]6)C=C5)C=C4)cc2)c1OC
REMARK SMILES IDX 32 1 31 2 29 3 30 4 28 5 3 6 4 7 85 8 5 9 6 10 2 11 1 12
REMARK SMILES IDX 86 13 87 14 7 15 8 16 9 17 26 18 10 19 12 20 27 21 11 22
REMARK SMILES IDX 13 23 14 24 15 26 16 27 17 28 25 29 18 30 24 31 19 32 20 33
REMARK SMILES IDX 21 34 22 35 23 36 33 37 34 38 35 39 36 40 37 41 38 42 84 43
REMARK SMILES IDX 39 44 83 45 40 46 41 47 42 48 77 49 43 50 82 51 76 52 78 53
REMARK SMILES IDX 44 54 81 55 75 56 74 57 45 59 67 60 52 61 66 62 53 63 56 64
REMARK SMILES IDX 65 65 79 66 54 67 55 68 64 70 80 71 57 72 46 73 47 74 51 75
REMARK SMILES IDX 48 76 50 77 49 78 68 79 69 80 73 81 70 82 72 83 71 84 58 85
REMARK SMILES IDX 59 86 63 87 60 88 62 89 61 90
REMARK H PARENT 13 25 78 58 56 69
REMARK Flexibility Score: inf
ROOT
ATOM      1  C   UNL A   1      33.496  35.202  29.894  1.00  0.00     0.275 C 
ENDROOT
BRANCH   1   2
ATOM      2  O   UNL A   1      33.580  33.862  29.330  1.00  0.00    -0.458 OA
BRANCH   2   3
ATOM      3  C   UNL A   1      34.286  33.693  28.171  1.00  0.00     0.342 C 
ATOM      4  O   UNL A   1      34.514  34.553  27.333  1.00  0.00    -0.246 OA
BRANCH   3   5
ATOM      5  C   UNL A   1      34.787  32.305  28.030  1.00  0.00     0.113 A 
ATOM      6  C   UNL A   1      36.316  30.739  29.113  1.00  0.00     0.161 A 
ATOM      7  C   UNL A   1      35.527  29.690  28.637  1.00  0.00     0.051 A 
ATOM      8  C   UNL A   1      35.972  32.054  28.784  1.00  0.00     0.175 A 
ATOM      9  C   UNL A   1      34.396  29.926  27.822  1.00  0.00     0.013 A 
ATOM     10  C   UNL A   1      33.976  31.231  27.497  1.00  0.00    -0.006 A 
BRANCH   6  11
ATOM     11  O   UNL A   1      37.228  30.438  30.096  1.00  0.00    -0.493 OA
ATOM     12  C   UNL A   1      37.106  29.138  30.664  1.00  0.00     0.278 C 
ENDBRANCH   6  11
BRANCH   8  13
ATOM     13  O   UNL A   1      36.647  33.079  29.415  1.00  0.00    -0.492 OA
ATOM     14  C   UNL A   1      37.841  33.469  28.727  1.00  0.00     0.278 C 
ENDBRANCH   8  13
BRANCH  10  15
ATOM     15  C   UNL A   1      32.529  31.352  26.998  1.00  0.00     0.030 C 
ATOM     16  C   UNL A   1      31.737  30.832  25.932  1.00  0.00     0.082 C 
ATOM     17  S   UNL A   1      29.671  31.380  24.649  1.00  0.00    -0.052 SA
ATOM     18  C   UNL A   1      32.674  29.449  24.931  1.00  0.00     0.285 C 
ATOM     19  C   UNL A   1      30.236  29.797  23.069  1.00  0.00     0.168 C 
ATOM     20  N   UNL A   1      31.757  28.999  23.509  1.00  0.00    -0.198 N 
ATOM     21  O   UNL A   1      33.825  29.209  25.248  1.00  0.00    -0.266 OA
ATOM     22  S   UNL A   1      29.336  29.664  21.665  1.00  0.00    -0.050 S 
BRANCH  20  23
ATOM     23  N   UNL A   1      32.363  28.273  22.442  1.00  0.00    -0.255 N 
ATOM     24  C   UNL A   1      33.112  27.110  22.479  1.00  0.00     0.270 C 
ATOM     25  H   UNL A   1      32.228  28.655  21.545  1.00  0.00     0.192 HD
ATOM     26  O   UNL A   1      33.987  26.965  21.622  1.00  0.00    -0.267 OA
BRANCH  24  27
ATOM     27  C   UNL A   1      32.928  26.022  23.464  1.00  0.00     0.041 A 
ATOM     28  C   UNL A   1      32.105  24.954  23.090  1.00  0.00     0.014 A 
ATOM     29  C   UNL A   1      33.591  25.979  24.695  1.00  0.00     0.014 A 
ATOM     30  C   UNL A   1      32.073  23.788  23.862  1.00  0.00     0.005 A 
ATOM     31  C   UNL A   1      33.578  24.787  25.452  1.00  0.00     0.005 A 
ATOM     32  C   UNL A   1      32.881  23.642  25.008  1.00  0.00    -0.043 A 
BRANCH  32  33
ATOM     33  C   UNL A   1      33.102  22.244  25.625  1.00  0.00    -0.013 C 
ATOM     34  C   UNL A   1      32.079  21.227  25.105  1.00  0.00     0.016 C 
ATOM     35  C   UNL A   1      34.495  21.715  25.238  1.00  0.00     0.016 C 
ATOM     36  C   UNL A   1      33.039  22.238  27.171  1.00  0.00     0.016 C 
ENDBRANCH  32  33
ENDBRANCH  24  27
ENDBRANCH  20  23
ENDBRANCH  10  15
ENDBRANCH   3   5
ENDBRANCH   2   3
ENDBRANCH   1   2
BRANCH   1  37
ATOM     37  C   UNL A   1      33.841  35.315  31.395  1.00  0.00     0.275 C 
BRANCH  37  38
ATOM     38  O   UNL A   1      34.791  34.302  31.793  1.00  0.00    -0.458 OA
BRANCH  38  39
ATOM     39  C   UNL A   1      35.460  34.785  32.844  1.00  0.00     0.338 C 
ATOM     40  O   UNL A   1      35.070  35.748  33.509  1.00  0.00    -0.246 OA
BRANCH  39  41
ATOM     41  C   UNL A   1      36.830  34.399  33.125  1.00  0.00     0.060 A 
ATOM     42  C   UNL A   1      38.285  34.604  32.227  1.00  0.00     0.016 A 
ATOM     43  C   UNL A   1      36.578  32.826  33.819  1.00  0.00     0.016 A 
ATOM     44  C   UNL A   1      39.461  33.280  31.958  1.00  0.00     0.010 A 
ATOM     45  C   UNL A   1      37.912  31.331  33.524  1.00  0.00     0.010 A 
ATOM     46  C   UNL A   1      39.379  31.633  32.604  1.00  0.00    -0.014 A 
BRANCH  46  47
ATOM     47  C   UNL A   1      40.652  30.746  32.831  1.00  0.00     0.031 A 
ATOM     48  C   UNL A   1      41.616  30.787  34.052  1.00  0.00     0.074 A 
ATOM     49  C   UNL A   1      41.118  29.987  31.808  1.00  0.00     0.049 A 
ATOM     50  N   UNL A   1      42.821  30.249  34.174  1.00  0.00    -0.248 NA
ATOM     51  C   UNL A   1      41.281  31.611  35.219  1.00  0.00     0.031 C 
ATOM     52  C   UNL A   1      40.636  30.027  30.438  1.00  0.00     0.029 A 
ATOM     53  N   UNL A   1      42.077  28.998  31.742  1.00  0.00    -0.354 N 
ATOM     54  C   UNL A   1      43.399  30.788  35.331  1.00  0.00     0.074 A 
ATOM     55  C   UNL A   1      42.456  31.767  35.817  1.00  0.00     0.031 C 
ATOM     56  C   UNL A   1      41.012  28.936  29.777  1.00  0.00     0.029 A 
ATOM     57  C   UNL A   1      42.030  28.275  30.566  1.00  0.00     0.049 A 
ATOM     58  H   UNL A   1      42.729  28.826  32.459  1.00  0.00     0.167 HD
ATOM     59  C   UNL A   1      44.552  30.466  35.985  1.00  0.00     0.031 A 
ATOM     60  C   UNL A   1      42.756  27.247  30.092  1.00  0.00     0.031 A 
ATOM     61  C   UNL A   1      45.423  29.378  35.594  1.00  0.00     0.049 A 
ATOM     62  C   UNL A   1      43.926  26.784  30.887  1.00  0.00     0.074 A 
ATOM     63  C   UNL A   1      46.525  28.863  36.261  1.00  0.00     0.029 A 
ATOM     64  N   UNL A   1      45.268  28.616  34.446  1.00  0.00    -0.354 N 
ATOM     65  N   UNL A   1      44.397  27.276  32.005  1.00  0.00    -0.248 NA
ATOM     66  C   UNL A   1      44.681  25.651  30.346  1.00  0.00     0.031 C 
ATOM     67  C   UNL A   1      47.065  27.828  35.490  1.00  0.00     0.029 A 
ATOM     68  C   UNL A   1      46.254  27.642  34.383  1.00  0.00     0.049 A 
ATOM     69  H   UNL A   1      44.561  28.747  33.773  1.00  0.00     0.167 HD
ATOM     70  C   UNL A   1      45.508  26.510  32.309  1.00  0.00     0.074 A 
ATOM     71  C   UNL A   1      45.614  25.498  31.274  1.00  0.00     0.031 C 
ATOM     72  C   UNL A   1      46.364  26.644  33.349  1.00  0.00     0.031 A 
BRANCH  59  73
ATOM     73  C   UNL A   1      44.937  31.258  37.231  1.00  0.00    -0.014 A 
ATOM     74  C   UNL A   1      44.549  30.858  38.522  1.00  0.00     0.009 A 
ATOM     75  C   UNL A   1      45.746  32.406  37.121  1.00  0.00     0.009 A 
ATOM     76  C   UNL A   1      44.870  31.627  39.648  1.00  0.00     0.001 A 
ATOM     77  C   UNL A   1      46.113  33.146  38.253  1.00  0.00     0.001 A 
ATOM     78  C   UNL A   1      45.653  32.771  39.513  1.00  0.00     0.000 A 
ENDBRANCH  59  73
BRANCH  60  79
ATOM     79  C   UNL A   1      42.389  26.629  28.786  1.00  0.00    -0.014 A 
ATOM     80  C   UNL A   1      43.034  27.032  27.607  1.00  0.00     0.009 A 
ATOM     81  C   UNL A   1      41.484  25.555  28.723  1.00  0.00     0.009 A 
ATOM     82  C   UNL A   1      42.791  26.368  26.402  1.00  0.00     0.001 A 
ATOM     83  C   UNL A   1      41.286  24.856  27.531  1.00  0.00     0.001 A 
ATOM     84  C   UNL A   1      41.935  25.267  26.370  1.00  0.00     0.000 A 
ENDBRANCH  60  79
BRANCH  72  85
ATOM     85  C   UNL A   1      47.455  25.618  33.450  1.00  0.00    -0.014 A 
ATOM     86  C   UNL A   1      47.308  24.458  34.226  1.00  0.00     0.009 A 
ATOM     87  C   UNL A   1      48.663  25.837  32.771  1.00  0.00     0.009 A 
ATOM     88  C   UNL A   1      48.373  23.569  34.369  1.00  0.00     0.001 A 
ATOM     89  C   UNL A   1      49.711  24.925  32.883  1.00  0.00     0.001 A 
ATOM     90  C   UNL A   1      49.572  23.802  33.695  1.00  0.00     0.000 A 
ENDBRANCH  72  85
ENDBRANCH  46  47
ENDBRANCH  39  41
ENDBRANCH  38  39
ENDBRANCH  37  38
ENDBRANCH   1  37
TORSDOF 17
ENDMDL
