MODEL 1
REMARK VINA RESULT:      -9.7      0.000      0.000
REMARK SMILES O=C(C[C@@H](Br)C(=O)c1ccc2c(c1)CCC2)OCCOC(=O)c1ccc(-c2c3nc(c(-c4ccccc4)c4ccc([nH]4)c(-c4ccccc4)c4nc(c(-c5ccccc5)c5ccc2[nH]5)C=C4)C=C3)cc1
REMARK SMILES IDX 18 1 17 2 2 3 1 4 3 5 4 6 5 7 6 8 7 9 8 10 9 11 13 12 10 13
REMARK SMILES IDX 12 14 11 15 14 16 16 17 15 18 19 19 20 20 21 21 22 22 23 23
REMARK SMILES IDX 24 24 70 25 25 26 69 27 26 28 27 29 28 30 63 31 29 32 68 33
REMARK SMILES IDX 62 34 64 35 30 36 67 37 61 38 60 39 31 41 53 42 38 43 52 44
REMARK SMILES IDX 39 45 42 46 51 47 65 48 40 49 41 50 50 52 66 53 43 54 32 55
REMARK SMILES IDX 33 56 37 57 34 58 36 59 35 60 54 61 55 62 59 63 56 64 58 65
REMARK SMILES IDX 57 66 44 67 45 68 49 69 46 70 48 71 47 72
REMARK H PARENT 64 40 42 51
REMARK Flexibility Score: inf
ROOT
ATOM      1  C   UNL A   1      34.093  34.368  28.308  1.00  0.00     0.274 C 
ENDROOT
BRANCH   1   2
ATOM      2  O   UNL A   1      32.920  35.120  28.695  1.00  0.00    -0.462 OA
BRANCH   2   3
ATOM      3  C   UNL A   1      32.918  36.026  29.709  1.00  0.00     0.307 C 
ATOM      4  O   UNL A   1      33.183  37.206  29.504  1.00  0.00    -0.252 OA
BRANCH   3   5
ATOM      5  C   UNL A   1      32.751  35.490  31.104  1.00  0.00     0.146 C 
BRANCH   5   6
ATOM      6  C   UNL A   1      34.004  35.507  31.952  1.00  0.00     0.140 C 
ATOM      7  Br  UNL A   1      33.876  36.881  33.341  1.00  0.00    -0.080 Br
BRANCH   6   8
ATOM      8  C   UNL A   1      34.293  34.186  32.674  1.00  0.00     0.177 C 
ATOM      9  O   UNL A   1      33.384  33.440  33.038  1.00  0.00    -0.293 OA
BRANCH   8  10
ATOM     10  C   UNL A   1      35.697  33.732  32.912  1.00  0.00     0.019 A 
ATOM     11  C   UNL A   1      36.743  34.653  33.087  1.00  0.00     0.012 A 
ATOM     12  C   UNL A   1      35.960  32.361  33.010  1.00  0.00     0.015 A 
ATOM     13  C   UNL A   1      38.064  34.242  33.266  1.00  0.00     0.005 A 
ATOM     14  C   UNL A   1      37.269  31.958  33.240  1.00  0.00    -0.044 A 
ATOM     15  C   UNL A   1      38.309  32.889  33.345  1.00  0.00    -0.045 A 
ATOM     16  C   UNL A   1      37.802  30.566  33.385  1.00  0.00     0.036 C 
ATOM     17  C   UNL A   1      39.628  32.210  33.539  1.00  0.00     0.036 C 
ATOM     18  C   UNL A   1      39.166  30.838  34.043  1.00  0.00     0.010 C 
ENDBRANCH   8  10
ENDBRANCH   6   8
ENDBRANCH   5   6
ENDBRANCH   3   5
ENDBRANCH   2   3
ENDBRANCH   1   2
BRANCH   1  19
ATOM     19  C   UNL A   1      33.765  32.932  27.880  1.00  0.00     0.275 C 
BRANCH  19  20
ATOM     20  O   UNL A   1      34.361  31.959  28.758  1.00  0.00    -0.458 OA
BRANCH  20  21
ATOM     21  C   UNL A   1      34.504  30.708  28.237  1.00  0.00     0.338 C 
ATOM     22  O   UNL A   1      33.697  30.092  27.581  1.00  0.00    -0.246 OA
BRANCH  21  23
ATOM     23  C   UNL A   1      35.901  30.262  28.453  1.00  0.00     0.060 A 
ATOM     24  C   UNL A   1      36.237  29.742  29.708  1.00  0.00     0.016 A 
ATOM     25  C   UNL A   1      36.854  30.298  27.432  1.00  0.00     0.016 A 
ATOM     26  C   UNL A   1      37.518  29.224  29.931  1.00  0.00     0.010 A 
ATOM     27  C   UNL A   1      38.126  29.753  27.649  1.00  0.00     0.010 A 
ATOM     28  C   UNL A   1      38.472  29.219  28.903  1.00  0.00    -0.014 A 
BRANCH  28  29
ATOM     29  C   UNL A   1      39.853  28.726  29.153  1.00  0.00     0.031 A 
ATOM     30  C   UNL A   1      40.859  29.637  29.803  1.00  0.00     0.074 A 
ATOM     31  C   UNL A   1      40.225  27.482  28.791  1.00  0.00     0.049 A 
ATOM     32  N   UNL A   1      42.120  29.416  30.079  1.00  0.00    -0.248 NA
ATOM     33  C   UNL A   1      40.386  30.978  30.185  1.00  0.00     0.031 C 
ATOM     34  C   UNL A   1      39.367  26.490  28.143  1.00  0.00     0.029 A 
ATOM     35  N   UNL A   1      41.438  26.847  28.909  1.00  0.00    -0.354 N 
ATOM     36  C   UNL A   1      42.593  30.589  30.650  1.00  0.00     0.074 A 
ATOM     37  C   UNL A   1      41.495  31.530  30.657  1.00  0.00     0.031 C 
ATOM     38  C   UNL A   1      40.081  25.373  27.922  1.00  0.00     0.029 A 
ATOM     39  C   UNL A   1      41.451  25.577  28.384  1.00  0.00     0.049 A 
ATOM     40  H   UNL A   1      42.225  27.264  29.331  1.00  0.00     0.167 HD
ATOM     41  C   UNL A   1      43.827  30.860  31.137  1.00  0.00     0.031 A 
ATOM     42  C   UNL A   1      42.457  24.686  28.272  1.00  0.00     0.031 A 
ATOM     43  C   UNL A   1      44.923  29.933  31.158  1.00  0.00     0.049 A 
ATOM     44  C   UNL A   1      43.833  25.035  28.777  1.00  0.00     0.074 A 
ATOM     45  C   UNL A   1      46.184  30.107  31.705  1.00  0.00     0.029 A 
ATOM     46  N   UNL A   1      44.899  28.667  30.602  1.00  0.00    -0.354 N 
ATOM     47  N   UNL A   1      44.241  26.119  29.389  1.00  0.00    -0.248 NA
ATOM     48  C   UNL A   1      44.891  24.032  28.568  1.00  0.00     0.031 C 
ATOM     49  C   UNL A   1      46.940  28.963  31.433  1.00  0.00     0.029 A 
ATOM     50  C   UNL A   1      46.136  28.064  30.754  1.00  0.00     0.049 A 
ATOM     51  H   UNL A   1      44.119  28.257  30.163  1.00  0.00     0.167 HD
ATOM     52  C   UNL A   1      45.591  25.920  29.655  1.00  0.00     0.074 A 
ATOM     53  C   UNL A   1      45.933  24.607  29.155  1.00  0.00     0.031 C 
ATOM     54  C   UNL A   1      46.469  26.756  30.257  1.00  0.00     0.031 A 
BRANCH  41  55
ATOM     55  C   UNL A   1      44.067  32.235  31.683  1.00  0.00    -0.014 A 
ATOM     56  C   UNL A   1      43.870  32.518  33.044  1.00  0.00     0.009 A 
ATOM     57  C   UNL A   1      44.557  33.242  30.838  1.00  0.00     0.009 A 
ATOM     58  C   UNL A   1      44.142  33.794  33.542  1.00  0.00     0.001 A 
ATOM     59  C   UNL A   1      44.845  34.510  31.343  1.00  0.00     0.001 A 
ATOM     60  C   UNL A   1      44.632  34.786  32.694  1.00  0.00     0.000 A 
ENDBRANCH  41  55
BRANCH  42  61
ATOM     61  C   UNL A   1      42.230  23.370  27.619  1.00  0.00    -0.014 A 
ATOM     62  C   UNL A   1      42.548  23.179  26.265  1.00  0.00     0.009 A 
ATOM     63  C   UNL A   1      41.625  22.322  28.328  1.00  0.00     0.009 A 
ATOM     64  C   UNL A   1      42.233  21.978  25.627  1.00  0.00     0.001 A 
ATOM     65  C   UNL A   1      41.334  21.113  27.693  1.00  0.00     0.001 A 
ATOM     66  C   UNL A   1      41.626  20.945  26.341  1.00  0.00     0.000 A 
ENDBRANCH  42  61
BRANCH  54  67
ATOM     67  C   UNL A   1      47.883  26.277  30.429  1.00  0.00    -0.014 A 
ATOM     68  C   UNL A   1      48.829  26.439  29.406  1.00  0.00     0.009 A 
ATOM     69  C   UNL A   1      48.286  25.712  31.649  1.00  0.00     0.009 A 
ATOM     70  C   UNL A   1      50.150  26.026  29.596  1.00  0.00     0.001 A 
ATOM     71  C   UNL A   1      49.612  25.322  31.843  1.00  0.00     0.001 A 
ATOM     72  C   UNL A   1      50.541  25.473  30.815  1.00  0.00     0.000 A 
ENDBRANCH  54  67
ENDBRANCH  28  29
ENDBRANCH  21  23
ENDBRANCH  20  21
ENDBRANCH  19  20
ENDBRANCH   1  19
TORSDOF 14
ENDMDL
MODEL 2
REMARK VINA RESULT:      -9.7      2.129      7.031
REMARK SMILES O=C(C[C@@H](Br)C(=O)c1ccc2c(c1)CCC2)OCCOC(=O)c1ccc(-c2c3nc(c(-c4ccccc4)c4ccc([nH]4)c(-c4ccccc4)c4nc(c(-c5ccccc5)c5ccc2[nH]5)C=C4)C=C3)cc1
REMARK SMILES IDX 18 1 17 2 2 3 1 4 3 5 4 6 5 7 6 8 7 9 8 10 9 11 13 12 10 13
REMARK SMILES IDX 12 14 11 15 14 16 16 17 15 18 19 19 20 20 21 21 22 22 23 23
REMARK SMILES IDX 24 24 70 25 25 26 69 27 26 28 27 29 28 30 63 31 29 32 68 33
REMARK SMILES IDX 62 34 64 35 30 36 67 37 61 38 60 39 31 41 53 42 38 43 52 44
REMARK SMILES IDX 39 45 42 46 51 47 65 48 40 49 41 50 50 52 66 53 43 54 32 55
REMARK SMILES IDX 33 56 37 57 34 58 36 59 35 60 54 61 55 62 59 63 56 64 58 65
REMARK SMILES IDX 57 66 44 67 45 68 49 69 46 70 48 71 47 72
REMARK H PARENT 64 40 42 51
REMARK Flexibility Score: inf
ROOT
ATOM      1  C   UNL A   1      32.707  36.298  31.371  1.00  0.00     0.274 C 
ENDROOT
BRANCH   1   2
ATOM      2  O   UNL A   1      33.811  35.991  32.253  1.00  0.00    -0.462 OA
BRANCH   2   3
ATOM      3  C   UNL A   1      34.310  34.736  32.411  1.00  0.00     0.307 C 
ATOM      4  O   UNL A   1      33.596  33.814  32.791  1.00  0.00    -0.252 OA
BRANCH   3   5
ATOM      5  C   UNL A   1      35.799  34.569  32.269  1.00  0.00     0.146 C 
BRANCH   5   6
ATOM      6  C   UNL A   1      36.509  34.072  33.509  1.00  0.00     0.140 C 
ATOM      7  Br  UNL A   1      35.421  34.403  35.103  1.00  0.00    -0.080 Br
BRANCH   6   8
ATOM      8  C   UNL A   1      36.818  32.571  33.497  1.00  0.00     0.177 C 
ATOM      9  O   UNL A   1      35.978  31.744  33.141  1.00  0.00    -0.293 OA
BRANCH   8  10
ATOM     10  C   UNL A   1      38.173  32.063  33.869  1.00  0.00     0.019 A 
ATOM     11  C   UNL A   1      38.936  32.683  34.872  1.00  0.00     0.012 A 
ATOM     12  C   UNL A   1      38.665  30.916  33.235  1.00  0.00     0.015 A 
ATOM     13  C   UNL A   1      40.221  32.244  35.197  1.00  0.00     0.005 A 
ATOM     14  C   UNL A   1      39.924  30.454  33.599  1.00  0.00    -0.044 A 
ATOM     15  C   UNL A   1      40.697  31.125  34.554  1.00  0.00    -0.045 A 
ATOM     16  C   UNL A   1      40.664  29.262  33.076  1.00  0.00     0.036 C 
ATOM     17  C   UNL A   1      42.028  30.465  34.734  1.00  0.00     0.036 C 
ATOM     18  C   UNL A   1      41.730  29.072  34.169  1.00  0.00     0.010 C 
ENDBRANCH   8  10
ENDBRANCH   6   8
ENDBRANCH   5   6
ENDBRANCH   3   5
ENDBRANCH   2   3
ENDBRANCH   1   2
BRANCH   1  19
ATOM     19  C   UNL A   1      32.980  35.900  29.915  1.00  0.00     0.275 C 
BRANCH  19  20
ATOM     20  O   UNL A   1      32.469  34.589  29.610  1.00  0.00    -0.458 OA
BRANCH  20  21
ATOM     21  C   UNL A   1      33.008  33.990  28.510  1.00  0.00     0.338 C 
ATOM     22  O   UNL A   1      32.525  33.923  27.404  1.00  0.00    -0.246 OA
BRANCH  21  23
ATOM     23  C   UNL A   1      34.392  33.568  28.832  1.00  0.00     0.060 A 
ATOM     24  C   UNL A   1      34.562  32.456  29.664  1.00  0.00     0.016 A 
ATOM     25  C   UNL A   1      35.506  34.210  28.286  1.00  0.00     0.016 A 
ATOM     26  C   UNL A   1      35.847  31.965  29.922  1.00  0.00     0.010 A 
ATOM     27  C   UNL A   1      36.789  33.700  28.522  1.00  0.00     0.010 A 
ATOM     28  C   UNL A   1      36.971  32.577  29.348  1.00  0.00    -0.014 A 
BRANCH  28  29
ATOM     29  C   UNL A   1      38.341  32.096  29.669  1.00  0.00     0.031 A 
ATOM     30  C   UNL A   1      38.782  30.738  29.194  1.00  0.00     0.074 A 
ATOM     31  C   UNL A   1      39.192  32.851  30.393  1.00  0.00     0.049 A 
ATOM     32  N   UNL A   1      39.919  30.119  29.393  1.00  0.00    -0.248 NA
ATOM     33  C   UNL A   1      37.810  29.970  28.398  1.00  0.00     0.031 C 
ATOM     34  C   UNL A   1      38.907  34.181  30.931  1.00  0.00     0.029 A 
ATOM     35  N   UNL A   1      40.475  32.590  30.813  1.00  0.00    -0.354 N 
ATOM     36  C   UNL A   1      39.794  28.889  28.764  1.00  0.00     0.074 A 
ATOM     37  C   UNL A   1      38.463  28.834  28.198  1.00  0.00     0.031 C 
ATOM     38  C   UNL A   1      39.982  34.618  31.609  1.00  0.00     0.029 A 
ATOM     39  C   UNL A   1      41.022  33.593  31.578  1.00  0.00     0.049 A 
ATOM     40  H   UNL A   1      40.958  31.762  30.586  1.00  0.00     0.167 HD
ATOM     41  C   UNL A   1      40.706  27.894  28.652  1.00  0.00     0.031 A 
ATOM     42  C   UNL A   1      42.216  33.668  32.199  1.00  0.00     0.031 A 
ATOM     43  C   UNL A   1      42.038  27.938  29.187  1.00  0.00     0.049 A 
ATOM     44  C   UNL A   1      43.191  32.524  32.100  1.00  0.00     0.074 A 
ATOM     45  C   UNL A   1      43.049  27.001  29.050  1.00  0.00     0.029 A 
ATOM     46  N   UNL A   1      42.543  28.961  29.968  1.00  0.00    -0.354 N 
ATOM     47  N   UNL A   1      43.087  31.403  31.430  1.00  0.00    -0.248 NA
ATOM     48  C   UNL A   1      44.451  32.658  32.851  1.00  0.00     0.031 C 
ATOM     49  C   UNL A   1      44.151  27.435  29.793  1.00  0.00     0.029 A 
ATOM     50  C   UNL A   1      43.837  28.660  30.357  1.00  0.00     0.049 A 
ATOM     51  H   UNL A   1      42.054  29.781  30.211  1.00  0.00     0.167 HD
ATOM     52  C   UNL A   1      44.271  30.711  31.662  1.00  0.00     0.074 A 
ATOM     53  C   UNL A   1      45.087  31.542  32.519  1.00  0.00     0.031 C 
ATOM     54  C   UNL A   1      44.644  29.492  31.207  1.00  0.00     0.031 A 
BRANCH  41  55
ATOM     55  C   UNL A   1      40.287  26.652  27.925  1.00  0.00    -0.014 A 
ATOM     56  C   UNL A   1      40.708  26.406  26.610  1.00  0.00     0.009 A 
ATOM     57  C   UNL A   1      39.516  25.686  28.589  1.00  0.00     0.009 A 
ATOM     58  C   UNL A   1      40.345  25.222  25.965  1.00  0.00     0.001 A 
ATOM     59  C   UNL A   1      39.170  24.496  27.949  1.00  0.00     0.001 A 
ATOM     60  C   UNL A   1      39.581  24.267  26.636  1.00  0.00     0.000 A 
ENDBRANCH  41  55
BRANCH  42  61
ATOM     61  C   UNL A   1      42.567  34.860  33.015  1.00  0.00    -0.014 A 
ATOM     62  C   UNL A   1      43.216  35.960  32.432  1.00  0.00     0.009 A 
ATOM     63  C   UNL A   1      42.322  34.871  34.396  1.00  0.00     0.009 A 
ATOM     64  C   UNL A   1      43.642  37.030  33.222  1.00  0.00     0.001 A 
ATOM     65  C   UNL A   1      42.726  35.953  35.179  1.00  0.00     0.001 A 
ATOM     66  C   UNL A   1      43.397  37.026  34.595  1.00  0.00     0.000 A 
ENDBRANCH  42  61
BRANCH  54  67
ATOM     67  C   UNL A   1      46.000  28.984  31.607  1.00  0.00    -0.014 A 
ATOM     68  C   UNL A   1      46.165  28.198  32.758  1.00  0.00     0.009 A 
ATOM     69  C   UNL A   1      47.114  29.243  30.792  1.00  0.00     0.009 A 
ATOM     70  C   UNL A   1      47.425  27.697  33.095  1.00  0.00     0.001 A 
ATOM     71  C   UNL A   1      48.366  28.722  31.120  1.00  0.00     0.001 A 
ATOM     72  C   UNL A   1      48.523  27.956  32.274  1.00  0.00     0.000 A 
ENDBRANCH  54  67
ENDBRANCH  28  29
ENDBRANCH  21  23
ENDBRANCH  20  21
ENDBRANCH  19  20
ENDBRANCH   1  19
TORSDOF 14
ENDMDL
MODEL 3
REMARK VINA RESULT:      -9.5      5.154     10.814
REMARK SMILES O=C(C[C@@H](Br)C(=O)c1ccc2c(c1)CCC2)OCCOC(=O)c1ccc(-c2c3nc(c(-c4ccccc4)c4ccc([nH]4)c(-c4ccccc4)c4nc(c(-c5ccccc5)c5ccc2[nH]5)C=C4)C=C3)cc1
REMARK SMILES IDX 18 1 17 2 2 3 1 4 3 5 4 6 5 7 6 8 7 9 8 10 9 11 13 12 10 13
REMARK SMILES IDX 12 14 11 15 14 16 16 17 15 18 19 19 20 20 21 21 22 22 23 23
REMARK SMILES IDX 24 24 70 25 25 26 69 27 26 28 27 29 28 30 63 31 29 32 68 33
REMARK SMILES IDX 62 34 64 35 30 36 67 37 61 38 60 39 31 41 53 42 38 43 52 44
REMARK SMILES IDX 39 45 42 46 51 47 65 48 40 49 41 50 50 52 66 53 43 54 32 55
REMARK SMILES IDX 33 56 37 57 34 58 36 59 35 60 54 61 55 62 59 63 56 64 58 65
REMARK SMILES IDX 57 66 44 67 45 68 49 69 46 70 48 71 47 72
REMARK H PARENT 64 40 42 51
REMARK Flexibility Score: inf
ROOT
ATOM      1  C   UNL A   1      38.733  20.743  25.348  1.00  0.00     0.274 C 
ENDROOT
BRANCH   1   2
ATOM      2  O   UNL A   1      38.845  22.047  25.961  1.00  0.00    -0.462 OA
BRANCH   2   3
ATOM      3  C   UNL A   1      37.953  23.051  25.743  1.00  0.00     0.307 C 
ATOM      4  O   UNL A   1      37.832  23.974  26.541  1.00  0.00    -0.252 OA
BRANCH   3   5
ATOM      5  C   UNL A   1      37.009  22.886  24.583  1.00  0.00     0.146 C 
BRANCH   5   6
ATOM      6  C   UNL A   1      35.606  23.398  24.821  1.00  0.00     0.140 C 
ATOM      7  Br  UNL A   1      34.639  23.563  23.127  1.00  0.00    -0.080 Br
BRANCH   6   8
ATOM      8  C   UNL A   1      34.753  22.499  25.723  1.00  0.00     0.177 C 
ATOM      9  O   UNL A   1      34.508  22.805  26.890  1.00  0.00    -0.293 OA
BRANCH   8  10
ATOM     10  C   UNL A   1      34.142  21.241  25.196  1.00  0.00     0.019 A 
ATOM     11  C   UNL A   1      32.788  21.186  24.826  1.00  0.00     0.012 A 
ATOM     12  C   UNL A   1      34.952  20.113  25.024  1.00  0.00     0.015 A 
ATOM     13  C   UNL A   1      32.196  20.005  24.374  1.00  0.00     0.005 A 
ATOM     14  C   UNL A   1      34.368  18.955  24.526  1.00  0.00    -0.044 A 
ATOM     15  C   UNL A   1      33.002  18.900  24.226  1.00  0.00    -0.045 A 
ATOM     16  C   UNL A   1      35.014  17.631  24.253  1.00  0.00     0.036 C 
ATOM     17  C   UNL A   1      32.605  17.536  23.756  1.00  0.00     0.036 C 
ATOM     18  C   UNL A   1      33.968  16.976  23.334  1.00  0.00     0.010 C 
ENDBRANCH   8  10
ENDBRANCH   6   8
ENDBRANCH   5   6
ENDBRANCH   3   5
ENDBRANCH   2   3
ENDBRANCH   1   2
BRANCH   1  19
ATOM     19  C   UNL A   1      39.510  19.660  26.106  1.00  0.00     0.275 C 
BRANCH  19  20
ATOM     20  O   UNL A   1      40.661  19.206  25.367  1.00  0.00    -0.458 OA
BRANCH  20  21
ATOM     21  C   UNL A   1      41.828  19.161  26.068  1.00  0.00     0.338 C 
ATOM     22  O   UNL A   1      42.532  18.197  26.256  1.00  0.00    -0.246 OA
BRANCH  21  23
ATOM     23  C   UNL A   1      42.212  20.545  26.437  1.00  0.00     0.060 A 
ATOM     24  C   UNL A   1      42.514  21.439  25.403  1.00  0.00     0.016 A 
ATOM     25  C   UNL A   1      42.223  20.981  27.764  1.00  0.00     0.016 A 
ATOM     26  C   UNL A   1      42.792  22.779  25.695  1.00  0.00     0.010 A 
ATOM     27  C   UNL A   1      42.474  22.328  28.052  1.00  0.00     0.010 A 
ATOM     28  C   UNL A   1      42.768  23.238  27.021  1.00  0.00    -0.014 A 
BRANCH  28  29
ATOM     29  C   UNL A   1      43.123  24.646  27.341  1.00  0.00     0.031 A 
ATOM     30  C   UNL A   1      44.564  25.077  27.293  1.00  0.00     0.074 A 
ATOM     31  C   UNL A   1      42.177  25.540  27.692  1.00  0.00     0.049 A 
ATOM     32  N   UNL A   1      45.089  26.245  27.569  1.00  0.00    -0.248 NA
ATOM     33  C   UNL A   1      45.546  24.056  26.893  1.00  0.00     0.031 C 
ATOM     34  C   UNL A   1      40.743  25.269  27.792  1.00  0.00     0.029 A 
ATOM     35  N   UNL A   1      42.292  26.864  28.042  1.00  0.00    -0.354 N 
ATOM     36  C   UNL A   1      46.457  26.096  27.390  1.00  0.00     0.074 A 
ATOM     37  C   UNL A   1      46.688  24.719  27.010  1.00  0.00     0.031 C 
ATOM     38  C   UNL A   1      40.113  26.392  28.179  1.00  0.00     0.029 A 
ATOM     39  C   UNL A   1      41.096  27.453  28.380  1.00  0.00     0.049 A 
ATOM     40  H   UNL A   1      43.150  27.346  28.051  1.00  0.00     0.167 HD
ATOM     41  C   UNL A   1      47.437  27.021  27.518  1.00  0.00     0.031 A 
ATOM     42  C   UNL A   1      40.827  28.699  28.820  1.00  0.00     0.031 A 
ATOM     43  C   UNL A   1      47.227  28.396  27.873  1.00  0.00     0.049 A 
ATOM     44  C   UNL A   1      41.945  29.692  29.002  1.00  0.00     0.074 A 
ATOM     45  C   UNL A   1      48.161  29.416  27.949  1.00  0.00     0.029 A 
ATOM     46  N   UNL A   1      46.006  28.944  28.224  1.00  0.00    -0.354 N 
ATOM     47  N   UNL A   1      43.223  29.557  28.748  1.00  0.00    -0.248 NA
ATOM     48  C   UNL A   1      41.578  31.014  29.538  1.00  0.00     0.031 C 
ATOM     49  C   UNL A   1      47.512  30.571  28.396  1.00  0.00     0.029 A 
ATOM     50  C   UNL A   1      46.169  30.278  28.558  1.00  0.00     0.049 A 
ATOM     51  H   UNL A   1      45.150  28.458  28.234  1.00  0.00     0.167 HD
ATOM     52  C   UNL A   1      43.806  30.776  29.073  1.00  0.00     0.074 A 
ATOM     53  C   UNL A   1      42.744  31.647  29.527  1.00  0.00     0.031 C 
ATOM     54  C   UNL A   1      45.108  31.139  29.005  1.00  0.00     0.031 A 
BRANCH  41  55
ATOM     55  C   UNL A   1      48.847  26.570  27.282  1.00  0.00    -0.014 A 
ATOM     56  C   UNL A   1      49.640  26.091  28.335  1.00  0.00     0.009 A 
ATOM     57  C   UNL A   1      49.364  26.566  25.977  1.00  0.00     0.009 A 
ATOM     58  C   UNL A   1      50.936  25.634  28.088  1.00  0.00     0.001 A 
ATOM     59  C   UNL A   1      50.653  26.091  25.731  1.00  0.00     0.001 A 
ATOM     60  C   UNL A   1      51.439  25.630  26.787  1.00  0.00     0.000 A 
ENDBRANCH  41  55
BRANCH  42  61
ATOM     61  C   UNL A   1      39.435  29.093  29.164  1.00  0.00    -0.014 A 
ATOM     62  C   UNL A   1      38.925  28.864  30.452  1.00  0.00     0.009 A 
ATOM     63  C   UNL A   1      38.588  29.630  28.184  1.00  0.00     0.009 A 
ATOM     64  C   UNL A   1      37.586  29.134  30.739  1.00  0.00     0.001 A 
ATOM     65  C   UNL A   1      37.256  29.924  28.482  1.00  0.00     0.001 A 
ATOM     66  C   UNL A   1      36.752  29.664  29.755  1.00  0.00     0.000 A 
ENDBRANCH  42  61
BRANCH  54  67
ATOM     67  C   UNL A   1      45.464  32.541  29.412  1.00  0.00    -0.014 A 
ATOM     68  C   UNL A   1      45.841  32.837  30.730  1.00  0.00     0.009 A 
ATOM     69  C   UNL A   1      45.480  33.566  28.451  1.00  0.00     0.009 A 
ATOM     70  C   UNL A   1      46.209  34.137  31.084  1.00  0.00     0.001 A 
ATOM     71  C   UNL A   1      45.870  34.858  28.804  1.00  0.00     0.001 A 
ATOM     72  C   UNL A   1      46.228  35.145  30.120  1.00  0.00     0.000 A 
ENDBRANCH  54  67
ENDBRANCH  28  29
ENDBRANCH  21  23
ENDBRANCH  20  21
ENDBRANCH  19  20
ENDBRANCH   1  19
TORSDOF 14
ENDMDL
