MODEL 1
REMARK VINA RESULT:     -11.8      0.000      0.000
REMARK SMILES C[C@@H](C(=O)OCCOC(=O)c1ccc(-c2c3nc(c(-c4ccccc4)c4ccc([nH]4)c(-c4ccccc4)c4nc(c(-c5ccccc5)c5ccc2[nH]5)C=C4)C=C3)cc1)c1ccc2c3cc(Cl)ccc3n(C(=O)c3cocn3)c2c1
REMARK SMILES IDX 6 1 5 2 3 3 4 4 2 5 1 6 59 7 60 8 79 9 61 10 78 11 62 12
REMARK SMILES IDX 70 13 63 14 69 15 64 16 68 17 65 18 67 19 66 20 71 21 72 22
REMARK SMILES IDX 73 23 74 24 77 25 75 26 76 27 7 28 8 29 9 30 10 31 11 32
REMARK SMILES IDX 12 33 58 34 13 35 57 36 14 37 15 38 16 39 51 40 17 41 56 42
REMARK SMILES IDX 50 43 52 44 18 45 55 46 49 47 48 48 19 50 41 51 26 52 40 53
REMARK SMILES IDX 27 54 30 55 39 56 53 57 28 58 29 59 38 61 54 62 31 63 20 64
REMARK SMILES IDX 21 65 25 66 22 67 24 68 23 69 42 70 43 71 47 72 44 73 46 74
REMARK SMILES IDX 45 75 32 76 33 77 37 78 34 79 36 80 35 81
REMARK H PARENT 52 49 30 60
REMARK Flexibility Score: inf
ROOT
ATOM      1  C   UNL A   1      34.674  34.078  29.412  1.00  0.00     0.274 C 
ENDROOT
BRANCH   1   2
ATOM      2  O   UNL A   1      34.634  32.640  29.344  1.00  0.00    -0.462 OA
BRANCH   2   3
ATOM      3  C   UNL A   1      35.283  32.079  28.287  1.00  0.00     0.313 C 
ATOM      4  O   UNL A   1      35.914  32.714  27.459  1.00  0.00    -0.252 OA
BRANCH   3   5
ATOM      5  C   UNL A   1      35.118  30.554  28.235  1.00  0.00     0.126 C 
ATOM      6  C   UNL A   1      36.368  29.770  27.830  1.00  0.00     0.025 C 
BRANCH   5   7
ATOM      7  C   UNL A   1      33.912  30.224  27.366  1.00  0.00    -0.032 A 
ATOM      8  C   UNL A   1      32.910  31.193  27.230  1.00  0.00     0.005 A 
ATOM      9  C   UNL A   1      33.854  29.035  26.612  1.00  0.00     0.032 A 
ATOM     10  C   UNL A   1      31.877  31.026  26.314  1.00  0.00     0.011 A 
ATOM     11  C   UNL A   1      32.789  28.859  25.715  1.00  0.00     0.058 A 
ATOM     12  C   UNL A   1      31.825  29.851  25.539  1.00  0.00     0.008 A 
ATOM     13  N   UNL A   1      32.471  27.782  24.881  1.00  0.00    -0.274 N 
ATOM     14  C   UNL A   1      30.942  29.418  24.519  1.00  0.00     0.009 A 
ATOM     15  C   UNL A   1      31.282  28.101  24.201  1.00  0.00     0.057 A 
ATOM     16  C   UNL A   1      29.859  30.053  23.871  1.00  0.00     0.031 A 
ATOM     17  C   UNL A   1      30.457  27.350  23.344  1.00  0.00     0.029 A 
ATOM     18  C   UNL A   1      29.109  29.340  22.943  1.00  0.00     0.041 A 
ATOM     19  C   UNL A   1      29.384  27.999  22.704  1.00  0.00     0.023 A 
ATOM     20  Cl  UNL A   1      27.821  30.127  22.115  1.00  0.00    -0.084 Cl
BRANCH  13  21
ATOM     21  C   UNL A   1      33.058  26.493  24.998  1.00  0.00     0.284 C 
ATOM     22  O   UNL A   1      34.052  26.332  24.291  1.00  0.00    -0.266 OA
BRANCH  21  23
ATOM     23  C   UNL A   1      32.562  25.397  25.851  1.00  0.00     0.167 A 
ATOM     24  C   UNL A   1      31.351  25.242  26.479  1.00  0.00     0.231 A 
ATOM     25  N   UNL A   1      33.331  24.281  26.178  1.00  0.00    -0.211 NA
ATOM     26  O   UNL A   1      31.356  24.114  27.236  1.00  0.00    -0.451 OA
ATOM     27  C   UNL A   1      32.572  23.569  26.981  1.00  0.00     0.308 A 
ENDBRANCH  21  23
ENDBRANCH  13  21
ENDBRANCH   5   7
ENDBRANCH   3   5
ENDBRANCH   2   3
ENDBRANCH   1   2
BRANCH   1  28
ATOM     28  C   UNL A   1      33.282  34.663  29.654  1.00  0.00     0.275 C 
BRANCH  28  29
ATOM     29  O   UNL A   1      33.324  35.865  30.459  1.00  0.00    -0.458 OA
BRANCH  29  30
ATOM     30  C   UNL A   1      32.912  35.723  31.734  1.00  0.00     0.338 C 
ATOM     31  O   UNL A   1      31.809  36.011  32.190  1.00  0.00    -0.246 OA
BRANCH  30  32
ATOM     32  C   UNL A   1      33.941  35.105  32.593  1.00  0.00     0.060 A 
ATOM     33  C   UNL A   1      35.205  35.680  32.571  1.00  0.00     0.016 A 
ATOM     34  C   UNL A   1      33.782  33.807  33.104  1.00  0.00     0.016 A 
ATOM     35  C   UNL A   1      36.318  34.915  32.932  1.00  0.00     0.010 A 
ATOM     36  C   UNL A   1      34.915  33.051  33.498  1.00  0.00     0.010 A 
ATOM     37  C   UNL A   1      36.208  33.575  33.352  1.00  0.00    -0.014 A 
BRANCH  37  38
ATOM     38  C   UNL A   1      37.459  32.796  33.644  1.00  0.00     0.031 A 
ATOM     39  C   UNL A   1      38.071  31.782  32.696  1.00  0.00     0.074 A 
ATOM     40  C   UNL A   1      38.176  33.133  34.727  1.00  0.00     0.049 A 
ATOM     41  N   UNL A   1      39.064  30.936  32.842  1.00  0.00    -0.248 NA
ATOM     42  C   UNL A   1      37.503  31.750  31.357  1.00  0.00     0.031 C 
ATOM     43  C   UNL A   1      37.808  34.169  35.691  1.00  0.00     0.029 A 
ATOM     44  N   UNL A   1      39.380  32.659  35.173  1.00  0.00    -0.354 N 
ATOM     45  C   UNL A   1      39.205  30.279  31.614  1.00  0.00     0.074 A 
ATOM     46  C   UNL A   1      38.178  30.793  30.742  1.00  0.00     0.031 C 
ATOM     47  C   UNL A   1      38.780  34.272  36.604  1.00  0.00     0.029 A 
ATOM     48  C   UNL A   1      39.781  33.242  36.343  1.00  0.00     0.049 A 
ATOM     49  H   UNL A   1      39.901  31.970  34.702  1.00  0.00     0.167 HD
ATOM     50  C   UNL A   1      40.147  29.391  31.205  1.00  0.00     0.031 A 
ATOM     51  C   UNL A   1      40.802  32.938  37.160  1.00  0.00     0.031 A 
ATOM     52  C   UNL A   1      41.248  28.965  32.020  1.00  0.00     0.049 A 
ATOM     53  C   UNL A   1      41.737  31.829  36.795  1.00  0.00     0.074 A 
ATOM     54  C   UNL A   1      42.234  28.036  31.737  1.00  0.00     0.029 A 
ATOM     55  N   UNL A   1      41.532  29.492  33.265  1.00  0.00    -0.354 N 
ATOM     56  N   UNL A   1      41.760  31.092  35.710  1.00  0.00    -0.248 NA
ATOM     57  C   UNL A   1      42.776  31.500  37.776  1.00  0.00     0.031 C 
ATOM     58  C   UNL A   1      43.112  27.993  32.827  1.00  0.00     0.029 A 
ATOM     59  C   UNL A   1      42.680  28.912  33.770  1.00  0.00     0.049 A 
ATOM     60  H   UNL A   1      40.997  30.178  33.725  1.00  0.00     0.167 HD
ATOM     61  C   UNL A   1      42.821  30.213  35.876  1.00  0.00     0.074 A 
ATOM     62  C   UNL A   1      43.423  30.520  37.157  1.00  0.00     0.031 C 
ATOM     63  C   UNL A   1      43.254  29.232  35.047  1.00  0.00     0.031 A 
BRANCH  50  64
ATOM     64  C   UNL A   1      40.049  28.832  29.808  1.00  0.00    -0.014 A 
ATOM     65  C   UNL A   1      40.682  29.461  28.723  1.00  0.00     0.009 A 
ATOM     66  C   UNL A   1      39.368  27.624  29.581  1.00  0.00     0.009 A 
ATOM     67  C   UNL A   1      40.608  28.910  27.439  1.00  0.00     0.001 A 
ATOM     68  C   UNL A   1      39.312  27.065  28.301  1.00  0.00     0.001 A 
ATOM     69  C   UNL A   1      39.925  27.713  27.229  1.00  0.00     0.000 A 
ENDBRANCH  50  64
BRANCH  51  70
ATOM     70  C   UNL A   1      40.887  33.653  38.456  1.00  0.00    -0.014 A 
ATOM     71  C   UNL A   1      40.380  33.088  39.630  1.00  0.00     0.009 A 
ATOM     72  C   UNL A   1      41.589  34.871  38.526  1.00  0.00     0.009 A 
ATOM     73  C   UNL A   1      40.582  33.726  40.855  1.00  0.00     0.001 A 
ATOM     74  C   UNL A   1      41.818  35.487  39.754  1.00  0.00     0.001 A 
ATOM     75  C   UNL A   1      41.311  34.915  40.918  1.00  0.00     0.000 A 
ENDBRANCH  51  70
BRANCH  63  76
ATOM     76  C   UNL A   1      44.433  28.429  35.501  1.00  0.00    -0.014 A 
ATOM     77  C   UNL A   1      44.250  27.286  36.294  1.00  0.00     0.009 A 
ATOM     78  C   UNL A   1      45.727  28.791  35.100  1.00  0.00     0.009 A 
ATOM     79  C   UNL A   1      45.351  26.532  36.700  1.00  0.00     0.001 A 
ATOM     80  C   UNL A   1      46.823  28.021  35.490  1.00  0.00     0.001 A 
ATOM     81  C   UNL A   1      46.634  26.898  36.295  1.00  0.00     0.000 A 
ENDBRANCH  63  76
ENDBRANCH  37  38
ENDBRANCH  30  32
ENDBRANCH  29  30
ENDBRANCH  28  29
ENDBRANCH   1  28
TORSDOF 14
ENDMDL
MODEL 2
REMARK VINA RESULT:     -11.7      0.412      5.742
REMARK SMILES C[C@@H](C(=O)OCCOC(=O)c1ccc(-c2c3nc(c(-c4ccccc4)c4ccc([nH]4)c(-c4ccccc4)c4nc(c(-c5ccccc5)c5ccc2[nH]5)C=C4)C=C3)cc1)c1ccc2c3cc(Cl)ccc3n(C(=O)c3cocn3)c2c1
REMARK SMILES IDX 6 1 5 2 3 3 4 4 2 5 1 6 59 7 60 8 79 9 61 10 78 11 62 12
REMARK SMILES IDX 70 13 63 14 69 15 64 16 68 17 65 18 67 19 66 20 71 21 72 22
REMARK SMILES IDX 73 23 74 24 77 25 75 26 76 27 7 28 8 29 9 30 10 31 11 32
REMARK SMILES IDX 12 33 58 34 13 35 57 36 14 37 15 38 16 39 51 40 17 41 56 42
REMARK SMILES IDX 50 43 52 44 18 45 55 46 49 47 48 48 19 50 41 51 26 52 40 53
REMARK SMILES IDX 27 54 30 55 39 56 53 57 28 58 29 59 38 61 54 62 31 63 20 64
REMARK SMILES IDX 21 65 25 66 22 67 24 68 23 69 42 70 43 71 47 72 44 73 46 74
REMARK SMILES IDX 45 75 32 76 33 77 37 78 34 79 36 80 35 81
REMARK H PARENT 52 49 30 60
REMARK Flexibility Score: inf
ROOT
ATOM      1  C   UNL A   1      34.743  34.053  29.428  1.00  0.00     0.274 C 
ENDROOT
BRANCH   1   2
ATOM      2  O   UNL A   1      34.722  32.614  29.386  1.00  0.00    -0.462 OA
BRANCH   2   3
ATOM      3  C   UNL A   1      35.299  32.046  28.292  1.00  0.00     0.313 C 
ATOM      4  O   UNL A   1      35.887  32.673  27.427  1.00  0.00    -0.252 OA
BRANCH   3   5
ATOM      5  C   UNL A   1      35.113  30.523  28.250  1.00  0.00     0.126 C 
ATOM      6  C   UNL A   1      36.354  29.718  27.859  1.00  0.00     0.025 C 
BRANCH   5   7
ATOM      7  C   UNL A   1      33.907  30.203  27.378  1.00  0.00    -0.032 A 
ATOM      8  C   UNL A   1      32.905  31.173  27.254  1.00  0.00     0.005 A 
ATOM      9  C   UNL A   1      33.850  29.024  26.609  1.00  0.00     0.032 A 
ATOM     10  C   UNL A   1      31.872  31.017  26.336  1.00  0.00     0.011 A 
ATOM     11  C   UNL A   1      32.784  28.858  25.710  1.00  0.00     0.058 A 
ATOM     12  C   UNL A   1      31.819  29.852  25.547  1.00  0.00     0.008 A 
ATOM     13  N   UNL A   1      32.466  27.792  24.863  1.00  0.00    -0.274 N 
ATOM     14  C   UNL A   1      30.937  29.432  24.522  1.00  0.00     0.009 A 
ATOM     15  C   UNL A   1      31.277  28.119  24.186  1.00  0.00     0.057 A 
ATOM     16  C   UNL A   1      29.853  30.075  23.882  1.00  0.00     0.031 A 
ATOM     17  C   UNL A   1      30.452  27.379  23.320  1.00  0.00     0.029 A 
ATOM     18  C   UNL A   1      29.104  29.373  22.945  1.00  0.00     0.041 A 
ATOM     19  C   UNL A   1      29.379  28.035  22.689  1.00  0.00     0.023 A 
ATOM     20  Cl  UNL A   1      27.815  30.170  22.128  1.00  0.00    -0.084 Cl
BRANCH  13  21
ATOM     21  C   UNL A   1      33.054  26.502  24.962  1.00  0.00     0.284 C 
ATOM     22  O   UNL A   1      34.032  26.342  24.234  1.00  0.00    -0.266 OA
BRANCH  21  23
ATOM     23  C   UNL A   1      32.575  25.405  25.823  1.00  0.00     0.167 A 
ATOM     24  C   UNL A   1      31.391  25.264  26.502  1.00  0.00     0.231 A 
ATOM     25  N   UNL A   1      33.337  24.270  26.103  1.00  0.00    -0.211 NA
ATOM     26  O   UNL A   1      31.408  24.126  27.245  1.00  0.00    -0.451 OA
ATOM     27  C   UNL A   1      32.601  23.562  26.929  1.00  0.00     0.308 A 
ENDBRANCH  21  23
ENDBRANCH  13  21
ENDBRANCH   5   7
ENDBRANCH   3   5
ENDBRANCH   2   3
ENDBRANCH   1   2
BRANCH   1  28
ATOM     28  C   UNL A   1      33.332  34.627  29.573  1.00  0.00     0.275 C 
BRANCH  28  29
ATOM     29  O   UNL A   1      33.302  35.804  30.413  1.00  0.00    -0.458 OA
BRANCH  29  30
ATOM     30  C   UNL A   1      32.863  35.606  31.672  1.00  0.00     0.338 C 
ATOM     31  O   UNL A   1      31.727  35.796  32.097  1.00  0.00    -0.246 OA
BRANCH  30  32
ATOM     32  C   UNL A   1      33.912  35.058  32.554  1.00  0.00     0.060 A 
ATOM     33  C   UNL A   1      35.153  35.682  32.516  1.00  0.00     0.016 A 
ATOM     34  C   UNL A   1      33.804  33.772  33.107  1.00  0.00     0.016 A 
ATOM     35  C   UNL A   1      36.294  34.974  32.905  1.00  0.00     0.010 A 
ATOM     36  C   UNL A   1      34.964  33.076  33.529  1.00  0.00     0.010 A 
ATOM     37  C   UNL A   1      36.236  33.646  33.369  1.00  0.00    -0.014 A 
BRANCH  37  38
ATOM     38  C   UNL A   1      37.516  32.927  33.690  1.00  0.00     0.031 A 
ATOM     39  C   UNL A   1      38.282  33.093  34.988  1.00  0.00     0.074 A 
ATOM     40  C   UNL A   1      37.921  31.955  32.858  1.00  0.00     0.049 A 
ATOM     41  N   UNL A   1      39.458  32.653  35.372  1.00  0.00    -0.248 NA
ATOM     42  C   UNL A   1      37.594  33.832  36.035  1.00  0.00     0.031 C 
ATOM     43  C   UNL A   1      37.245  31.571  31.620  1.00  0.00     0.029 A 
ATOM     44  N   UNL A   1      38.982  31.096  32.953  1.00  0.00    -0.354 N 
ATOM     45  C   UNL A   1      39.629  33.087  36.692  1.00  0.00     0.074 A 
ATOM     46  C   UNL A   1      38.458  33.855  37.036  1.00  0.00     0.031 C 
ATOM     47  C   UNL A   1      37.893  30.531  31.081  1.00  0.00     0.029 A 
ATOM     48  C   UNL A   1      39.080  30.251  31.882  1.00  0.00     0.049 A 
ATOM     49  H   UNL A   1      39.609  31.088  33.712  1.00  0.00     0.167 HD
ATOM     50  C   UNL A   1      40.620  32.812  37.578  1.00  0.00     0.031 A 
ATOM     51  C   UNL A   1      40.054  29.393  31.539  1.00  0.00     0.031 A 
ATOM     52  C   UNL A   1      41.729  31.948  37.290  1.00  0.00     0.049 A 
ATOM     53  C   UNL A   1      41.242  29.227  32.432  1.00  0.00     0.074 A 
ATOM     54  C   UNL A   1      42.818  31.634  38.084  1.00  0.00     0.029 A 
ATOM     55  N   UNL A   1      41.852  31.217  36.124  1.00  0.00    -0.354 N 
ATOM     56  N   UNL A   1      41.481  29.775  33.598  1.00  0.00    -0.248 NA
ATOM     57  C   UNL A   1      42.303  28.337  31.950  1.00  0.00     0.031 C 
ATOM     58  C   UNL A   1      43.611  30.715  37.384  1.00  0.00     0.029 A 
ATOM     59  C   UNL A   1      42.997  30.447  36.171  1.00  0.00     0.049 A 
ATOM     60  H   UNL A   1      41.217  31.240  35.371  1.00  0.00     0.167 HD
ATOM     61  C   UNL A   1      42.720  29.291  33.994  1.00  0.00     0.074 A 
ATOM     62  C   UNL A   1      43.173  28.395  32.951  1.00  0.00     0.031 C 
ATOM     63  C   UNL A   1      43.426  29.569  35.118  1.00  0.00     0.031 A 
BRANCH  50  64
ATOM     64  C   UNL A   1      40.548  33.430  38.952  1.00  0.00    -0.014 A 
ATOM     65  C   UNL A   1      39.834  32.815  39.992  1.00  0.00     0.009 A 
ATOM     66  C   UNL A   1      41.258  34.611  39.228  1.00  0.00     0.009 A 
ATOM     67  C   UNL A   1      39.805  33.386  41.270  1.00  0.00     0.001 A 
ATOM     68  C   UNL A   1      41.244  35.168  40.510  1.00  0.00     0.001 A 
ATOM     69  C   UNL A   1      40.511  34.559  41.528  1.00  0.00     0.000 A 
ENDBRANCH  50  64
BRANCH  51  70
ATOM     70  C   UNL A   1      39.954  28.726  30.219  1.00  0.00    -0.014 A 
ATOM     71  C   UNL A   1      39.376  27.460  30.088  1.00  0.00     0.009 A 
ATOM     72  C   UNL A   1      40.348  29.426  29.062  1.00  0.00     0.009 A 
ATOM     73  C   UNL A   1      39.184  26.909  28.819  1.00  0.00     0.001 A 
ATOM     74  C   UNL A   1      40.123  28.888  27.798  1.00  0.00     0.001 A 
ATOM     75  C   UNL A   1      39.544  27.627  27.677  1.00  0.00     0.000 A 
ENDBRANCH  51  70
BRANCH  63  76
ATOM     76  C   UNL A   1      44.754  28.894  35.272  1.00  0.00    -0.014 A 
ATOM     77  C   UNL A   1      44.836  27.611  35.832  1.00  0.00     0.009 A 
ATOM     78  C   UNL A   1      45.919  29.524  34.815  1.00  0.00     0.009 A 
ATOM     79  C   UNL A   1      46.073  26.979  35.957  1.00  0.00     0.001 A 
ATOM     80  C   UNL A   1      47.152  28.880  34.922  1.00  0.00     0.001 A 
ATOM     81  C   UNL A   1      47.228  27.612  35.499  1.00  0.00     0.000 A 
ENDBRANCH  63  76
ENDBRANCH  37  38
ENDBRANCH  30  32
ENDBRANCH  29  30
ENDBRANCH  28  29
ENDBRANCH   1  28
TORSDOF 14
ENDMDL
MODEL 3
REMARK VINA RESULT:     -11.5      4.086      9.085
REMARK SMILES C[C@@H](C(=O)OCCOC(=O)c1ccc(-c2c3nc(c(-c4ccccc4)c4ccc([nH]4)c(-c4ccccc4)c4nc(c(-c5ccccc5)c5ccc2[nH]5)C=C4)C=C3)cc1)c1ccc2c3cc(Cl)ccc3n(C(=O)c3cocn3)c2c1
REMARK SMILES IDX 6 1 5 2 3 3 4 4 2 5 1 6 59 7 60 8 79 9 61 10 78 11 62 12
REMARK SMILES IDX 70 13 63 14 69 15 64 16 68 17 65 18 67 19 66 20 71 21 72 22
REMARK SMILES IDX 73 23 74 24 77 25 75 26 76 27 7 28 8 29 9 30 10 31 11 32
REMARK SMILES IDX 12 33 58 34 13 35 57 36 14 37 15 38 16 39 51 40 17 41 56 42
REMARK SMILES IDX 50 43 52 44 18 45 55 46 49 47 48 48 19 50 41 51 26 52 40 53
REMARK SMILES IDX 27 54 30 55 39 56 53 57 28 58 29 59 38 61 54 62 31 63 20 64
REMARK SMILES IDX 21 65 25 66 22 67 24 68 23 69 42 70 43 71 47 72 44 73 46 74
REMARK SMILES IDX 45 75 32 76 33 77 37 78 34 79 36 80 35 81
REMARK H PARENT 52 49 30 60
REMARK Flexibility Score: inf
ROOT
ATOM      1  C   UNL A   1      42.691  22.006  26.408  1.00  0.00     0.274 C 
ENDROOT
BRANCH   1   2
ATOM      2  O   UNL A   1      41.376  22.257  25.878  1.00  0.00    -0.462 OA
BRANCH   2   3
ATOM      3  C   UNL A   1      40.370  22.307  26.794  1.00  0.00     0.313 C 
ATOM      4  O   UNL A   1      40.399  21.739  27.872  1.00  0.00    -0.252 OA
BRANCH   3   5
ATOM      5  C   UNL A   1      39.176  23.145  26.314  1.00  0.00     0.126 C 
ATOM      6  C   UNL A   1      38.609  24.130  27.339  1.00  0.00     0.025 C 
BRANCH   5   7
ATOM      7  C   UNL A   1      38.117  22.207  25.752  1.00  0.00    -0.032 A 
ATOM      8  C   UNL A   1      38.513  20.926  25.352  1.00  0.00     0.005 A 
ATOM      9  C   UNL A   1      36.753  22.560  25.750  1.00  0.00     0.032 A 
ATOM     10  C   UNL A   1      37.571  19.966  25.002  1.00  0.00     0.011 A 
ATOM     11  C   UNL A   1      35.810  21.595  25.361  1.00  0.00     0.058 A 
ATOM     12  C   UNL A   1      36.204  20.301  25.019  1.00  0.00     0.008 A 
ATOM     13  N   UNL A   1      34.420  21.680  25.235  1.00  0.00    -0.274 N 
ATOM     14  C   UNL A   1      35.032  19.549  24.759  1.00  0.00     0.009 A 
ATOM     15  C   UNL A   1      33.950  20.433  24.786  1.00  0.00     0.057 A 
ATOM     16  C   UNL A   1      34.829  18.180  24.472  1.00  0.00     0.031 A 
ATOM     17  C   UNL A   1      32.676  19.996  24.382  1.00  0.00     0.029 A 
ATOM     18  C   UNL A   1      33.547  17.730  24.178  1.00  0.00     0.041 A 
ATOM     19  C   UNL A   1      32.491  18.629  24.103  1.00  0.00     0.023 A 
ATOM     20  Cl  UNL A   1      33.290  16.054  23.878  1.00  0.00    -0.084 Cl
BRANCH  13  21
ATOM     21  C   UNL A   1      33.702  22.907  25.225  1.00  0.00     0.284 C 
ATOM     22  O   UNL A   1      33.242  23.225  26.320  1.00  0.00    -0.266 OA
BRANCH  21  23
ATOM     23  C   UNL A   1      33.475  23.758  24.043  1.00  0.00     0.167 A 
ATOM     24  C   UNL A   1      34.360  24.223  23.102  1.00  0.00     0.231 A 
ATOM     25  N   UNL A   1      32.221  24.266  23.700  1.00  0.00    -0.211 NA
ATOM     26  O   UNL A   1      33.728  25.051  22.230  1.00  0.00    -0.451 OA
ATOM     27  C   UNL A   1      32.434  25.004  22.634  1.00  0.00     0.308 A 
ENDBRANCH  21  23
ENDBRANCH  13  21
ENDBRANCH   5   7
ENDBRANCH   3   5
ENDBRANCH   2   3
ENDBRANCH   1   2
BRANCH   1  28
ATOM     28  C   UNL A   1      43.766  22.735  25.599  1.00  0.00     0.275 C 
BRANCH  28  29
ATOM     29  O   UNL A   1      43.237  23.877  24.886  1.00  0.00    -0.458 OA
BRANCH  29  30
ATOM     30  C   UNL A   1      43.900  25.035  25.075  1.00  0.00     0.338 C 
ATOM     31  O   UNL A   1      45.028  25.314  24.678  1.00  0.00    -0.246 OA
BRANCH  30  32
ATOM     32  C   UNL A   1      43.093  26.034  25.802  1.00  0.00     0.060 A 
ATOM     33  C   UNL A   1      43.769  27.135  26.313  1.00  0.00     0.016 A 
ATOM     34  C   UNL A   1      41.812  25.726  26.287  1.00  0.00     0.016 A 
ATOM     35  C   UNL A   1      43.225  27.841  27.391  1.00  0.00     0.010 A 
ATOM     36  C   UNL A   1      41.256  26.469  27.358  1.00  0.00     0.010 A 
ATOM     37  C   UNL A   1      41.988  27.497  27.970  1.00  0.00    -0.014 A 
BRANCH  37  38
ATOM     38  C   UNL A   1      41.512  28.253  29.177  1.00  0.00     0.031 A 
ATOM     39  C   UNL A   1      40.316  29.186  29.179  1.00  0.00     0.074 A 
ATOM     40  C   UNL A   1      42.066  27.964  30.365  1.00  0.00     0.049 A 
ATOM     41  N   UNL A   1      39.849  30.009  30.091  1.00  0.00    -0.248 NA
ATOM     42  C   UNL A   1      39.488  29.151  27.983  1.00  0.00     0.031 C 
ATOM     43  C   UNL A   1      43.147  27.003  30.577  1.00  0.00     0.029 A 
ATOM     44  N   UNL A   1      41.766  28.428  31.617  1.00  0.00    -0.354 N 
ATOM     45  C   UNL A   1      38.693  30.582  29.548  1.00  0.00     0.074 A 
ATOM     46  C   UNL A   1      38.543  30.046  28.218  1.00  0.00     0.031 C 
ATOM     47  C   UNL A   1      43.405  26.928  31.888  1.00  0.00     0.029 A 
ATOM     48  C   UNL A   1      42.578  27.908  32.586  1.00  0.00     0.049 A 
ATOM     49  H   UNL A   1      41.043  29.069  31.800  1.00  0.00     0.167 HD
ATOM     50  C   UNL A   1      37.783  31.412  30.119  1.00  0.00     0.031 A 
ATOM     51  C   UNL A   1      42.701  28.231  33.884  1.00  0.00     0.031 A 
ATOM     52  C   UNL A   1      37.852  31.855  31.481  1.00  0.00     0.049 A 
ATOM     53  C   UNL A   1      41.816  29.285  34.470  1.00  0.00     0.074 A 
ATOM     54  C   UNL A   1      37.023  32.733  32.156  1.00  0.00     0.029 A 
ATOM     55  N   UNL A   1      38.787  31.400  32.392  1.00  0.00    -0.354 N 
ATOM     56  N   UNL A   1      40.839  29.951  33.903  1.00  0.00    -0.248 NA
ATOM     57  C   UNL A   1      42.065  29.644  35.869  1.00  0.00     0.031 C 
ATOM     58  C   UNL A   1      37.470  32.817  33.481  1.00  0.00     0.029 A 
ATOM     59  C   UNL A   1      38.559  31.974  33.627  1.00  0.00     0.049 A 
ATOM     60  H   UNL A   1      39.509  30.760  32.190  1.00  0.00     0.167 HD
ATOM     61  C   UNL A   1      40.350  30.806  34.882  1.00  0.00     0.074 A 
ATOM     62  C   UNL A   1      41.129  30.561  36.078  1.00  0.00     0.031 C 
ATOM     63  C   UNL A   1      39.351  31.718  34.797  1.00  0.00     0.031 A 
BRANCH  50  64
ATOM     64  C   UNL A   1      36.619  31.885  29.284  1.00  0.00    -0.014 A 
ATOM     65  C   UNL A   1      35.480  31.084  29.101  1.00  0.00     0.009 A 
ATOM     66  C   UNL A   1      36.633  33.173  28.726  1.00  0.00     0.009 A 
ATOM     67  C   UNL A   1      34.395  31.551  28.351  1.00  0.00     0.001 A 
ATOM     68  C   UNL A   1      35.540  33.646  27.993  1.00  0.00     0.001 A 
ATOM     69  C   UNL A   1      34.425  32.832  27.800  1.00  0.00     0.000 A 
ENDBRANCH  50  64
BRANCH  51  70
ATOM     70  C   UNL A   1      43.797  27.598  34.654  1.00  0.00    -0.014 A 
ATOM     71  C   UNL A   1      43.661  26.311  35.185  1.00  0.00     0.009 A 
ATOM     72  C   UNL A   1      45.037  28.257  34.757  1.00  0.00     0.009 A 
ATOM     73  C   UNL A   1      44.752  25.692  35.799  1.00  0.00     0.001 A 
ATOM     74  C   UNL A   1      46.131  27.622  35.340  1.00  0.00     0.001 A 
ATOM     75  C   UNL A   1      45.986  26.340  35.864  1.00  0.00     0.000 A 
ENDBRANCH  51  70
BRANCH  63  76
ATOM     76  C   UNL A   1      39.048  32.511  36.030  1.00  0.00    -0.014 A 
ATOM     77  C   UNL A   1      38.106  32.045  36.959  1.00  0.00     0.009 A 
ATOM     78  C   UNL A   1      39.738  33.704  36.286  1.00  0.00     0.009 A 
ATOM     79  C   UNL A   1      37.840  32.779  38.115  1.00  0.00     0.001 A 
ATOM     80  C   UNL A   1      39.484  34.424  37.453  1.00  0.00     0.001 A 
ATOM     81  C   UNL A   1      38.532  33.965  38.362  1.00  0.00     0.000 A 
ENDBRANCH  63  76
ENDBRANCH  37  38
ENDBRANCH  30  32
ENDBRANCH  29  30
ENDBRANCH  28  29
ENDBRANCH   1  28
TORSDOF 14
ENDMDL
