MODEL 1
REMARK VINA RESULT:      -9.4      0.000      0.000
REMARK SMILES O=C(Cc1ccc(-c2ccn(C(F)F)c(=O)c2)cc1)OCCOC(=O)c1ccc(-c2c3nc(c(-c4ccccc4)c4ccc([nH]4)c(-c4ccccc4)c4nc(c(-c5ccccc5)c5ccc2[nH]5)C=C4)C=C3)cc1
REMARK SMILES IDX 21 1 20 2 2 3 1 4 3 5 4 6 5 7 19 8 6 9 18 10 7 11 8 12 9 13
REMARK SMILES IDX 17 14 10 15 15 16 11 17 16 18 12 19 13 20 14 21 22 22 23 23
REMARK SMILES IDX 24 24 25 25 26 26 27 27 73 28 28 29 72 30 29 31 30 32 31 33
REMARK SMILES IDX 66 34 32 35 71 36 65 37 67 38 33 39 70 40 64 41 63 42 34 44
REMARK SMILES IDX 56 45 41 46 55 47 42 48 45 49 54 50 68 51 43 52 44 53 53 55
REMARK SMILES IDX 69 56 46 57 35 58 36 59 40 60 37 61 39 62 38 63 57 64 58 65
REMARK SMILES IDX 62 66 59 67 61 68 60 69 47 70 48 71 52 72 49 73 51 74 50 75
REMARK H PARENT 67 43 45 54
REMARK Flexibility Score: inf
ROOT
ATOM      1  C   UNL A   1      33.711  35.757  31.331  1.00  0.00     0.274 C 
ENDROOT
BRANCH   1   2
ATOM      2  O   UNL A   1      33.177  35.187  32.544  1.00  0.00    -0.462 OA
BRANCH   2   3
ATOM      3  C   UNL A   1      33.787  34.203  33.252  1.00  0.00     0.310 C 
ATOM      4  O   UNL A   1      33.349  33.055  33.218  1.00  0.00    -0.252 OA
BRANCH   3   5
ATOM      5  C   UNL A   1      34.939  34.580  34.157  1.00  0.00     0.158 C 
BRANCH   5   6
ATOM      6  C   UNL A   1      36.031  33.548  34.257  1.00  0.00    -0.037 A 
ATOM      7  C   UNL A   1      36.038  32.425  33.422  1.00  0.00     0.005 A 
ATOM      8  C   UNL A   1      37.096  33.740  35.147  1.00  0.00     0.005 A 
ATOM      9  C   UNL A   1      37.083  31.505  33.482  1.00  0.00     0.009 A 
ATOM     10  C   UNL A   1      38.144  32.821  35.205  1.00  0.00     0.009 A 
ATOM     11  C   UNL A   1      38.145  31.694  34.374  1.00  0.00    -0.018 A 
BRANCH  11  12
ATOM     12  C   UNL A   1      39.221  30.693  34.484  1.00  0.00    -0.011 A 
ATOM     13  C   UNL A   1      39.453  29.697  33.455  1.00  0.00     0.027 A 
ATOM     14  C   UNL A   1      40.024  30.716  35.563  1.00  0.00     0.080 A 
ATOM     15  C   UNL A   1      40.455  28.820  33.570  1.00  0.00     0.095 A 
ATOM     16  C   UNL A   1      41.149  29.750  35.701  1.00  0.00     0.255 A 
ATOM     17  N   UNL A   1      41.293  28.839  34.667  1.00  0.00    -0.258 N 
ATOM     18  O   UNL A   1      41.864  29.826  36.695  1.00  0.00    -0.269 OA
BRANCH  17  19
ATOM     19  C   UNL A   1      42.379  27.900  34.771  1.00  0.00     0.451 C 
ATOM     20  F   UNL A   1      42.136  26.980  35.737  1.00  0.00    -0.185 F 
ATOM     21  F   UNL A   1      42.570  27.243  33.602  1.00  0.00    -0.185 F 
ENDBRANCH  17  19
ENDBRANCH  11  12
ENDBRANCH   5   6
ENDBRANCH   3   5
ENDBRANCH   2   3
ENDBRANCH   1   2
BRANCH   1  22
ATOM     22  C   UNL A   1      32.640  35.927  30.252  1.00  0.00     0.275 C 
BRANCH  22  23
ATOM     23  O   UNL A   1      33.212  35.763  28.944  1.00  0.00    -0.458 OA
BRANCH  23  24
ATOM     24  C   UNL A   1      33.183  34.497  28.454  1.00  0.00     0.338 C 
ATOM     25  O   UNL A   1      32.339  34.014  27.727  1.00  0.00    -0.246 OA
BRANCH  24  26
ATOM     26  C   UNL A   1      34.461  33.822  28.784  1.00  0.00     0.060 A 
ATOM     27  C   UNL A   1      34.423  32.775  29.715  1.00  0.00     0.016 A 
ATOM     28  C   UNL A   1      35.668  34.173  28.171  1.00  0.00     0.016 A 
ATOM     29  C   UNL A   1      35.591  32.081  30.038  1.00  0.00     0.010 A 
ATOM     30  C   UNL A   1      36.839  33.487  28.507  1.00  0.00     0.010 A 
ATOM     31  C   UNL A   1      36.809  32.447  29.451  1.00  0.00    -0.014 A 
BRANCH  31  32
ATOM     32  C   UNL A   1      38.073  31.816  29.895  1.00  0.00     0.031 A 
ATOM     33  C   UNL A   1      38.977  32.569  30.828  1.00  0.00     0.074 A 
ATOM     34  C   UNL A   1      38.430  30.597  29.451  1.00  0.00     0.049 A 
ATOM     35  N   UNL A   1      40.147  32.225  31.302  1.00  0.00    -0.248 NA
ATOM     36  C   UNL A   1      38.501  33.885  31.287  1.00  0.00     0.031 C 
ATOM     37  C   UNL A   1      37.638  29.751  28.561  1.00  0.00     0.029 A 
ATOM     38  N   UNL A   1      39.571  29.868  29.682  1.00  0.00    -0.354 N 
ATOM     39  C   UNL A   1      40.547  33.276  32.115  1.00  0.00     0.074 A 
ATOM     40  C   UNL A   1      39.506  34.279  32.057  1.00  0.00     0.031 C 
ATOM     41  C   UNL A   1      38.327  28.625  28.302  1.00  0.00     0.029 A 
ATOM     42  C   UNL A   1      39.618  28.685  28.985  1.00  0.00     0.049 A 
ATOM     43  H   UNL A   1      40.287  30.165  30.288  1.00  0.00     0.167 HD
ATOM     44  C   UNL A   1      41.679  33.396  32.847  1.00  0.00     0.031 A 
ATOM     45  C   UNL A   1      40.603  27.770  28.888  1.00  0.00     0.031 A 
ATOM     46  C   UNL A   1      42.727  32.416  32.896  1.00  0.00     0.049 A 
ATOM     47  C   UNL A   1      41.893  27.978  29.637  1.00  0.00     0.074 A 
ATOM     48  C   UNL A   1      43.888  32.436  33.651  1.00  0.00     0.029 A 
ATOM     49  N   UNL A   1      42.755  31.253  32.147  1.00  0.00    -0.354 N 
ATOM     50  N   UNL A   1      42.226  28.942  30.462  1.00  0.00    -0.248 NA
ATOM     51  C   UNL A   1      42.947  26.971  29.435  1.00  0.00     0.031 C 
ATOM     52  C   UNL A   1      44.648  31.311  33.313  1.00  0.00     0.029 A 
ATOM     53  C   UNL A   1      43.935  30.571  32.383  1.00  0.00     0.049 A 
ATOM     54  H   UNL A   1      42.041  30.956  31.536  1.00  0.00     0.167 HD
ATOM     55  C   UNL A   1      43.515  28.646  30.889  1.00  0.00     0.074 A 
ATOM     56  C   UNL A   1      43.900  27.408  30.248  1.00  0.00     0.031 C 
ATOM     57  C   UNL A   1      44.310  29.341  31.737  1.00  0.00     0.031 A 
BRANCH  44  58
ATOM     58  C   UNL A   1      41.858  34.656  33.639  1.00  0.00    -0.014 A 
ATOM     59  C   UNL A   1      41.316  34.784  34.926  1.00  0.00     0.009 A 
ATOM     60  C   UNL A   1      42.634  35.701  33.115  1.00  0.00     0.009 A 
ATOM     61  C   UNL A   1      41.532  35.946  35.669  1.00  0.00     0.001 A 
ATOM     62  C   UNL A   1      42.864  36.854  33.867  1.00  0.00     0.001 A 
ATOM     63  C   UNL A   1      42.311  36.977  35.141  1.00  0.00     0.000 A 
ENDBRANCH  44  58
BRANCH  45  64
ATOM     64  C   UNL A   1      40.444  26.585  28.006  1.00  0.00    -0.014 A 
ATOM     65  C   UNL A   1      39.835  25.414  28.483  1.00  0.00     0.009 A 
ATOM     66  C   UNL A   1      40.963  26.599  26.703  1.00  0.00     0.009 A 
ATOM     67  C   UNL A   1      39.781  24.271  27.683  1.00  0.00     0.001 A 
ATOM     68  C   UNL A   1      40.884  25.463  25.895  1.00  0.00     0.001 A 
ATOM     69  C   UNL A   1      40.304  24.296  26.390  1.00  0.00     0.000 A 
ENDBRANCH  45  64
BRANCH  57  70
ATOM     70  C   UNL A   1      45.668  28.776  32.036  1.00  0.00    -0.014 A 
ATOM     71  C   UNL A   1      46.786  29.140  31.269  1.00  0.00     0.009 A 
ATOM     72  C   UNL A   1      45.843  27.914  33.129  1.00  0.00     0.009 A 
ATOM     73  C   UNL A   1      48.049  28.633  31.580  1.00  0.00     0.001 A 
ATOM     74  C   UNL A   1      47.111  27.429  33.453  1.00  0.00     0.001 A 
ATOM     75  C   UNL A   1      48.211  27.783  32.674  1.00  0.00     0.000 A 
ENDBRANCH  57  70
ENDBRANCH  31  32
ENDBRANCH  24  26
ENDBRANCH  23  24
ENDBRANCH  22  23
ENDBRANCH   1  22
TORSDOF 14
ENDMDL
MODEL 2
REMARK VINA RESULT:      -9.0      5.513     11.691
REMARK SMILES O=C(Cc1ccc(-c2ccn(C(F)F)c(=O)c2)cc1)OCCOC(=O)c1ccc(-c2c3nc(c(-c4ccccc4)c4ccc([nH]4)c(-c4ccccc4)c4nc(c(-c5ccccc5)c5ccc2[nH]5)C=C4)C=C3)cc1
REMARK SMILES IDX 21 1 20 2 2 3 1 4 3 5 4 6 5 7 19 8 6 9 18 10 7 11 8 12 9 13
REMARK SMILES IDX 17 14 10 15 15 16 11 17 16 18 12 19 13 20 14 21 22 22 23 23
REMARK SMILES IDX 24 24 25 25 26 26 27 27 73 28 28 29 72 30 29 31 30 32 31 33
REMARK SMILES IDX 66 34 32 35 71 36 65 37 67 38 33 39 70 40 64 41 63 42 34 44
REMARK SMILES IDX 56 45 41 46 55 47 42 48 45 49 54 50 68 51 43 52 44 53 53 55
REMARK SMILES IDX 69 56 46 57 35 58 36 59 40 60 37 61 39 62 38 63 57 64 58 65
REMARK SMILES IDX 62 66 59 67 61 68 60 69 47 70 48 71 52 72 49 73 51 74 50 75
REMARK H PARENT 67 43 45 54
REMARK Flexibility Score: inf
ROOT
ATOM      1  C   UNL A   1      44.121  21.349  25.399  1.00  0.00     0.274 C 
ENDROOT
BRANCH   1   2
ATOM      2  O   UNL A   1      43.389  20.169  25.009  1.00  0.00    -0.462 OA
BRANCH   2   3
ATOM      3  C   UNL A   1      42.684  19.395  25.871  1.00  0.00     0.310 C 
ATOM      4  O   UNL A   1      42.723  18.170  25.776  1.00  0.00    -0.252 OA
BRANCH   3   5
ATOM      5  C   UNL A   1      41.774  20.079  26.867  1.00  0.00     0.158 C 
BRANCH   5   6
ATOM      6  C   UNL A   1      40.407  20.432  26.342  1.00  0.00    -0.037 A 
ATOM      7  C   UNL A   1      39.937  21.749  26.393  1.00  0.00     0.005 A 
ATOM      8  C   UNL A   1      39.617  19.451  25.729  1.00  0.00     0.005 A 
ATOM      9  C   UNL A   1      38.695  22.078  25.852  1.00  0.00     0.009 A 
ATOM     10  C   UNL A   1      38.376  19.781  25.184  1.00  0.00     0.009 A 
ATOM     11  C   UNL A   1      37.903  21.097  25.243  1.00  0.00    -0.018 A 
BRANCH  11  12
ATOM     12  C   UNL A   1      36.564  21.428  24.725  1.00  0.00    -0.011 A 
ATOM     13  C   UNL A   1      35.408  20.594  24.991  1.00  0.00     0.027 A 
ATOM     14  C   UNL A   1      36.406  22.549  23.998  1.00  0.00     0.080 A 
ATOM     15  C   UNL A   1      34.201  20.935  24.532  1.00  0.00     0.095 A 
ATOM     16  C   UNL A   1      35.065  22.947  23.486  1.00  0.00     0.255 A 
ATOM     17  N   UNL A   1      34.022  22.089  23.793  1.00  0.00    -0.258 N 
ATOM     18  O   UNL A   1      34.972  23.989  22.844  1.00  0.00    -0.269 OA
BRANCH  17  19
ATOM     19  C   UNL A   1      32.714  22.455  23.317  1.00  0.00     0.451 C 
ATOM     20  F   UNL A   1      32.031  21.366  22.887  1.00  0.00    -0.185 F 
ATOM     21  F   UNL A   1      31.988  23.049  24.294  1.00  0.00    -0.185 F 
ENDBRANCH  17  19
ENDBRANCH  11  12
ENDBRANCH   5   6
ENDBRANCH   3   5
ENDBRANCH   2   3
ENDBRANCH   1   2
BRANCH   1  22
ATOM     22  C   UNL A   1      44.194  22.382  24.274  1.00  0.00     0.275 C 
BRANCH  22  23
ATOM     23  O   UNL A   1      43.536  23.600  24.664  1.00  0.00    -0.458 OA
BRANCH  23  24
ATOM     24  C   UNL A   1      44.357  24.584  25.113  1.00  0.00     0.338 C 
ATOM     25  O   UNL A   1      45.391  24.962  24.601  1.00  0.00    -0.246 OA
BRANCH  24  26
ATOM     26  C   UNL A   1      43.700  25.281  26.244  1.00  0.00     0.060 A 
ATOM     27  C   UNL A   1      44.026  26.627  26.457  1.00  0.00     0.016 A 
ATOM     28  C   UNL A   1      42.754  24.650  27.058  1.00  0.00     0.016 A 
ATOM     29  C   UNL A   1      43.412  27.343  27.486  1.00  0.00     0.010 A 
ATOM     30  C   UNL A   1      42.152  25.365  28.098  1.00  0.00     0.010 A 
ATOM     31  C   UNL A   1      42.486  26.710  28.325  1.00  0.00    -0.014 A 
BRANCH  31  32
ATOM     32  C   UNL A   1      41.940  27.417  29.506  1.00  0.00     0.031 A 
ATOM     33  C   UNL A   1      40.665  28.198  29.366  1.00  0.00     0.074 A 
ATOM     34  C   UNL A   1      42.585  27.390  30.687  1.00  0.00     0.049 A 
ATOM     35  N   UNL A   1      40.040  28.927  30.256  1.00  0.00    -0.248 NA
ATOM     36  C   UNL A   1      40.008  28.156  28.049  1.00  0.00     0.031 C 
ATOM     37  C   UNL A   1      43.818  26.656  30.965  1.00  0.00     0.029 A 
ATOM     38  N   UNL A   1      42.294  28.020  31.872  1.00  0.00    -0.354 N 
ATOM     39  C   UNL A   1      38.917  29.426  29.610  1.00  0.00     0.074 A 
ATOM     40  C   UNL A   1      38.955  28.935  28.249  1.00  0.00     0.031 C 
ATOM     41  C   UNL A   1      44.191  26.894  32.235  1.00  0.00     0.029 A 
ATOM     42  C   UNL A   1      43.238  27.819  32.848  1.00  0.00     0.049 A 
ATOM     43  H   UNL A   1      41.484  28.564  32.008  1.00  0.00     0.167 HD
ATOM     44  C   UNL A   1      37.941  30.221  30.105  1.00  0.00     0.031 A 
ATOM     45  C   UNL A   1      43.337  28.344  34.086  1.00  0.00     0.031 A 
ATOM     46  C   UNL A   1      37.905  30.730  31.448  1.00  0.00     0.049 A 
ATOM     47  C   UNL A   1      42.286  29.305  34.576  1.00  0.00     0.074 A 
ATOM     48  C   UNL A   1      36.925  31.504  32.048  1.00  0.00     0.029 A 
ATOM     49  N   UNL A   1      38.898  30.537  32.391  1.00  0.00    -0.354 N 
ATOM     50  N   UNL A   1      41.190  29.709  33.980  1.00  0.00    -0.248 NA
ATOM     51  C   UNL A   1      42.491  29.888  35.912  1.00  0.00     0.031 C 
ATOM     52  C   UNL A   1      37.355  31.829  33.338  1.00  0.00     0.029 A 
ATOM     53  C   UNL A   1      38.580  31.217  33.554  1.00  0.00     0.049 A 
ATOM     54  H   UNL A   1      39.710  29.996  32.255  1.00  0.00     0.167 HD
ATOM     55  C   UNL A   1      40.569  30.574  34.874  1.00  0.00     0.074 A 
ATOM     56  C   UNL A   1      41.398  30.625  36.058  1.00  0.00     0.031 C 
ATOM     57  C   UNL A   1      39.414  31.265  34.724  1.00  0.00     0.031 A 
BRANCH  44  58
ATOM     58  C   UNL A   1      36.835  30.618  29.174  1.00  0.00    -0.014 A 
ATOM     59  C   UNL A   1      35.832  29.706  28.814  1.00  0.00     0.009 A 
ATOM     60  C   UNL A   1      36.763  31.938  28.705  1.00  0.00     0.009 A 
ATOM     61  C   UNL A   1      34.784  30.106  27.983  1.00  0.00     0.001 A 
ATOM     62  C   UNL A   1      35.704  32.340  27.890  1.00  0.00     0.001 A 
ATOM     63  C   UNL A   1      34.718  31.424  27.527  1.00  0.00     0.000 A 
ENDBRANCH  44  58
BRANCH  45  64
ATOM     64  C   UNL A   1      44.503  28.023  34.948  1.00  0.00    -0.014 A 
ATOM     65  C   UNL A   1      45.679  28.785  34.875  1.00  0.00     0.009 A 
ATOM     66  C   UNL A   1      44.468  26.907  35.798  1.00  0.00     0.009 A 
ATOM     67  C   UNL A   1      46.806  28.416  35.612  1.00  0.00     0.001 A 
ATOM     68  C   UNL A   1      45.588  26.555  36.553  1.00  0.00     0.001 A 
ATOM     69  C   UNL A   1      46.760  27.302  36.451  1.00  0.00     0.000 A 
ENDBRANCH  45  64
BRANCH  57  70
ATOM     70  C   UNL A   1      38.967  32.125  35.870  1.00  0.00    -0.014 A 
ATOM     71  C   UNL A   1      39.364  33.468  35.964  1.00  0.00     0.009 A 
ATOM     72  C   UNL A   1      38.094  31.604  36.839  1.00  0.00     0.009 A 
ATOM     73  C   UNL A   1      38.913  34.265  37.017  1.00  0.00     0.001 A 
ATOM     74  C   UNL A   1      37.625  32.411  37.876  1.00  0.00     0.001 A 
ATOM     75  C   UNL A   1      38.040  33.738  37.968  1.00  0.00     0.000 A 
ENDBRANCH  57  70
ENDBRANCH  31  32
ENDBRANCH  24  26
ENDBRANCH  23  24
ENDBRANCH  22  23
ENDBRANCH   1  22
TORSDOF 14
ENDMDL
MODEL 3
REMARK VINA RESULT:      -8.9      5.543     11.438
REMARK SMILES O=C(Cc1ccc(-c2ccn(C(F)F)c(=O)c2)cc1)OCCOC(=O)c1ccc(-c2c3nc(c(-c4ccccc4)c4ccc([nH]4)c(-c4ccccc4)c4nc(c(-c5ccccc5)c5ccc2[nH]5)C=C4)C=C3)cc1
REMARK SMILES IDX 21 1 20 2 2 3 1 4 3 5 4 6 5 7 19 8 6 9 18 10 7 11 8 12 9 13
REMARK SMILES IDX 17 14 10 15 15 16 11 17 16 18 12 19 13 20 14 21 22 22 23 23
REMARK SMILES IDX 24 24 25 25 26 26 27 27 73 28 28 29 72 30 29 31 30 32 31 33
REMARK SMILES IDX 66 34 32 35 71 36 65 37 67 38 33 39 70 40 64 41 63 42 34 44
REMARK SMILES IDX 56 45 41 46 55 47 42 48 45 49 54 50 68 51 43 52 44 53 53 55
REMARK SMILES IDX 69 56 46 57 35 58 36 59 40 60 37 61 39 62 38 63 57 64 58 65
REMARK SMILES IDX 62 66 59 67 61 68 60 69 47 70 48 71 52 72 49 73 51 74 50 75
REMARK H PARENT 67 43 45 54
REMARK Flexibility Score: inf
ROOT
ATOM      1  C   UNL A   1      44.067  21.029  25.372  1.00  0.00     0.274 C 
ENDROOT
BRANCH   1   2
ATOM      2  O   UNL A   1      43.415  19.783  25.047  1.00  0.00    -0.462 OA
BRANCH   2   3
ATOM      3  C   UNL A   1      42.661  19.073  25.922  1.00  0.00     0.310 C 
ATOM      4  O   UNL A   1      42.653  17.844  25.875  1.00  0.00    -0.252 OA
BRANCH   3   5
ATOM      5  C   UNL A   1      41.758  19.830  26.870  1.00  0.00     0.158 C 
BRANCH   5   6
ATOM      6  C   UNL A   1      40.455  20.291  26.274  1.00  0.00    -0.037 A 
ATOM      7  C   UNL A   1      39.584  19.383  25.659  1.00  0.00     0.005 A 
ATOM      8  C   UNL A   1      40.067  21.632  26.390  1.00  0.00     0.005 A 
ATOM      9  C   UNL A   1      38.354  19.809  25.161  1.00  0.00     0.009 A 
ATOM     10  C   UNL A   1      38.834  22.058  25.894  1.00  0.00     0.009 A 
ATOM     11  C   UNL A   1      37.968  21.150  25.274  1.00  0.00    -0.018 A 
BRANCH  11  12
ATOM     12  C   UNL A   1      36.695  21.616  24.694  1.00  0.00    -0.011 A 
ATOM     13  C   UNL A   1      36.642  22.691  23.722  1.00  0.00     0.027 A 
ATOM     14  C   UNL A   1      35.552  21.013  25.064  1.00  0.00     0.080 A 
ATOM     15  C   UNL A   1      35.475  23.073  23.192  1.00  0.00     0.095 A 
ATOM     16  C   UNL A   1      34.246  21.422  24.477  1.00  0.00     0.255 A 
ATOM     17  N   UNL A   1      34.294  22.455  23.556  1.00  0.00    -0.258 N 
ATOM     18  O   UNL A   1      33.234  20.827  24.835  1.00  0.00    -0.269 OA
BRANCH  17  19
ATOM     19  C   UNL A   1      33.046  22.864  22.966  1.00  0.00     0.451 C 
ATOM     20  F   UNL A   1      32.239  23.441  23.889  1.00  0.00    -0.185 F 
ATOM     21  F   UNL A   1      33.248  23.755  21.965  1.00  0.00    -0.185 F 
ENDBRANCH  17  19
ENDBRANCH  11  12
ENDBRANCH   5   6
ENDBRANCH   3   5
ENDBRANCH   2   3
ENDBRANCH   1   2
BRANCH   1  22
ATOM     22  C   UNL A   1      44.074  22.002  24.191  1.00  0.00     0.275 C 
BRANCH  22  23
ATOM     23  O   UNL A   1      43.515  23.269  24.579  1.00  0.00    -0.458 OA
BRANCH  23  24
ATOM     24  C   UNL A   1      44.412  24.189  25.017  1.00  0.00     0.338 C 
ATOM     25  O   UNL A   1      45.508  24.420  24.549  1.00  0.00    -0.246 OA
BRANCH  24  26
ATOM     26  C   UNL A   1      43.774  25.026  26.061  1.00  0.00     0.060 A 
ATOM     27  C   UNL A   1      44.152  26.373  26.136  1.00  0.00     0.016 A 
ATOM     28  C   UNL A   1      42.797  24.522  26.924  1.00  0.00     0.016 A 
ATOM     29  C   UNL A   1      43.558  27.217  27.077  1.00  0.00     0.010 A 
ATOM     30  C   UNL A   1      42.214  25.364  27.876  1.00  0.00     0.010 A 
ATOM     31  C   UNL A   1      42.600  26.712  27.965  1.00  0.00    -0.014 A 
BRANCH  31  32
ATOM     32  C   UNL A   1      42.073  27.560  29.059  1.00  0.00     0.031 A 
ATOM     33  C   UNL A   1      42.747  27.524  30.401  1.00  0.00     0.074 A 
ATOM     34  C   UNL A   1      40.989  28.334  28.872  1.00  0.00     0.049 A 
ATOM     35  N   UNL A   1      42.424  28.148  31.505  1.00  0.00    -0.248 NA
ATOM     36  C   UNL A   1      43.943  26.672  30.515  1.00  0.00     0.031 C 
ATOM     37  C   UNL A   1      40.253  28.477  27.617  1.00  0.00     0.029 A 
ATOM     38  N   UNL A   1      40.307  29.134  29.755  1.00  0.00    -0.354 N 
ATOM     39  C   UNL A   1      43.373  27.768  32.443  1.00  0.00     0.074 A 
ATOM     40  C   UNL A   1      44.275  26.845  31.786  1.00  0.00     0.031 C 
ATOM     41  C   UNL A   1      39.207  29.299  27.817  1.00  0.00     0.029 A 
ATOM     42  C   UNL A   1      39.185  29.716  29.218  1.00  0.00     0.049 A 
ATOM     43  H   UNL A   1      40.595  29.277  30.686  1.00  0.00     0.167 HD
ATOM     44  C   UNL A   1      43.487  28.153  33.735  1.00  0.00     0.031 A 
ATOM     45  C   UNL A   1      38.234  30.474  29.798  1.00  0.00     0.031 A 
ATOM     46  C   UNL A   1      42.586  29.052  34.401  1.00  0.00     0.049 A 
ATOM     47  C   UNL A   1      38.334  30.806  31.264  1.00  0.00     0.074 A 
ATOM     48  C   UNL A   1      42.656  29.534  35.698  1.00  0.00     0.029 A 
ATOM     49  N   UNL A   1      41.443  29.586  33.835  1.00  0.00    -0.354 N 
ATOM     50  N   UNL A   1      39.279  30.501  32.120  1.00  0.00    -0.248 NA
ATOM     51  C   UNL A   1      37.228  31.585  31.844  1.00  0.00     0.031 C 
ATOM     52  C   UNL A   1      41.520  30.314  35.934  1.00  0.00     0.029 A 
ATOM     53  C   UNL A   1      40.771  30.354  34.769  1.00  0.00     0.049 A 
ATOM     54  H   UNL A   1      41.151  29.441  32.905  1.00  0.00     0.167 HD
ATOM     55  C   UNL A   1      38.891  31.066  33.329  1.00  0.00     0.074 A 
ATOM     56  C   UNL A   1      37.636  31.745  33.096  1.00  0.00     0.031 C 
ATOM     57  C   UNL A   1      39.521  31.022  34.528  1.00  0.00     0.031 A 
BRANCH  44  58
ATOM     58  C   UNL A   1      44.619  27.576  34.530  1.00  0.00    -0.014 A 
ATOM     59  C   UNL A   1      44.456  26.392  35.264  1.00  0.00     0.009 A 
ATOM     60  C   UNL A   1      45.880  28.191  34.491  1.00  0.00     0.009 A 
ATOM     61  C   UNL A   1      45.534  25.843  35.962  1.00  0.00     0.001 A 
ATOM     62  C   UNL A   1      46.959  27.630  35.175  1.00  0.00     0.001 A 
ATOM     63  C   UNL A   1      46.785  26.459  35.911  1.00  0.00     0.000 A 
ENDBRANCH  44  58
BRANCH  45  64
ATOM     64  C   UNL A   1      37.061  30.940  29.013  1.00  0.00    -0.014 A 
ATOM     65  C   UNL A   1      36.946  32.284  28.627  1.00  0.00     0.009 A 
ATOM     66  C   UNL A   1      36.019  30.053  28.707  1.00  0.00     0.009 A 
ATOM     67  C   UNL A   1      35.795  32.736  27.980  1.00  0.00     0.001 A 
ATOM     68  C   UNL A   1      34.879  30.502  28.036  1.00  0.00     0.001 A 
ATOM     69  C   UNL A   1      34.763  31.845  27.684  1.00  0.00     0.000 A 
ENDBRANCH  45  64
BRANCH  57  70
ATOM     70  C   UNL A   1      38.874  31.740  35.677  1.00  0.00    -0.014 A 
ATOM     71  C   UNL A   1      38.102  31.044  36.621  1.00  0.00     0.009 A 
ATOM     72  C   UNL A   1      39.084  33.117  35.851  1.00  0.00     0.009 A 
ATOM     73  C   UNL A   1      37.536  31.719  37.703  1.00  0.00     0.001 A 
ATOM     74  C   UNL A   1      38.537  33.784  36.948  1.00  0.00     0.001 A 
ATOM     75  C   UNL A   1      37.758  33.086  37.869  1.00  0.00     0.000 A 
ENDBRANCH  57  70
ENDBRANCH  31  32
ENDBRANCH  24  26
ENDBRANCH  23  24
ENDBRANCH  22  23
ENDBRANCH   1  22
TORSDOF 14
ENDMDL
