MODEL 1
REMARK VINA RESULT:     -10.6      0.000      0.000
REMARK SMILES C/C(=C\CN1CC(=O)N2CCC[C@H]2C1=O)C(=O)OCCOC(=O)c1ccc(-c2c3nc(c(-c4ccccc4)c4ccc([nH]4)c(-c4ccccc4)c4nc(c(-c5ccccc5)c5ccc2[nH]5)C=C4)C=C3)cc1
REMARK SMILES IDX 19 1 18 2 16 3 17 4 2 5 1 6 3 7 4 8 5 9 6 10 14 11 7 12
REMARK SMILES IDX 13 13 15 14 8 15 9 16 12 17 10 18 11 19 20 20 21 21 22 22
REMARK SMILES IDX 23 23 24 24 25 25 71 26 26 27 70 28 27 29 28 30 29 31 64 32
REMARK SMILES IDX 30 33 69 34 63 35 65 36 31 37 68 38 62 39 61 40 32 42 54 43
REMARK SMILES IDX 39 44 53 45 40 46 43 47 52 48 66 49 41 50 42 51 51 53 67 54
REMARK SMILES IDX 44 55 33 56 34 57 38 58 35 59 37 60 36 61 55 62 56 63 60 64
REMARK SMILES IDX 57 65 59 66 58 67 45 68 46 69 50 70 47 71 49 72 48 73
REMARK H PARENT 65 41 43 52
REMARK Flexibility Score: inf
ROOT
ATOM      1  C   UNL A   1      35.283  21.093  25.577  1.00  0.00     0.275 C 
ENDROOT
BRANCH   1   2
ATOM      2  O   UNL A   1      34.418  21.594  24.538  1.00  0.00    -0.459 OA
BRANCH   2   3
ATOM      3  C   UNL A   1      33.097  21.315  24.670  1.00  0.00     0.333 C 
ATOM      4  O   UNL A   1      32.598  20.201  24.718  1.00  0.00    -0.247 OA
BRANCH   3   5
ATOM      5  C   UNL A   1      32.300  22.565  24.830  1.00  0.00     0.032 C 
ATOM      6  C   UNL A   1      31.067  22.457  25.676  1.00  0.00     0.052 C 
ATOM      7  C   UNL A   1      32.693  23.670  24.171  1.00  0.00     0.005 C 
BRANCH   7   8
ATOM      8  C   UNL A   1      31.996  24.990  24.151  1.00  0.00     0.148 C 
BRANCH   8   9
ATOM      9  N   UNL A   1      32.717  26.022  24.878  1.00  0.00    -0.328 N 
ATOM     10  C   UNL A   1      33.817  26.795  24.267  1.00  0.00     0.220 C 
ATOM     11  C   UNL A   1      32.179  26.456  26.098  1.00  0.00     0.246 C 
ATOM     12  C   UNL A   1      33.425  28.269  24.190  1.00  0.00     0.242 C 
ATOM     13  C   UNL A   1      32.671  27.850  26.520  1.00  0.00     0.174 C 
ATOM     14  O   UNL A   1      31.443  25.767  26.798  1.00  0.00    -0.272 OA
ATOM     15  O   UNL A   1      33.745  29.009  23.267  1.00  0.00    -0.273 OA
ATOM     16  N   UNL A   1      32.771  28.691  25.327  1.00  0.00    -0.329 N 
ATOM     17  C   UNL A   1      31.693  28.616  27.407  1.00  0.00     0.037 C 
ATOM     18  C   UNL A   1      32.169  29.991  25.500  1.00  0.00     0.120 C 
ATOM     19  C   UNL A   1      31.909  30.073  26.997  1.00  0.00     0.024 C 
ENDBRANCH   8   9
ENDBRANCH   7   8
ENDBRANCH   3   5
ENDBRANCH   2   3
ENDBRANCH   1   2
BRANCH   1  20
ATOM     20  C   UNL A   1      36.500  20.383  24.986  1.00  0.00     0.275 C 
BRANCH  20  21
ATOM     21  O   UNL A   1      37.615  21.289  24.917  1.00  0.00    -0.458 OA
BRANCH  21  22
ATOM     22  C   UNL A   1      38.702  20.936  25.638  1.00  0.00     0.338 C 
ATOM     23  O   UNL A   1      39.200  19.830  25.754  1.00  0.00    -0.246 OA
BRANCH  22  24
ATOM     24  C   UNL A   1      39.289  22.137  26.250  1.00  0.00     0.060 A 
ATOM     25  C   UNL A   1      38.699  23.368  25.979  1.00  0.00     0.016 A 
ATOM     26  C   UNL A   1      40.491  22.072  26.950  1.00  0.00     0.016 A 
ATOM     27  C   UNL A   1      39.347  24.548  26.322  1.00  0.00     0.010 A 
ATOM     28  C   UNL A   1      41.099  23.259  27.375  1.00  0.00     0.010 A 
ATOM     29  C   UNL A   1      40.555  24.511  27.031  1.00  0.00    -0.014 A 
BRANCH  29  30
ATOM     30  C   UNL A   1      41.262  25.781  27.354  1.00  0.00     0.031 A 
ATOM     31  C   UNL A   1      40.650  26.764  28.317  1.00  0.00     0.074 A 
ATOM     32  C   UNL A   1      42.473  26.041  26.823  1.00  0.00     0.049 A 
ATOM     33  N   UNL A   1      41.045  27.975  28.627  1.00  0.00    -0.248 NA
ATOM     34  C   UNL A   1      39.430  26.335  29.020  1.00  0.00     0.031 C 
ATOM     35  C   UNL A   1      43.217  25.155  25.926  1.00  0.00     0.029 A 
ATOM     36  N   UNL A   1      43.302  27.125  26.980  1.00  0.00    -0.354 N 
ATOM     37  C   UNL A   1      40.096  28.469  29.513  1.00  0.00     0.074 A 
ATOM     38  C   UNL A   1      39.104  27.431  29.691  1.00  0.00     0.031 C 
ATOM     39  C   UNL A   1      44.409  25.707  25.651  1.00  0.00     0.029 A 
ATOM     40  C   UNL A   1      44.480  27.021  26.281  1.00  0.00     0.049 A 
ATOM     41  H   UNL A   1      43.074  27.902  27.540  1.00  0.00     0.167 HD
ATOM     42  C   UNL A   1      40.051  29.680  30.119  1.00  0.00     0.031 A 
ATOM     43  C   UNL A   1      45.493  27.895  26.131  1.00  0.00     0.031 A 
ATOM     44  C   UNL A   1      41.055  30.699  29.976  1.00  0.00     0.049 A 
ATOM     45  C   UNL A   1      45.401  29.244  26.782  1.00  0.00     0.074 A 
ATOM     46  C   UNL A   1      41.095  31.958  30.551  1.00  0.00     0.029 A 
ATOM     47  N   UNL A   1      42.207  30.569  29.218  1.00  0.00    -0.354 N 
ATOM     48  N   UNL A   1      44.464  29.723  27.562  1.00  0.00    -0.248 NA
ATOM     49  C   UNL A   1      46.501  30.182  26.513  1.00  0.00     0.031 C 
ATOM     50  C   UNL A   1      42.257  32.603  30.112  1.00  0.00     0.029 A 
ATOM     51  C   UNL A   1      42.959  31.728  29.300  1.00  0.00     0.049 A 
ATOM     52  H   UNL A   1      42.455  29.770  28.698  1.00  0.00     0.167 HD
ATOM     53  C   UNL A   1      44.861  31.013  27.883  1.00  0.00     0.074 A 
ATOM     54  C   UNL A   1      46.136  31.234  27.233  1.00  0.00     0.031 C 
ATOM     55  C   UNL A   1      44.223  31.935  28.644  1.00  0.00     0.031 A 
BRANCH  42  56
ATOM     56  C   UNL A   1      38.843  29.984  30.960  1.00  0.00    -0.014 A 
ATOM     57  C   UNL A   1      38.827  29.739  32.341  1.00  0.00     0.009 A 
ATOM     58  C   UNL A   1      37.710  30.555  30.357  1.00  0.00     0.009 A 
ATOM     59  C   UNL A   1      37.687  30.029  33.096  1.00  0.00     0.001 A 
ATOM     60  C   UNL A   1      36.583  30.866  31.117  1.00  0.00     0.001 A 
ATOM     61  C   UNL A   1      36.568  30.595  32.484  1.00  0.00     0.000 A 
ENDBRANCH  42  56
BRANCH  43  62
ATOM     62  C   UNL A   1      46.662  27.537  25.287  1.00  0.00    -0.014 A 
ATOM     63  C   UNL A   1      46.735  27.965  23.953  1.00  0.00     0.009 A 
ATOM     64  C   UNL A   1      47.713  26.770  25.813  1.00  0.00     0.009 A 
ATOM     65  C   UNL A   1      47.832  27.620  23.160  1.00  0.00     0.001 A 
ATOM     66  C   UNL A   1      48.820  26.450  25.028  1.00  0.00     0.001 A 
ATOM     67  C   UNL A   1      48.877  26.869  23.701  1.00  0.00     0.000 A 
ENDBRANCH  43  62
BRANCH  55  68
ATOM     68  C   UNL A   1      44.909  33.256  28.830  1.00  0.00    -0.014 A 
ATOM     69  C   UNL A   1      44.913  34.220  27.809  1.00  0.00     0.009 A 
ATOM     70  C   UNL A   1      45.538  33.549  30.049  1.00  0.00     0.009 A 
ATOM     71  C   UNL A   1      45.559  35.442  27.998  1.00  0.00     0.001 A 
ATOM     72  C   UNL A   1      46.164  34.780  30.243  1.00  0.00     0.001 A 
ATOM     73  C   UNL A   1      46.182  35.722  29.215  1.00  0.00     0.000 A 
ENDBRANCH  55  68
ENDBRANCH  29  30
ENDBRANCH  22  24
ENDBRANCH  21  22
ENDBRANCH  20  21
ENDBRANCH   1  20
TORSDOF 13
ENDMDL
MODEL 2
REMARK VINA RESULT:     -10.6      2.367      6.360
REMARK SMILES C/C(=C\CN1CC(=O)N2CCC[C@H]2C1=O)C(=O)OCCOC(=O)c1ccc(-c2c3nc(c(-c4ccccc4)c4ccc([nH]4)c(-c4ccccc4)c4nc(c(-c5ccccc5)c5ccc2[nH]5)C=C4)C=C3)cc1
REMARK SMILES IDX 19 1 18 2 16 3 17 4 2 5 1 6 3 7 4 8 5 9 6 10 14 11 7 12
REMARK SMILES IDX 13 13 15 14 8 15 9 16 12 17 10 18 11 19 20 20 21 21 22 22
REMARK SMILES IDX 23 23 24 24 25 25 71 26 26 27 70 28 27 29 28 30 29 31 64 32
REMARK SMILES IDX 30 33 69 34 63 35 65 36 31 37 68 38 62 39 61 40 32 42 54 43
REMARK SMILES IDX 39 44 53 45 40 46 43 47 52 48 66 49 41 50 42 51 51 53 67 54
REMARK SMILES IDX 44 55 33 56 34 57 38 58 35 59 37 60 36 61 55 62 56 63 60 64
REMARK SMILES IDX 57 65 59 66 58 67 45 68 46 69 50 70 47 71 49 72 48 73
REMARK H PARENT 65 41 43 52
REMARK Flexibility Score: inf
ROOT
ATOM      1  C   UNL A   1      38.731  21.410  25.752  1.00  0.00     0.275 C 
ENDROOT
BRANCH   1   2
ATOM      2  O   UNL A   1      37.292  21.474  25.724  1.00  0.00    -0.459 OA
BRANCH   2   3
ATOM      3  C   UNL A   1      36.746  22.714  25.633  1.00  0.00     0.333 C 
ATOM      4  O   UNL A   1      36.968  23.654  26.380  1.00  0.00    -0.247 OA
BRANCH   3   5
ATOM      5  C   UNL A   1      35.871  22.825  24.431  1.00  0.00     0.032 C 
ATOM      6  C   UNL A   1      36.574  22.954  23.114  1.00  0.00     0.052 C 
ATOM      7  C   UNL A   1      34.538  22.864  24.604  1.00  0.00     0.005 C 
BRANCH   7   8
ATOM      8  C   UNL A   1      33.506  23.038  23.540  1.00  0.00     0.148 C 
BRANCH   8   9
ATOM      9  N   UNL A   1      32.739  24.263  23.691  1.00  0.00    -0.328 N 
ATOM     10  C   UNL A   1      31.601  24.372  24.626  1.00  0.00     0.220 C 
ATOM     11  C   UNL A   1      33.259  25.433  23.118  1.00  0.00     0.246 C 
ATOM     12  C   UNL A   1      31.921  25.405  25.704  1.00  0.00     0.242 C 
ATOM     13  C   UNL A   1      32.702  26.721  23.747  1.00  0.00     0.174 C 
ATOM     14  O   UNL A   1      34.030  25.436  22.163  1.00  0.00    -0.272 OA
ATOM     15  O   UNL A   1      31.562  25.301  26.871  1.00  0.00    -0.273 OA
ATOM     16  N   UNL A   1      32.557  26.513  25.188  1.00  0.00    -0.329 N 
ATOM     17  C   UNL A   1      33.645  27.917  23.660  1.00  0.00     0.037 C 
ATOM     18  C   UNL A   1      33.097  27.597  25.973  1.00  0.00     0.120 C 
ATOM     19  C   UNL A   1      33.358  28.690  24.948  1.00  0.00     0.024 C 
ENDBRANCH   8   9
ENDBRANCH   7   8
ENDBRANCH   3   5
ENDBRANCH   2   3
ENDBRANCH   1   2
BRANCH   1  20
ATOM     20  C   UNL A   1      39.226  19.994  25.456  1.00  0.00     0.275 C 
BRANCH  20  21
ATOM     21  O   UNL A   1      40.161  19.578  26.468  1.00  0.00    -0.458 OA
BRANCH  21  22
ATOM     22  C   UNL A   1      41.466  19.656  26.125  1.00  0.00     0.338 C 
ATOM     23  O   UNL A   1      42.127  18.850  25.495  1.00  0.00    -0.246 OA
BRANCH  22  24
ATOM     24  C   UNL A   1      42.009  20.946  26.573  1.00  0.00     0.060 A 
ATOM     25  C   UNL A   1      41.950  21.250  27.930  1.00  0.00     0.016 A 
ATOM     26  C   UNL A   1      42.426  21.909  25.656  1.00  0.00     0.016 A 
ATOM     27  C   UNL A   1      42.217  22.539  28.375  1.00  0.00     0.010 A 
ATOM     28  C   UNL A   1      42.782  23.182  26.115  1.00  0.00     0.010 A 
ATOM     29  C   UNL A   1      42.643  23.523  27.474  1.00  0.00    -0.014 A 
BRANCH  29  30
ATOM     30  C   UNL A   1      42.882  24.912  27.955  1.00  0.00     0.031 A 
ATOM     31  C   UNL A   1      44.286  25.387  28.225  1.00  0.00     0.074 A 
ATOM     32  C   UNL A   1      41.852  25.767  28.109  1.00  0.00     0.049 A 
ATOM     33  N   UNL A   1      44.689  26.510  28.767  1.00  0.00    -0.248 NA
ATOM     34  C   UNL A   1      45.380  24.480  27.844  1.00  0.00     0.031 C 
ATOM     35  C   UNL A   1      40.448  25.468  27.826  1.00  0.00     0.029 A 
ATOM     36  N   UNL A   1      41.834  27.076  28.527  1.00  0.00    -0.354 N 
ATOM     37  C   UNL A   1      46.073  26.419  28.842  1.00  0.00     0.074 A 
ATOM     38  C   UNL A   1      46.443  25.133  28.293  1.00  0.00     0.031 C 
ATOM     39  C   UNL A   1      39.713  26.572  28.031  1.00  0.00     0.029 A 
ATOM     40  C   UNL A   1      40.577  27.630  28.540  1.00  0.00     0.049 A 
ATOM     41  H   UNL A   1      42.644  27.569  28.791  1.00  0.00     0.167 HD
ATOM     42  C   UNL A   1      46.957  27.324  29.329  1.00  0.00     0.031 A 
ATOM     43  C   UNL A   1      40.156  28.843  28.948  1.00  0.00     0.031 A 
ATOM     44  C   UNL A   1      46.598  28.620  29.837  1.00  0.00     0.049 A 
ATOM     45  C   UNL A   1      41.150  29.811  29.519  1.00  0.00     0.074 A 
ATOM     46  C   UNL A   1      47.425  29.604  30.353  1.00  0.00     0.029 A 
ATOM     47  N   UNL A   1      45.308  29.120  29.878  1.00  0.00    -0.354 N 
ATOM     48  N   UNL A   1      42.447  29.685  29.646  1.00  0.00    -0.248 NA
ATOM     49  C   UNL A   1      40.614  31.085  30.021  1.00  0.00     0.031 C 
ATOM     50  C   UNL A   1      46.628  30.689  30.737  1.00  0.00     0.029 A 
ATOM     51  C   UNL A   1      45.312  30.394  30.420  1.00  0.00     0.049 A 
ATOM     52  H   UNL A   1      44.505  28.641  29.567  1.00  0.00     0.167 HD
ATOM     53  C   UNL A   1      42.886  30.862  30.236  1.00  0.00     0.074 A 
ATOM     54  C   UNL A   1      41.720  31.700  30.420  1.00  0.00     0.031 C 
ATOM     55  C   UNL A   1      44.143  31.213  30.600  1.00  0.00     0.031 A 
BRANCH  42  56
ATOM     56  C   UNL A   1      48.403  26.917  29.376  1.00  0.00    -0.014 A 
ATOM     57  C   UNL A   1      48.929  26.194  30.458  1.00  0.00     0.009 A 
ATOM     58  C   UNL A   1      49.246  27.241  28.301  1.00  0.00     0.009 A 
ATOM     59  C   UNL A   1      50.279  25.834  30.476  1.00  0.00     0.001 A 
ATOM     60  C   UNL A   1      50.587  26.858  28.310  1.00  0.00     0.001 A 
ATOM     61  C   UNL A   1      51.105  26.163  29.401  1.00  0.00     0.000 A 
ENDBRANCH  42  56
BRANCH  43  62
ATOM     62  C   UNL A   1      38.713  29.188  28.876  1.00  0.00    -0.014 A 
ATOM     63  C   UNL A   1      37.882  29.007  29.991  1.00  0.00     0.009 A 
ATOM     64  C   UNL A   1      38.162  29.706  27.693  1.00  0.00     0.009 A 
ATOM     65  C   UNL A   1      36.523  29.326  29.917  1.00  0.00     0.001 A 
ATOM     66  C   UNL A   1      36.812  30.050  27.631  1.00  0.00     0.001 A 
ATOM     67  C   UNL A   1      35.992  29.854  28.740  1.00  0.00     0.000 A 
ENDBRANCH  43  62
BRANCH  55  68
ATOM     68  C   UNL A   1      44.319  32.573  31.211  1.00  0.00    -0.014 A 
ATOM     69  C   UNL A   1      44.550  33.702  30.408  1.00  0.00     0.009 A 
ATOM     70  C   UNL A   1      44.228  32.730  32.601  1.00  0.00     0.009 A 
ATOM     71  C   UNL A   1      44.715  34.958  30.993  1.00  0.00     0.001 A 
ATOM     72  C   UNL A   1      44.372  33.991  33.181  1.00  0.00     0.001 A 
ATOM     73  C   UNL A   1      44.623  35.102  32.377  1.00  0.00     0.000 A 
ENDBRANCH  55  68
ENDBRANCH  29  30
ENDBRANCH  22  24
ENDBRANCH  21  22
ENDBRANCH  20  21
ENDBRANCH   1  20
TORSDOF 13
ENDMDL
MODEL 3
REMARK VINA RESULT:     -10.6      3.897      8.743
REMARK SMILES C/C(=C\CN1CC(=O)N2CCC[C@H]2C1=O)C(=O)OCCOC(=O)c1ccc(-c2c3nc(c(-c4ccccc4)c4ccc([nH]4)c(-c4ccccc4)c4nc(c(-c5ccccc5)c5ccc2[nH]5)C=C4)C=C3)cc1
REMARK SMILES IDX 19 1 18 2 16 3 17 4 2 5 1 6 3 7 4 8 5 9 6 10 14 11 7 12
REMARK SMILES IDX 13 13 15 14 8 15 9 16 12 17 10 18 11 19 20 20 21 21 22 22
REMARK SMILES IDX 23 23 24 24 25 25 71 26 26 27 70 28 27 29 28 30 29 31 64 32
REMARK SMILES IDX 30 33 69 34 63 35 65 36 31 37 68 38 62 39 61 40 32 42 54 43
REMARK SMILES IDX 39 44 53 45 40 46 43 47 52 48 66 49 41 50 42 51 51 53 67 54
REMARK SMILES IDX 44 55 33 56 34 57 38 58 35 59 37 60 36 61 55 62 56 63 60 64
REMARK SMILES IDX 57 65 59 66 58 67 45 68 46 69 50 70 47 71 49 72 48 73
REMARK H PARENT 65 41 43 52
REMARK Flexibility Score: inf
ROOT
ATOM      1  C   UNL A   1      31.768  31.270  26.855  1.00  0.00     0.275 C 
ENDROOT
BRANCH   1   2
ATOM      2  O   UNL A   1      31.553  30.755  25.526  1.00  0.00    -0.459 OA
BRANCH   2   3
ATOM      3  C   UNL A   1      32.291  29.672  25.174  1.00  0.00     0.333 C 
ATOM      4  O   UNL A   1      33.510  29.593  25.195  1.00  0.00    -0.247 OA
BRANCH   3   5
ATOM      5  C   UNL A   1      31.413  28.521  24.816  1.00  0.00     0.032 C 
ATOM      6  C   UNL A   1      30.534  28.711  23.617  1.00  0.00     0.052 C 
ATOM      7  C   UNL A   1      31.418  27.434  25.608  1.00  0.00     0.005 C 
BRANCH   7   8
ATOM      8  C   UNL A   1      30.568  26.217  25.456  1.00  0.00     0.148 C 
BRANCH   8   9
ATOM      9  N   UNL A   1      31.331  25.035  25.090  1.00  0.00    -0.328 N 
ATOM     10  C   UNL A   1      31.809  24.800  23.712  1.00  0.00     0.220 C 
ATOM     11  C   UNL A   1      31.835  24.236  26.127  1.00  0.00     0.246 C 
ATOM     12  C   UNL A   1      33.336  24.790  23.695  1.00  0.00     0.242 C 
ATOM     13  C   UNL A   1      33.023  23.359  25.700  1.00  0.00     0.174 C 
ATOM     14  O   UNL A   1      31.336  24.187  27.248  1.00  0.00    -0.272 OA
ATOM     15  O   UNL A   1      34.006  25.236  22.771  1.00  0.00    -0.273 OA
ATOM     16  N   UNL A   1      33.863  24.125  24.780  1.00  0.00    -0.329 N 
ATOM     17  C   UNL A   1      33.979  23.008  26.837  1.00  0.00     0.037 C 
ATOM     18  C   UNL A   1      35.267  24.056  25.106  1.00  0.00     0.120 C 
ATOM     19  C   UNL A   1      35.343  22.949  26.147  1.00  0.00     0.024 C 
ENDBRANCH   8   9
ENDBRANCH   7   8
ENDBRANCH   3   5
ENDBRANCH   2   3
ENDBRANCH   1   2
BRANCH   1  20
ATOM     20  C   UNL A   1      32.042  32.773  26.827  1.00  0.00     0.275 C 
BRANCH  20  21
ATOM     21  O   UNL A   1      32.016  33.304  28.164  1.00  0.00    -0.458 OA
BRANCH  21  22
ATOM     22  C   UNL A   1      32.968  34.220  28.448  1.00  0.00     0.338 C 
ATOM     23  O   UNL A   1      32.840  35.426  28.562  1.00  0.00    -0.246 OA
BRANCH  22  24
ATOM     24  C   UNL A   1      34.246  33.534  28.686  1.00  0.00     0.060 A 
ATOM     25  C   UNL A   1      34.304  32.583  29.700  1.00  0.00     0.016 A 
ATOM     26  C   UNL A   1      35.408  33.929  28.027  1.00  0.00     0.016 A 
ATOM     27  C   UNL A   1      35.528  32.087  30.131  1.00  0.00     0.010 A 
ATOM     28  C   UNL A   1      36.632  33.362  28.400  1.00  0.00     0.010 A 
ATOM     29  C   UNL A   1      36.711  32.465  29.483  1.00  0.00    -0.014 A 
BRANCH  29  30
ATOM     30  C   UNL A   1      38.020  31.962  29.981  1.00  0.00     0.031 A 
ATOM     31  C   UNL A   1      38.598  30.683  29.432  1.00  0.00     0.074 A 
ATOM     32  C   UNL A   1      38.720  32.667  30.892  1.00  0.00     0.049 A 
ATOM     33  N   UNL A   1      39.656  30.017  29.826  1.00  0.00    -0.248 NA
ATOM     34  C   UNL A   1      37.892  30.068  28.297  1.00  0.00     0.031 C 
ATOM     35  C   UNL A   1      38.317  33.952  31.466  1.00  0.00     0.029 A 
ATOM     36  N   UNL A   1      39.932  32.407  31.482  1.00  0.00    -0.354 N 
ATOM     37  C   UNL A   1      39.708  28.882  29.028  1.00  0.00     0.074 A 
ATOM     38  C   UNL A   1      38.577  28.946  28.128  1.00  0.00     0.031 C 
ATOM     39  C   UNL A   1      39.284  34.390  32.286  1.00  0.00     0.029 A 
ATOM     40  C   UNL A   1      40.335  33.381  32.363  1.00  0.00     0.049 A 
ATOM     41  H   UNL A   1      40.463  31.600  31.292  1.00  0.00     0.167 HD
ATOM     42  C   UNL A   1      40.613  27.874  29.045  1.00  0.00     0.031 A 
ATOM     43  C   UNL A   1      41.410  33.446  33.171  1.00  0.00     0.031 A 
ATOM     44  C   UNL A   1      41.761  27.826  29.910  1.00  0.00     0.049 A 
ATOM     45  C   UNL A   1      42.377  32.299  33.200  1.00  0.00     0.074 A 
ATOM     46  C   UNL A   1      42.734  26.845  30.000  1.00  0.00     0.029 A 
ATOM     47  N   UNL A   1      42.102  28.812  30.821  1.00  0.00    -0.354 N 
ATOM     48  N   UNL A   1      42.376  31.200  32.487  1.00  0.00    -0.248 NA
ATOM     49  C   UNL A   1      43.485  32.394  34.162  1.00  0.00     0.031 C 
ATOM     50  C   UNL A   1      43.646  27.222  30.992  1.00  0.00     0.029 A 
ATOM     51  C   UNL A   1      43.263  28.458  31.487  1.00  0.00     0.049 A 
ATOM     52  H   UNL A   1      41.594  29.641  30.974  1.00  0.00     0.167 HD
ATOM     53  C   UNL A   1      43.482  30.475  32.907  1.00  0.00     0.074 A 
ATOM     54  C   UNL A   1      44.146  31.270  33.920  1.00  0.00     0.031 C 
ATOM     55  C   UNL A   1      43.907  29.257  32.496  1.00  0.00     0.031 A 
BRANCH  42  56
ATOM     56  C   UNL A   1      40.367  26.711  28.126  1.00  0.00    -0.014 A 
ATOM     57  C   UNL A   1      40.973  26.629  26.864  1.00  0.00     0.009 A 
ATOM     58  C   UNL A   1      39.531  25.664  28.549  1.00  0.00     0.009 A 
ATOM     59  C   UNL A   1      40.720  25.537  26.029  1.00  0.00     0.001 A 
ATOM     60  C   UNL A   1      39.302  24.563  27.724  1.00  0.00     0.001 A 
ATOM     61  C   UNL A   1      39.888  24.504  26.461  1.00  0.00     0.000 A 
ENDBRANCH  42  56
BRANCH  43  62
ATOM     62  C   UNL A   1      41.600  34.622  34.058  1.00  0.00    -0.014 A 
ATOM     63  C   UNL A   1      41.023  34.652  35.336  1.00  0.00     0.009 A 
ATOM     64  C   UNL A   1      42.365  35.719  33.632  1.00  0.00     0.009 A 
ATOM     65  C   UNL A   1      41.198  35.763  36.164  1.00  0.00     0.001 A 
ATOM     66  C   UNL A   1      42.562  36.816  34.472  1.00  0.00     0.001 A 
ATOM     67  C   UNL A   1      41.973  36.840  35.734  1.00  0.00     0.000 A 
ENDBRANCH  43  62
BRANCH  55  68
ATOM     68  C   UNL A   1      45.161  28.724  33.127  1.00  0.00    -0.014 A 
ATOM     69  C   UNL A   1      46.411  28.903  32.514  1.00  0.00     0.009 A 
ATOM     70  C   UNL A   1      45.092  28.059  34.359  1.00  0.00     0.009 A 
ATOM     71  C   UNL A   1      47.566  28.398  33.113  1.00  0.00     0.001 A 
ATOM     72  C   UNL A   1      46.251  27.575  34.966  1.00  0.00     0.001 A 
ATOM     73  C   UNL A   1      47.485  27.737  34.339  1.00  0.00     0.000 A 
ENDBRANCH  55  68
ENDBRANCH  29  30
ENDBRANCH  22  24
ENDBRANCH  21  22
ENDBRANCH  20  21
ENDBRANCH   1  20
TORSDOF 13
ENDMDL
