MODEL 1
REMARK VINA RESULT:     -11.4      0.000      0.000
REMARK SMILES CC1=C(C(=O)OCCOC(=O)c2ccc(-c3c4nc(c(-c5ccccc5)c5ccc([nH]5)c(-c5ccccc5)c5nc(c(-c6ccccc6)c6ccc3[nH]6)C=C5)C=C4)cc2)[C@H](c2ccc(Cl)cc2)n2ncnc2N1
REMARK SMILES IDX 8 1 7 2 6 3 4 4 5 5 3 6 1 7 2 8 73 9 60 10 72 11 68 13 71 14
REMARK SMILES IDX 69 15 70 16 61 17 62 18 67 19 63 20 66 21 64 22 65 23 9 24
REMARK SMILES IDX 10 25 11 26 12 27 13 28 59 29 14 30 58 31 15 32 16 33 17 34
REMARK SMILES IDX 52 35 18 36 57 37 51 38 53 39 19 40 56 41 50 42 49 43 20 45
REMARK SMILES IDX 42 46 27 47 41 48 28 49 31 50 40 51 54 52 29 53 30 54 39 56
REMARK SMILES IDX 55 57 32 58 21 59 22 60 26 61 23 62 25 63 24 64 43 65 44 66
REMARK SMILES IDX 48 67 45 68 47 69 46 70 33 71 34 72 38 73 35 74 37 75 36 76
REMARK H PARENT 73 12 53 44 31 55
REMARK Flexibility Score: inf
ROOT
ATOM      1  C   UNL A   1      33.667  31.235  27.637  1.00  0.00     0.275 C 
ENDROOT
BRANCH   1   2
ATOM      2  C   UNL A   1      32.821  30.090  27.101  1.00  0.00     0.275 C 
BRANCH   2   3
ATOM      3  O   UNL A   1      33.653  29.023  26.617  1.00  0.00    -0.459 OA
BRANCH   3   4
ATOM      4  C   UNL A   1      33.402  28.602  25.353  1.00  0.00     0.338 C 
ATOM      5  O   UNL A   1      34.057  28.967  24.385  1.00  0.00    -0.246 OA
BRANCH   4   6
ATOM      6  C   UNL A   1      32.360  27.538  25.290  1.00  0.00     0.085 C 
ATOM      7  C   UNL A   1      30.637  28.987  24.095  1.00  0.00     0.065 C 
ATOM      8  C   UNL A   1      31.112  27.730  24.784  1.00  0.00     0.028 C 
ATOM      9  N   UNL A   1      30.141  26.744  24.926  1.00  0.00    -0.328 N 
ATOM     10  C   UNL A   1      32.724  26.225  26.021  1.00  0.00     0.181 C 
ATOM     11  C   UNL A   1      30.299  25.660  25.703  1.00  0.00     0.226 A 
ATOM     12  H   UNL A   1      29.295  26.846  24.433  1.00  0.00     0.169 HD
ATOM     13  N   UNL A   1      31.508  25.440  26.306  1.00  0.00    -0.219 N 
ATOM     14  N   UNL A   1      29.464  24.707  26.026  1.00  0.00    -0.200 NA
ATOM     15  N   UNL A   1      31.460  24.347  27.101  1.00  0.00    -0.157 NA
ATOM     16  C   UNL A   1      30.207  23.933  26.878  1.00  0.00     0.248 A 
BRANCH  10  17
ATOM     17  C   UNL A   1      33.770  25.355  25.292  1.00  0.00    -0.018 A 
ATOM     18  C   UNL A   1      34.927  24.860  25.922  1.00  0.00     0.008 A 
ATOM     19  C   UNL A   1      33.583  25.025  23.936  1.00  0.00     0.008 A 
ATOM     20  C   UNL A   1      35.832  24.043  25.232  1.00  0.00     0.021 A 
ATOM     21  C   UNL A   1      34.451  24.160  23.265  1.00  0.00     0.021 A 
ATOM     22  C   UNL A   1      35.575  23.671  23.917  1.00  0.00     0.041 A 
ATOM     23  Cl  UNL A   1      36.647  22.609  23.095  1.00  0.00    -0.084 Cl
ENDBRANCH  10  17
ENDBRANCH   4   6
ENDBRANCH   3   4
ENDBRANCH   2   3
ENDBRANCH   1   2
BRANCH   1  24
ATOM     24  O   UNL A   1      35.060  31.065  27.363  1.00  0.00    -0.458 OA
BRANCH  24  25
ATOM     25  C   UNL A   1      35.894  31.770  28.159  1.00  0.00     0.338 C 
ATOM     26  O   UNL A   1      35.974  32.982  28.264  1.00  0.00    -0.246 OA
BRANCH  25  27
ATOM     27  C   UNL A   1      36.872  30.859  28.762  1.00  0.00     0.060 A 
ATOM     28  C   UNL A   1      38.139  31.364  29.071  1.00  0.00     0.016 A 
ATOM     29  C   UNL A   1      36.600  29.484  28.805  1.00  0.00     0.016 A 
ATOM     30  C   UNL A   1      39.166  30.474  29.327  1.00  0.00     0.010 A 
ATOM     31  C   UNL A   1      37.626  28.600  29.049  1.00  0.00     0.010 A 
ATOM     32  C   UNL A   1      38.910  29.099  29.260  1.00  0.00    -0.014 A 
BRANCH  32  33
ATOM     33  C   UNL A   1      39.988  28.175  29.561  1.00  0.00     0.031 A 
ATOM     34  C   UNL A   1      40.388  28.176  30.987  1.00  0.00     0.074 A 
ATOM     35  C   UNL A   1      40.465  27.285  28.669  1.00  0.00     0.049 A 
ATOM     36  N   UNL A   1      41.543  28.471  31.479  1.00  0.00    -0.248 NA
ATOM     37  C   UNL A   1      39.342  27.937  31.995  1.00  0.00     0.031 C 
ATOM     38  C   UNL A   1      39.947  27.012  27.324  1.00  0.00     0.029 A 
ATOM     39  N   UNL A   1      41.446  26.350  28.821  1.00  0.00    -0.354 N 
ATOM     40  C   UNL A   1      41.426  28.273  32.851  1.00  0.00     0.074 A 
ATOM     41  C   UNL A   1      40.025  28.100  33.128  1.00  0.00     0.031 C 
ATOM     42  C   UNL A   1      40.464  25.847  26.875  1.00  0.00     0.029 A 
ATOM     43  C   UNL A   1      41.451  25.375  27.832  1.00  0.00     0.049 A 
ATOM     44  H   UNL A   1      42.093  26.364  29.564  1.00  0.00     0.167 HD
ATOM     45  C   UNL A   1      42.516  27.982  33.609  1.00  0.00     0.031 A 
ATOM     46  C   UNL A   1      42.190  24.243  27.805  1.00  0.00     0.031 A 
ATOM     47  C   UNL A   1      43.742  28.288  32.921  1.00  0.00     0.049 A 
ATOM     48  C   UNL A   1      43.344  24.424  28.707  1.00  0.00     0.074 A 
ATOM     49  C   UNL A   1      44.440  29.423  32.580  1.00  0.00     0.029 A 
ATOM     50  N   UNL A   1      44.221  27.262  32.149  1.00  0.00    -0.354 N 
ATOM     51  N   UNL A   1      44.315  25.253  28.457  1.00  0.00    -0.248 NA
ATOM     52  C   UNL A   1      43.295  23.916  30.073  1.00  0.00     0.031 C 
ATOM     53  C   UNL A   1      45.191  29.087  31.414  1.00  0.00     0.029 A 
ATOM     54  C   UNL A   1      44.948  27.751  31.096  1.00  0.00     0.049 A 
ATOM     55  H   UNL A   1      44.066  26.306  32.327  1.00  0.00     0.167 HD
ATOM     56  C   UNL A   1      44.701  25.709  29.700  1.00  0.00     0.074 A 
ATOM     57  C   UNL A   1      44.196  24.722  30.644  1.00  0.00     0.031 C 
ATOM     58  C   UNL A   1      45.107  26.999  29.871  1.00  0.00     0.031 A 
BRANCH  45  59
ATOM     59  C   UNL A   1      42.487  26.963  34.725  1.00  0.00    -0.014 A 
ATOM     60  C   UNL A   1      42.393  25.601  34.388  1.00  0.00     0.009 A 
ATOM     61  C   UNL A   1      42.233  27.300  36.070  1.00  0.00     0.009 A 
ATOM     62  C   UNL A   1      42.007  24.641  35.332  1.00  0.00     0.001 A 
ATOM     63  C   UNL A   1      41.883  26.340  37.023  1.00  0.00     0.001 A 
ATOM     64  C   UNL A   1      41.746  25.012  36.647  1.00  0.00     0.000 A 
ENDBRANCH  45  59
BRANCH  46  65
ATOM     65  C   UNL A   1      41.913  22.949  27.153  1.00  0.00    -0.014 A 
ATOM     66  C   UNL A   1      42.958  22.142  26.679  1.00  0.00     0.009 A 
ATOM     67  C   UNL A   1      40.629  22.385  27.242  1.00  0.00     0.009 A 
ATOM     68  C   UNL A   1      42.734  20.800  26.348  1.00  0.00     0.001 A 
ATOM     69  C   UNL A   1      40.405  21.044  26.911  1.00  0.00     0.001 A 
ATOM     70  C   UNL A   1      41.461  20.248  26.480  1.00  0.00     0.000 A 
ENDBRANCH  46  65
BRANCH  58  71
ATOM     71  C   UNL A   1      45.538  27.745  28.639  1.00  0.00    -0.014 A 
ATOM     72  C   UNL A   1      46.850  27.703  28.134  1.00  0.00     0.009 A 
ATOM     73  C   UNL A   1      44.569  28.465  27.927  1.00  0.00     0.009 A 
ATOM     74  C   UNL A   1      47.187  28.396  26.967  1.00  0.00     0.001 A 
ATOM     75  C   UNL A   1      44.901  29.136  26.749  1.00  0.00     0.001 A 
ATOM     76  C   UNL A   1      46.210  29.109  26.274  1.00  0.00     0.000 A 
ENDBRANCH  58  71
ENDBRANCH  32  33
ENDBRANCH  25  27
ENDBRANCH  24  25
ENDBRANCH   1  24
TORSDOF 12
ENDMDL
MODEL 2
REMARK VINA RESULT:     -11.2      1.891      3.104
REMARK SMILES CC1=C(C(=O)OCCOC(=O)c2ccc(-c3c4nc(c(-c5ccccc5)c5ccc([nH]5)c(-c5ccccc5)c5nc(c(-c6ccccc6)c6ccc3[nH]6)C=C5)C=C4)cc2)[C@H](c2ccc(Cl)cc2)n2ncnc2N1
REMARK SMILES IDX 8 1 7 2 6 3 4 4 5 5 3 6 1 7 2 8 73 9 60 10 72 11 68 13 71 14
REMARK SMILES IDX 69 15 70 16 61 17 62 18 67 19 63 20 66 21 64 22 65 23 9 24
REMARK SMILES IDX 10 25 11 26 12 27 13 28 59 29 14 30 58 31 15 32 16 33 17 34
REMARK SMILES IDX 52 35 18 36 57 37 51 38 53 39 19 40 56 41 50 42 49 43 20 45
REMARK SMILES IDX 42 46 27 47 41 48 28 49 31 50 40 51 54 52 29 53 30 54 39 56
REMARK SMILES IDX 55 57 32 58 21 59 22 60 26 61 23 62 25 63 24 64 43 65 44 66
REMARK SMILES IDX 48 67 45 68 47 69 46 70 33 71 34 72 38 73 35 74 37 75 36 76
REMARK H PARENT 73 12 53 44 31 55
REMARK Flexibility Score: inf
ROOT
ATOM      1  C   UNL A   1      33.655  31.131  27.336  1.00  0.00     0.275 C 
ENDROOT
BRANCH   1   2
ATOM      2  C   UNL A   1      32.490  30.153  27.298  1.00  0.00     0.275 C 
BRANCH   2   3
ATOM      3  O   UNL A   1      32.958  28.809  27.101  1.00  0.00    -0.459 OA
BRANCH   3   4
ATOM      4  C   UNL A   1      32.002  27.847  27.070  1.00  0.00     0.338 C 
ATOM      5  O   UNL A   1      31.129  27.745  27.922  1.00  0.00    -0.246 OA
BRANCH   4   6
ATOM      6  C   UNL A   1      32.032  27.039  25.818  1.00  0.00     0.085 C 
ATOM      7  C   UNL A   1      31.941  24.786  27.008  1.00  0.00     0.065 C 
ATOM      8  C   UNL A   1      32.065  25.678  25.796  1.00  0.00     0.028 C 
ATOM      9  N   UNL A   1      32.275  25.004  24.598  1.00  0.00    -0.328 N 
ATOM     10  C   UNL A   1      32.218  27.855  24.519  1.00  0.00     0.181 C 
ATOM     11  C   UNL A   1      32.634  25.618  23.459  1.00  0.00     0.226 A 
ATOM     12  H   UNL A   1      32.155  24.027  24.585  1.00  0.00     0.169 HD
ATOM     13  N   UNL A   1      32.694  26.985  23.427  1.00  0.00    -0.219 N 
ATOM     14  N   UNL A   1      32.967  25.133  22.292  1.00  0.00    -0.200 NA
ATOM     15  N   UNL A   1      33.140  27.421  22.226  1.00  0.00    -0.157 NA
ATOM     16  C   UNL A   1      33.270  26.260  21.574  1.00  0.00     0.248 A 
BRANCH  10  17
ATOM     17  C   UNL A   1      30.967  28.643  24.074  1.00  0.00    -0.018 A 
ATOM     18  C   UNL A   1      30.801  30.019  24.322  1.00  0.00     0.008 A 
ATOM     19  C   UNL A   1      29.932  27.983  23.386  1.00  0.00     0.008 A 
ATOM     20  C   UNL A   1      29.666  30.703  23.869  1.00  0.00     0.021 A 
ATOM     21  C   UNL A   1      28.829  28.676  22.878  1.00  0.00     0.021 A 
ATOM     22  C   UNL A   1      28.701  30.036  23.122  1.00  0.00     0.041 A 
ATOM     23  Cl  UNL A   1      27.346  30.892  22.502  1.00  0.00    -0.084 Cl
ENDBRANCH  10  17
ENDBRANCH   4   6
ENDBRANCH   3   4
ENDBRANCH   2   3
ENDBRANCH   1   2
BRANCH   1  24
ATOM     24  O   UNL A   1      34.719  30.686  28.181  1.00  0.00    -0.458 OA
BRANCH  24  25
ATOM     25  C   UNL A   1      35.795  31.503  28.231  1.00  0.00     0.338 C 
ATOM     26  O   UNL A   1      35.820  32.711  28.067  1.00  0.00    -0.246 OA
BRANCH  25  27
ATOM     27  C   UNL A   1      37.014  30.692  28.316  1.00  0.00     0.060 A 
ATOM     28  C   UNL A   1      36.927  29.335  27.986  1.00  0.00     0.016 A 
ATOM     29  C   UNL A   1      38.157  31.225  28.928  1.00  0.00     0.016 A 
ATOM     30  C   UNL A   1      37.954  28.490  28.364  1.00  0.00     0.010 A 
ATOM     31  C   UNL A   1      39.174  30.381  29.313  1.00  0.00     0.010 A 
ATOM     32  C   UNL A   1      39.042  29.015  29.072  1.00  0.00    -0.014 A 
BRANCH  32  33
ATOM     33  C   UNL A   1      40.130  28.124  29.436  1.00  0.00     0.031 A 
ATOM     34  C   UNL A   1      40.482  28.177  30.874  1.00  0.00     0.074 A 
ATOM     35  C   UNL A   1      40.655  27.219  28.588  1.00  0.00     0.049 A 
ATOM     36  N   UNL A   1      41.613  28.512  31.395  1.00  0.00    -0.248 NA
ATOM     37  C   UNL A   1      39.408  27.945  31.854  1.00  0.00     0.031 C 
ATOM     38  C   UNL A   1      40.188  26.894  27.236  1.00  0.00     0.029 A 
ATOM     39  N   UNL A   1      41.650  26.310  28.801  1.00  0.00    -0.354 N 
ATOM     40  C   UNL A   1      41.455  28.353  32.767  1.00  0.00     0.074 A 
ATOM     41  C   UNL A   1      40.048  28.157  33.003  1.00  0.00     0.031 C 
ATOM     42  C   UNL A   1      40.744  25.727  26.841  1.00  0.00     0.029 A 
ATOM     43  C   UNL A   1      41.708  25.306  27.843  1.00  0.00     0.049 A 
ATOM     44  H   UNL A   1      42.271  26.362  29.564  1.00  0.00     0.167 HD
ATOM     45  C   UNL A   1      42.524  28.109  33.569  1.00  0.00     0.031 A 
ATOM     46  C   UNL A   1      42.472  24.191  27.875  1.00  0.00     0.031 A 
ATOM     47  C   UNL A   1      43.765  28.421  32.912  1.00  0.00     0.049 A 
ATOM     48  C   UNL A   1      43.591  24.425  28.808  1.00  0.00     0.074 A 
ATOM     49  C   UNL A   1      44.451  29.561  32.560  1.00  0.00     0.029 A 
ATOM     50  N   UNL A   1      44.292  27.384  32.188  1.00  0.00    -0.354 N 
ATOM     51  N   UNL A   1      44.552  25.267  28.565  1.00  0.00    -0.248 NA
ATOM     52  C   UNL A   1      43.507  23.958  30.187  1.00  0.00     0.031 C 
ATOM     53  C   UNL A   1      45.247  29.207  31.430  1.00  0.00     0.029 A 
ATOM     54  C   UNL A   1      45.043  27.857  31.145  1.00  0.00     0.049 A 
ATOM     55  H   UNL A   1      44.152  26.431  32.390  1.00  0.00     0.167 HD
ATOM     56  C   UNL A   1      44.887  25.769  29.805  1.00  0.00     0.074 A 
ATOM     57  C   UNL A   1      44.371  24.799  30.762  1.00  0.00     0.031 C 
ATOM     58  C   UNL A   1      45.259  27.072  29.950  1.00  0.00     0.031 A 
BRANCH  45  59
ATOM     59  C   UNL A   1      42.479  27.123  34.714  1.00  0.00    -0.014 A 
ATOM     60  C   UNL A   1      42.695  25.762  34.437  1.00  0.00     0.009 A 
ATOM     61  C   UNL A   1      41.932  27.433  35.976  1.00  0.00     0.009 A 
ATOM     62  C   UNL A   1      42.325  24.765  35.349  1.00  0.00     0.001 A 
ATOM     63  C   UNL A   1      41.595  26.442  36.902  1.00  0.00     0.001 A 
ATOM     64  C   UNL A   1      41.769  25.106  36.578  1.00  0.00     0.000 A 
ENDBRANCH  45  59
BRANCH  46  65
ATOM     65  C   UNL A   1      42.245  22.873  27.255  1.00  0.00    -0.014 A 
ATOM     66  C   UNL A   1      43.212  22.290  26.422  1.00  0.00     0.009 A 
ATOM     67  C   UNL A   1      41.184  22.066  27.703  1.00  0.00     0.009 A 
ATOM     68  C   UNL A   1      43.145  20.933  26.086  1.00  0.00     0.001 A 
ATOM     69  C   UNL A   1      41.118  20.709  27.367  1.00  0.00     0.001 A 
ATOM     70  C   UNL A   1      42.108  20.139  26.571  1.00  0.00     0.000 A 
ENDBRANCH  46  65
BRANCH  58  71
ATOM     71  C   UNL A   1      45.715  27.791  28.710  1.00  0.00    -0.014 A 
ATOM     72  C   UNL A   1      47.049  27.787  28.266  1.00  0.00     0.009 A 
ATOM     73  C   UNL A   1      44.751  28.441  27.928  1.00  0.00     0.009 A 
ATOM     74  C   UNL A   1      47.411  28.450  27.089  1.00  0.00     0.001 A 
ATOM     75  C   UNL A   1      45.109  29.082  26.741  1.00  0.00     0.001 A 
ATOM     76  C   UNL A   1      46.438  29.094  26.327  1.00  0.00     0.000 A 
ENDBRANCH  58  71
ENDBRANCH  32  33
ENDBRANCH  25  27
ENDBRANCH  24  25
ENDBRANCH   1  24
TORSDOF 12
ENDMDL
MODEL 3
REMARK VINA RESULT:     -11.2      3.511      7.952
REMARK SMILES CC1=C(C(=O)OCCOC(=O)c2ccc(-c3c4nc(c(-c5ccccc5)c5ccc([nH]5)c(-c5ccccc5)c5nc(c(-c6ccccc6)c6ccc3[nH]6)C=C5)C=C4)cc2)[C@H](c2ccc(Cl)cc2)n2ncnc2N1
REMARK SMILES IDX 8 1 7 2 6 3 4 4 5 5 3 6 1 7 2 8 73 9 60 10 72 11 68 13 71 14
REMARK SMILES IDX 69 15 70 16 61 17 62 18 67 19 63 20 66 21 64 22 65 23 9 24
REMARK SMILES IDX 10 25 11 26 12 27 13 28 59 29 14 30 58 31 15 32 16 33 17 34
REMARK SMILES IDX 52 35 18 36 57 37 51 38 53 39 19 40 56 41 50 42 49 43 20 45
REMARK SMILES IDX 42 46 27 47 41 48 28 49 31 50 40 51 54 52 29 53 30 54 39 56
REMARK SMILES IDX 55 57 32 58 21 59 22 60 26 61 23 62 25 63 24 64 43 65 44 66
REMARK SMILES IDX 48 67 45 68 47 69 46 70 33 71 34 72 38 73 35 74 37 75 36 76
REMARK H PARENT 73 12 53 44 31 55
REMARK Flexibility Score: inf
ROOT
ATOM      1  C   UNL A   1      38.458  21.521  25.680  1.00  0.00     0.275 C 
ENDROOT
BRANCH   1   2
ATOM      2  C   UNL A   1      37.078  21.598  25.044  1.00  0.00     0.275 C 
BRANCH   2   3
ATOM      3  O   UNL A   1      36.496  22.897  25.243  1.00  0.00    -0.459 OA
BRANCH   3   4
ATOM      4  C   UNL A   1      35.195  22.911  25.627  1.00  0.00     0.338 C 
ATOM      5  O   UNL A   1      34.840  22.765  26.789  1.00  0.00    -0.246 OA
BRANCH   4   6
ATOM      6  C   UNL A   1      34.266  23.279  24.521  1.00  0.00     0.085 C 
ATOM      7  C   UNL A   1      33.520  20.887  24.055  1.00  0.00     0.065 C 
ATOM      8  C   UNL A   1      33.569  22.372  23.784  1.00  0.00     0.028 C 
ATOM      9  N   UNL A   1      32.866  22.780  22.656  1.00  0.00    -0.328 N 
ATOM     10  C   UNL A   1      34.285  24.773  24.123  1.00  0.00     0.181 C 
ATOM     11  C   UNL A   1      32.974  24.008  22.124  1.00  0.00     0.226 A 
ATOM     12  H   UNL A   1      32.260  22.136  22.225  1.00  0.00     0.169 HD
ATOM     13  N   UNL A   1      33.722  24.954  22.772  1.00  0.00    -0.219 N 
ATOM     14  N   UNL A   1      32.476  24.515  21.027  1.00  0.00    -0.200 NA
ATOM     15  N   UNL A   1      33.776  26.102  22.057  1.00  0.00    -0.157 NA
ATOM     16  C   UNL A   1      32.988  25.785  21.022  1.00  0.00     0.248 A 
BRANCH  10  17
ATOM     17  C   UNL A   1      33.586  25.711  25.130  1.00  0.00    -0.018 A 
ATOM     18  C   UNL A   1      34.136  26.940  25.541  1.00  0.00     0.008 A 
ATOM     19  C   UNL A   1      32.340  25.349  25.676  1.00  0.00     0.008 A 
ATOM     20  C   UNL A   1      33.450  27.779  26.429  1.00  0.00     0.021 A 
ATOM     21  C   UNL A   1      31.626  26.212  26.511  1.00  0.00     0.021 A 
ATOM     22  C   UNL A   1      32.185  27.425  26.885  1.00  0.00     0.041 A 
ATOM     23  Cl  UNL A   1      31.312  28.489  27.915  1.00  0.00    -0.084 Cl
ENDBRANCH  10  17
ENDBRANCH   4   6
ENDBRANCH   3   4
ENDBRANCH   2   3
ENDBRANCH   1   2
BRANCH   1  24
ATOM     24  O   UNL A   1      38.744  22.648  26.511  1.00  0.00    -0.458 OA
BRANCH  24  25
ATOM     25  C   UNL A   1      40.029  22.752  26.918  1.00  0.00     0.338 C 
ATOM     26  O   UNL A   1      40.817  21.847  27.133  1.00  0.00    -0.246 OA
BRANCH  25  27
ATOM     27  C   UNL A   1      40.311  24.147  27.276  1.00  0.00     0.060 A 
ATOM     28  C   UNL A   1      41.436  24.409  28.066  1.00  0.00     0.016 A 
ATOM     29  C   UNL A   1      39.350  25.134  27.018  1.00  0.00     0.016 A 
ATOM     30  C   UNL A   1      41.543  25.642  28.683  1.00  0.00     0.010 A 
ATOM     31  C   UNL A   1      39.453  26.357  27.641  1.00  0.00     0.010 A 
ATOM     32  C   UNL A   1      40.522  26.584  28.507  1.00  0.00    -0.014 A 
BRANCH  32  33
ATOM     33  C   UNL A   1      40.660  27.886  29.134  1.00  0.00     0.031 A 
ATOM     34  C   UNL A   1      41.707  28.732  28.516  1.00  0.00     0.074 A 
ATOM     35  C   UNL A   1      39.812  28.343  30.075  1.00  0.00     0.049 A 
ATOM     36  N   UNL A   1      42.765  29.210  29.078  1.00  0.00    -0.248 NA
ATOM     37  C   UNL A   1      41.628  28.976  27.066  1.00  0.00     0.031 C 
ATOM     38  C   UNL A   1      38.583  27.699  30.550  1.00  0.00     0.029 A 
ATOM     39  N   UNL A   1      39.806  29.543  30.725  1.00  0.00    -0.354 N 
ATOM     40  C   UNL A   1      43.394  29.975  28.101  1.00  0.00     0.074 A 
ATOM     41  C   UNL A   1      42.745  29.670  26.853  1.00  0.00     0.031 C 
ATOM     42  C   UNL A   1      37.844  28.599  31.234  1.00  0.00     0.029 A 
ATOM     43  C   UNL A   1      38.609  29.827  31.368  1.00  0.00     0.049 A 
ATOM     44  H   UNL A   1      40.581  30.151  30.736  1.00  0.00     0.167 HD
ATOM     45  C   UNL A   1      44.208  31.008  28.441  1.00  0.00     0.031 A 
ATOM     46  C   UNL A   1      38.252  30.995  31.949  1.00  0.00     0.031 A 
ATOM     47  C   UNL A   1      44.609  30.940  29.821  1.00  0.00     0.049 A 
ATOM     48  C   UNL A   1      39.481  31.757  32.245  1.00  0.00     0.074 A 
ATOM     49  C   UNL A   1      45.473  30.179  30.574  1.00  0.00     0.029 A 
ATOM     50  N   UNL A   1      43.748  31.562  30.686  1.00  0.00    -0.354 N 
ATOM     51  N   UNL A   1      40.343  31.389  33.147  1.00  0.00    -0.248 NA
ATOM     52  C   UNL A   1      39.946  32.787  31.324  1.00  0.00     0.031 C 
ATOM     53  C   UNL A   1      44.949  30.186  31.901  1.00  0.00     0.029 A 
ATOM     54  C   UNL A   1      43.797  30.973  31.922  1.00  0.00     0.049 A 
ATOM     55  H   UNL A   1      43.173  32.326  30.453  1.00  0.00     0.167 HD
ATOM     56  C   UNL A   1      41.560  31.788  32.637  1.00  0.00     0.074 A 
ATOM     57  C   UNL A   1      41.244  32.803  31.641  1.00  0.00     0.031 C 
ATOM     58  C   UNL A   1      42.678  31.033  32.835  1.00  0.00     0.031 A 
BRANCH  45  59
ATOM     59  C   UNL A   1      44.212  32.324  27.697  1.00  0.00    -0.014 A 
ATOM     60  C   UNL A   1      43.712  33.466  28.347  1.00  0.00     0.009 A 
ATOM     61  C   UNL A   1      44.391  32.418  26.302  1.00  0.00     0.009 A 
ATOM     62  C   UNL A   1      43.354  34.614  27.631  1.00  0.00     0.001 A 
ATOM     63  C   UNL A   1      44.068  33.576  25.588  1.00  0.00     0.001 A 
ATOM     64  C   UNL A   1      43.526  34.666  26.251  1.00  0.00     0.000 A 
ENDBRANCH  45  59
BRANCH  46  65
ATOM     65  C   UNL A   1      36.913  31.575  32.160  1.00  0.00    -0.014 A 
ATOM     66  C   UNL A   1      36.563  32.156  33.388  1.00  0.00     0.009 A 
ATOM     67  C   UNL A   1      36.069  31.797  31.058  1.00  0.00     0.009 A 
ATOM     68  C   UNL A   1      35.430  32.970  33.499  1.00  0.00     0.001 A 
ATOM     69  C   UNL A   1      34.936  32.611  31.169  1.00  0.00     0.001 A 
ATOM     70  C   UNL A   1      34.626  33.211  32.386  1.00  0.00     0.000 A 
ENDBRANCH  46  65
BRANCH  58  71
ATOM     71  C   UNL A   1      42.635  30.038  33.962  1.00  0.00    -0.014 A 
ATOM     72  C   UNL A   1      42.196  28.712  33.801  1.00  0.00     0.009 A 
ATOM     73  C   UNL A   1      43.116  30.437  35.216  1.00  0.00     0.009 A 
ATOM     74  C   UNL A   1      42.205  27.822  34.880  1.00  0.00     0.001 A 
ATOM     75  C   UNL A   1      43.147  29.541  36.286  1.00  0.00     0.001 A 
ATOM     76  C   UNL A   1      42.683  28.239  36.121  1.00  0.00     0.000 A 
ENDBRANCH  58  71
ENDBRANCH  32  33
ENDBRANCH  25  27
ENDBRANCH  24  25
ENDBRANCH   1  24
TORSDOF 12
ENDMDL
