MODEL 1
REMARK VINA RESULT:     -10.0      0.000      0.000
REMARK SMILES CC(C)[C@@H](NC(=O)[C@H]1CCCO1)C(=O)OCCOC(=O)c1ccc(-c2c3nc(c(-c4ccccc4)c4ccc([nH]4)c(-c4ccccc4)c4nc(c(-c5ccccc5)c5ccc2[nH]5)C=C4)C=C3)cc1
REMARK SMILES IDX 16 1 15 2 13 3 14 4 4 5 2 6 1 7 3 8 5 9 6 10 7 12 8 13 9 14
REMARK SMILES IDX 12 15 10 16 11 17 17 18 18 19 19 20 20 21 21 22 22 23 68 24
REMARK SMILES IDX 23 25 67 26 24 27 25 28 26 29 61 30 27 31 66 32 60 33 62 34
REMARK SMILES IDX 28 35 65 36 59 37 58 38 29 40 51 41 36 42 50 43 37 44 40 45
REMARK SMILES IDX 49 46 63 47 38 48 39 49 48 51 64 52 41 53 30 54 31 55 35 56
REMARK SMILES IDX 32 57 34 58 33 59 52 60 53 61 57 62 54 63 56 64 55 65 42 66
REMARK SMILES IDX 43 67 47 68 44 69 46 70 45 71
REMARK H PARENT 5 11 62 39 40 50
REMARK Flexibility Score: inf
ROOT
ATOM      1  C   UNL A   1      36.279  19.692  24.919  1.00  0.00     0.274 C 
ENDROOT
BRANCH   1   2
ATOM      2  O   UNL A   1      35.386  20.725  25.382  1.00  0.00    -0.461 OA
BRANCH   2   3
ATOM      3  C   UNL A   1      34.462  21.160  24.484  1.00  0.00     0.329 C 
ATOM      4  O   UNL A   1      34.602  22.144  23.766  1.00  0.00    -0.250 OA
BRANCH   3   5
ATOM      5  C   UNL A   1      33.113  20.450  24.599  1.00  0.00     0.194 C 
BRANCH   5   6
ATOM      6  C   UNL A   1      33.106  18.954  24.208  1.00  0.00     0.017 C 
ATOM      7  C   UNL A   1      32.523  18.111  25.355  1.00  0.00     0.010 C 
ATOM      8  C   UNL A   1      32.262  18.668  22.957  1.00  0.00     0.010 C 
ENDBRANCH   5   6
BRANCH   5   9
ATOM      9  N   UNL A   1      32.637  20.728  25.970  1.00  0.00    -0.340 N 
ATOM     10  C   UNL A   1      31.839  21.846  26.167  1.00  0.00     0.249 C 
ATOM     11  H   UNL A   1      32.879  20.139  26.720  1.00  0.00     0.164 HD
ATOM     12  O   UNL A   1      30.735  21.899  25.629  1.00  0.00    -0.272 OA
BRANCH  10  13
ATOM     13  C   UNL A   1      32.383  22.928  27.148  1.00  0.00     0.207 C 
ATOM     14  C   UNL A   1      33.589  23.699  26.643  1.00  0.00     0.044 C 
ATOM     15  O   UNL A   1      31.400  23.964  27.340  1.00  0.00    -0.368 OA
ATOM     16  C   UNL A   1      32.953  24.655  25.667  1.00  0.00     0.032 C 
ATOM     17  C   UNL A   1      31.706  25.045  26.433  1.00  0.00     0.161 C 
ENDBRANCH  10  13
ENDBRANCH   5   9
ENDBRANCH   3   5
ENDBRANCH   2   3
ENDBRANCH   1   2
BRANCH   1  18
ATOM     18  C   UNL A   1      37.734  20.120  24.684  1.00  0.00     0.275 C 
BRANCH  18  19
ATOM     19  O   UNL A   1      38.139  21.251  25.477  1.00  0.00    -0.458 OA
BRANCH  19  20
ATOM     20  C   UNL A   1      39.307  21.087  26.137  1.00  0.00     0.338 C 
ATOM     21  O   UNL A   1      39.992  20.072  26.175  1.00  0.00    -0.246 OA
BRANCH  20  22
ATOM     22  C   UNL A   1      39.765  22.351  26.735  1.00  0.00     0.060 A 
ATOM     23  C   UNL A   1      39.236  23.548  26.234  1.00  0.00     0.016 A 
ATOM     24  C   UNL A   1      40.801  22.371  27.668  1.00  0.00     0.016 A 
ATOM     25  C   UNL A   1      39.751  24.772  26.643  1.00  0.00     0.010 A 
ATOM     26  C   UNL A   1      41.334  23.602  28.062  1.00  0.00     0.010 A 
ATOM     27  C   UNL A   1      40.829  24.803  27.530  1.00  0.00    -0.014 A 
BRANCH  27  28
ATOM     28  C   UNL A   1      41.520  26.084  27.784  1.00  0.00     0.031 A 
ATOM     29  C   UNL A   1      40.847  27.112  28.647  1.00  0.00     0.074 A 
ATOM     30  C   UNL A   1      42.746  26.311  27.284  1.00  0.00     0.049 A 
ATOM     31  N   UNL A   1      41.215  28.337  28.916  1.00  0.00    -0.248 NA
ATOM     32  C   UNL A   1      39.594  26.701  29.300  1.00  0.00     0.031 C 
ATOM     33  C   UNL A   1      43.537  25.354  26.512  1.00  0.00     0.029 A 
ATOM     34  N   UNL A   1      43.536  27.430  27.350  1.00  0.00    -0.354 N 
ATOM     35  C   UNL A   1      40.230  28.851  29.748  1.00  0.00     0.074 A 
ATOM     36  C   UNL A   1      39.244  27.809  29.937  1.00  0.00     0.031 C 
ATOM     37  C   UNL A   1      44.699  25.934  26.162  1.00  0.00     0.029 A 
ATOM     38  C   UNL A   1      44.707  27.312  26.645  1.00  0.00     0.049 A 
ATOM     39  H   UNL A   1      43.288  28.238  27.854  1.00  0.00     0.167 HD
ATOM     40  C   UNL A   1      40.151  30.085  30.300  1.00  0.00     0.031 A 
ATOM     41  C   UNL A   1      45.661  28.227  26.390  1.00  0.00     0.031 A 
ATOM     42  C   UNL A   1      41.128  31.121  30.100  1.00  0.00     0.049 A 
ATOM     43  C   UNL A   1      45.501  29.623  26.931  1.00  0.00     0.074 A 
ATOM     44  C   UNL A   1      41.133  32.412  30.597  1.00  0.00     0.029 A 
ATOM     45  N   UNL A   1      42.275  30.980  29.335  1.00  0.00    -0.354 N 
ATOM     46  N   UNL A   1      44.550  30.112  27.689  1.00  0.00    -0.248 NA
ATOM     47  C   UNL A   1      46.547  30.593  26.573  1.00  0.00     0.031 C 
ATOM     48  C   UNL A   1      42.263  33.067  30.096  1.00  0.00     0.029 A 
ATOM     49  C   UNL A   1      42.985  32.169  29.328  1.00  0.00     0.049 A 
ATOM     50  H   UNL A   1      42.544  30.158  28.866  1.00  0.00     0.167 HD
ATOM     51  C   UNL A   1      44.891  31.439  27.917  1.00  0.00     0.074 A 
ATOM     52  C   UNL A   1      46.144  31.673  27.228  1.00  0.00     0.031 C 
ATOM     53  C   UNL A   1      44.229  32.379  28.633  1.00  0.00     0.031 A 
BRANCH  40  54
ATOM     54  C   UNL A   1      38.937  30.392  31.128  1.00  0.00    -0.014 A 
ATOM     55  C   UNL A   1      37.767  30.907  30.549  1.00  0.00     0.009 A 
ATOM     56  C   UNL A   1      38.963  30.146  32.509  1.00  0.00     0.009 A 
ATOM     57  C   UNL A   1      36.657  31.198  31.345  1.00  0.00     0.001 A 
ATOM     58  C   UNL A   1      37.843  30.414  33.298  1.00  0.00     0.001 A 
ATOM     59  C   UNL A   1      36.693  30.949  32.717  1.00  0.00     0.000 A 
ENDBRANCH  40  54
BRANCH  41  60
ATOM     60  C   UNL A   1      46.825  27.872  25.541  1.00  0.00    -0.014 A 
ATOM     61  C   UNL A   1      46.745  27.957  24.143  1.00  0.00     0.009 A 
ATOM     62  C   UNL A   1      48.023  27.432  26.126  1.00  0.00     0.009 A 
ATOM     63  C   UNL A   1      47.835  27.590  23.348  1.00  0.00     0.001 A 
ATOM     64  C   UNL A   1      49.119  27.092  25.331  1.00  0.00     0.001 A 
ATOM     65  C   UNL A   1      49.022  27.162  23.943  1.00  0.00     0.000 A 
ENDBRANCH  41  60
BRANCH  53  66
ATOM     66  C   UNL A   1      44.864  33.736  28.732  1.00  0.00    -0.014 A 
ATOM     67  C   UNL A   1      45.823  34.019  29.716  1.00  0.00     0.009 A 
ATOM     68  C   UNL A   1      44.522  34.732  27.804  1.00  0.00     0.009 A 
ATOM     69  C   UNL A   1      46.408  35.285  29.785  1.00  0.00     0.001 A 
ATOM     70  C   UNL A   1      45.127  35.988  27.861  1.00  0.00     0.001 A 
ATOM     71  C   UNL A   1      46.063  36.266  28.856  1.00  0.00     0.000 A 
ENDBRANCH  53  66
ENDBRANCH  27  28
ENDBRANCH  20  22
ENDBRANCH  19  20
ENDBRANCH  18  19
ENDBRANCH   1  18
TORSDOF 14
ENDMDL
MODEL 2
REMARK VINA RESULT:      -9.9      5.423     10.193
REMARK SMILES CC(C)[C@@H](NC(=O)[C@H]1CCCO1)C(=O)OCCOC(=O)c1ccc(-c2c3nc(c(-c4ccccc4)c4ccc([nH]4)c(-c4ccccc4)c4nc(c(-c5ccccc5)c5ccc2[nH]5)C=C4)C=C3)cc1
REMARK SMILES IDX 16 1 15 2 13 3 14 4 4 5 2 6 1 7 3 8 5 9 6 10 7 12 8 13 9 14
REMARK SMILES IDX 12 15 10 16 11 17 17 18 18 19 19 20 20 21 21 22 22 23 68 24
REMARK SMILES IDX 23 25 67 26 24 27 25 28 26 29 61 30 27 31 66 32 60 33 62 34
REMARK SMILES IDX 28 35 65 36 59 37 58 38 29 40 51 41 36 42 50 43 37 44 40 45
REMARK SMILES IDX 49 46 63 47 38 48 39 49 48 51 64 52 41 53 30 54 31 55 35 56
REMARK SMILES IDX 32 57 34 58 33 59 52 60 53 61 57 62 54 63 56 64 55 65 42 66
REMARK SMILES IDX 43 67 47 68 44 69 46 70 45 71
REMARK H PARENT 5 11 62 39 40 50
REMARK Flexibility Score: inf
ROOT
ATOM      1  C   UNL A   1      32.004  31.579  26.904  1.00  0.00     0.274 C 
ENDROOT
BRANCH   1   2
ATOM      2  O   UNL A   1      31.386  30.976  25.750  1.00  0.00    -0.461 OA
BRANCH   2   3
ATOM      3  C   UNL A   1      31.577  29.638  25.603  1.00  0.00     0.329 C 
ATOM      4  O   UNL A   1      31.771  28.859  26.530  1.00  0.00    -0.250 OA
BRANCH   3   5
ATOM      5  C   UNL A   1      31.763  29.200  24.150  1.00  0.00     0.194 C 
BRANCH   5   6
ATOM      6  C   UNL A   1      32.872  28.151  23.902  1.00  0.00     0.017 C 
ATOM      7  C   UNL A   1      32.245  26.806  23.497  1.00  0.00     0.010 C 
ATOM      8  C   UNL A   1      33.839  28.559  22.781  1.00  0.00     0.010 C 
ENDBRANCH   5   6
BRANCH   5   9
ATOM      9  N   UNL A   1      30.419  28.794  23.686  1.00  0.00    -0.340 N 
ATOM     10  C   UNL A   1      29.797  29.584  22.730  1.00  0.00     0.249 C 
ATOM     11  H   UNL A   1      29.980  27.990  24.044  1.00  0.00     0.164 HD
ATOM     12  O   UNL A   1      30.299  29.684  21.612  1.00  0.00    -0.272 OA
BRANCH  10  13
ATOM     13  C   UNL A   1      28.432  30.221  23.131  1.00  0.00     0.207 C 
ATOM     14  C   UNL A   1      28.536  31.577  23.807  1.00  0.00     0.044 C 
ATOM     15  O   UNL A   1      27.654  30.512  21.954  1.00  0.00    -0.368 OA
ATOM     16  C   UNL A   1      28.812  32.483  22.635  1.00  0.00     0.032 C 
ATOM     17  C   UNL A   1      27.871  31.895  21.603  1.00  0.00     0.161 C 
ENDBRANCH  10  13
ENDBRANCH   5   9
ENDBRANCH   3   5
ENDBRANCH   2   3
ENDBRANCH   1   2
BRANCH   1  18
ATOM     18  C   UNL A   1      32.138  33.107  26.871  1.00  0.00     0.275 C 
BRANCH  18  19
ATOM     19  O   UNL A   1      32.153  33.714  28.177  1.00  0.00    -0.458 OA
BRANCH  19  20
ATOM     20  C   UNL A   1      33.219  34.511  28.416  1.00  0.00     0.338 C 
ATOM     21  O   UNL A   1      33.227  35.735  28.447  1.00  0.00    -0.246 OA
BRANCH  20  22
ATOM     22  C   UNL A   1      34.406  33.721  28.778  1.00  0.00     0.060 A 
ATOM     23  C   UNL A   1      34.241  32.648  29.664  1.00  0.00     0.016 A 
ATOM     24  C   UNL A   1      35.681  34.113  28.373  1.00  0.00     0.016 A 
ATOM     25  C   UNL A   1      35.345  31.973  30.168  1.00  0.00     0.010 A 
ATOM     26  C   UNL A   1      36.794  33.448  28.898  1.00  0.00     0.010 A 
ATOM     27  C   UNL A   1      36.629  32.396  29.818  1.00  0.00    -0.014 A 
BRANCH  27  28
ATOM     28  C   UNL A   1      37.796  31.833  30.528  1.00  0.00     0.031 A 
ATOM     29  C   UNL A   1      38.606  30.762  29.856  1.00  0.00     0.074 A 
ATOM     30  C   UNL A   1      38.150  32.296  31.738  1.00  0.00     0.049 A 
ATOM     31  N   UNL A   1      39.598  30.053  30.329  1.00  0.00    -0.248 NA
ATOM     32  C   UNL A   1      38.253  30.451  28.461  1.00  0.00     0.031 C 
ATOM     33  C   UNL A   1      37.499  33.396  32.447  1.00  0.00     0.029 A 
ATOM     34  N   UNL A   1      39.149  31.890  32.585  1.00  0.00    -0.354 N 
ATOM     35  C   UNL A   1      39.973  29.199  29.301  1.00  0.00     0.074 A 
ATOM     36  C   UNL A   1      39.099  29.472  28.180  1.00  0.00     0.031 C 
ATOM     37  C   UNL A   1      38.107  33.568  33.634  1.00  0.00     0.029 A 
ATOM     38  C   UNL A   1      39.156  32.561  33.781  1.00  0.00     0.049 A 
ATOM     39  H   UNL A   1      39.797  31.185  32.357  1.00  0.00     0.167 HD
ATOM     40  C   UNL A   1      40.953  28.265  29.295  1.00  0.00     0.031 A 
ATOM     41  C   UNL A   1      39.901  32.360  34.884  1.00  0.00     0.031 A 
ATOM     42  C   UNL A   1      41.811  27.992  30.416  1.00  0.00     0.049 A 
ATOM     43  C   UNL A   1      40.917  31.249  34.889  1.00  0.00     0.074 A 
ATOM     44  C   UNL A   1      42.823  27.054  30.521  1.00  0.00     0.029 A 
ATOM     45  N   UNL A   1      41.752  28.657  31.630  1.00  0.00    -0.354 N 
ATOM     46  N   UNL A   1      41.244  30.423  33.925  1.00  0.00    -0.248 NA
ATOM     47  C   UNL A   1      41.663  31.042  36.139  1.00  0.00     0.031 C 
ATOM     48  C   UNL A   1      43.348  27.123  31.817  1.00  0.00     0.029 A 
ATOM     49  C   UNL A   1      42.695  28.136  32.500  1.00  0.00     0.049 A 
ATOM     50  H   UNL A   1      41.131  29.391  31.843  1.00  0.00     0.167 HD
ATOM     51  C   UNL A   1      42.246  29.613  34.443  1.00  0.00     0.074 A 
ATOM     52  C   UNL A   1      42.481  30.056  35.802  1.00  0.00     0.031 C 
ATOM     53  C   UNL A   1      42.910  28.593  33.848  1.00  0.00     0.031 A 
BRANCH  40  54
ATOM     54  C   UNL A   1      41.109  27.440  28.051  1.00  0.00    -0.014 A 
ATOM     55  C   UNL A   1      41.959  27.840  27.009  1.00  0.00     0.009 A 
ATOM     56  C   UNL A   1      40.404  26.233  27.930  1.00  0.00     0.009 A 
ATOM     57  C   UNL A   1      42.074  27.061  25.855  1.00  0.00     0.001 A 
ATOM     58  C   UNL A   1      40.540  25.445  26.786  1.00  0.00     0.001 A 
ATOM     59  C   UNL A   1      41.368  25.864  25.746  1.00  0.00     0.000 A 
ENDBRANCH  40  54
BRANCH  41  60
ATOM     60  C   UNL A   1      39.681  33.192  36.093  1.00  0.00    -0.014 A 
ATOM     61  C   UNL A   1      38.756  32.802  37.073  1.00  0.00     0.009 A 
ATOM     62  C   UNL A   1      40.390  34.392  36.268  1.00  0.00     0.009 A 
ATOM     63  C   UNL A   1      38.531  33.606  38.193  1.00  0.00     0.001 A 
ATOM     64  C   UNL A   1      40.183  35.179  37.401  1.00  0.00     0.001 A 
ATOM     65  C   UNL A   1      39.247  34.792  38.358  1.00  0.00     0.000 A 
ENDBRANCH  41  60
BRANCH  53  66
ATOM     66  C   UNL A   1      43.979  27.911  34.654  1.00  0.00    -0.014 A 
ATOM     67  C   UNL A   1      43.692  26.775  35.426  1.00  0.00     0.009 A 
ATOM     68  C   UNL A   1      45.296  28.392  34.608  1.00  0.00     0.009 A 
ATOM     69  C   UNL A   1      44.703  26.151  36.161  1.00  0.00     0.001 A 
ATOM     70  C   UNL A   1      46.308  27.751  35.324  1.00  0.00     0.001 A 
ATOM     71  C   UNL A   1      46.009  26.637  36.105  1.00  0.00     0.000 A 
ENDBRANCH  53  66
ENDBRANCH  27  28
ENDBRANCH  20  22
ENDBRANCH  19  20
ENDBRANCH  18  19
ENDBRANCH   1  18
TORSDOF 14
ENDMDL
MODEL 3
REMARK VINA RESULT:      -9.8      5.533      8.824
REMARK SMILES CC(C)[C@@H](NC(=O)[C@H]1CCCO1)C(=O)OCCOC(=O)c1ccc(-c2c3nc(c(-c4ccccc4)c4ccc([nH]4)c(-c4ccccc4)c4nc(c(-c5ccccc5)c5ccc2[nH]5)C=C4)C=C3)cc1
REMARK SMILES IDX 16 1 15 2 13 3 14 4 4 5 2 6 1 7 3 8 5 9 6 10 7 12 8 13 9 14
REMARK SMILES IDX 12 15 10 16 11 17 17 18 18 19 19 20 20 21 21 22 22 23 68 24
REMARK SMILES IDX 23 25 67 26 24 27 25 28 26 29 61 30 27 31 66 32 60 33 62 34
REMARK SMILES IDX 28 35 65 36 59 37 58 38 29 40 51 41 36 42 50 43 37 44 40 45
REMARK SMILES IDX 49 46 63 47 38 48 39 49 48 51 64 52 41 53 30 54 31 55 35 56
REMARK SMILES IDX 32 57 34 58 33 59 52 60 53 61 57 62 54 63 56 64 55 65 42 66
REMARK SMILES IDX 43 67 47 68 44 69 46 70 45 71
REMARK H PARENT 5 11 62 39 40 50
REMARK Flexibility Score: inf
ROOT
ATOM      1  C   UNL A   1      31.934  31.530  26.964  1.00  0.00     0.274 C 
ENDROOT
BRANCH   1   2
ATOM      2  O   UNL A   1      31.429  31.009  25.719  1.00  0.00    -0.461 OA
BRANCH   2   3
ATOM      3  C   UNL A   1      31.560  29.668  25.538  1.00  0.00     0.329 C 
ATOM      4  O   UNL A   1      31.789  28.865  26.436  1.00  0.00    -0.250 OA
BRANCH   3   5
ATOM      5  C   UNL A   1      31.628  29.251  24.068  1.00  0.00     0.194 C 
BRANCH   5   6
ATOM      6  C   UNL A   1      32.712  28.205  23.717  1.00  0.00     0.017 C 
ATOM      7  C   UNL A   1      32.051  26.870  23.330  1.00  0.00     0.010 C 
ATOM      8  C   UNL A   1      33.597  28.635  22.539  1.00  0.00     0.010 C 
ENDBRANCH   5   6
BRANCH   5   9
ATOM      9  N   UNL A   1      30.251  28.853  23.707  1.00  0.00    -0.340 N 
ATOM     10  C   UNL A   1      29.645  29.505  22.643  1.00  0.00     0.249 C 
ATOM     11  H   UNL A   1      29.779  28.148  24.206  1.00  0.00     0.164 HD
ATOM     12  O   UNL A   1      30.118  29.385  21.515  1.00  0.00    -0.272 OA
BRANCH  10  13
ATOM     13  C   UNL A   1      28.330  30.281  22.957  1.00  0.00     0.207 C 
ATOM     14  C   UNL A   1      28.519  31.560  23.753  1.00  0.00     0.044 C 
ATOM     15  O   UNL A   1      27.727  30.752  21.737  1.00  0.00    -0.368 OA
ATOM     16  C   UNL A   1      29.029  32.505  22.696  1.00  0.00     0.032 C 
ATOM     17  C   UNL A   1      28.145  32.119  21.528  1.00  0.00     0.161 C 
ENDBRANCH  10  13
ENDBRANCH   5   9
ENDBRANCH   3   5
ENDBRANCH   2   3
ENDBRANCH   1   2
BRANCH   1  18
ATOM     18  C   UNL A   1      31.862  33.053  27.132  1.00  0.00     0.275 C 
BRANCH  18  19
ATOM     19  O   UNL A   1      33.151  33.681  27.264  1.00  0.00    -0.458 OA
BRANCH  19  20
ATOM     20  C   UNL A   1      33.306  34.420  28.386  1.00  0.00     0.338 C 
ATOM     21  O   UNL A   1      32.590  35.339  28.764  1.00  0.00    -0.246 OA
BRANCH  20  22
ATOM     22  C   UNL A   1      34.404  33.903  29.218  1.00  0.00     0.060 A 
ATOM     23  C   UNL A   1      35.718  34.220  28.848  1.00  0.00     0.016 A 
ATOM     24  C   UNL A   1      34.159  33.005  30.256  1.00  0.00     0.016 A 
ATOM     25  C   UNL A   1      36.795  33.628  29.495  1.00  0.00     0.010 A 
ATOM     26  C   UNL A   1      35.243  32.392  30.892  1.00  0.00     0.010 A 
ATOM     27  C   UNL A   1      36.561  32.680  30.494  1.00  0.00    -0.014 A 
BRANCH  27  28
ATOM     28  C   UNL A   1      37.692  31.887  31.018  1.00  0.00     0.031 A 
ATOM     29  C   UNL A   1      38.248  32.223  32.372  1.00  0.00     0.074 A 
ATOM     30  C   UNL A   1      38.191  30.858  30.313  1.00  0.00     0.049 A 
ATOM     31  N   UNL A   1      39.298  31.736  32.981  1.00  0.00    -0.248 NA
ATOM     32  C   UNL A   1      37.519  33.242  33.145  1.00  0.00     0.031 C 
ATOM     33  C   UNL A   1      37.674  30.379  29.032  1.00  0.00     0.029 A 
ATOM     34  N   UNL A   1      39.254  30.034  30.580  1.00  0.00    -0.354 N 
ATOM     35  C   UNL A   1      39.369  32.402  34.197  1.00  0.00     0.074 A 
ATOM     36  C   UNL A   1      38.262  33.333  34.239  1.00  0.00     0.031 C 
ATOM     37  C   UNL A   1      38.432  29.350  28.616  1.00  0.00     0.029 A 
ATOM     38  C   UNL A   1      39.511  29.134  29.577  1.00  0.00     0.049 A 
ATOM     39  H   UNL A   1      39.781  30.083  31.410  1.00  0.00     0.167 HD
ATOM     40  C   UNL A   1      40.282  32.256  35.186  1.00  0.00     0.031 A 
ATOM     41  C   UNL A   1      40.524  28.260  29.436  1.00  0.00     0.031 A 
ATOM     42  C   UNL A   1      41.386  31.338  35.134  1.00  0.00     0.049 A 
ATOM     43  C   UNL A   1      41.583  28.186  30.504  1.00  0.00     0.074 A 
ATOM     44  C   UNL A   1      42.378  31.125  36.075  1.00  0.00     0.029 A 
ATOM     45  N   UNL A   1      41.644  30.480  34.076  1.00  0.00    -0.354 N 
ATOM     46  N   UNL A   1      41.663  28.843  31.635  1.00  0.00    -0.248 NA
ATOM     47  C   UNL A   1      42.694  27.252  30.268  1.00  0.00     0.031 C 
ATOM     48  C   UNL A   1      43.263  30.167  35.565  1.00  0.00     0.029 A 
ATOM     49  C   UNL A   1      42.793  29.750  34.330  1.00  0.00     0.049 A 
ATOM     50  H   UNL A   1      41.092  30.401  33.265  1.00  0.00     0.167 HD
ATOM     51  C   UNL A   1      42.819  28.389  32.256  1.00  0.00     0.074 A 
ATOM     52  C   UNL A   1      43.400  27.391  31.382  1.00  0.00     0.031 C 
ATOM     53  C   UNL A   1      43.353  28.763  33.444  1.00  0.00     0.031 A 
BRANCH  40  54
ATOM     54  C   UNL A   1      40.146  33.152  36.384  1.00  0.00    -0.014 A 
ATOM     55  C   UNL A   1      39.370  32.779  37.492  1.00  0.00     0.009 A 
ATOM     56  C   UNL A   1      40.820  34.382  36.407  1.00  0.00     0.009 A 
ATOM     57  C   UNL A   1      39.248  33.637  38.587  1.00  0.00     0.001 A 
ATOM     58  C   UNL A   1      40.717  35.226  37.513  1.00  0.00     0.001 A 
ATOM     59  C   UNL A   1      39.923  34.858  38.599  1.00  0.00     0.000 A 
ENDBRANCH  40  54
BRANCH  41  60
ATOM     60  C   UNL A   1      40.618  27.420  28.215  1.00  0.00    -0.014 A 
ATOM     61  C   UNL A   1      40.044  26.141  28.180  1.00  0.00     0.009 A 
ATOM     62  C   UNL A   1      41.297  27.891  27.079  1.00  0.00     0.009 A 
ATOM     63  C   UNL A   1      40.164  25.343  27.039  1.00  0.00     0.001 A 
ATOM     64  C   UNL A   1      41.391  27.103  25.932  1.00  0.00     0.001 A 
ATOM     65  C   UNL A   1      40.833  25.826  25.915  1.00  0.00     0.000 A 
ENDBRANCH  41  60
BRANCH  53  66
ATOM     66  C   UNL A   1      44.609  28.066  33.880  1.00  0.00    -0.014 A 
ATOM     67  C   UNL A   1      44.560  26.867  34.606  1.00  0.00     0.009 A 
ATOM     68  C   UNL A   1      45.858  28.600  33.523  1.00  0.00     0.009 A 
ATOM     69  C   UNL A   1      45.741  26.230  34.993  1.00  0.00     0.001 A 
ATOM     70  C   UNL A   1      47.035  27.947  33.891  1.00  0.00     0.001 A 
ATOM     71  C   UNL A   1      46.976  26.768  34.632  1.00  0.00     0.000 A 
ENDBRANCH  53  66
ENDBRANCH  27  28
ENDBRANCH  20  22
ENDBRANCH  19  20
ENDBRANCH  18  19
ENDBRANCH   1  18
TORSDOF 14
ENDMDL
