MODEL 1
REMARK VINA RESULT:     -11.2      0.000      0.000
REMARK SMILES Cc1ccc(O[C@H](C)C(=O)NNC(=O)[C@@H]2[C@@H](C(=O)OCCOC(=O)c3ccc(-c4c5nc(c(-c6ccccc6)c6ccc([nH]6)c(-c6ccccc6)c6nc(c(-c7ccccc7)c7ccc4[nH]7)C=C6)C=C5)cc3)[C@@H]3C=C[C@H]2C3)cc1C
REMARK SMILES IDX 19 1 17 2 18 3 16 4 15 5 76 6 73 7 75 8 77 9 74 10 13 11
REMARK SMILES IDX 12 12 14 14 11 15 9 16 10 17 7 19 8 20 6 21 5 22 1 23 2 24
REMARK SMILES IDX 3 25 79 26 4 27 78 28 80 29 20 30 21 31 22 32 23 33 24 34
REMARK SMILES IDX 25 35 26 36 72 37 27 38 71 39 28 40 29 41 30 42 65 43 31 44
REMARK SMILES IDX 70 45 64 46 66 47 32 48 69 49 63 50 62 51 33 53 55 54 40 55
REMARK SMILES IDX 54 56 41 57 44 58 53 59 67 60 42 61 43 62 52 64 68 65 45 66
REMARK SMILES IDX 34 67 35 68 39 69 36 70 38 71 37 72 56 73 57 74 61 75 58 76
REMARK SMILES IDX 60 77 59 78 46 79 47 80 51 81 48 82 50 83 49 84
REMARK H PARENT 12 13 11 18 66 52 44 63
REMARK Flexibility Score: inf
ROOT
ATOM      1  O   UNL A   1      33.948  28.492  25.046  1.00  0.00    -0.462 OA
ENDROOT
BRANCH   1   2
ATOM      2  C   UNL A   1      33.367  27.513  24.306  1.00  0.00     0.310 C 
ATOM      3  O   UNL A   1      33.975  26.776  23.537  1.00  0.00    -0.252 OA
BRANCH   2   4
ATOM      4  C   UNL A   1      31.860  27.477  24.451  1.00  0.00     0.119 C 
ATOM      5  C   UNL A   1      31.213  26.061  24.703  1.00  0.00     0.102 C 
ATOM      6  C   UNL A   1      30.186  25.968  23.542  1.00  0.00     0.025 C 
ATOM      7  C   UNL A   1      31.184  27.920  23.125  1.00  0.00     0.027 C 
ATOM      8  C   UNL A   1      29.135  27.041  23.679  1.00  0.00    -0.027 C 
ATOM      9  C   UNL A   1      30.999  26.584  22.406  1.00  0.00     0.017 C 
ATOM     10  C   UNL A   1      29.734  28.214  23.428  1.00  0.00    -0.027 C 
BRANCH   5  11
ATOM     11  C   UNL A   1      30.694  25.978  26.139  1.00  0.00     0.242 C 
ATOM     12  N   UNL A   1      30.323  24.787  26.701  1.00  0.00    -0.267 N 
ATOM     13  H   UNL A   1      30.107  24.791  27.661  1.00  0.00     0.191 HD
ATOM     14  O   UNL A   1      30.699  26.972  26.872  1.00  0.00    -0.273 OA
BRANCH  12  15
ATOM     15  N   UNL A   1      30.226  23.580  26.037  1.00  0.00    -0.264 N 
ATOM     16  C   UNL A   1      31.237  22.649  25.980  1.00  0.00     0.279 C 
ATOM     17  O   UNL A   1      30.971  21.509  25.587  1.00  0.00    -0.269 OA
ATOM     18  H   UNL A   1      29.381  23.372  25.576  1.00  0.00     0.191 HD
BRANCH  16  19
ATOM     19  C   UNL A   1      32.692  23.081  26.250  1.00  0.00     0.260 C 
ATOM     20  C   UNL A   1      33.167  22.302  27.485  1.00  0.00     0.064 C 
BRANCH  19  21
ATOM     21  O   UNL A   1      33.539  22.865  25.121  1.00  0.00    -0.481 OA
BRANCH  21  22
ATOM     22  C   UNL A   1      34.897  22.865  25.311  1.00  0.00     0.120 A 
ATOM     23  C   UNL A   1      39.139  22.432  26.077  1.00  0.00     0.044 C 
ATOM     24  C   UNL A   1      37.672  22.552  25.766  1.00  0.00    -0.048 A 
ATOM     25  C   UNL A   1      37.030  23.775  26.005  1.00  0.00     0.007 A 
ATOM     26  C   UNL A   1      36.922  21.484  25.241  1.00  0.00    -0.045 A 
ATOM     27  C   UNL A   1      35.662  23.935  25.764  1.00  0.00     0.047 A 
ATOM     28  C   UNL A   1      35.539  21.657  25.025  1.00  0.00     0.050 A 
ATOM     29  C   UNL A   1      37.534  20.160  24.872  1.00  0.00     0.045 C 
ENDBRANCH  21  22
ENDBRANCH  19  21
ENDBRANCH  16  19
ENDBRANCH  12  15
ENDBRANCH   5  11
ENDBRANCH   2   4
ENDBRANCH   1   2
BRANCH   1  30
ATOM     30  C   UNL A   1      33.998  28.253  26.467  1.00  0.00     0.274 C 
BRANCH  30  31
ATOM     31  C   UNL A   1      33.527  29.468  27.262  1.00  0.00     0.275 C 
BRANCH  31  32
ATOM     32  O   UNL A   1      34.507  30.521  27.211  1.00  0.00    -0.458 OA
BRANCH  32  33
ATOM     33  C   UNL A   1      35.093  30.825  28.389  1.00  0.00     0.338 C 
ATOM     34  O   UNL A   1      34.688  31.590  29.248  1.00  0.00    -0.246 OA
BRANCH  33  35
ATOM     35  C   UNL A   1      36.348  30.073  28.542  1.00  0.00     0.060 A 
ATOM     36  C   UNL A   1      36.618  29.413  29.740  1.00  0.00     0.016 A 
ATOM     37  C   UNL A   1      37.330  30.178  27.558  1.00  0.00     0.016 A 
ATOM     38  C   UNL A   1      37.909  28.960  30.006  1.00  0.00     0.010 A 
ATOM     39  C   UNL A   1      38.595  29.628  27.787  1.00  0.00     0.010 A 
ATOM     40  C   UNL A   1      38.913  29.053  29.031  1.00  0.00    -0.014 A 
BRANCH  40  41
ATOM     41  C   UNL A   1      40.298  28.588  29.310  1.00  0.00     0.031 A 
ATOM     42  C   UNL A   1      41.264  29.478  30.049  1.00  0.00     0.074 A 
ATOM     43  C   UNL A   1      40.708  27.373  28.898  1.00  0.00     0.049 A 
ATOM     44  N   UNL A   1      42.560  29.354  30.192  1.00  0.00    -0.248 NA
ATOM     45  C   UNL A   1      40.700  30.671  30.703  1.00  0.00     0.031 C 
ATOM     46  C   UNL A   1      39.877  26.377  28.220  1.00  0.00     0.029 A 
ATOM     47  N   UNL A   1      41.939  26.770  28.990  1.00  0.00    -0.354 N 
ATOM     48  C   UNL A   1      42.974  30.481  30.892  1.00  0.00     0.074 A 
ATOM     49  C   UNL A   1      41.792  31.273  31.155  1.00  0.00     0.031 C 
ATOM     50  C   UNL A   1      40.610  25.278  27.987  1.00  0.00     0.029 A 
ATOM     51  C   UNL A   1      41.981  25.523  28.416  1.00  0.00     0.049 A 
ATOM     52  H   UNL A   1      42.715  27.191  29.424  1.00  0.00     0.167 HD
ATOM     53  C   UNL A   1      44.227  30.829  31.273  1.00  0.00     0.031 A 
ATOM     54  C   UNL A   1      43.014  24.685  28.210  1.00  0.00     0.031 A 
ATOM     55  C   UNL A   1      45.398  30.022  31.055  1.00  0.00     0.049 A 
ATOM     56  C   UNL A   1      44.396  25.101  28.615  1.00  0.00     0.074 A 
ATOM     57  C   UNL A   1      46.711  30.291  31.407  1.00  0.00     0.029 A 
ATOM     58  N   UNL A   1      45.393  28.776  30.450  1.00  0.00    -0.354 N 
ATOM     59  N   UNL A   1      44.786  26.207  29.202  1.00  0.00    -0.248 NA
ATOM     60  C   UNL A   1      45.485  24.163  28.309  1.00  0.00     0.031 C 
ATOM     61  C   UNL A   1      47.505  29.217  30.990  1.00  0.00     0.029 A 
ATOM     62  C   UNL A   1      46.680  28.266  30.413  1.00  0.00     0.049 A 
ATOM     63  H   UNL A   1      44.594  28.322  30.099  1.00  0.00     0.167 HD
ATOM     64  C   UNL A   1      46.162  26.095  29.338  1.00  0.00     0.074 A 
ATOM     65  C   UNL A   1      46.538  24.808  28.791  1.00  0.00     0.031 C 
ATOM     66  C   UNL A   1      47.037  26.986  29.864  1.00  0.00     0.031 A 
BRANCH  53  67
ATOM     67  C   UNL A   1      44.405  32.168  31.930  1.00  0.00    -0.014 A 
ATOM     68  C   UNL A   1      44.420  32.304  33.325  1.00  0.00     0.009 A 
ATOM     69  C   UNL A   1      44.603  33.305  31.131  1.00  0.00     0.009 A 
ATOM     70  C   UNL A   1      44.605  33.561  33.908  1.00  0.00     0.001 A 
ATOM     71  C   UNL A   1      44.808  34.556  31.716  1.00  0.00     0.001 A 
ATOM     72  C   UNL A   1      44.803  34.683  33.104  1.00  0.00     0.000 A 
ENDBRANCH  53  67
BRANCH  54  73
ATOM     73  C   UNL A   1      42.780  23.386  27.532  1.00  0.00    -0.014 A 
ATOM     74  C   UNL A   1      43.052  23.238  26.165  1.00  0.00     0.009 A 
ATOM     75  C   UNL A   1      42.302  22.282  28.256  1.00  0.00     0.009 A 
ATOM     76  C   UNL A   1      42.841  22.010  25.534  1.00  0.00     0.001 A 
ATOM     77  C   UNL A   1      42.117  21.050  27.629  1.00  0.00     0.001 A 
ATOM     78  C   UNL A   1      42.381  20.917  26.267  1.00  0.00     0.000 A 
ENDBRANCH  54  73
BRANCH  66  79
ATOM     79  C   UNL A   1      48.480  26.581  29.897  1.00  0.00    -0.014 A 
ATOM     80  C   UNL A   1      48.998  25.846  30.974  1.00  0.00     0.009 A 
ATOM     81  C   UNL A   1      49.321  26.916  28.827  1.00  0.00     0.009 A 
ATOM     82  C   UNL A   1      50.344  25.476  30.989  1.00  0.00     0.001 A 
ATOM     83  C   UNL A   1      50.662  26.529  28.836  1.00  0.00     0.001 A 
ATOM     84  C   UNL A   1      51.173  25.816  29.919  1.00  0.00     0.000 A 
ENDBRANCH  66  79
ENDBRANCH  40  41
ENDBRANCH  33  35
ENDBRANCH  32  33
ENDBRANCH  31  32
ENDBRANCH  30  31
ENDBRANCH   1  30
TORSDOF 16
ENDMDL
MODEL 2
REMARK VINA RESULT:     -11.0      1.868      7.704
REMARK SMILES Cc1ccc(O[C@H](C)C(=O)NNC(=O)[C@@H]2[C@@H](C(=O)OCCOC(=O)c3ccc(-c4c5nc(c(-c6ccccc6)c6ccc([nH]6)c(-c6ccccc6)c6nc(c(-c7ccccc7)c7ccc4[nH]7)C=C6)C=C5)cc3)[C@@H]3C=C[C@H]2C3)cc1C
REMARK SMILES IDX 19 1 17 2 18 3 16 4 15 5 76 6 73 7 75 8 77 9 74 10 13 11
REMARK SMILES IDX 12 12 14 14 11 15 9 16 10 17 7 19 8 20 6 21 5 22 1 23 2 24
REMARK SMILES IDX 3 25 79 26 4 27 78 28 80 29 20 30 21 31 22 32 23 33 24 34
REMARK SMILES IDX 25 35 26 36 72 37 27 38 71 39 28 40 29 41 30 42 65 43 31 44
REMARK SMILES IDX 70 45 64 46 66 47 32 48 69 49 63 50 62 51 33 53 55 54 40 55
REMARK SMILES IDX 54 56 41 57 44 58 53 59 67 60 42 61 43 62 52 64 68 65 45 66
REMARK SMILES IDX 34 67 35 68 39 69 36 70 38 71 37 72 56 73 57 74 61 75 58 76
REMARK SMILES IDX 60 77 59 78 46 79 47 80 51 81 48 82 50 83 49 84
REMARK H PARENT 12 13 11 18 66 52 44 63
REMARK Flexibility Score: inf
ROOT
ATOM      1  O   UNL A   1      36.996  21.601  24.328  1.00  0.00    -0.462 OA
ENDROOT
BRANCH   1   2
ATOM      2  C   UNL A   1      35.977  22.448  24.622  1.00  0.00     0.310 C 
ATOM      3  O   UNL A   1      36.123  23.549  25.144  1.00  0.00    -0.252 OA
BRANCH   2   4
ATOM      4  C   UNL A   1      34.613  21.860  24.327  1.00  0.00     0.119 C 
ATOM      5  C   UNL A   1      33.368  22.684  24.836  1.00  0.00     0.102 C 
ATOM      6  C   UNL A   1      32.621  21.631  25.699  1.00  0.00     0.025 C 
ATOM      7  C   UNL A   1      34.442  20.507  25.068  1.00  0.00     0.027 C 
ATOM      8  C   UNL A   1      32.156  20.480  24.844  1.00  0.00    -0.027 C 
ATOM      9  C   UNL A   1      33.802  20.948  26.384  1.00  0.00     0.017 C 
ATOM     10  C   UNL A   1      33.249  19.803  24.465  1.00  0.00    -0.027 C 
BRANCH   5  11
ATOM     11  C   UNL A   1      32.633  23.298  23.645  1.00  0.00     0.242 C 
ATOM     12  N   UNL A   1      31.457  23.980  23.801  1.00  0.00    -0.267 N 
ATOM     13  H   UNL A   1      31.098  24.445  23.011  1.00  0.00     0.191 HD
ATOM     14  O   UNL A   1      33.137  23.291  22.518  1.00  0.00    -0.273 OA
BRANCH  12  15
ATOM     15  N   UNL A   1      30.730  24.073  24.972  1.00  0.00    -0.264 N 
ATOM     16  C   UNL A   1      30.459  25.257  25.617  1.00  0.00     0.279 C 
ATOM     17  O   UNL A   1      29.598  25.265  26.503  1.00  0.00    -0.269 OA
ATOM     18  H   UNL A   1      30.385  23.241  25.369  1.00  0.00     0.191 HD
BRANCH  16  19
ATOM     19  C   UNL A   1      31.330  26.498  25.340  1.00  0.00     0.260 C 
ATOM     20  C   UNL A   1      32.675  26.264  26.042  1.00  0.00     0.064 C 
BRANCH  19  21
ATOM     21  O   UNL A   1      31.489  26.746  23.943  1.00  0.00    -0.481 OA
BRANCH  21  22
ATOM     22  C   UNL A   1      30.753  27.750  23.368  1.00  0.00     0.120 A 
ATOM     23  C   UNL A   1      28.107  30.596  21.452  1.00  0.00     0.044 C 
ATOM     24  C   UNL A   1      28.994  29.610  22.162  1.00  0.00    -0.048 A 
ATOM     25  C   UNL A   1      30.382  29.709  21.995  1.00  0.00     0.007 A 
ATOM     26  C   UNL A   1      28.481  28.594  22.988  1.00  0.00    -0.045 A 
ATOM     27  C   UNL A   1      31.252  28.800  22.605  1.00  0.00     0.047 A 
ATOM     28  C   UNL A   1      29.373  27.673  23.578  1.00  0.00     0.050 A 
ATOM     29  C   UNL A   1      27.016  28.454  23.298  1.00  0.00     0.045 C 
ENDBRANCH  21  22
ENDBRANCH  19  21
ENDBRANCH  16  19
ENDBRANCH  12  15
ENDBRANCH   5  11
ENDBRANCH   2   4
ENDBRANCH   1   2
BRANCH   1  30
ATOM     30  C   UNL A   1      38.024  21.490  25.332  1.00  0.00     0.274 C 
BRANCH  30  31
ATOM     31  C   UNL A   1      38.783  20.170  25.223  1.00  0.00     0.275 C 
BRANCH  31  32
ATOM     32  O   UNL A   1      39.709  20.023  26.314  1.00  0.00    -0.458 OA
BRANCH  32  33
ATOM     33  C   UNL A   1      41.015  20.037  25.972  1.00  0.00     0.338 C 
ATOM     34  O   UNL A   1      41.613  19.231  25.280  1.00  0.00    -0.246 OA
BRANCH  33  35
ATOM     35  C   UNL A   1      41.679  21.214  26.552  1.00  0.00     0.060 A 
ATOM     36  C   UNL A   1      41.867  21.294  27.931  1.00  0.00     0.016 A 
ATOM     37  C   UNL A   1      41.949  22.315  25.740  1.00  0.00     0.016 A 
ATOM     38  C   UNL A   1      42.211  22.512  28.515  1.00  0.00     0.010 A 
ATOM     39  C   UNL A   1      42.397  23.505  26.320  1.00  0.00     0.010 A 
ATOM     40  C   UNL A   1      42.489  23.632  27.718  1.00  0.00    -0.014 A 
BRANCH  40  41
ATOM     41  C   UNL A   1      42.842  24.941  28.331  1.00  0.00     0.031 A 
ATOM     42  C   UNL A   1      41.771  25.967  28.598  1.00  0.00     0.074 A 
ATOM     43  C   UNL A   1      44.120  25.227  28.644  1.00  0.00     0.049 A 
ATOM     44  N   UNL A   1      41.898  27.233  28.911  1.00  0.00    -0.248 NA
ATOM     45  C   UNL A   1      40.375  25.514  28.487  1.00  0.00     0.031 C 
ATOM     46  C   UNL A   1      45.259  24.320  28.496  1.00  0.00     0.029 A 
ATOM     47  N   UNL A   1      44.676  26.376  29.153  1.00  0.00    -0.354 N 
ATOM     48  C   UNL A   1      40.605  27.741  28.970  1.00  0.00     0.074 A 
ATOM     49  C   UNL A   1      39.707  26.645  28.671  1.00  0.00     0.031 C 
ATOM     50  C   UNL A   1      46.369  24.933  28.934  1.00  0.00     0.029 A 
ATOM     51  C   UNL A   1      46.038  26.302  29.308  1.00  0.00     0.049 A 
ATOM     52  H   UNL A   1      44.149  27.175  29.383  1.00  0.00     0.167 HD
ATOM     53  C   UNL A   1      40.203  29.006  29.239  1.00  0.00     0.031 A 
ATOM     54  C   UNL A   1      46.934  27.241  29.665  1.00  0.00     0.031 A 
ATOM     55  C   UNL A   1      41.089  30.086  29.583  1.00  0.00     0.049 A 
ATOM     56  C   UNL A   1      46.471  28.642  29.932  1.00  0.00     0.074 A 
ATOM     57  C   UNL A   1      40.774  31.404  29.873  1.00  0.00     0.029 A 
ATOM     58  N   UNL A   1      42.464  29.967  29.707  1.00  0.00    -0.354 N 
ATOM     59  N   UNL A   1      45.254  29.128  29.902  1.00  0.00    -0.248 NA
ATOM     60  C   UNL A   1      47.509  29.629  30.260  1.00  0.00     0.031 C 
ATOM     61  C   UNL A   1      41.963  32.088  30.148  1.00  0.00     0.029 A 
ATOM     62  C   UNL A   1      43.012  31.187  30.063  1.00  0.00     0.049 A 
ATOM     63  H   UNL A   1      42.975  29.138  29.562  1.00  0.00     0.167 HD
ATOM     64  C   UNL A   1      45.380  30.474  30.211  1.00  0.00     0.074 A 
ATOM     65  C   UNL A   1      46.787  30.726  30.443  1.00  0.00     0.031 C 
ATOM     66  C   UNL A   1      44.413  31.420  30.288  1.00  0.00     0.031 A 
BRANCH  53  67
ATOM     67  C   UNL A   1      38.736  29.306  29.128  1.00  0.00    -0.014 A 
ATOM     68  C   UNL A   1      37.883  29.214  30.237  1.00  0.00     0.009 A 
ATOM     69  C   UNL A   1      38.210  29.728  27.897  1.00  0.00     0.009 A 
ATOM     70  C   UNL A   1      36.524  29.516  30.108  1.00  0.00     0.001 A 
ATOM     71  C   UNL A   1      36.857  30.049  27.776  1.00  0.00     0.001 A 
ATOM     72  C   UNL A   1      36.014  29.936  28.880  1.00  0.00     0.000 A 
ENDBRANCH  53  67
BRANCH  54  73
ATOM     73  C   UNL A   1      48.375  26.891  29.731  1.00  0.00    -0.014 A 
ATOM     74  C   UNL A   1      48.933  26.397  30.918  1.00  0.00     0.009 A 
ATOM     75  C   UNL A   1      49.193  27.030  28.598  1.00  0.00     0.009 A 
ATOM     76  C   UNL A   1      50.286  26.058  30.973  1.00  0.00     0.001 A 
ATOM     77  C   UNL A   1      50.539  26.665  28.648  1.00  0.00     0.001 A 
ATOM     78  C   UNL A   1      51.085  26.185  29.836  1.00  0.00     0.000 A 
ENDBRANCH  54  73
BRANCH  66  79
ATOM     79  C   UNL A   1      44.847  32.805  30.665  1.00  0.00    -0.014 A 
ATOM     80  C   UNL A   1      44.960  33.183  32.012  1.00  0.00     0.009 A 
ATOM     81  C   UNL A   1      45.171  33.730  29.664  1.00  0.00     0.009 A 
ATOM     82  C   UNL A   1      45.366  34.475  32.347  1.00  0.00     0.001 A 
ATOM     83  C   UNL A   1      45.594  35.016  30.002  1.00  0.00     0.001 A 
ATOM     84  C   UNL A   1      45.684  35.389  31.343  1.00  0.00     0.000 A 
ENDBRANCH  66  79
ENDBRANCH  40  41
ENDBRANCH  33  35
ENDBRANCH  32  33
ENDBRANCH  31  32
ENDBRANCH  30  31
ENDBRANCH   1  30
TORSDOF 16
ENDMDL
MODEL 3
REMARK VINA RESULT:     -11.0      2.997      8.508
REMARK SMILES Cc1ccc(O[C@H](C)C(=O)NNC(=O)[C@@H]2[C@@H](C(=O)OCCOC(=O)c3ccc(-c4c5nc(c(-c6ccccc6)c6ccc([nH]6)c(-c6ccccc6)c6nc(c(-c7ccccc7)c7ccc4[nH]7)C=C6)C=C5)cc3)[C@@H]3C=C[C@H]2C3)cc1C
REMARK SMILES IDX 19 1 17 2 18 3 16 4 15 5 76 6 73 7 75 8 77 9 74 10 13 11
REMARK SMILES IDX 12 12 14 14 11 15 9 16 10 17 7 19 8 20 6 21 5 22 1 23 2 24
REMARK SMILES IDX 3 25 79 26 4 27 78 28 80 29 20 30 21 31 22 32 23 33 24 34
REMARK SMILES IDX 25 35 26 36 72 37 27 38 71 39 28 40 29 41 30 42 65 43 31 44
REMARK SMILES IDX 70 45 64 46 66 47 32 48 69 49 63 50 62 51 33 53 55 54 40 55
REMARK SMILES IDX 54 56 41 57 44 58 53 59 67 60 42 61 43 62 52 64 68 65 45 66
REMARK SMILES IDX 34 67 35 68 39 69 36 70 38 71 37 72 56 73 57 74 61 75 58 76
REMARK SMILES IDX 60 77 59 78 46 79 47 80 51 81 48 82 50 83 49 84
REMARK H PARENT 12 13 11 18 66 52 44 63
REMARK Flexibility Score: inf
ROOT
ATOM      1  O   UNL A   1      36.469  21.741  24.767  1.00  0.00    -0.462 OA
ENDROOT
BRANCH   1   2
ATOM      2  C   UNL A   1      35.335  21.385  25.423  1.00  0.00     0.310 C 
ATOM      3  O   UNL A   1      35.185  21.468  26.638  1.00  0.00    -0.252 OA
BRANCH   2   4
ATOM      4  C   UNL A   1      34.289  20.779  24.512  1.00  0.00     0.119 C 
ATOM      5  C   UNL A   1      32.789  21.162  24.812  1.00  0.00     0.102 C 
ATOM      6  C   UNL A   1      32.131  19.766  24.979  1.00  0.00     0.025 C 
ATOM      7  C   UNL A   1      34.275  19.234  24.667  1.00  0.00     0.027 C 
ATOM      8  C   UNL A   1      32.210  18.986  23.691  1.00  0.00    -0.027 C 
ATOM      9  C   UNL A   1      33.223  19.038  25.758  1.00  0.00     0.017 C 
ATOM     10  C   UNL A   1      33.498  18.665  23.503  1.00  0.00    -0.027 C 
BRANCH   5  11
ATOM     11  C   UNL A   1      32.262  22.085  23.713  1.00  0.00     0.242 C 
ATOM     12  N   UNL A   1      31.329  23.051  23.973  1.00  0.00    -0.267 N 
ATOM     13  H   UNL A   1      31.119  23.682  23.247  1.00  0.00     0.191 HD
ATOM     14  O   UNL A   1      32.746  22.058  22.577  1.00  0.00    -0.273 OA
BRANCH  12  15
ATOM     15  N   UNL A   1      30.656  23.219  25.168  1.00  0.00    -0.264 N 
ATOM     16  C   UNL A   1      30.709  24.365  25.926  1.00  0.00     0.279 C 
ATOM     17  O   UNL A   1      29.883  24.513  26.833  1.00  0.00    -0.269 OA
ATOM     18  H   UNL A   1      30.105  22.472  25.497  1.00  0.00     0.191 HD
BRANCH  16  19
ATOM     19  C   UNL A   1      31.876  25.355  25.740  1.00  0.00     0.260 C 
ATOM     20  C   UNL A   1      33.150  24.635  26.205  1.00  0.00     0.064 C 
BRANCH  19  21
ATOM     21  O   UNL A   1      31.982  25.817  24.393  1.00  0.00    -0.481 OA
BRANCH  21  22
ATOM     22  C   UNL A   1      31.369  26.997  24.056  1.00  0.00     0.120 A 
ATOM     23  C   UNL A   1      29.388  30.802  23.449  1.00  0.00     0.044 C 
ATOM     24  C   UNL A   1      30.121  29.508  23.672  1.00  0.00    -0.048 A 
ATOM     25  C   UNL A   1      29.854  28.425  22.822  1.00  0.00     0.007 A 
ATOM     26  C   UNL A   1      31.069  29.345  24.698  1.00  0.00    -0.045 A 
ATOM     27  C   UNL A   1      30.482  27.190  23.001  1.00  0.00     0.047 A 
ATOM     28  C   UNL A   1      31.678  28.085  24.877  1.00  0.00     0.050 A 
ATOM     29  C   UNL A   1      31.488  30.467  25.608  1.00  0.00     0.045 C 
ENDBRANCH  21  22
ENDBRANCH  19  21
ENDBRANCH  16  19
ENDBRANCH  12  15
ENDBRANCH   5  11
ENDBRANCH   2   4
ENDBRANCH   1   2
BRANCH   1  30
ATOM     30  C   UNL A   1      37.545  20.783  24.817  1.00  0.00     0.274 C 
BRANCH  30  31
ATOM     31  C   UNL A   1      38.636  21.207  25.798  1.00  0.00     0.275 C 
BRANCH  31  32
ATOM     32  O   UNL A   1      38.784  22.638  25.807  1.00  0.00    -0.458 OA
BRANCH  32  33
ATOM     33  C   UNL A   1      39.999  23.092  26.185  1.00  0.00     0.338 C 
ATOM     34  O   UNL A   1      41.079  22.550  26.029  1.00  0.00    -0.246 OA
BRANCH  33  35
ATOM     35  C   UNL A   1      39.869  24.405  26.836  1.00  0.00     0.060 A 
ATOM     36  C   UNL A   1      40.564  25.501  26.327  1.00  0.00     0.016 A 
ATOM     37  C   UNL A   1      39.201  24.499  28.056  1.00  0.00     0.016 A 
ATOM     38  C   UNL A   1      40.692  26.658  27.094  1.00  0.00     0.010 A 
ATOM     39  C   UNL A   1      39.244  25.698  28.774  1.00  0.00     0.010 A 
ATOM     40  C   UNL A   1      40.027  26.776  28.323  1.00  0.00    -0.014 A 
BRANCH  40  41
ATOM     41  C   UNL A   1      40.170  28.000  29.158  1.00  0.00     0.031 A 
ATOM     42  C   UNL A   1      41.321  28.132  30.122  1.00  0.00     0.074 A 
ATOM     43  C   UNL A   1      39.269  28.997  29.069  1.00  0.00     0.049 A 
ATOM     44  N   UNL A   1      41.498  29.002  31.085  1.00  0.00    -0.248 NA
ATOM     45  C   UNL A   1      42.410  27.150  29.994  1.00  0.00     0.031 C 
ATOM     46  C   UNL A   1      38.133  29.041  28.148  1.00  0.00     0.029 A 
ATOM     47  N   UNL A   1      39.169  30.171  29.775  1.00  0.00    -0.354 N 
ATOM     48  C   UNL A   1      42.680  28.633  31.716  1.00  0.00     0.074 A 
ATOM     49  C   UNL A   1      43.184  27.468  31.021  1.00  0.00     0.031 C 
ATOM     50  C   UNL A   1      37.470  30.195  28.320  1.00  0.00     0.029 A 
ATOM     51  C   UNL A   1      38.080  30.930  29.422  1.00  0.00     0.049 A 
ATOM     52  H   UNL A   1      39.815  30.442  30.466  1.00  0.00     0.167 HD
ATOM     53  C   UNL A   1      43.285  29.208  32.784  1.00  0.00     0.031 A 
ATOM     54  C   UNL A   1      37.591  32.066  29.954  1.00  0.00     0.031 A 
ATOM     55  C   UNL A   1      42.812  30.393  33.447  1.00  0.00     0.049 A 
ATOM     56  C   UNL A   1      38.260  32.670  31.151  1.00  0.00     0.074 A 
ATOM     57  C   UNL A   1      43.359  31.051  34.537  1.00  0.00     0.029 A 
ATOM     58  N   UNL A   1      41.692  31.114  33.067  1.00  0.00    -0.354 N 
ATOM     59  N   UNL A   1      39.331  32.264  31.790  1.00  0.00    -0.248 NA
ATOM     60  C   UNL A   1      37.640  33.877  31.715  1.00  0.00     0.031 C 
ATOM     61  C   UNL A   1      42.554  32.156  34.832  1.00  0.00     0.029 A 
ATOM     62  C   UNL A   1      41.528  32.205  33.903  1.00  0.00     0.049 A 
ATOM     63  H   UNL A   1      41.101  30.884  32.314  1.00  0.00     0.167 HD
ATOM     64  C   UNL A   1      39.514  33.167  32.827  1.00  0.00     0.074 A 
ATOM     65  C   UNL A   1      38.458  34.153  32.722  1.00  0.00     0.031 C 
ATOM     66  C   UNL A   1      40.471  33.174  33.786  1.00  0.00     0.031 A 
BRANCH  53  67
ATOM     67  C   UNL A   1      44.509  28.533  33.333  1.00  0.00    -0.014 A 
ATOM     68  C   UNL A   1      44.416  27.488  34.263  1.00  0.00     0.009 A 
ATOM     69  C   UNL A   1      45.777  28.928  32.876  1.00  0.00     0.009 A 
ATOM     70  C   UNL A   1      45.572  26.867  34.743  1.00  0.00     0.001 A 
ATOM     71  C   UNL A   1      46.928  28.292  33.342  1.00  0.00     0.001 A 
ATOM     72  C   UNL A   1      46.825  27.267  34.280  1.00  0.00     0.000 A 
ENDBRANCH  53  67
BRANCH  54  73
ATOM     73  C   UNL A   1      36.362  32.672  29.383  1.00  0.00    -0.014 A 
ATOM     74  C   UNL A   1      36.450  33.716  28.452  1.00  0.00     0.009 A 
ATOM     75  C   UNL A   1      35.095  32.192  29.753  1.00  0.00     0.009 A 
ATOM     76  C   UNL A   1      35.292  34.275  27.909  1.00  0.00     0.001 A 
ATOM     77  C   UNL A   1      33.940  32.735  29.190  1.00  0.00     0.001 A 
ATOM     78  C   UNL A   1      34.039  33.779  28.273  1.00  0.00     0.000 A 
ENDBRANCH  54  73
BRANCH  66  79
ATOM     79  C   UNL A   1      40.431  34.298  34.777  1.00  0.00    -0.014 A 
ATOM     80  C   UNL A   1      39.671  34.195  35.953  1.00  0.00     0.009 A 
ATOM     81  C   UNL A   1      41.180  35.459  34.544  1.00  0.00     0.009 A 
ATOM     82  C   UNL A   1      39.645  35.250  36.866  1.00  0.00     0.001 A 
ATOM     83  C   UNL A   1      41.166  36.505  35.467  1.00  0.00     0.001 A 
ATOM     84  C   UNL A   1      40.393  36.402  36.624  1.00  0.00     0.000 A 
ENDBRANCH  66  79
ENDBRANCH  40  41
ENDBRANCH  33  35
ENDBRANCH  32  33
ENDBRANCH  31  32
ENDBRANCH  30  31
ENDBRANCH   1  30
TORSDOF 16
ENDMDL
