MODEL 1
REMARK VINA RESULT:     -10.8      0.000      0.000
REMARK SMILES CCc1nn(-c2ccncn2)c(Cl)c1C(=O)OCCOC(=O)c1ccc(-c2c3nc(c(-c4ccccc4)c4ccc([nH]4)c(-c4ccccc4)c4nc(c(-c5ccccc5)c5ccc2[nH]5)C=C4)C=C3)cc1
REMARK SMILES IDX 19 1 18 2 17 3 15 4 16 5 14 6 3 7 4 8 5 9 12 10 13 11 2 12
REMARK SMILES IDX 1 13 6 14 7 15 11 16 8 17 10 18 9 19 20 20 21 21 22 22 23 23
REMARK SMILES IDX 24 24 70 25 25 26 69 27 26 28 27 29 28 30 63 31 29 32 68 33
REMARK SMILES IDX 62 34 64 35 30 36 67 37 61 38 60 39 31 41 53 42 38 43 52 44
REMARK SMILES IDX 39 45 42 46 51 47 65 48 40 49 41 50 50 52 66 53 43 54 32 55
REMARK SMILES IDX 33 56 37 57 34 58 36 59 35 60 54 61 55 62 59 63 56 64 58 65
REMARK SMILES IDX 57 66 44 67 45 68 49 69 46 70 48 71 47 72
REMARK H PARENT 64 40 42 51
REMARK Flexibility Score: inf
ROOT
ATOM      1  C   UNL A   1      38.163  22.650  25.937  1.00  0.00     0.275 C 
ENDROOT
BRANCH   1   2
ATOM      2  C   UNL A   1      37.031  23.441  25.293  1.00  0.00     0.275 C 
BRANCH   2   3
ATOM      3  O   UNL A   1      35.751  22.965  25.746  1.00  0.00    -0.458 OA
BRANCH   3   4
ATOM      4  C   UNL A   1      34.743  22.990  24.825  1.00  0.00     0.343 C 
ATOM      5  O   UNL A   1      34.597  23.896  24.011  1.00  0.00    -0.246 OA
BRANCH   4   6
ATOM      6  C   UNL A   1      33.928  21.790  24.838  1.00  0.00     0.120 A 
ATOM      7  C   UNL A   1      32.511  21.621  24.864  1.00  0.00     0.079 A 
ATOM      8  N   UNL A   1      32.154  20.326  24.827  1.00  0.00    -0.169 NA
ATOM      9  N   UNL A   1      33.329  19.645  24.884  1.00  0.00    -0.203 N 
ATOM     10  C   UNL A   1      34.403  20.499  24.905  1.00  0.00     0.149 A 
ATOM     11  Cl  UNL A   1      36.004  19.894  24.956  1.00  0.00    -0.061 Cl
BRANCH   7  12
ATOM     12  C   UNL A   1      31.444  22.673  24.889  1.00  0.00     0.056 C 
ATOM     13  C   UNL A   1      31.181  23.298  23.525  1.00  0.00     0.011 C 
ENDBRANCH   7  12
BRANCH   9  14
ATOM     14  C   UNL A   1      33.358  18.226  24.890  1.00  0.00     0.158 A 
ATOM     15  C   UNL A   1      34.066  17.579  23.893  1.00  0.00     0.069 A 
ATOM     16  N   UNL A   1      32.599  17.582  25.806  1.00  0.00    -0.217 NA
ATOM     17  C   UNL A   1      33.938  16.209  23.872  1.00  0.00     0.117 A 
ATOM     18  C   UNL A   1      32.533  16.252  25.667  1.00  0.00     0.224 A 
ATOM     19  N   UNL A   1      33.168  15.523  24.735  1.00  0.00    -0.245 NA
ENDBRANCH   9  14
ENDBRANCH   4   6
ENDBRANCH   3   4
ENDBRANCH   2   3
ENDBRANCH   1   2
BRANCH   1  20
ATOM     20  O   UNL A   1      38.777  23.391  26.993  1.00  0.00    -0.458 OA
BRANCH  20  21
ATOM     21  C   UNL A   1      40.121  23.280  27.072  1.00  0.00     0.338 C 
ATOM     22  O   UNL A   1      40.772  22.255  27.180  1.00  0.00    -0.246 OA
BRANCH  21  23
ATOM     23  C   UNL A   1      40.724  24.606  27.206  1.00  0.00     0.060 A 
ATOM     24  C   UNL A   1      41.477  24.846  28.362  1.00  0.00     0.016 A 
ATOM     25  C   UNL A   1      40.281  25.642  26.377  1.00  0.00     0.016 A 
ATOM     26  C   UNL A   1      41.617  26.144  28.796  1.00  0.00     0.010 A 
ATOM     27  C   UNL A   1      40.410  26.935  26.817  1.00  0.00     0.010 A 
ATOM     28  C   UNL A   1      40.997  27.158  28.062  1.00  0.00    -0.014 A 
BRANCH  28  29
ATOM     29  C   UNL A   1      40.965  28.490  28.625  1.00  0.00     0.031 A 
ATOM     30  C   UNL A   1      42.124  29.336  28.268  1.00  0.00     0.074 A 
ATOM     31  C   UNL A   1      39.874  28.938  29.273  1.00  0.00     0.049 A 
ATOM     32  N   UNL A   1      42.956  29.929  29.058  1.00  0.00    -0.248 NA
ATOM     33  C   UNL A   1      42.458  29.445  26.839  1.00  0.00     0.031 C 
ATOM     34  C   UNL A   1      38.564  28.287  29.395  1.00  0.00     0.029 A 
ATOM     35  N   UNL A   1      39.666  30.156  29.835  1.00  0.00    -0.354 N 
ATOM     36  C   UNL A   1      43.831  30.621  28.227  1.00  0.00     0.074 A 
ATOM     37  C   UNL A   1      43.574  30.168  26.885  1.00  0.00     0.031 C 
ATOM     38  C   UNL A   1      37.646  29.212  29.756  1.00  0.00     0.029 A 
ATOM     39  C   UNL A   1      38.328  30.469  30.014  1.00  0.00     0.049 A 
ATOM     40  H   UNL A   1      40.398  30.762  30.091  1.00  0.00     0.167 HD
ATOM     41  C   UNL A   1      44.554  31.685  28.664  1.00  0.00     0.031 A 
ATOM     42  C   UNL A   1      37.819  31.700  30.259  1.00  0.00     0.031 A 
ATOM     43  C   UNL A   1      44.635  31.736  30.098  1.00  0.00     0.049 A 
ATOM     44  C   UNL A   1      38.933  32.569  30.713  1.00  0.00     0.074 A 
ATOM     45  C   UNL A   1      45.158  30.906  31.069  1.00  0.00     0.029 A 
ATOM     46  N   UNL A   1      43.785  32.595  30.752  1.00  0.00    -0.354 N 
ATOM     47  N   UNL A   1      39.551  32.412  31.848  1.00  0.00    -0.248 NA
ATOM     48  C   UNL A   1      39.663  33.329  29.708  1.00  0.00     0.031 C 
ATOM     49  C   UNL A   1      44.242  30.992  32.157  1.00  0.00     0.029 A 
ATOM     50  C   UNL A   1      43.245  31.904  31.807  1.00  0.00     0.049 A 
ATOM     51  H   UNL A   1      43.598  33.531  30.510  1.00  0.00     0.167 HD
ATOM     52  C   UNL A   1      40.886  32.671  31.567  1.00  0.00     0.074 A 
ATOM     53  C   UNL A   1      40.878  33.332  30.264  1.00  0.00     0.031 C 
ATOM     54  C   UNL A   1      41.887  32.071  32.278  1.00  0.00     0.031 A 
BRANCH  41  55
ATOM     55  C   UNL A   1      44.854  32.875  27.793  1.00  0.00    -0.014 A 
ATOM     56  C   UNL A   1      43.802  33.718  27.403  1.00  0.00     0.009 A 
ATOM     57  C   UNL A   1      46.084  33.042  27.124  1.00  0.00     0.009 A 
ATOM     58  C   UNL A   1      43.961  34.641  26.361  1.00  0.00     0.001 A 
ATOM     59  C   UNL A   1      46.259  33.990  26.115  1.00  0.00     0.001 A 
ATOM     60  C   UNL A   1      45.187  34.772  25.715  1.00  0.00     0.000 A 
ENDBRANCH  41  55
BRANCH  42  61
ATOM     61  C   UNL A   1      36.517  32.240  29.819  1.00  0.00    -0.014 A 
ATOM     62  C   UNL A   1      35.598  32.756  30.744  1.00  0.00     0.009 A 
ATOM     63  C   UNL A   1      36.273  32.474  28.451  1.00  0.00     0.009 A 
ATOM     64  C   UNL A   1      34.489  33.498  30.315  1.00  0.00     0.001 A 
ATOM     65  C   UNL A   1      35.166  33.211  28.023  1.00  0.00     0.001 A 
ATOM     66  C   UNL A   1      34.280  33.734  28.957  1.00  0.00     0.000 A 
ENDBRANCH  42  61
BRANCH  54  67
ATOM     67  C   UNL A   1      41.501  31.277  33.503  1.00  0.00    -0.014 A 
ATOM     68  C   UNL A   1      41.148  29.916  33.446  1.00  0.00     0.009 A 
ATOM     69  C   UNL A   1      41.653  31.869  34.765  1.00  0.00     0.009 A 
ATOM     70  C   UNL A   1      40.925  29.181  34.614  1.00  0.00     0.001 A 
ATOM     71  C   UNL A   1      41.450  31.130  35.932  1.00  0.00     0.001 A 
ATOM     72  C   UNL A   1      41.081  29.788  35.857  1.00  0.00     0.000 A 
ENDBRANCH  54  67
ENDBRANCH  28  29
ENDBRANCH  21  23
ENDBRANCH  20  21
ENDBRANCH   1  20
TORSDOF 13
ENDMDL
MODEL 2
REMARK VINA RESULT:     -10.6      4.813      5.995
REMARK SMILES CCc1nn(-c2ccncn2)c(Cl)c1C(=O)OCCOC(=O)c1ccc(-c2c3nc(c(-c4ccccc4)c4ccc([nH]4)c(-c4ccccc4)c4nc(c(-c5ccccc5)c5ccc2[nH]5)C=C4)C=C3)cc1
REMARK SMILES IDX 19 1 18 2 17 3 15 4 16 5 14 6 3 7 4 8 5 9 12 10 13 11 2 12
REMARK SMILES IDX 1 13 6 14 7 15 11 16 8 17 10 18 9 19 20 20 21 21 22 22 23 23
REMARK SMILES IDX 24 24 70 25 25 26 69 27 26 28 27 29 28 30 63 31 29 32 68 33
REMARK SMILES IDX 62 34 64 35 30 36 67 37 61 38 60 39 31 41 53 42 38 43 52 44
REMARK SMILES IDX 39 45 42 46 51 47 65 48 40 49 41 50 50 52 66 53 43 54 32 55
REMARK SMILES IDX 33 56 37 57 34 58 36 59 35 60 54 61 55 62 59 63 56 64 58 65
REMARK SMILES IDX 57 66 44 67 45 68 49 69 46 70 48 71 47 72
REMARK H PARENT 64 40 42 51
REMARK Flexibility Score: inf
ROOT
ATOM      1  C   UNL A   1      46.095  25.620  27.057  1.00  0.00     0.275 C 
ENDROOT
BRANCH   1   2
ATOM      2  C   UNL A   1      45.348  26.567  26.127  1.00  0.00     0.275 C 
BRANCH   2   3
ATOM      3  O   UNL A   1      44.726  25.844  25.051  1.00  0.00    -0.458 OA
BRANCH   3   4
ATOM      4  C   UNL A   1      43.372  25.689  25.138  1.00  0.00     0.343 C 
ATOM      5  O   UNL A   1      42.573  26.573  24.846  1.00  0.00    -0.246 OA
BRANCH   4   6
ATOM      6  C   UNL A   1      42.973  24.344  25.508  1.00  0.00     0.120 A 
ATOM      7  C   UNL A   1      41.966  23.879  26.406  1.00  0.00     0.079 A 
ATOM      8  N   UNL A   1      41.891  22.537  26.434  1.00  0.00    -0.169 NA
ATOM      9  N   UNL A   1      42.913  22.121  25.641  1.00  0.00    -0.203 N 
ATOM     10  C   UNL A   1      43.583  23.183  25.088  1.00  0.00     0.149 A 
ATOM     11  Cl  UNL A   1      44.906  22.930  24.029  1.00  0.00    -0.061 Cl
BRANCH   7  12
ATOM     12  C   UNL A   1      41.016  24.682  27.241  1.00  0.00     0.056 C 
ATOM     13  C   UNL A   1      39.756  25.097  26.492  1.00  0.00     0.011 C 
ENDBRANCH   7  12
BRANCH   9  14
ATOM     14  C   UNL A   1      43.174  20.740  25.441  1.00  0.00     0.158 A 
ATOM     15  C   UNL A   1      42.507  19.823  26.233  1.00  0.00     0.069 A 
ATOM     16  N   UNL A   1      44.146  20.401  24.563  1.00  0.00    -0.217 NA
ATOM     17  C   UNL A   1      42.908  18.516  26.089  1.00  0.00     0.117 A 
ATOM     18  C   UNL A   1      44.465  19.101  24.530  1.00  0.00     0.224 A 
ATOM     19  N   UNL A   1      43.893  18.129  25.258  1.00  0.00    -0.245 NA
ENDBRANCH   9  14
ENDBRANCH   4   6
ENDBRANCH   3   4
ENDBRANCH   2   3
ENDBRANCH   1   2
BRANCH   1  20
ATOM     20  O   UNL A   1      45.277  25.225  28.160  1.00  0.00    -0.458 OA
BRANCH  20  21
ATOM     21  C   UNL A   1      45.484  25.907  29.307  1.00  0.00     0.338 C 
ATOM     22  O   UNL A   1      46.484  25.893  30.005  1.00  0.00    -0.246 OA
BRANCH  21  23
ATOM     23  C   UNL A   1      44.242  26.551  29.737  1.00  0.00     0.060 A 
ATOM     24  C   UNL A   1      43.224  26.665  28.783  1.00  0.00     0.016 A 
ATOM     25  C   UNL A   1      44.234  27.285  30.928  1.00  0.00     0.016 A 
ATOM     26  C   UNL A   1      42.294  27.669  28.932  1.00  0.00     0.010 A 
ATOM     27  C   UNL A   1      43.315  28.294  31.069  1.00  0.00     0.010 A 
ATOM     28  C   UNL A   1      42.417  28.525  30.029  1.00  0.00    -0.014 A 
BRANCH  28  29
ATOM     29  C   UNL A   1      41.574  29.701  30.076  1.00  0.00     0.031 A 
ATOM     30  C   UNL A   1      42.288  30.977  29.855  1.00  0.00     0.074 A 
ATOM     31  C   UNL A   1      40.236  29.587  30.146  1.00  0.00     0.049 A 
ATOM     32  N   UNL A   1      42.339  32.010  30.629  1.00  0.00    -0.248 NA
ATOM     33  C   UNL A   1      43.145  31.068  28.662  1.00  0.00     0.031 C 
ATOM     34  C   UNL A   1      39.426  28.367  30.044  1.00  0.00     0.029 A 
ATOM     35  N   UNL A   1      39.304  30.574  30.173  1.00  0.00    -0.354 N 
ATOM     36  C   UNL A   1      43.106  32.949  29.947  1.00  0.00     0.074 A 
ATOM     37  C   UNL A   1      43.696  32.268  28.825  1.00  0.00     0.031 C 
ATOM     38  C   UNL A   1      38.149  28.710  29.759  1.00  0.00     0.029 A 
ATOM     39  C   UNL A   1      38.038  30.159  29.792  1.00  0.00     0.049 A 
ATOM     40  H   UNL A   1      39.509  31.500  30.436  1.00  0.00     0.167 HD
ATOM     41  C   UNL A   1      43.028  34.279  30.217  1.00  0.00     0.031 A 
ATOM     42  C   UNL A   1      37.005  30.960  29.436  1.00  0.00     0.031 A 
ATOM     43  C   UNL A   1      42.428  34.541  31.496  1.00  0.00     0.049 A 
ATOM     44  C   UNL A   1      37.311  32.332  29.911  1.00  0.00     0.074 A 
ATOM     45  C   UNL A   1      42.757  34.236  32.801  1.00  0.00     0.029 A 
ATOM     46  N   UNL A   1      41.103  34.901  31.515  1.00  0.00    -0.354 N 
ATOM     47  N   UNL A   1      37.356  32.663  31.169  1.00  0.00    -0.248 NA
ATOM     48  C   UNL A   1      38.013  33.231  29.007  1.00  0.00     0.031 C 
ATOM     49  C   UNL A   1      41.513  33.962  33.439  1.00  0.00     0.029 A 
ATOM     50  C   UNL A   1      40.498  34.165  32.503  1.00  0.00     0.049 A 
ATOM     51  H   UNL A   1      40.667  35.562  30.929  1.00  0.00     0.167 HD
ATOM     52  C   UNL A   1      38.423  33.546  31.269  1.00  0.00     0.074 A 
ATOM     53  C   UNL A   1      38.720  33.939  29.892  1.00  0.00     0.031 C 
ATOM     54  C   UNL A   1      39.147  33.653  32.422  1.00  0.00     0.031 A 
BRANCH  41  55
ATOM     55  C   UNL A   1      43.150  35.332  29.149  1.00  0.00    -0.014 A 
ATOM     56  C   UNL A   1      43.928  36.473  29.401  1.00  0.00     0.009 A 
ATOM     57  C   UNL A   1      42.315  35.371  28.013  1.00  0.00     0.009 A 
ATOM     58  C   UNL A   1      43.832  37.610  28.589  1.00  0.00     0.001 A 
ATOM     59  C   UNL A   1      42.250  36.485  27.176  1.00  0.00     0.001 A 
ATOM     60  C   UNL A   1      42.990  37.617  27.481  1.00  0.00     0.000 A 
ENDBRANCH  41  55
BRANCH  42  61
ATOM     61  C   UNL A   1      35.948  30.678  28.444  1.00  0.00    -0.014 A 
ATOM     62  C   UNL A   1      35.892  29.447  27.777  1.00  0.00     0.009 A 
ATOM     63  C   UNL A   1      34.839  31.539  28.328  1.00  0.00     0.009 A 
ATOM     64  C   UNL A   1      34.757  29.081  27.040  1.00  0.00     0.001 A 
ATOM     65  C   UNL A   1      33.708  31.176  27.592  1.00  0.00     0.001 A 
ATOM     66  C   UNL A   1      33.662  29.941  26.957  1.00  0.00     0.000 A 
ENDBRANCH  42  61
BRANCH  54  67
ATOM     67  C   UNL A   1      38.632  32.932  33.646  1.00  0.00    -0.014 A 
ATOM     68  C   UNL A   1      38.890  31.571  33.891  1.00  0.00     0.009 A 
ATOM     69  C   UNL A   1      38.009  33.680  34.655  1.00  0.00     0.009 A 
ATOM     70  C   UNL A   1      38.509  30.972  35.095  1.00  0.00     0.001 A 
ATOM     71  C   UNL A   1      37.646  33.086  35.866  1.00  0.00     0.001 A 
ATOM     72  C   UNL A   1      37.891  31.732  36.084  1.00  0.00     0.000 A 
ENDBRANCH  54  67
ENDBRANCH  28  29
ENDBRANCH  21  23
ENDBRANCH  20  21
ENDBRANCH   1  20
TORSDOF 13
ENDMDL
MODEL 3
REMARK VINA RESULT:     -10.4      3.462      8.035
REMARK SMILES CCc1nn(-c2ccncn2)c(Cl)c1C(=O)OCCOC(=O)c1ccc(-c2c3nc(c(-c4ccccc4)c4ccc([nH]4)c(-c4ccccc4)c4nc(c(-c5ccccc5)c5ccc2[nH]5)C=C4)C=C3)cc1
REMARK SMILES IDX 19 1 18 2 17 3 15 4 16 5 14 6 3 7 4 8 5 9 12 10 13 11 2 12
REMARK SMILES IDX 1 13 6 14 7 15 11 16 8 17 10 18 9 19 20 20 21 21 22 22 23 23
REMARK SMILES IDX 24 24 70 25 25 26 69 27 26 28 27 29 28 30 63 31 29 32 68 33
REMARK SMILES IDX 62 34 64 35 30 36 67 37 61 38 60 39 31 41 53 42 38 43 52 44
REMARK SMILES IDX 39 45 42 46 51 47 65 48 40 49 41 50 50 52 66 53 43 54 32 55
REMARK SMILES IDX 33 56 37 57 34 58 36 59 35 60 54 61 55 62 59 63 56 64 58 65
REMARK SMILES IDX 57 66 44 67 45 68 49 69 46 70 48 71 47 72
REMARK H PARENT 64 40 42 51
REMARK Flexibility Score: inf
ROOT
ATOM      1  C   UNL A   1      33.441  30.837  27.311  1.00  0.00     0.275 C 
ENDROOT
BRANCH   1   2
ATOM      2  C   UNL A   1      32.609  29.575  27.124  1.00  0.00     0.275 C 
BRANCH   2   3
ATOM      3  O   UNL A   1      31.820  29.654  25.924  1.00  0.00    -0.458 OA
BRANCH   3   4
ATOM      4  C   UNL A   1      32.302  28.971  24.844  1.00  0.00     0.343 C 
ATOM      5  O   UNL A   1      33.270  29.344  24.189  1.00  0.00    -0.246 OA
BRANCH   4   6
ATOM      6  C   UNL A   1      31.623  27.709  24.616  1.00  0.00     0.120 A 
ATOM      7  C   UNL A   1      30.379  27.418  23.980  1.00  0.00     0.079 A 
ATOM      8  N   UNL A   1      30.126  26.098  23.941  1.00  0.00    -0.169 NA
ATOM      9  N   UNL A   1      31.145  25.533  24.641  1.00  0.00    -0.203 N 
ATOM     10  C   UNL A   1      32.045  26.479  25.067  1.00  0.00     0.149 A 
ATOM     11  Cl  UNL A   1      33.437  26.027  25.956  1.00  0.00    -0.061 Cl
BRANCH   7  12
ATOM     12  C   UNL A   1      29.402  28.368  23.356  1.00  0.00     0.056 C 
ATOM     13  C   UNL A   1      30.031  29.280  22.311  1.00  0.00     0.011 C 
ENDBRANCH   7  12
BRANCH   9  14
ATOM     14  C   UNL A   1      31.213  24.130  24.840  1.00  0.00     0.158 A 
ATOM     15  C   UNL A   1      30.655  23.603  25.992  1.00  0.00     0.069 A 
ATOM     16  N   UNL A   1      31.918  23.397  23.948  1.00  0.00    -0.217 NA
ATOM     17  C   UNL A   1      30.878  22.261  26.194  1.00  0.00     0.117 A 
ATOM     18  C   UNL A   1      32.089  22.109  24.268  1.00  0.00     0.224 A 
ATOM     19  N   UNL A   1      31.603  21.494  25.358  1.00  0.00    -0.245 NA
ENDBRANCH   9  14
ENDBRANCH   4   6
ENDBRANCH   3   4
ENDBRANCH   2   3
ENDBRANCH   1   2
BRANCH   1  20
ATOM     20  O   UNL A   1      34.827  30.527  27.461  1.00  0.00    -0.458 OA
BRANCH  20  21
ATOM     21  C   UNL A   1      35.572  31.482  28.059  1.00  0.00     0.338 C 
ATOM     22  O   UNL A   1      35.561  32.679  27.830  1.00  0.00    -0.246 OA
BRANCH  21  23
ATOM     23  C   UNL A   1      36.576  30.862  28.924  1.00  0.00     0.060 A 
ATOM     24  C   UNL A   1      37.781  31.554  29.093  1.00  0.00     0.016 A 
ATOM     25  C   UNL A   1      36.435  29.515  29.273  1.00  0.00     0.016 A 
ATOM     26  C   UNL A   1      38.908  30.838  29.428  1.00  0.00     0.010 A 
ATOM     27  C   UNL A   1      37.561  28.799  29.594  1.00  0.00     0.010 A 
ATOM     28  C   UNL A   1      38.791  29.454  29.579  1.00  0.00    -0.014 A 
BRANCH  28  29
ATOM     29  C   UNL A   1      40.003  28.677  29.723  1.00  0.00     0.031 A 
ATOM     30  C   UNL A   1      40.511  28.582  31.109  1.00  0.00     0.074 A 
ATOM     31  C   UNL A   1      40.499  27.975  28.688  1.00  0.00     0.049 A 
ATOM     32  N   UNL A   1      41.672  28.922  31.561  1.00  0.00    -0.248 NA
ATOM     33  C   UNL A   1      39.558  28.151  32.144  1.00  0.00     0.031 C 
ATOM     34  C   UNL A   1      39.888  27.753  27.372  1.00  0.00     0.029 A 
ATOM     35  N   UNL A   1      41.599  27.181  28.655  1.00  0.00    -0.354 N 
ATOM     36  C   UNL A   1      41.655  28.599  32.914  1.00  0.00     0.074 A 
ATOM     37  C   UNL A   1      40.293  28.274  33.246  1.00  0.00     0.031 C 
ATOM     38  C   UNL A   1      40.487  26.692  26.783  1.00  0.00     0.029 A 
ATOM     39  C   UNL A   1      41.594  26.260  27.620  1.00  0.00     0.049 A 
ATOM     40  H   UNL A   1      42.333  27.252  29.307  1.00  0.00     0.167 HD
ATOM     41  C   UNL A   1      42.797  28.398  33.623  1.00  0.00     0.031 A 
ATOM     42  C   UNL A   1      42.384  25.164  27.518  1.00  0.00     0.031 A 
ATOM     43  C   UNL A   1      43.950  28.950  32.967  1.00  0.00     0.049 A 
ATOM     44  C   UNL A   1      43.518  25.335  28.459  1.00  0.00     0.074 A 
ATOM     45  C   UNL A   1      44.335  30.222  32.593  1.00  0.00     0.029 A 
ATOM     46  N   UNL A   1      44.752  28.089  32.260  1.00  0.00    -0.354 N 
ATOM     47  N   UNL A   1      44.451  26.231  28.307  1.00  0.00    -0.248 NA
ATOM     48  C   UNL A   1      43.373  24.814  29.811  1.00  0.00     0.031 C 
ATOM     49  C   UNL A   1      44.999  30.051  31.344  1.00  0.00     0.029 A 
ATOM     50  C   UNL A   1      45.024  28.686  31.055  1.00  0.00     0.049 A 
ATOM     51  H   UNL A   1      45.072  27.207  32.560  1.00  0.00     0.167 HD
ATOM     52  C   UNL A   1      44.714  26.695  29.589  1.00  0.00     0.074 A 
ATOM     53  C   UNL A   1      44.099  25.713  30.481  1.00  0.00     0.031 C 
ATOM     54  C   UNL A   1      45.152  27.971  29.804  1.00  0.00     0.031 A 
BRANCH  41  55
ATOM     55  C   UNL A   1      42.902  27.370  34.717  1.00  0.00    -0.014 A 
ATOM     56  C   UNL A   1      43.048  26.017  34.370  1.00  0.00     0.009 A 
ATOM     57  C   UNL A   1      42.593  27.651  36.064  1.00  0.00     0.009 A 
ATOM     58  C   UNL A   1      42.841  25.001  35.313  1.00  0.00     0.001 A 
ATOM     59  C   UNL A   1      42.429  26.643  37.015  1.00  0.00     0.001 A 
ATOM     60  C   UNL A   1      42.527  25.315  36.632  1.00  0.00     0.000 A 
ENDBRANCH  41  55
BRANCH  42  61
ATOM     61  C   UNL A   1      42.045  23.863  26.907  1.00  0.00    -0.014 A 
ATOM     62  C   UNL A   1      42.901  23.256  25.977  1.00  0.00     0.009 A 
ATOM     63  C   UNL A   1      40.986  23.093  27.426  1.00  0.00     0.009 A 
ATOM     64  C   UNL A   1      42.715  21.919  25.598  1.00  0.00     0.001 A 
ATOM     65  C   UNL A   1      40.799  21.761  27.046  1.00  0.00     0.001 A 
ATOM     66  C   UNL A   1      41.671  21.171  26.140  1.00  0.00     0.000 A 
ENDBRANCH  42  61
BRANCH  54  67
ATOM     67  C   UNL A   1      45.532  28.796  28.597  1.00  0.00    -0.014 A 
ATOM     68  C   UNL A   1      44.600  29.573  27.884  1.00  0.00     0.009 A 
ATOM     69  C   UNL A   1      46.889  28.923  28.268  1.00  0.00     0.009 A 
ATOM     70  C   UNL A   1      45.011  30.425  26.855  1.00  0.00     0.001 A 
ATOM     71  C   UNL A   1      47.302  29.789  27.253  1.00  0.00     0.001 A 
ATOM     72  C   UNL A   1      46.363  30.536  26.544  1.00  0.00     0.000 A 
ENDBRANCH  54  67
ENDBRANCH  28  29
ENDBRANCH  21  23
ENDBRANCH  20  21
ENDBRANCH   1  20
TORSDOF 13
ENDMDL
