MODEL 1
REMARK VINA RESULT:     -11.0      0.000      0.000
REMARK SMILES COc1ccc(C(=O)c2ccccc2)cc1[C@@H](C)C(=O)OCCOC(=O)c1ccc(-c2c3nc(c(-c4ccccc4)c4ccc([nH]4)c(-c4ccccc4)c4nc(c(-c5ccccc5)c5ccc2[nH]5)C=C4)C=C3)cc1
REMARK SMILES IDX 22 1 21 2 19 3 20 4 17 5 18 6 16 7 3 8 4 9 5 10 15 11 6 12
REMARK SMILES IDX 2 13 1 14 7 15 8 16 9 17 10 18 14 19 11 20 13 21 12 22 23 23
REMARK SMILES IDX 24 24 25 25 26 26 27 27 28 28 74 29 29 30 73 31 30 32 31 33
REMARK SMILES IDX 32 34 67 35 33 36 72 37 66 38 68 39 34 40 71 41 65 42 64 43
REMARK SMILES IDX 35 45 57 46 42 47 56 48 43 49 46 50 55 51 69 52 44 53 45 54
REMARK SMILES IDX 54 56 70 57 47 58 36 59 37 60 41 61 38 62 40 63 39 64 58 65
REMARK SMILES IDX 59 66 63 67 60 68 62 69 61 70 48 71 49 72 53 73 50 74 52 75
REMARK SMILES IDX 51 76
REMARK H PARENT 68 44 46 55
REMARK Flexibility Score: inf
ROOT
ATOM      1  C   UNL A   1      32.297  29.729  27.028  1.00  0.00     0.274 C 
ENDROOT
BRANCH   1   2
ATOM      2  O   UNL A   1      32.140  29.510  25.612  1.00  0.00    -0.462 OA
BRANCH   2   3
ATOM      3  C   UNL A   1      33.063  28.743  24.982  1.00  0.00     0.313 C 
ATOM      4  O   UNL A   1      34.243  28.681  25.317  1.00  0.00    -0.252 OA
BRANCH   3   5
ATOM      5  C   UNL A   1      32.527  27.985  23.767  1.00  0.00     0.130 C 
ATOM      6  C   UNL A   1      32.777  28.798  22.498  1.00  0.00     0.025 C 
BRANCH   5   7
ATOM      7  C   UNL A   1      31.085  27.494  23.824  1.00  0.00     0.009 A 
ATOM      8  C   UNL A   1      30.780  26.172  24.179  1.00  0.00     0.122 A 
ATOM      9  C   UNL A   1      29.458  25.714  24.205  1.00  0.00     0.047 A 
ATOM     10  C   UNL A   1      28.411  26.580  23.876  1.00  0.00     0.016 A 
ATOM     11  C   UNL A   1      30.018  28.336  23.471  1.00  0.00     0.020 A 
ATOM     12  C   UNL A   1      28.687  27.895  23.490  1.00  0.00     0.023 A 
BRANCH   8  13
ATOM     13  O   UNL A   1      31.806  25.291  24.393  1.00  0.00    -0.496 OA
ATOM     14  C   UNL A   1      31.333  23.963  24.608  1.00  0.00     0.278 C 
ENDBRANCH   8  13
BRANCH  12  15
ATOM     15  C   UNL A   1      27.558  28.807  23.138  1.00  0.00     0.193 C 
ATOM     16  O   UNL A   1      26.393  28.447  23.280  1.00  0.00    -0.289 OA
BRANCH  15  17
ATOM     17  C   UNL A   1      27.822  30.185  22.657  1.00  0.00     0.022 A 
ATOM     18  C   UNL A   1      27.895  31.218  23.595  1.00  0.00     0.012 A 
ATOM     19  C   UNL A   1      28.034  30.446  21.298  1.00  0.00     0.012 A 
ATOM     20  C   UNL A   1      28.236  32.505  23.177  1.00  0.00     0.001 A 
ATOM     21  C   UNL A   1      28.383  31.733  20.888  1.00  0.00     0.001 A 
ATOM     22  C   UNL A   1      28.492  32.759  21.828  1.00  0.00     0.000 A 
ENDBRANCH  15  17
ENDBRANCH  12  15
ENDBRANCH   5   7
ENDBRANCH   3   5
ENDBRANCH   2   3
ENDBRANCH   1   2
BRANCH   1  23
ATOM     23  C   UNL A   1      32.907  31.105  27.302  1.00  0.00     0.275 C 
BRANCH  23  24
ATOM     24  O   UNL A   1      34.343  31.036  27.311  1.00  0.00    -0.458 OA
BRANCH  24  25
ATOM     25  C   UNL A   1      34.916  31.227  28.521  1.00  0.00     0.338 C 
ATOM     26  O   UNL A   1      34.477  31.847  29.472  1.00  0.00    -0.246 OA
BRANCH  25  27
ATOM     27  C   UNL A   1      36.171  30.472  28.581  1.00  0.00     0.060 A 
ATOM     28  C   UNL A   1      36.618  30.024  29.826  1.00  0.00     0.016 A 
ATOM     29  C   UNL A   1      36.955  30.313  27.440  1.00  0.00     0.016 A 
ATOM     30  C   UNL A   1      37.881  29.452  29.945  1.00  0.00     0.010 A 
ATOM     31  C   UNL A   1      38.210  29.710  27.556  1.00  0.00     0.010 A 
ATOM     32  C   UNL A   1      38.691  29.297  28.813  1.00  0.00    -0.014 A 
BRANCH  32  33
ATOM     33  C   UNL A   1      40.064  28.754  28.936  1.00  0.00     0.031 A 
ATOM     34  C   UNL A   1      41.190  29.661  29.339  1.00  0.00     0.074 A 
ATOM     35  C   UNL A   1      40.306  27.456  28.677  1.00  0.00     0.049 A 
ATOM     36  N   UNL A   1      42.480  29.443  29.304  1.00  0.00    -0.248 NA
ATOM     37  C   UNL A   1      40.815  30.992  29.844  1.00  0.00     0.031 C 
ATOM     38  C   UNL A   1      39.295  26.451  28.346  1.00  0.00     0.029 A 
ATOM     39  N   UNL A   1      41.490  26.764  28.645  1.00  0.00    -0.354 N 
ATOM     40  C   UNL A   1      43.073  30.623  29.735  1.00  0.00     0.074 A 
ATOM     41  C   UNL A   1      42.003  31.551  30.035  1.00  0.00     0.031 C 
ATOM     42  C   UNL A   1      39.901  25.270  28.148  1.00  0.00     0.029 A 
ATOM     43  C   UNL A   1      41.344  25.452  28.268  1.00  0.00     0.049 A 
ATOM     44  H   UNL A   1      42.359  27.168  28.869  1.00  0.00     0.167 HD
ATOM     45  C   UNL A   1      44.391  30.909  29.857  1.00  0.00     0.031 A 
ATOM     46  C   UNL A   1      42.270  24.512  28.003  1.00  0.00     0.031 A 
ATOM     47  C   UNL A   1      45.450  29.979  29.576  1.00  0.00     0.049 A 
ATOM     48  C   UNL A   1      43.726  24.866  28.091  1.00  0.00     0.074 A 
ATOM     49  C   UNL A   1      46.818  30.177  29.655  1.00  0.00     0.029 A 
ATOM     50  N   UNL A   1      45.259  28.667  29.176  1.00  0.00    -0.354 N 
ATOM     51  N   UNL A   1      44.278  26.006  28.431  1.00  0.00    -0.248 NA
ATOM     52  C   UNL A   1      44.687  23.811  27.741  1.00  0.00     0.031 C 
ATOM     53  C   UNL A   1      47.454  28.990  29.276  1.00  0.00     0.029 A 
ATOM     54  C   UNL A   1      46.482  28.044  28.998  1.00  0.00     0.049 A 
ATOM     55  H   UNL A   1      44.382  28.239  29.038  1.00  0.00     0.167 HD
ATOM     56  C   UNL A   1      45.648  25.800  28.351  1.00  0.00     0.074 A 
ATOM     57  C   UNL A   1      45.844  24.426  27.940  1.00  0.00     0.031 C 
ATOM     58  C   UNL A   1      46.654  26.675  28.594  1.00  0.00     0.031 A 
BRANCH  45  59
ATOM     59  C   UNL A   1      44.757  32.305  30.266  1.00  0.00    -0.014 A 
ATOM     60  C   UNL A   1      44.913  33.329  29.320  1.00  0.00     0.009 A 
ATOM     61  C   UNL A   1      44.921  32.603  31.628  1.00  0.00     0.009 A 
ATOM     62  C   UNL A   1      45.250  34.620  29.730  1.00  0.00     0.001 A 
ATOM     63  C   UNL A   1      45.239  33.900  32.036  1.00  0.00     0.001 A 
ATOM     64  C   UNL A   1      45.410  34.905  31.086  1.00  0.00     0.000 A 
ENDBRANCH  45  59
BRANCH  46  65
ATOM     65  C   UNL A   1      41.842  23.157  27.576  1.00  0.00    -0.014 A 
ATOM     66  C   UNL A   1      41.590  22.883  26.224  1.00  0.00     0.009 A 
ATOM     67  C   UNL A   1      41.700  22.127  28.519  1.00  0.00     0.009 A 
ATOM     68  C   UNL A   1      41.192  21.605  25.827  1.00  0.00     0.001 A 
ATOM     69  C   UNL A   1      41.324  20.844  28.115  1.00  0.00     0.001 A 
ATOM     70  C   UNL A   1      41.066  20.586  26.771  1.00  0.00     0.000 A 
ENDBRANCH  46  65
BRANCH  58  71
ATOM     71  C   UNL A   1      48.055  26.157  28.460  1.00  0.00    -0.014 A 
ATOM     72  C   UNL A   1      48.713  26.164  27.221  1.00  0.00     0.009 A 
ATOM     73  C   UNL A   1      48.737  25.698  29.597  1.00  0.00     0.009 A 
ATOM     74  C   UNL A   1      50.026  25.699  27.122  1.00  0.00     0.001 A 
ATOM     75  C   UNL A   1      50.054  25.250  29.497  1.00  0.00     0.001 A 
ATOM     76  C   UNL A   1      50.696  25.246  28.259  1.00  0.00     0.000 A 
ENDBRANCH  58  71
ENDBRANCH  32  33
ENDBRANCH  25  27
ENDBRANCH  24  25
ENDBRANCH  23  24
ENDBRANCH   1  23
TORSDOF 15
ENDMDL
MODEL 2
REMARK VINA RESULT:     -10.8      1.821      4.260
REMARK SMILES COc1ccc(C(=O)c2ccccc2)cc1[C@@H](C)C(=O)OCCOC(=O)c1ccc(-c2c3nc(c(-c4ccccc4)c4ccc([nH]4)c(-c4ccccc4)c4nc(c(-c5ccccc5)c5ccc2[nH]5)C=C4)C=C3)cc1
REMARK SMILES IDX 22 1 21 2 19 3 20 4 17 5 18 6 16 7 3 8 4 9 5 10 15 11 6 12
REMARK SMILES IDX 2 13 1 14 7 15 8 16 9 17 10 18 14 19 11 20 13 21 12 22 23 23
REMARK SMILES IDX 24 24 25 25 26 26 27 27 28 28 74 29 29 30 73 31 30 32 31 33
REMARK SMILES IDX 32 34 67 35 33 36 72 37 66 38 68 39 34 40 71 41 65 42 64 43
REMARK SMILES IDX 35 45 57 46 42 47 56 48 43 49 46 50 55 51 69 52 44 53 45 54
REMARK SMILES IDX 54 56 70 57 47 58 36 59 37 60 41 61 38 62 40 63 39 64 58 65
REMARK SMILES IDX 59 66 63 67 60 68 62 69 61 70 48 71 49 72 53 73 50 74 52 75
REMARK SMILES IDX 51 76
REMARK H PARENT 68 44 46 55
REMARK Flexibility Score: inf
ROOT
ATOM      1  C   UNL A   1      33.017  29.259  26.175  1.00  0.00     0.274 C 
ENDROOT
BRANCH   1   2
ATOM      2  O   UNL A   1      31.660  28.813  25.979  1.00  0.00    -0.462 OA
BRANCH   2   3
ATOM      3  C   UNL A   1      31.341  27.557  26.376  1.00  0.00     0.313 C 
ATOM      4  O   UNL A   1      31.533  27.130  27.511  1.00  0.00    -0.252 OA
BRANCH   3   5
ATOM      5  C   UNL A   1      30.761  26.677  25.268  1.00  0.00     0.130 C 
ATOM      6  C   UNL A   1      29.839  25.622  25.876  1.00  0.00     0.025 C 
BRANCH   5   7
ATOM      7  C   UNL A   1      31.740  26.044  24.287  1.00  0.00     0.009 A 
ATOM      8  C   UNL A   1      32.004  26.632  23.040  1.00  0.00     0.122 A 
ATOM      9  C   UNL A   1      32.883  26.036  22.128  1.00  0.00     0.047 A 
ATOM     10  C   UNL A   1      33.519  24.834  22.452  1.00  0.00     0.016 A 
ATOM     11  C   UNL A   1      32.370  24.822  24.576  1.00  0.00     0.020 A 
ATOM     12  C   UNL A   1      33.253  24.211  23.674  1.00  0.00     0.023 A 
BRANCH   8  13
ATOM     13  O   UNL A   1      31.301  27.747  22.674  1.00  0.00    -0.496 OA
ATOM     14  C   UNL A   1      32.138  28.898  22.574  1.00  0.00     0.278 C 
ENDBRANCH   8  13
BRANCH  12  15
ATOM     15  C   UNL A   1      33.937  22.925  24.005  1.00  0.00     0.193 C 
ATOM     16  O   UNL A   1      33.432  21.849  23.700  1.00  0.00    -0.289 OA
BRANCH  15  17
ATOM     17  C   UNL A   1      35.266  22.924  24.663  1.00  0.00     0.022 A 
ATOM     18  C   UNL A   1      36.204  21.964  24.276  1.00  0.00     0.012 A 
ATOM     19  C   UNL A   1      35.595  23.887  25.625  1.00  0.00     0.012 A 
ATOM     20  C   UNL A   1      37.492  22.002  24.812  1.00  0.00     0.001 A 
ATOM     21  C   UNL A   1      36.887  23.926  26.150  1.00  0.00     0.001 A 
ATOM     22  C   UNL A   1      37.836  22.990  25.738  1.00  0.00     0.000 A 
ENDBRANCH  15  17
ENDBRANCH  12  15
ENDBRANCH   5   7
ENDBRANCH   3   5
ENDBRANCH   2   3
ENDBRANCH   1   2
BRANCH   1  23
ATOM     23  C   UNL A   1      33.088  30.324  27.270  1.00  0.00     0.275 C 
BRANCH  23  24
ATOM     24  O   UNL A   1      34.368  30.979  27.266  1.00  0.00    -0.458 OA
BRANCH  24  25
ATOM     25  C   UNL A   1      34.927  31.149  28.486  1.00  0.00     0.338 C 
ATOM     26  O   UNL A   1      34.473  31.747  29.444  1.00  0.00    -0.246 OA
BRANCH  25  27
ATOM     27  C   UNL A   1      36.186  30.402  28.545  1.00  0.00     0.060 A 
ATOM     28  C   UNL A   1      36.606  29.903  29.780  1.00  0.00     0.016 A 
ATOM     29  C   UNL A   1      37.000  30.300  27.418  1.00  0.00     0.016 A 
ATOM     30  C   UNL A   1      37.870  29.335  29.905  1.00  0.00     0.010 A 
ATOM     31  C   UNL A   1      38.256  29.702  27.539  1.00  0.00     0.010 A 
ATOM     32  C   UNL A   1      38.710  29.237  28.788  1.00  0.00    -0.014 A 
BRANCH  32  33
ATOM     33  C   UNL A   1      40.083  28.699  28.922  1.00  0.00     0.031 A 
ATOM     34  C   UNL A   1      41.203  29.610  29.338  1.00  0.00     0.074 A 
ATOM     35  C   UNL A   1      40.334  27.402  28.663  1.00  0.00     0.049 A 
ATOM     36  N   UNL A   1      42.494  29.398  29.313  1.00  0.00    -0.248 NA
ATOM     37  C   UNL A   1      40.818  30.938  29.842  1.00  0.00     0.031 C 
ATOM     38  C   UNL A   1      39.329  26.395  28.320  1.00  0.00     0.029 A 
ATOM     39  N   UNL A   1      41.521  26.716  28.639  1.00  0.00    -0.354 N 
ATOM     40  C   UNL A   1      43.077  30.579  29.752  1.00  0.00     0.074 A 
ATOM     41  C   UNL A   1      42.001  31.502  30.045  1.00  0.00     0.031 C 
ATOM     42  C   UNL A   1      39.942  25.216  28.125  1.00  0.00     0.029 A 
ATOM     43  C   UNL A   1      41.383  25.404  28.258  1.00  0.00     0.049 A 
ATOM     44  H   UNL A   1      42.386  27.123  28.871  1.00  0.00     0.167 HD
ATOM     45  C   UNL A   1      44.393  30.870  29.886  1.00  0.00     0.031 A 
ATOM     46  C   UNL A   1      42.315  24.469  27.999  1.00  0.00     0.031 A 
ATOM     47  C   UNL A   1      45.459  29.945  29.613  1.00  0.00     0.049 A 
ATOM     48  C   UNL A   1      43.769  24.829  28.100  1.00  0.00     0.074 A 
ATOM     49  C   UNL A   1      46.825  30.149  29.704  1.00  0.00     0.029 A 
ATOM     50  N   UNL A   1      45.276  28.633  29.208  1.00  0.00    -0.354 N 
ATOM     51  N   UNL A   1      44.313  25.970  28.448  1.00  0.00    -0.248 NA
ATOM     52  C   UNL A   1      44.737  23.779  27.756  1.00  0.00     0.031 C 
ATOM     53  C   UNL A   1      47.470  28.966  29.328  1.00  0.00     0.029 A 
ATOM     54  C   UNL A   1      46.504  28.016  29.039  1.00  0.00     0.049 A 
ATOM     55  H   UNL A   1      44.403  28.202  29.061  1.00  0.00     0.167 HD
ATOM     56  C   UNL A   1      45.685  25.770  28.380  1.00  0.00     0.074 A 
ATOM     57  C   UNL A   1      45.890  24.397  27.967  1.00  0.00     0.031 C 
ATOM     58  C   UNL A   1      46.685  26.648  28.634  1.00  0.00     0.031 A 
BRANCH  45  59
ATOM     59  C   UNL A   1      44.750  32.266  30.302  1.00  0.00    -0.014 A 
ATOM     60  C   UNL A   1      44.932  33.288  29.359  1.00  0.00     0.009 A 
ATOM     61  C   UNL A   1      44.878  32.568  31.667  1.00  0.00     0.009 A 
ATOM     62  C   UNL A   1      45.259  34.580  29.774  1.00  0.00     0.001 A 
ATOM     63  C   UNL A   1      45.186  33.865  32.081  1.00  0.00     0.001 A 
ATOM     64  C   UNL A   1      45.384  34.868  31.133  1.00  0.00     0.000 A 
ENDBRANCH  45  59
BRANCH  46  65
ATOM     65  C   UNL A   1      41.897  23.113  27.564  1.00  0.00    -0.014 A 
ATOM     66  C   UNL A   1      41.846  22.055  28.483  1.00  0.00     0.009 A 
ATOM     67  C   UNL A   1      41.532  22.876  26.229  1.00  0.00     0.009 A 
ATOM     68  C   UNL A   1      41.449  20.782  28.069  1.00  0.00     0.001 A 
ATOM     69  C   UNL A   1      41.113  21.607  25.825  1.00  0.00     0.001 A 
ATOM     70  C   UNL A   1      41.076  20.560  26.744  1.00  0.00     0.000 A 
ENDBRANCH  46  65
BRANCH  58  71
ATOM     71  C   UNL A   1      48.089  26.137  28.510  1.00  0.00    -0.014 A 
ATOM     72  C   UNL A   1      48.762  26.159  27.280  1.00  0.00     0.009 A 
ATOM     73  C   UNL A   1      48.759  25.668  29.651  1.00  0.00     0.009 A 
ATOM     74  C   UNL A   1      50.077  25.699  27.191  1.00  0.00     0.001 A 
ATOM     75  C   UNL A   1      50.080  25.226  29.561  1.00  0.00     0.001 A 
ATOM     76  C   UNL A   1      50.735  25.237  28.331  1.00  0.00     0.000 A 
ENDBRANCH  58  71
ENDBRANCH  32  33
ENDBRANCH  25  27
ENDBRANCH  24  25
ENDBRANCH  23  24
ENDBRANCH   1  23
TORSDOF 15
ENDMDL
MODEL 3
REMARK VINA RESULT:     -10.8      3.849      7.499
REMARK SMILES COc1ccc(C(=O)c2ccccc2)cc1[C@@H](C)C(=O)OCCOC(=O)c1ccc(-c2c3nc(c(-c4ccccc4)c4ccc([nH]4)c(-c4ccccc4)c4nc(c(-c5ccccc5)c5ccc2[nH]5)C=C4)C=C3)cc1
REMARK SMILES IDX 22 1 21 2 19 3 20 4 17 5 18 6 16 7 3 8 4 9 5 10 15 11 6 12
REMARK SMILES IDX 2 13 1 14 7 15 8 16 9 17 10 18 14 19 11 20 13 21 12 22 23 23
REMARK SMILES IDX 24 24 25 25 26 26 27 27 28 28 74 29 29 30 73 31 30 32 31 33
REMARK SMILES IDX 32 34 67 35 33 36 72 37 66 38 68 39 34 40 71 41 65 42 64 43
REMARK SMILES IDX 35 45 57 46 42 47 56 48 43 49 46 50 55 51 69 52 44 53 45 54
REMARK SMILES IDX 54 56 70 57 47 58 36 59 37 60 41 61 38 62 40 63 39 64 58 65
REMARK SMILES IDX 59 66 63 67 60 68 62 69 61 70 48 71 49 72 53 73 50 74 52 75
REMARK SMILES IDX 51 76
REMARK H PARENT 68 44 46 55
REMARK Flexibility Score: inf
ROOT
ATOM      1  C   UNL A   1      31.700  30.597  26.555  1.00  0.00     0.274 C 
ENDROOT
BRANCH   1   2
ATOM      2  O   UNL A   1      32.824  30.184  25.755  1.00  0.00    -0.462 OA
BRANCH   2   3
ATOM      3  C   UNL A   1      33.093  28.858  25.672  1.00  0.00     0.313 C 
ATOM      4  O   UNL A   1      33.608  28.208  26.579  1.00  0.00    -0.252 OA
BRANCH   3   5
ATOM      5  C   UNL A   1      32.747  28.229  24.323  1.00  0.00     0.130 C 
ATOM      6  C   UNL A   1      33.072  29.208  23.197  1.00  0.00     0.025 C 
BRANCH   5   7
ATOM      7  C   UNL A   1      31.347  27.650  24.154  1.00  0.00     0.009 A 
ATOM      8  C   UNL A   1      31.100  26.280  24.328  1.00  0.00     0.122 A 
ATOM      9  C   UNL A   1      29.819  25.745  24.146  1.00  0.00     0.047 A 
ATOM     10  C   UNL A   1      28.756  26.580  23.788  1.00  0.00     0.016 A 
ATOM     11  C   UNL A   1      30.268  28.462  23.767  1.00  0.00     0.020 A 
ATOM     12  C   UNL A   1      28.979  27.944  23.581  1.00  0.00     0.023 A 
BRANCH   8  13
ATOM     13  O   UNL A   1      32.156  25.443  24.568  1.00  0.00    -0.496 OA
ATOM     14  C   UNL A   1      32.109  24.888  25.881  1.00  0.00     0.278 C 
ENDBRANCH   8  13
BRANCH  12  15
ATOM     15  C   UNL A   1      27.834  28.822  23.195  1.00  0.00     0.193 C 
ATOM     16  O   UNL A   1      26.676  28.439  23.333  1.00  0.00    -0.289 OA
BRANCH  15  17
ATOM     17  C   UNL A   1      28.072  30.193  22.684  1.00  0.00     0.022 A 
ATOM     18  C   UNL A   1      28.092  30.399  21.302  1.00  0.00     0.012 A 
ATOM     19  C   UNL A   1      28.236  31.272  23.562  1.00  0.00     0.012 A 
ATOM     20  C   UNL A   1      28.220  31.694  20.800  1.00  0.00     0.001 A 
ATOM     21  C   UNL A   1      28.355  32.565  23.053  1.00  0.00     0.001 A 
ATOM     22  C   UNL A   1      28.338  32.776  21.674  1.00  0.00     0.000 A 
ENDBRANCH  15  17
ENDBRANCH  12  15
ENDBRANCH   5   7
ENDBRANCH   3   5
ENDBRANCH   2   3
ENDBRANCH   1   2
BRANCH   1  23
ATOM     23  C   UNL A   1      31.801  32.081  26.913  1.00  0.00     0.275 C 
BRANCH  23  24
ATOM     24  O   UNL A   1      33.164  32.451  27.185  1.00  0.00    -0.458 OA
BRANCH  24  25
ATOM     25  C   UNL A   1      33.314  33.500  28.024  1.00  0.00     0.338 C 
ATOM     26  O   UNL A   1      32.584  34.465  28.159  1.00  0.00    -0.246 OA
BRANCH  25  27
ATOM     27  C   UNL A   1      34.491  33.276  28.867  1.00  0.00     0.060 A 
ATOM     28  C   UNL A   1      35.711  33.822  28.463  1.00  0.00     0.016 A 
ATOM     29  C   UNL A   1      34.416  32.437  29.977  1.00  0.00     0.016 A 
ATOM     30  C   UNL A   1      36.879  33.493  29.146  1.00  0.00     0.010 A 
ATOM     31  C   UNL A   1      35.584  32.133  30.680  1.00  0.00     0.010 A 
ATOM     32  C   UNL A   1      36.826  32.640  30.255  1.00  0.00    -0.014 A 
BRANCH  32  33
ATOM     33  C   UNL A   1      38.069  32.226  30.948  1.00  0.00     0.031 A 
ATOM     34  C   UNL A   1      38.902  31.113  30.381  1.00  0.00     0.074 A 
ATOM     35  C   UNL A   1      38.447  32.836  32.086  1.00  0.00     0.049 A 
ATOM     36  N   UNL A   1      39.897  30.463  30.930  1.00  0.00    -0.248 NA
ATOM     37  C   UNL A   1      38.568  30.668  29.019  1.00  0.00     0.031 C 
ATOM     38  C   UNL A   1      37.770  33.976  32.705  1.00  0.00     0.029 A 
ATOM     39  N   UNL A   1      39.495  32.569  32.930  1.00  0.00    -0.354 N 
ATOM     40  C   UNL A   1      40.276  29.502  30.001  1.00  0.00     0.074 A 
ATOM     41  C   UNL A   1      39.412  29.658  28.851  1.00  0.00     0.031 C 
ATOM     42  C   UNL A   1      38.422  34.314  33.829  1.00  0.00     0.029 A 
ATOM     43  C   UNL A   1      39.516  33.371  34.043  1.00  0.00     0.049 A 
ATOM     44  H   UNL A   1      40.165  31.870  32.754  1.00  0.00     0.167 HD
ATOM     45  C   UNL A   1      41.249  28.567  30.106  1.00  0.00     0.031 A 
ATOM     46  C   UNL A   1      40.299  33.325  35.137  1.00  0.00     0.031 A 
ATOM     47  C   UNL A   1      42.119  28.427  31.243  1.00  0.00     0.049 A 
ATOM     48  C   UNL A   1      41.335  32.245  35.257  1.00  0.00     0.074 A 
ATOM     49  C   UNL A   1      43.127  27.501  31.451  1.00  0.00     0.029 A 
ATOM     50  N   UNL A   1      42.092  29.247  32.358  1.00  0.00    -0.354 N 
ATOM     51  N   UNL A   1      41.640  31.297  34.405  1.00  0.00    -0.248 NA
ATOM     52  C   UNL A   1      42.123  32.219  36.497  1.00  0.00     0.031 C 
ATOM     53  C   UNL A   1      43.693  27.746  32.707  1.00  0.00     0.029 A 
ATOM     54  C   UNL A   1      43.061  28.846  33.262  1.00  0.00     0.049 A 
ATOM     55  H   UNL A   1      41.475  30.003  32.490  1.00  0.00     0.167 HD
ATOM     56  C   UNL A   1      42.663  30.572  34.998  1.00  0.00     0.074 A 
ATOM     57  C   UNL A   1      42.934  31.194  36.277  1.00  0.00     0.031 C 
ATOM     58  C   UNL A   1      43.318  29.483  34.526  1.00  0.00     0.031 A 
BRANCH  45  59
ATOM     59  C   UNL A   1      41.389  27.589  28.978  1.00  0.00    -0.014 A 
ATOM     60  C   UNL A   1      42.366  27.752  27.984  1.00  0.00     0.009 A 
ATOM     61  C   UNL A   1      40.545  26.469  28.927  1.00  0.00     0.009 A 
ATOM     62  C   UNL A   1      42.477  26.824  26.947  1.00  0.00     0.001 A 
ATOM     63  C   UNL A   1      40.672  25.532  27.900  1.00  0.00     0.001 A 
ATOM     64  C   UNL A   1      41.633  25.715  26.906  1.00  0.00     0.000 A 
ENDBRANCH  45  59
BRANCH  46  65
ATOM     65  C   UNL A   1      40.092  34.305  36.232  1.00  0.00    -0.014 A 
ATOM     66  C   UNL A   1      40.717  35.560  36.192  1.00  0.00     0.009 A 
ATOM     67  C   UNL A   1      39.255  33.993  37.315  1.00  0.00     0.009 A 
ATOM     68  C   UNL A   1      40.516  36.480  37.223  1.00  0.00     0.001 A 
ATOM     69  C   UNL A   1      39.039  34.925  38.333  1.00  0.00     0.001 A 
ATOM     70  C   UNL A   1      39.673  36.164  38.289  1.00  0.00     0.000 A 
ENDBRANCH  46  65
BRANCH  58  71
ATOM     71  C   UNL A   1      44.416  28.924  35.379  1.00  0.00    -0.014 A 
ATOM     72  C   UNL A   1      44.158  27.923  36.326  1.00  0.00     0.009 A 
ATOM     73  C   UNL A   1      45.733  29.377  35.200  1.00  0.00     0.009 A 
ATOM     74  C   UNL A   1      45.199  27.400  37.096  1.00  0.00     0.001 A 
ATOM     75  C   UNL A   1      46.773  28.839  35.958  1.00  0.00     0.001 A 
ATOM     76  C   UNL A   1      46.505  27.855  36.909  1.00  0.00     0.000 A 
ENDBRANCH  58  71
ENDBRANCH  32  33
ENDBRANCH  25  27
ENDBRANCH  24  25
ENDBRANCH  23  24
ENDBRANCH   1  23
TORSDOF 15
ENDMDL
