MODEL 1
REMARK VINA RESULT:     -10.5      0.000      0.000
REMARK SMILES COc1ccc(F)cc1-c1cc(C(=O)OCCOC(=O)c2ccc(-c3c4nc(c(-c5ccccc5)c5ccc([nH]5)c(-c5ccccc5)c5nc(c(-c6ccccc6)c6ccc3[nH]6)C=C5)C=C4)cc2)n(C)n1
REMARK SMILES IDX 16 1 15 2 13 3 14 4 12 5 10 6 11 7 71 8 69 9 70 10 9 11 3 12
REMARK SMILES IDX 4 13 5 14 8 15 6 16 7 17 2 18 1 19 17 20 18 21 19 22 20 23
REMARK SMILES IDX 21 24 22 25 68 26 23 27 67 28 24 29 25 30 26 31 61 32 27 33
REMARK SMILES IDX 66 34 60 35 62 36 28 37 65 38 59 39 58 40 29 42 51 43 36 44
REMARK SMILES IDX 50 45 37 46 40 47 49 48 63 49 38 50 39 51 48 53 64 54 41 55
REMARK SMILES IDX 30 56 31 57 35 58 32 59 34 60 33 61 52 62 53 63 57 64 54 65
REMARK SMILES IDX 56 66 55 67 42 68 43 69 47 70 44 71 46 72 45 73
REMARK H PARENT 62 41 40 52
REMARK Flexibility Score: inf
ROOT
ATOM      1  C   UNL A   1      34.270  35.442  32.881  1.00  0.00     0.275 C 
ENDROOT
BRANCH   1   2
ATOM      2  O   UNL A   1      33.152  35.060  32.055  1.00  0.00    -0.457 OA
BRANCH   2   3
ATOM      3  C   UNL A   1      33.018  35.740  30.883  1.00  0.00     0.356 C 
ATOM      4  O   UNL A   1      32.527  36.853  30.781  1.00  0.00    -0.244 OA
BRANCH   3   5
ATOM      5  C   UNL A   1      33.646  35.037  29.791  1.00  0.00     0.146 A 
ATOM      6  C   UNL A   1      34.457  33.388  28.511  1.00  0.00     0.097 A 
ATOM      7  C   UNL A   1      34.025  33.704  29.813  1.00  0.00     0.066 A 
ATOM      8  N   UNL A   1      34.510  34.488  27.754  1.00  0.00    -0.172 NA
ATOM      9  N   UNL A   1      34.004  35.470  28.539  1.00  0.00    -0.261 N 
ATOM     10  C   UNL A   1      34.027  36.810  28.002  1.00  0.00     0.174 C 
BRANCH   6  11
ATOM     11  C   UNL A   1      34.848  32.071  28.032  1.00  0.00     0.047 A 
ATOM     12  C   UNL A   1      33.886  31.122  27.619  1.00  0.00     0.128 A 
ATOM     13  C   UNL A   1      34.309  29.846  27.224  1.00  0.00     0.050 A 
ATOM     14  C   UNL A   1      35.663  29.507  27.276  1.00  0.00     0.043 A 
ATOM     15  C   UNL A   1      36.204  31.724  28.072  1.00  0.00     0.053 A 
ATOM     16  C   UNL A   1      36.594  30.444  27.704  1.00  0.00     0.124 A 
ATOM     17  F   UNL A   1      37.887  30.102  27.775  1.00  0.00    -0.207 F 
BRANCH  12  18
ATOM     18  O   UNL A   1      32.574  31.526  27.619  1.00  0.00    -0.496 OA
ATOM     19  C   UNL A   1      31.779  31.148  26.501  1.00  0.00     0.278 C 
ENDBRANCH  12  18
ENDBRANCH   6  11
ENDBRANCH   3   5
ENDBRANCH   2   3
ENDBRANCH   1   2
BRANCH   1  20
ATOM     20  C   UNL A   1      34.778  34.248  33.688  1.00  0.00     0.275 C 
BRANCH  20  21
ATOM     21  O   UNL A   1      35.730  33.497  32.914  1.00  0.00    -0.458 OA
BRANCH  21  22
ATOM     22  C   UNL A   1      36.605  32.751  33.625  1.00  0.00     0.338 C 
ATOM     23  O   UNL A   1      36.662  32.613  34.835  1.00  0.00    -0.246 OA
BRANCH  22  24
ATOM     24  C   UNL A   1      37.512  32.060  32.699  1.00  0.00     0.060 A 
ATOM     25  C   UNL A   1      38.295  31.015  33.184  1.00  0.00     0.016 A 
ATOM     26  C   UNL A   1      37.677  32.517  31.394  1.00  0.00     0.016 A 
ATOM     27  C   UNL A   1      39.286  30.451  32.385  1.00  0.00     0.010 A 
ATOM     28  C   UNL A   1      38.639  31.917  30.573  1.00  0.00     0.010 A 
ATOM     29  C   UNL A   1      39.477  30.901  31.072  1.00  0.00    -0.014 A 
BRANCH  29  30
ATOM     30  C   UNL A   1      40.596  30.363  30.251  1.00  0.00     0.031 A 
ATOM     31  C   UNL A   1      41.852  31.173  30.064  1.00  0.00     0.074 A 
ATOM     32  C   UNL A   1      40.511  29.139  29.695  1.00  0.00     0.049 A 
ATOM     33  N   UNL A   1      42.888  30.930  29.301  1.00  0.00    -0.248 NA
ATOM     34  C   UNL A   1      41.958  32.420  30.839  1.00  0.00     0.031 C 
ATOM     35  C   UNL A   1      39.385  28.215  29.842  1.00  0.00     0.029 A 
ATOM     36  N   UNL A   1      41.398  28.458  28.899  1.00  0.00    -0.354 N 
ATOM     37  C   UNL A   1      43.743  32.012  29.466  1.00  0.00     0.074 A 
ATOM     38  C   UNL A   1      43.109  32.912  30.404  1.00  0.00     0.031 C 
ATOM     39  C   UNL A   1      39.662  27.079  29.182  1.00  0.00     0.029 A 
ATOM     40  C   UNL A   1      40.949  27.219  28.509  1.00  0.00     0.049 A 
ATOM     41  H   UNL A   1      42.273  28.822  28.631  1.00  0.00     0.167 HD
ATOM     42  C   UNL A   1      44.945  32.242  28.884  1.00  0.00     0.031 A 
ATOM     43  C   UNL A   1      41.492  26.311  27.677  1.00  0.00     0.031 A 
ATOM     44  C   UNL A   1      45.591  31.345  27.964  1.00  0.00     0.049 A 
ATOM     45  C   UNL A   1      42.797  26.613  26.999  1.00  0.00     0.074 A 
ATOM     46  C   UNL A   1      46.811  31.496  27.324  1.00  0.00     0.029 A 
ATOM     47  N   UNL A   1      45.075  30.126  27.557  1.00  0.00    -0.354 N 
ATOM     48  N   UNL A   1      43.572  27.662  27.130  1.00  0.00    -0.248 NA
ATOM     49  C   UNL A   1      43.295  25.610  26.047  1.00  0.00     0.031 C 
ATOM     50  C   UNL A   1      47.014  30.382  26.501  1.00  0.00     0.029 A 
ATOM     51  C   UNL A   1      45.942  29.521  26.664  1.00  0.00     0.049 A 
ATOM     52  H   UNL A   1      44.218  29.747  27.859  1.00  0.00     0.167 HD
ATOM     53  C   UNL A   1      44.652  27.441  26.286  1.00  0.00     0.074 A 
ATOM     54  C   UNL A   1      44.443  26.151  25.662  1.00  0.00     0.031 C 
ATOM     55  C   UNL A   1      45.720  28.240  26.047  1.00  0.00     0.031 A 
BRANCH  42  56
ATOM     56  C   UNL A   1      45.619  33.549  29.192  1.00  0.00    -0.014 A 
ATOM     57  C   UNL A   1      45.368  34.701  28.433  1.00  0.00     0.009 A 
ATOM     58  C   UNL A   1      46.503  33.629  30.281  1.00  0.00     0.009 A 
ATOM     59  C   UNL A   1      46.016  35.901  28.738  1.00  0.00     0.001 A 
ATOM     60  C   UNL A   1      47.129  34.835  30.597  1.00  0.00     0.001 A 
ATOM     61  C   UNL A   1      46.892  35.968  29.820  1.00  0.00     0.000 A 
ENDBRANCH  42  56
BRANCH  43  62
ATOM     62  C   UNL A   1      40.774  25.041  27.401  1.00  0.00    -0.014 A 
ATOM     63  C   UNL A   1      39.617  25.032  26.607  1.00  0.00     0.009 A 
ATOM     64  C   UNL A   1      41.246  23.828  27.927  1.00  0.00     0.009 A 
ATOM     65  C   UNL A   1      38.941  23.835  26.358  1.00  0.00     0.001 A 
ATOM     66  C   UNL A   1      40.584  22.630  27.653  1.00  0.00     0.001 A 
ATOM     67  C   UNL A   1      39.428  22.636  26.875  1.00  0.00     0.000 A 
ENDBRANCH  43  62
BRANCH  55  68
ATOM     68  C   UNL A   1      46.756  27.728  25.089  1.00  0.00    -0.014 A 
ATOM     69  C   UNL A   1      46.778  28.151  23.751  1.00  0.00     0.009 A 
ATOM     70  C   UNL A   1      47.743  26.839  25.540  1.00  0.00     0.009 A 
ATOM     71  C   UNL A   1      47.754  27.670  22.876  1.00  0.00     0.001 A 
ATOM     72  C   UNL A   1      48.729  26.376  24.669  1.00  0.00     0.001 A 
ATOM     73  C   UNL A   1      48.730  26.786  23.336  1.00  0.00     0.000 A 
ENDBRANCH  55  68
ENDBRANCH  29  30
ENDBRANCH  22  24
ENDBRANCH  21  22
ENDBRANCH  20  21
ENDBRANCH   1  20
TORSDOF 13
ENDMDL
MODEL 2
REMARK VINA RESULT:     -10.2      4.053      6.457
REMARK SMILES COc1ccc(F)cc1-c1cc(C(=O)OCCOC(=O)c2ccc(-c3c4nc(c(-c5ccccc5)c5ccc([nH]5)c(-c5ccccc5)c5nc(c(-c6ccccc6)c6ccc3[nH]6)C=C5)C=C4)cc2)n(C)n1
REMARK SMILES IDX 16 1 15 2 13 3 14 4 12 5 10 6 11 7 71 8 69 9 70 10 9 11 3 12
REMARK SMILES IDX 4 13 5 14 8 15 6 16 7 17 2 18 1 19 17 20 18 21 19 22 20 23
REMARK SMILES IDX 21 24 22 25 68 26 23 27 67 28 24 29 25 30 26 31 61 32 27 33
REMARK SMILES IDX 66 34 60 35 62 36 28 37 65 38 59 39 58 40 29 42 51 43 36 44
REMARK SMILES IDX 50 45 37 46 40 47 49 48 63 49 38 50 39 51 48 53 64 54 41 55
REMARK SMILES IDX 30 56 31 57 35 58 32 59 34 60 33 61 52 62 53 63 57 64 54 65
REMARK SMILES IDX 56 66 55 67 42 68 43 69 47 70 44 71 46 72 45 73
REMARK H PARENT 62 41 40 52
REMARK Flexibility Score: inf
ROOT
ATOM      1  C   UNL A   1      31.795  27.965  27.339  1.00  0.00     0.275 C 
ENDROOT
BRANCH   1   2
ATOM      2  O   UNL A   1      31.720  27.332  26.046  1.00  0.00    -0.457 OA
BRANCH   2   3
ATOM      3  C   UNL A   1      31.651  25.972  26.052  1.00  0.00     0.356 C 
ATOM      4  O   UNL A   1      30.707  25.329  26.483  1.00  0.00    -0.244 OA
BRANCH   3   5
ATOM      5  C   UNL A   1      32.777  25.385  25.369  1.00  0.00     0.146 A 
ATOM      6  C   UNL A   1      34.571  24.118  24.927  1.00  0.00     0.097 A 
ATOM      7  C   UNL A   1      33.753  24.602  25.966  1.00  0.00     0.066 A 
ATOM      8  N   UNL A   1      34.242  24.691  23.765  1.00  0.00    -0.172 NA
ATOM      9  N   UNL A   1      33.150  25.441  24.049  1.00  0.00    -0.261 N 
ATOM     10  C   UNL A   1      32.625  26.259  22.981  1.00  0.00     0.174 C 
BRANCH   6  11
ATOM     11  C   UNL A   1      35.664  23.168  25.066  1.00  0.00     0.047 A 
ATOM     12  C   UNL A   1      35.455  21.779  24.917  1.00  0.00     0.128 A 
ATOM     13  C   UNL A   1      36.527  20.900  25.121  1.00  0.00     0.050 A 
ATOM     14  C   UNL A   1      37.777  21.392  25.504  1.00  0.00     0.043 A 
ATOM     15  C   UNL A   1      36.923  23.652  25.441  1.00  0.00     0.053 A 
ATOM     16  C   UNL A   1      37.961  22.758  25.666  1.00  0.00     0.124 A 
ATOM     17  F   UNL A   1      39.156  23.220  26.057  1.00  0.00    -0.207 F 
BRANCH  12  18
ATOM     18  O   UNL A   1      34.192  21.374  24.563  1.00  0.00    -0.496 OA
ATOM     19  C   UNL A   1      33.897  19.987  24.685  1.00  0.00     0.278 C 
ENDBRANCH  12  18
ENDBRANCH   6  11
ENDBRANCH   3   5
ENDBRANCH   2   3
ENDBRANCH   1   2
BRANCH   1  20
ATOM     20  C   UNL A   1      32.477  29.329  27.234  1.00  0.00     0.275 C 
BRANCH  20  21
ATOM     21  O   UNL A   1      33.866  29.216  27.593  1.00  0.00    -0.458 OA
BRANCH  21  22
ATOM     22  C   UNL A   1      34.524  30.385  27.763  1.00  0.00     0.338 C 
ATOM     23  O   UNL A   1      34.093  31.515  27.615  1.00  0.00    -0.246 OA
BRANCH  22  24
ATOM     24  C   UNL A   1      35.896  30.104  28.207  1.00  0.00     0.060 A 
ATOM     25  C   UNL A   1      36.943  30.306  27.310  1.00  0.00     0.016 A 
ATOM     26  C   UNL A   1      36.137  29.534  29.455  1.00  0.00     0.016 A 
ATOM     27  C   UNL A   1      38.232  29.892  27.633  1.00  0.00     0.010 A 
ATOM     28  C   UNL A   1      37.442  29.164  29.799  1.00  0.00     0.010 A 
ATOM     29  C   UNL A   1      38.497  29.307  28.878  1.00  0.00    -0.014 A 
BRANCH  29  30
ATOM     30  C   UNL A   1      39.855  28.781  29.185  1.00  0.00     0.031 A 
ATOM     31  C   UNL A   1      40.833  29.623  29.961  1.00  0.00     0.074 A 
ATOM     32  C   UNL A   1      40.211  27.539  28.803  1.00  0.00     0.049 A 
ATOM     33  N   UNL A   1      42.093  29.391  30.233  1.00  0.00    -0.248 NA
ATOM     34  C   UNL A   1      40.327  30.895  30.504  1.00  0.00     0.031 C 
ATOM     35  C   UNL A   1      39.350  26.586  28.102  1.00  0.00     0.029 A 
ATOM     36  N   UNL A   1      41.396  26.864  28.960  1.00  0.00    -0.354 N 
ATOM     37  C   UNL A   1      42.541  30.504  30.933  1.00  0.00     0.074 A 
ATOM     38  C   UNL A   1      41.420  31.410  31.049  1.00  0.00     0.031 C 
ATOM     39  C   UNL A   1      40.025  25.441  27.916  1.00  0.00     0.029 A 
ATOM     40  C   UNL A   1      41.386  25.601  28.418  1.00  0.00     0.049 A 
ATOM     41  H   UNL A   1      42.179  27.247  29.418  1.00  0.00     0.167 HD
ATOM     42  C   UNL A   1      43.777  30.754  31.430  1.00  0.00     0.031 A 
ATOM     43  C   UNL A   1      42.367  24.687  28.305  1.00  0.00     0.031 A 
ATOM     44  C   UNL A   1      44.893  29.852  31.335  1.00  0.00     0.049 A 
ATOM     45  C   UNL A   1      43.743  25.009  28.812  1.00  0.00     0.074 A 
ATOM     46  C   UNL A   1      46.183  30.021  31.809  1.00  0.00     0.029 A 
ATOM     47  N   UNL A   1      44.850  28.606  30.730  1.00  0.00    -0.354 N 
ATOM     48  N   UNL A   1      44.163  26.085  29.431  1.00  0.00    -0.248 NA
ATOM     49  C   UNL A   1      44.784  23.995  28.589  1.00  0.00     0.031 C 
ATOM     50  C   UNL A   1      46.931  28.892  31.458  1.00  0.00     0.029 A 
ATOM     51  C   UNL A   1      46.094  28.002  30.805  1.00  0.00     0.049 A 
ATOM     52  H   UNL A   1      44.053  28.209  30.310  1.00  0.00     0.167 HD
ATOM     53  C   UNL A   1      45.512  25.874  29.681  1.00  0.00     0.074 A 
ATOM     54  C   UNL A   1      45.837  24.561  29.163  1.00  0.00     0.031 C 
ATOM     55  C   UNL A   1      46.404  26.698  30.282  1.00  0.00     0.031 A 
BRANCH  42  56
ATOM     56  C   UNL A   1      43.998  32.089  32.081  1.00  0.00    -0.014 A 
ATOM     57  C   UNL A   1      43.818  32.271  33.460  1.00  0.00     0.009 A 
ATOM     58  C   UNL A   1      44.419  33.178  31.300  1.00  0.00     0.009 A 
ATOM     59  C   UNL A   1      44.022  33.527  34.038  1.00  0.00     0.001 A 
ATOM     60  C   UNL A   1      44.645  34.424  31.884  1.00  0.00     0.001 A 
ATOM     61  C   UNL A   1      44.438  34.600  33.251  1.00  0.00     0.000 A 
ENDBRANCH  42  56
BRANCH  43  62
ATOM     62  C   UNL A   1      42.092  23.387  27.640  1.00  0.00    -0.014 A 
ATOM     63  C   UNL A   1      41.469  22.345  28.341  1.00  0.00     0.009 A 
ATOM     64  C   UNL A   1      42.449  23.186  26.297  1.00  0.00     0.009 A 
ATOM     65  C   UNL A   1      41.221  21.121  27.714  1.00  0.00     0.001 A 
ATOM     66  C   UNL A   1      42.175  21.971  25.665  1.00  0.00     0.001 A 
ATOM     67  C   UNL A   1      41.567  20.939  26.376  1.00  0.00     0.000 A 
ENDBRANCH  43  62
BRANCH  55  68
ATOM     68  C   UNL A   1      47.809  26.192  30.436  1.00  0.00    -0.014 A 
ATOM     69  C   UNL A   1      48.717  26.236  29.366  1.00  0.00     0.009 A 
ATOM     70  C   UNL A   1      48.239  25.696  31.676  1.00  0.00     0.009 A 
ATOM     71  C   UNL A   1      50.021  25.767  29.529  1.00  0.00     0.001 A 
ATOM     72  C   UNL A   1      49.550  25.248  31.841  1.00  0.00     0.001 A 
ATOM     73  C   UNL A   1      50.438  25.277  30.767  1.00  0.00     0.000 A 
ENDBRANCH  55  68
ENDBRANCH  29  30
ENDBRANCH  22  24
ENDBRANCH  21  22
ENDBRANCH  20  21
ENDBRANCH   1  20
TORSDOF 13
ENDMDL
MODEL 3
REMARK VINA RESULT:     -10.2      0.548      6.045
REMARK SMILES COc1ccc(F)cc1-c1cc(C(=O)OCCOC(=O)c2ccc(-c3c4nc(c(-c5ccccc5)c5ccc([nH]5)c(-c5ccccc5)c5nc(c(-c6ccccc6)c6ccc3[nH]6)C=C5)C=C4)cc2)n(C)n1
REMARK SMILES IDX 16 1 15 2 13 3 14 4 12 5 10 6 11 7 71 8 69 9 70 10 9 11 3 12
REMARK SMILES IDX 4 13 5 14 8 15 6 16 7 17 2 18 1 19 17 20 18 21 19 22 20 23
REMARK SMILES IDX 21 24 22 25 68 26 23 27 67 28 24 29 25 30 26 31 61 32 27 33
REMARK SMILES IDX 66 34 60 35 62 36 28 37 65 38 59 39 58 40 29 42 51 43 36 44
REMARK SMILES IDX 50 45 37 46 40 47 49 48 63 49 38 50 39 51 48 53 64 54 41 55
REMARK SMILES IDX 30 56 31 57 35 58 32 59 34 60 33 61 52 62 53 63 57 64 54 65
REMARK SMILES IDX 56 66 55 67 42 68 43 69 47 70 44 71 46 72 45 73
REMARK H PARENT 62 41 40 52
REMARK Flexibility Score: inf
ROOT
ATOM      1  C   UNL A   1      34.514  35.130  32.881  1.00  0.00     0.275 C 
ENDROOT
BRANCH   1   2
ATOM      2  O   UNL A   1      33.258  34.948  32.198  1.00  0.00    -0.457 OA
BRANCH   2   3
ATOM      3  C   UNL A   1      33.085  35.682  31.064  1.00  0.00     0.356 C 
ATOM      4  O   UNL A   1      32.627  36.813  31.036  1.00  0.00    -0.244 OA
BRANCH   3   5
ATOM      5  C   UNL A   1      33.630  35.008  29.911  1.00  0.00     0.146 A 
ATOM      6  C   UNL A   1      34.301  33.391  28.515  1.00  0.00     0.097 A 
ATOM      7  C   UNL A   1      33.940  33.659  29.849  1.00  0.00     0.066 A 
ATOM      8  N   UNL A   1      34.379  34.526  27.813  1.00  0.00    -0.172 NA
ATOM      9  N   UNL A   1      33.958  35.488  28.668  1.00  0.00    -0.261 N 
ATOM     10  C   UNL A   1      34.028  36.852  28.200  1.00  0.00     0.174 C 
BRANCH   6  11
ATOM     11  C   UNL A   1      34.604  32.083  27.953  1.00  0.00     0.047 A 
ATOM     12  C   UNL A   1      33.601  31.291  27.350  1.00  0.00     0.128 A 
ATOM     13  C   UNL A   1      33.929  30.013  26.879  1.00  0.00     0.050 A 
ATOM     14  C   UNL A   1      35.225  29.516  27.038  1.00  0.00     0.043 A 
ATOM     15  C   UNL A   1      35.902  31.580  28.100  1.00  0.00     0.053 A 
ATOM     16  C   UNL A   1      36.194  30.299  27.651  1.00  0.00     0.124 A 
ATOM     17  F   UNL A   1      37.427  29.806  27.822  1.00  0.00    -0.207 F 
BRANCH  12  18
ATOM     18  O   UNL A   1      32.347  31.842  27.253  1.00  0.00    -0.496 OA
ATOM     19  C   UNL A   1      31.404  31.166  26.430  1.00  0.00     0.278 C 
ENDBRANCH  12  18
ENDBRANCH   6  11
ENDBRANCH   3   5
ENDBRANCH   2   3
ENDBRANCH   1   2
BRANCH   1  20
ATOM     20  C   UNL A   1      35.025  33.802  33.436  1.00  0.00     0.275 C 
BRANCH  20  21
ATOM     21  O   UNL A   1      36.355  33.542  32.951  1.00  0.00    -0.458 OA
BRANCH  21  22
ATOM     22  C   UNL A   1      37.006  32.518  33.547  1.00  0.00     0.338 C 
ATOM     23  O   UNL A   1      36.896  32.128  34.696  1.00  0.00    -0.246 OA
BRANCH  22  24
ATOM     24  C   UNL A   1      37.893  31.877  32.567  1.00  0.00     0.060 A 
ATOM     25  C   UNL A   1      38.935  31.077  33.030  1.00  0.00     0.016 A 
ATOM     26  C   UNL A   1      37.771  32.158  31.208  1.00  0.00     0.016 A 
ATOM     27  C   UNL A   1      39.895  30.593  32.145  1.00  0.00     0.010 A 
ATOM     28  C   UNL A   1      38.707  31.630  30.311  1.00  0.00     0.010 A 
ATOM     29  C   UNL A   1      39.798  30.871  30.775  1.00  0.00    -0.014 A 
BRANCH  29  30
ATOM     30  C   UNL A   1      40.873  30.432  29.844  1.00  0.00     0.031 A 
ATOM     31  C   UNL A   1      40.773  29.100  29.149  1.00  0.00     0.074 A 
ATOM     32  C   UNL A   1      41.927  31.232  29.589  1.00  0.00     0.049 A 
ATOM     33  N   UNL A   1      41.652  28.492  28.392  1.00  0.00    -0.248 NA
ATOM     34  C   UNL A   1      39.517  28.352  29.329  1.00  0.00     0.031 C 
ATOM     35  C   UNL A   1      42.128  32.574  30.137  1.00  0.00     0.029 A 
ATOM     36  N   UNL A   1      43.027  31.030  28.792  1.00  0.00    -0.354 N 
ATOM     37  C   UNL A   1      41.078  27.276  28.047  1.00  0.00     0.074 A 
ATOM     38  C   UNL A   1      39.774  27.230  28.672  1.00  0.00     0.031 C 
ATOM     39  C   UNL A   1      43.264  33.085  29.639  1.00  0.00     0.029 A 
ATOM     40  C   UNL A   1      43.908  32.084  28.793  1.00  0.00     0.049 A 
ATOM     41  H   UNL A   1      43.171  30.209  28.269  1.00  0.00     0.167 HD
ATOM     42  C   UNL A   1      41.591  26.280  27.283  1.00  0.00     0.031 A 
ATOM     43  C   UNL A   1      45.114  32.221  28.212  1.00  0.00     0.031 A 
ATOM     44  C   UNL A   1      42.879  26.324  26.643  1.00  0.00     0.049 A 
ATOM     45  C   UNL A   1      45.687  31.083  27.417  1.00  0.00     0.074 A 
ATOM     46  C   UNL A   1      43.481  25.361  25.850  1.00  0.00     0.029 A 
ATOM     47  N   UNL A   1      43.760  27.390  26.716  1.00  0.00    -0.354 N 
ATOM     48  N   UNL A   1      45.152  29.920  27.138  1.00  0.00    -0.248 NA
ATOM     49  C   UNL A   1      47.039  31.272  26.872  1.00  0.00     0.031 C 
ATOM     50  C   UNL A   1      44.745  25.832  25.474  1.00  0.00     0.029 A 
ATOM     51  C   UNL A   1      44.907  27.104  25.996  1.00  0.00     0.049 A 
ATOM     52  H   UNL A   1      43.594  28.227  27.207  1.00  0.00     0.167 HD
ATOM     53  C   UNL A   1      46.095  29.243  26.376  1.00  0.00     0.074 A 
ATOM     54  C   UNL A   1      47.229  30.131  26.222  1.00  0.00     0.031 C 
ATOM     55  C   UNL A   1      46.029  27.994  25.855  1.00  0.00     0.031 A 
BRANCH  42  56
ATOM     56  C   UNL A   1      40.770  25.031  27.141  1.00  0.00    -0.014 A 
ATOM     57  C   UNL A   1      39.586  25.013  26.390  1.00  0.00     0.009 A 
ATOM     58  C   UNL A   1      41.207  23.844  27.752  1.00  0.00     0.009 A 
ATOM     59  C   UNL A   1      38.837  23.838  26.281  1.00  0.00     0.001 A 
ATOM     60  C   UNL A   1      40.470  22.667  27.622  1.00  0.00     0.001 A 
ATOM     61  C   UNL A   1      39.281  22.667  26.894  1.00  0.00     0.000 A 
ENDBRANCH  42  56
BRANCH  43  62
ATOM     62  C   UNL A   1      45.886  33.476  28.397  1.00  0.00    -0.014 A 
ATOM     63  C   UNL A   1      45.845  34.489  27.427  1.00  0.00     0.009 A 
ATOM     64  C   UNL A   1      46.665  33.669  29.549  1.00  0.00     0.009 A 
ATOM     65  C   UNL A   1      46.580  35.664  27.603  1.00  0.00     0.001 A 
ATOM     66  C   UNL A   1      47.376  34.856  29.734  1.00  0.00     0.001 A 
ATOM     67  C   UNL A   1      47.338  35.849  28.758  1.00  0.00     0.000 A 
ENDBRANCH  43  62
BRANCH  55  68
ATOM     68  C   UNL A   1      47.205  27.526  25.047  1.00  0.00    -0.014 A 
ATOM     69  C   UNL A   1      47.306  27.819  23.678  1.00  0.00     0.009 A 
ATOM     70  C   UNL A   1      48.239  26.814  25.672  1.00  0.00     0.009 A 
ATOM     71  C   UNL A   1      48.410  27.382  22.945  1.00  0.00     0.001 A 
ATOM     72  C   UNL A   1      49.352  26.396  24.941  1.00  0.00     0.001 A 
ATOM     73  C   UNL A   1      49.434  26.674  23.577  1.00  0.00     0.000 A 
ENDBRANCH  55  68
ENDBRANCH  29  30
ENDBRANCH  22  24
ENDBRANCH  21  22
ENDBRANCH  20  21
ENDBRANCH   1  20
TORSDOF 13
ENDMDL
