MODEL 1
REMARK VINA RESULT:     -10.5      0.000      0.000
REMARK SMILES O=C(OCCOC(=O)c1ccc(-c2c(F)cccc2F)cn1)c1ccc(-c2c3nc(c(-c4ccccc4)c4ccc([nH]4)c(-c4ccccc4)c4nc(c(-c5ccccc5)c5ccc2[nH]5)C=C4)C=C3)cc1
REMARK SMILES IDX 4 1 3 2 2 3 1 4 23 5 24 6 70 7 25 8 69 9 26 10 27 11 28 12
REMARK SMILES IDX 63 13 29 14 68 15 62 16 64 17 30 18 67 19 61 20 60 21 31 23
REMARK SMILES IDX 53 24 38 25 52 26 39 27 42 28 51 29 65 30 40 31 41 32 50 34
REMARK SMILES IDX 66 35 43 36 32 37 33 38 37 39 34 40 36 41 35 42 54 43 55 44
REMARK SMILES IDX 59 45 56 46 58 47 57 48 44 49 45 50 49 51 46 52 48 53 47 54
REMARK SMILES IDX 5 55 6 56 7 57 8 58 9 59 10 60 22 61 11 62 21 63 12 64 13 65
REMARK SMILES IDX 14 66 19 67 15 68 16 69 18 70 20 71 17 72
REMARK H PARENT 64 22 42 33
REMARK Flexibility Score: inf
ROOT
ATOM      1  C   UNL A   1      33.291  36.421  28.728  1.00  0.00     0.275 C 
ENDROOT
BRANCH   1   2
ATOM      2  O   UNL A   1      32.532  35.255  28.372  1.00  0.00    -0.458 OA
BRANCH   2   3
ATOM      3  C   UNL A   1      32.979  34.032  28.003  1.00  0.00     0.338 C 
ATOM      4  O   UNL A   1      32.217  33.272  27.408  1.00  0.00    -0.246 OA
BRANCH   3   5
ATOM      5  C   UNL A   1      34.318  33.499  28.409  1.00  0.00     0.060 A 
ATOM      6  C   UNL A   1      35.500  33.564  27.664  1.00  0.00     0.016 A 
ATOM      7  C   UNL A   1      34.373  32.866  29.659  1.00  0.00     0.016 A 
ATOM      8  C   UNL A   1      36.721  33.132  28.194  1.00  0.00     0.010 A 
ATOM      9  C   UNL A   1      35.586  32.415  30.183  1.00  0.00     0.010 A 
ATOM     10  C   UNL A   1      36.779  32.574  29.468  1.00  0.00    -0.014 A 
BRANCH  10  11
ATOM     11  C   UNL A   1      38.056  32.052  30.006  1.00  0.00     0.031 A 
ATOM     12  C   UNL A   1      38.488  30.676  29.608  1.00  0.00     0.074 A 
ATOM     13  C   UNL A   1      38.829  32.799  30.820  1.00  0.00     0.049 A 
ATOM     14  N   UNL A   1      39.566  30.023  29.952  1.00  0.00    -0.248 NA
ATOM     15  C   UNL A   1      37.619  29.958  28.659  1.00  0.00     0.031 C 
ATOM     16  C   UNL A   1      38.580  34.191  31.183  1.00  0.00     0.029 A 
ATOM     17  N   UNL A   1      39.972  32.483  31.512  1.00  0.00    -0.354 N 
ATOM     18  C   UNL A   1      39.529  28.843  29.226  1.00  0.00     0.074 A 
ATOM     19  C   UNL A   1      38.289  28.829  28.484  1.00  0.00     0.031 C 
ATOM     20  C   UNL A   1      39.475  34.579  32.108  1.00  0.00     0.029 A 
ATOM     21  C   UNL A   1      40.373  33.467  32.386  1.00  0.00     0.049 A 
ATOM     22  H   UNL A   1      40.457  31.635  31.395  1.00  0.00     0.167 HD
ATOM     23  C   UNL A   1      40.470  27.877  29.152  1.00  0.00     0.031 A 
ATOM     24  C   UNL A   1      41.347  33.463  33.316  1.00  0.00     0.031 A 
ATOM     25  C   UNL A   1      41.685  27.885  29.916  1.00  0.00     0.049 A 
ATOM     26  C   UNL A   1      42.272  32.278  33.368  1.00  0.00     0.074 A 
ATOM     27  C   UNL A   1      42.715  26.964  29.907  1.00  0.00     0.029 A 
ATOM     28  N   UNL A   1      42.020  28.858  30.845  1.00  0.00    -0.354 N 
ATOM     29  N   UNL A   1      42.266  31.200  32.621  1.00  0.00    -0.248 NA
ATOM     30  C   UNL A   1      43.368  32.330  34.344  1.00  0.00     0.031 C 
ATOM     31  C   UNL A   1      43.641  27.343  30.884  1.00  0.00     0.029 A 
ATOM     32  C   UNL A   1      43.217  28.533  31.456  1.00  0.00     0.049 A 
ATOM     33  H   UNL A   1      41.484  29.661  31.040  1.00  0.00     0.167 HD
ATOM     34  C   UNL A   1      43.393  30.479  32.989  1.00  0.00     0.074 A 
ATOM     35  C   UNL A   1      44.052  31.238  34.033  1.00  0.00     0.031 C 
ATOM     36  C   UNL A   1      43.853  29.305  32.492  1.00  0.00     0.031 A 
BRANCH  23  37
ATOM     37  C   UNL A   1      40.201  26.732  28.222  1.00  0.00    -0.014 A 
ATOM     38  C   UNL A   1      40.705  26.730  26.911  1.00  0.00     0.009 A 
ATOM     39  C   UNL A   1      39.438  25.641  28.662  1.00  0.00     0.009 A 
ATOM     40  C   UNL A   1      40.424  25.668  26.049  1.00  0.00     0.001 A 
ATOM     41  C   UNL A   1      39.179  24.571  27.805  1.00  0.00     0.001 A 
ATOM     42  C   UNL A   1      39.666  24.588  26.498  1.00  0.00     0.000 A 
ENDBRANCH  23  37
BRANCH  24  43
ATOM     43  C   UNL A   1      41.500  34.592  34.274  1.00  0.00    -0.014 A 
ATOM     44  C   UNL A   1      40.872  34.577  35.529  1.00  0.00     0.009 A 
ATOM     45  C   UNL A   1      42.232  35.732  33.901  1.00  0.00     0.009 A 
ATOM     46  C   UNL A   1      40.931  35.695  36.367  1.00  0.00     0.001 A 
ATOM     47  C   UNL A   1      42.311  36.838  34.751  1.00  0.00     0.001 A 
ATOM     48  C   UNL A   1      41.648  36.825  35.977  1.00  0.00     0.000 A 
ENDBRANCH  24  43
BRANCH  36  49
ATOM     49  C   UNL A   1      45.152  28.795  33.041  1.00  0.00    -0.014 A 
ATOM     50  C   UNL A   1      46.380  29.179  32.484  1.00  0.00     0.009 A 
ATOM     51  C   UNL A   1      45.144  27.953  34.165  1.00  0.00     0.009 A 
ATOM     52  C   UNL A   1      47.576  28.704  33.024  1.00  0.00     0.001 A 
ATOM     53  C   UNL A   1      46.341  27.508  34.724  1.00  0.00     0.001 A 
ATOM     54  C   UNL A   1      47.555  27.877  34.146  1.00  0.00     0.000 A 
ENDBRANCH  36  49
ENDBRANCH  10  11
ENDBRANCH   3   5
ENDBRANCH   2   3
ENDBRANCH   1   2
BRANCH   1  55
ATOM     55  C   UNL A   1      33.187  36.831  30.202  1.00  0.00     0.275 C 
BRANCH  55  56
ATOM     56  O   UNL A   1      32.526  35.865  31.035  1.00  0.00    -0.457 OA
BRANCH  56  57
ATOM     57  C   UNL A   1      32.647  36.078  32.382  1.00  0.00     0.357 C 
ATOM     58  O   UNL A   1      31.979  36.839  33.051  1.00  0.00    -0.244 OA
BRANCH  57  59
ATOM     59  C   UNL A   1      33.725  35.195  32.915  1.00  0.00     0.148 A 
ATOM     60  C   UNL A   1      34.992  35.704  33.138  1.00  0.00     0.037 A 
ATOM     61  N   UNL A   1      33.396  33.900  33.144  1.00  0.00    -0.249 NA
ATOM     62  C   UNL A   1      35.985  34.826  33.581  1.00  0.00     0.013 A 
ATOM     63  C   UNL A   1      34.400  33.070  33.537  1.00  0.00     0.121 A 
ATOM     64  C   UNL A   1      35.722  33.458  33.752  1.00  0.00     0.006 A 
BRANCH  64  65
ATOM     65  C   UNL A   1      36.799  32.509  34.094  1.00  0.00     0.055 A 
ATOM     66  C   UNL A   1      37.742  32.797  35.092  1.00  0.00     0.134 A 
ATOM     67  C   UNL A   1      36.978  31.294  33.414  1.00  0.00     0.134 A 
ATOM     68  F   UNL A   1      37.639  33.928  35.806  1.00  0.00    -0.206 F 
ATOM     69  C   UNL A   1      38.808  31.941  35.384  1.00  0.00     0.040 A 
ATOM     70  C   UNL A   1      38.051  30.438  33.676  1.00  0.00     0.040 A 
ATOM     71  F   UNL A   1      36.112  30.914  32.467  1.00  0.00    -0.206 F 
ATOM     72  C   UNL A   1      38.972  30.762  34.665  1.00  0.00     0.006 A 
ENDBRANCH  64  65
ENDBRANCH  57  59
ENDBRANCH  56  57
ENDBRANCH  55  56
ENDBRANCH   1  55
TORSDOF 12
ENDMDL
MODEL 2
REMARK VINA RESULT:     -10.4      6.293     12.095
REMARK SMILES O=C(OCCOC(=O)c1ccc(-c2c(F)cccc2F)cn1)c1ccc(-c2c3nc(c(-c4ccccc4)c4ccc([nH]4)c(-c4ccccc4)c4nc(c(-c5ccccc5)c5ccc2[nH]5)C=C4)C=C3)cc1
REMARK SMILES IDX 4 1 3 2 2 3 1 4 23 5 24 6 70 7 25 8 69 9 26 10 27 11 28 12
REMARK SMILES IDX 63 13 29 14 68 15 62 16 64 17 30 18 67 19 61 20 60 21 31 23
REMARK SMILES IDX 53 24 38 25 52 26 39 27 42 28 51 29 65 30 40 31 41 32 50 34
REMARK SMILES IDX 66 35 43 36 32 37 33 38 37 39 34 40 36 41 35 42 54 43 55 44
REMARK SMILES IDX 59 45 56 46 58 47 57 48 44 49 45 50 49 51 46 52 48 53 47 54
REMARK SMILES IDX 5 55 6 56 7 57 8 58 9 59 10 60 22 61 11 62 21 63 12 64 13 65
REMARK SMILES IDX 14 66 19 67 15 68 16 69 18 70 20 71 17 72
REMARK H PARENT 64 22 42 33
REMARK Flexibility Score: inf
ROOT
ATOM      1  C   UNL A   1      42.621  18.127  26.577  1.00  0.00     0.275 C 
ENDROOT
BRANCH   1   2
ATOM      2  O   UNL A   1      41.450  18.550  25.861  1.00  0.00    -0.458 OA
BRANCH   2   3
ATOM      3  C   UNL A   1      40.669  19.635  26.077  1.00  0.00     0.338 C 
ATOM      4  O   UNL A   1      39.479  19.584  25.770  1.00  0.00    -0.246 OA
BRANCH   3   5
ATOM      5  C   UNL A   1      41.215  20.949  26.541  1.00  0.00     0.060 A 
ATOM      6  C   UNL A   1      41.855  21.910  25.752  1.00  0.00     0.016 A 
ATOM      7  C   UNL A   1      41.068  21.226  27.908  1.00  0.00     0.016 A 
ATOM      8  C   UNL A   1      42.224  23.155  26.272  1.00  0.00     0.010 A 
ATOM      9  C   UNL A   1      41.454  22.460  28.436  1.00  0.00     0.010 A 
ATOM     10  C   UNL A   1      42.005  23.450  27.615  1.00  0.00    -0.014 A 
BRANCH  10  11
ATOM     11  C   UNL A   1      42.455  24.740  28.187  1.00  0.00     0.031 A 
ATOM     12  C   UNL A   1      41.475  25.868  28.260  1.00  0.00     0.074 A 
ATOM     13  C   UNL A   1      43.710  24.897  28.655  1.00  0.00     0.049 A 
ATOM     14  N   UNL A   1      41.649  27.076  28.725  1.00  0.00    -0.248 NA
ATOM     15  C   UNL A   1      40.106  25.588  27.793  1.00  0.00     0.031 C 
ATOM     16  C   UNL A   1      44.717  23.844  28.751  1.00  0.00     0.029 A 
ATOM     17  N   UNL A   1      44.364  26.014  29.114  1.00  0.00    -0.354 N 
ATOM     18  C   UNL A   1      40.403  27.681  28.654  1.00  0.00     0.074 A 
ATOM     19  C   UNL A   1      39.500  26.741  28.029  1.00  0.00     0.031 C 
ATOM     20  C   UNL A   1      45.888  24.380  29.137  1.00  0.00     0.029 A 
ATOM     21  C   UNL A   1      45.706  25.811  29.336  1.00  0.00     0.049 A 
ATOM     22  H   UNL A   1      43.915  26.876  29.269  1.00  0.00     0.167 HD
ATOM     23  C   UNL A   1      40.037  28.898  29.111  1.00  0.00     0.031 A 
ATOM     24  C   UNL A   1      46.680  26.687  29.648  1.00  0.00     0.031 A 
ATOM     25  C   UNL A   1      40.948  29.837  29.704  1.00  0.00     0.049 A 
ATOM     26  C   UNL A   1      46.286  28.105  29.955  1.00  0.00     0.074 A 
ATOM     27  C   UNL A   1      40.680  31.092  30.214  1.00  0.00     0.029 A 
ATOM     28  N   UNL A   1      42.311  29.625  29.840  1.00  0.00    -0.354 N 
ATOM     29  N   UNL A   1      45.090  28.642  29.954  1.00  0.00    -0.248 NA
ATOM     30  C   UNL A   1      47.359  29.022  30.362  1.00  0.00     0.031 C 
ATOM     31  C   UNL A   1      41.896  31.669  30.596  1.00  0.00     0.029 A 
ATOM     32  C   UNL A   1      42.909  30.748  30.380  1.00  0.00     0.049 A 
ATOM     33  H   UNL A   1      42.783  28.798  29.591  1.00  0.00     0.167 HD
ATOM     34  C   UNL A   1      45.256  29.937  30.423  1.00  0.00     0.074 A 
ATOM     35  C   UNL A   1      46.670  30.107  30.689  1.00  0.00     0.031 C 
ATOM     36  C   UNL A   1      44.319  30.892  30.636  1.00  0.00     0.031 A 
BRANCH  23  37
ATOM     37  C   UNL A   1      38.592  29.275  28.968  1.00  0.00    -0.014 A 
ATOM     38  C   UNL A   1      37.699  29.141  30.044  1.00  0.00     0.009 A 
ATOM     39  C   UNL A   1      38.120  29.771  27.745  1.00  0.00     0.009 A 
ATOM     40  C   UNL A   1      36.352  29.472  29.887  1.00  0.00     0.001 A 
ATOM     41  C   UNL A   1      36.778  30.124  27.599  1.00  0.00     0.001 A 
ATOM     42  C   UNL A   1      35.894  29.968  28.667  1.00  0.00     0.000 A 
ENDBRANCH  23  37
BRANCH  24  43
ATOM     43  C   UNL A   1      48.109  26.269  29.679  1.00  0.00    -0.014 A 
ATOM     44  C   UNL A   1      48.714  25.821  30.863  1.00  0.00     0.009 A 
ATOM     45  C   UNL A   1      48.897  26.383  28.522  1.00  0.00     0.009 A 
ATOM     46  C   UNL A   1      50.084  25.545  30.901  1.00  0.00     0.001 A 
ATOM     47  C   UNL A   1      50.262  26.081  28.555  1.00  0.00     0.001 A 
ATOM     48  C   UNL A   1      50.857  25.677  29.749  1.00  0.00     0.000 A 
ENDBRANCH  24  43
BRANCH  36  49
ATOM     49  C   UNL A   1      44.790  32.189  31.225  1.00  0.00    -0.014 A 
ATOM     50  C   UNL A   1      44.994  32.332  32.605  1.00  0.00     0.009 A 
ATOM     51  C   UNL A   1      45.078  33.269  30.375  1.00  0.00     0.009 A 
ATOM     52  C   UNL A   1      45.449  33.544  33.126  1.00  0.00     0.001 A 
ATOM     53  C   UNL A   1      45.565  34.467  30.895  1.00  0.00     0.001 A 
ATOM     54  C   UNL A   1      45.742  34.606  32.271  1.00  0.00     0.000 A 
ENDBRANCH  36  49
ENDBRANCH  10  11
ENDBRANCH   3   5
ENDBRANCH   2   3
ENDBRANCH   1   2
BRANCH   1  55
ATOM     55  C   UNL A   1      43.948  18.405  25.860  1.00  0.00     0.275 C 
BRANCH  55  56
ATOM     56  O   UNL A   1      43.812  19.155  24.642  1.00  0.00    -0.457 OA
BRANCH  56  57
ATOM     57  C   UNL A   1      44.989  19.561  24.074  1.00  0.00     0.357 C 
ATOM     58  O   UNL A   1      45.748  18.871  23.424  1.00  0.00    -0.244 OA
BRANCH  57  59
ATOM     59  C   UNL A   1      45.186  21.012  24.356  1.00  0.00     0.148 A 
ATOM     60  C   UNL A   1      45.853  21.413  25.500  1.00  0.00     0.037 A 
ATOM     61  N   UNL A   1      44.670  21.885  23.455  1.00  0.00    -0.249 NA
ATOM     62  C   UNL A   1      45.961  22.783  25.752  1.00  0.00     0.013 A 
ATOM     63  C   UNL A   1      44.763  23.209  23.757  1.00  0.00     0.121 A 
ATOM     64  C   UNL A   1      45.372  23.729  24.899  1.00  0.00     0.006 A 
BRANCH  64  65
ATOM     65  C   UNL A   1      45.374  25.166  25.231  1.00  0.00     0.055 A 
ATOM     66  C   UNL A   1      46.539  25.820  25.657  1.00  0.00     0.134 A 
ATOM     67  C   UNL A   1      44.210  25.951  25.194  1.00  0.00     0.134 A 
ATOM     68  F   UNL A   1      47.702  25.153  25.708  1.00  0.00    -0.206 F 
ATOM     69  C   UNL A   1      46.546  27.164  26.041  1.00  0.00     0.040 A 
ATOM     70  C   UNL A   1      44.193  27.289  25.597  1.00  0.00     0.040 A 
ATOM     71  F   UNL A   1      43.053  25.427  24.770  1.00  0.00    -0.206 F 
ATOM     72  C   UNL A   1      45.366  27.900  26.024  1.00  0.00     0.006 A 
ENDBRANCH  64  65
ENDBRANCH  57  59
ENDBRANCH  56  57
ENDBRANCH  55  56
ENDBRANCH   1  55
TORSDOF 12
ENDMDL
MODEL 3
REMARK VINA RESULT:     -10.1      0.545      6.212
REMARK SMILES O=C(OCCOC(=O)c1ccc(-c2c(F)cccc2F)cn1)c1ccc(-c2c3nc(c(-c4ccccc4)c4ccc([nH]4)c(-c4ccccc4)c4nc(c(-c5ccccc5)c5ccc2[nH]5)C=C4)C=C3)cc1
REMARK SMILES IDX 4 1 3 2 2 3 1 4 23 5 24 6 70 7 25 8 69 9 26 10 27 11 28 12
REMARK SMILES IDX 63 13 29 14 68 15 62 16 64 17 30 18 67 19 61 20 60 21 31 23
REMARK SMILES IDX 53 24 38 25 52 26 39 27 42 28 51 29 65 30 40 31 41 32 50 34
REMARK SMILES IDX 66 35 43 36 32 37 33 38 37 39 34 40 36 41 35 42 54 43 55 44
REMARK SMILES IDX 59 45 56 46 58 47 57 48 44 49 45 50 49 51 46 52 48 53 47 54
REMARK SMILES IDX 5 55 6 56 7 57 8 58 9 59 10 60 22 61 11 62 21 63 12 64 13 65
REMARK SMILES IDX 14 66 19 67 15 68 16 69 18 70 20 71 17 72
REMARK H PARENT 64 22 42 33
REMARK Flexibility Score: inf
ROOT
ATOM      1  C   UNL A   1      33.536  36.443  28.966  1.00  0.00     0.275 C 
ENDROOT
BRANCH   1   2
ATOM      2  O   UNL A   1      32.694  35.391  28.469  1.00  0.00    -0.458 OA
BRANCH   2   3
ATOM      3  C   UNL A   1      33.036  34.137  28.091  1.00  0.00     0.338 C 
ATOM      4  O   UNL A   1      32.198  33.432  27.531  1.00  0.00    -0.246 OA
BRANCH   3   5
ATOM      5  C   UNL A   1      34.347  33.509  28.451  1.00  0.00     0.060 A 
ATOM      6  C   UNL A   1      35.511  33.511  27.676  1.00  0.00     0.016 A 
ATOM      7  C   UNL A   1      34.392  32.849  29.688  1.00  0.00     0.016 A 
ATOM      8  C   UNL A   1      36.714  32.989  28.164  1.00  0.00     0.010 A 
ATOM      9  C   UNL A   1      35.586  32.309  30.170  1.00  0.00     0.010 A 
ATOM     10  C   UNL A   1      36.768  32.404  29.426  1.00  0.00    -0.014 A 
BRANCH  10  11
ATOM     11  C   UNL A   1      38.021  31.788  29.920  1.00  0.00     0.031 A 
ATOM     12  C   UNL A   1      38.893  32.586  30.839  1.00  0.00     0.074 A 
ATOM     13  C   UNL A   1      38.367  30.532  29.574  1.00  0.00     0.049 A 
ATOM     14  N   UNL A   1      40.025  32.246  31.394  1.00  0.00    -0.248 NA
ATOM     15  C   UNL A   1      38.404  33.921  31.222  1.00  0.00     0.031 C 
ATOM     16  C   UNL A   1      37.548  29.614  28.787  1.00  0.00     0.029 A 
ATOM     17  N   UNL A   1      39.513  29.817  29.817  1.00  0.00    -0.354 N 
ATOM     18  C   UNL A   1      40.357  33.302  32.228  1.00  0.00     0.074 A 
ATOM     19  C   UNL A   1      39.354  34.327  32.050  1.00  0.00     0.031 C 
ATOM     20  C   UNL A   1      38.254  28.500  28.523  1.00  0.00     0.029 A 
ATOM     21  C   UNL A   1      39.567  28.620  29.141  1.00  0.00     0.049 A 
ATOM     22  H   UNL A   1      40.228  30.130  30.417  1.00  0.00     0.167 HD
ATOM     23  C   UNL A   1      41.385  33.389  33.100  1.00  0.00     0.031 A 
ATOM     24  C   UNL A   1      40.571  27.730  29.021  1.00  0.00     0.031 A 
ATOM     25  C   UNL A   1      42.394  32.378  33.248  1.00  0.00     0.049 A 
ATOM     26  C   UNL A   1      41.810  27.946  29.845  1.00  0.00     0.074 A 
ATOM     27  C   UNL A   1      43.472  32.356  34.112  1.00  0.00     0.029 A 
ATOM     28  N   UNL A   1      42.456  31.217  32.492  1.00  0.00    -0.354 N 
ATOM     29  N   UNL A   1      42.077  28.915  30.687  1.00  0.00    -0.248 NA
ATOM     30  C   UNL A   1      42.860  26.923  29.750  1.00  0.00     0.031 C 
ATOM     31  C   UNL A   1      44.228  31.214  33.828  1.00  0.00     0.029 A 
ATOM     32  C   UNL A   1      43.585  30.495  32.832  1.00  0.00     0.049 A 
ATOM     33  H   UNL A   1      41.795  30.947  31.815  1.00  0.00     0.167 HD
ATOM     34  C   UNL A   1      43.291  28.586  31.271  1.00  0.00     0.074 A 
ATOM     35  C   UNL A   1      43.713  27.332  30.679  1.00  0.00     0.031 C 
ATOM     36  C   UNL A   1      43.983  29.249  32.229  1.00  0.00     0.031 A 
BRANCH  23  37
ATOM     37  C   UNL A   1      41.466  34.628  33.940  1.00  0.00    -0.014 A 
ATOM     38  C   UNL A   1      40.679  34.773  35.094  1.00  0.00     0.009 A 
ATOM     39  C   UNL A   1      42.341  35.661  33.576  1.00  0.00     0.009 A 
ATOM     40  C   UNL A   1      40.747  35.944  35.852  1.00  0.00     0.001 A 
ATOM     41  C   UNL A   1      42.423  36.820  34.349  1.00  0.00     0.001 A 
ATOM     42  C   UNL A   1      41.622  36.963  35.481  1.00  0.00     0.000 A 
ENDBRANCH  23  37
BRANCH  24  43
ATOM     43  C   UNL A   1      40.464  26.570  28.095  1.00  0.00    -0.014 A 
ATOM     44  C   UNL A   1      40.992  26.621  26.796  1.00  0.00     0.009 A 
ATOM     45  C   UNL A   1      39.763  25.418  28.493  1.00  0.00     0.009 A 
ATOM     46  C   UNL A   1      40.779  25.567  25.901  1.00  0.00     0.001 A 
ATOM     47  C   UNL A   1      39.575  24.356  27.605  1.00  0.00     0.001 A 
ATOM     48  C   UNL A   1      40.070  24.437  26.305  1.00  0.00     0.000 A 
ENDBRANCH  24  43
BRANCH  36  49
ATOM     49  C   UNL A   1      45.246  28.608  32.725  1.00  0.00    -0.014 A 
ATOM     50  C   UNL A   1      45.229  27.686  33.781  1.00  0.00     0.009 A 
ATOM     51  C   UNL A   1      46.464  28.900  32.090  1.00  0.00     0.009 A 
ATOM     52  C   UNL A   1      46.414  27.090  34.213  1.00  0.00     0.001 A 
ATOM     53  C   UNL A   1      47.641  28.277  32.501  1.00  0.00     0.001 A 
ATOM     54  C   UNL A   1      47.617  27.380  33.568  1.00  0.00     0.000 A 
ENDBRANCH  36  49
ENDBRANCH  10  11
ENDBRANCH   3   5
ENDBRANCH   2   3
ENDBRANCH   1   2
BRANCH   1  55
ATOM     55  C   UNL A   1      33.109  37.024  30.319  1.00  0.00     0.275 C 
BRANCH  55  56
ATOM     56  O   UNL A   1      32.639  36.043  31.258  1.00  0.00    -0.457 OA
BRANCH  56  57
ATOM     57  C   UNL A   1      32.964  36.285  32.564  1.00  0.00     0.357 C 
ATOM     58  O   UNL A   1      32.480  37.141  33.277  1.00  0.00    -0.244 OA
BRANCH  57  59
ATOM     59  C   UNL A   1      34.000  35.302  32.995  1.00  0.00     0.148 A 
ATOM     60  C   UNL A   1      33.662  33.972  33.175  1.00  0.00     0.037 A 
ATOM     61  N   UNL A   1      35.249  35.785  33.206  1.00  0.00    -0.249 NA
ATOM     62  C   UNL A   1      34.652  33.100  33.636  1.00  0.00     0.013 A 
ATOM     63  C   UNL A   1      36.173  34.911  33.691  1.00  0.00     0.121 A 
ATOM     64  C   UNL A   1      35.939  33.562  33.953  1.00  0.00     0.006 A 
BRANCH  64  65
ATOM     65  C   UNL A   1      36.944  32.669  34.561  1.00  0.00     0.055 A 
ATOM     66  C   UNL A   1      37.548  32.972  35.790  1.00  0.00     0.134 A 
ATOM     67  C   UNL A   1      37.394  31.498  33.930  1.00  0.00     0.134 A 
ATOM     68  F   UNL A   1      37.169  34.063  36.474  1.00  0.00    -0.206 F 
ATOM     69  C   UNL A   1      38.550  32.174  36.350  1.00  0.00     0.040 A 
ATOM     70  C   UNL A   1      38.411  30.701  34.462  1.00  0.00     0.040 A 
ATOM     71  F   UNL A   1      36.855  31.106  32.769  1.00  0.00    -0.206 F 
ATOM     72  C   UNL A   1      38.994  31.039  35.677  1.00  0.00     0.006 A 
ENDBRANCH  64  65
ENDBRANCH  57  59
ENDBRANCH  56  57
ENDBRANCH  55  56
ENDBRANCH   1  55
TORSDOF 12
ENDMDL
