MODEL 1
REMARK VINA RESULT:      -9.5      0.000      0.000
REMARK SMILES [NH3+][C@@H](CNc1ccc(C(=O)OCCOC(=O)c2ccc(-c3c4nc(c(-c5ccccc5)c5ccc([nH]5)c(-c5ccccc5)c5nc(c(-c6ccccc6)c6ccc3[nH]6)C=C5)C=C4)cc2)c(F)c1F)c1ccccc1
REMARK SMILES IDX 12 1 11 2 9 3 10 4 8 5 5 6 6 7 67 8 7 9 65 10 68 11 66 12
REMARK SMILES IDX 4 13 3 15 2 16 1 17 69 21 70 22 74 23 71 24 73 25 72 26
REMARK SMILES IDX 13 27 14 28 15 29 16 30 17 31 18 32 64 33 19 34 63 35 20 36
REMARK SMILES IDX 21 37 22 38 57 39 23 40 62 41 56 42 58 43 24 44 61 45 55 46
REMARK SMILES IDX 54 47 25 49 47 50 32 51 46 52 33 53 36 54 45 55 59 56 34 57
REMARK SMILES IDX 35 58 44 60 60 61 37 62 26 63 27 64 31 65 28 66 30 67 29 68
REMARK SMILES IDX 48 69 49 70 53 71 50 72 52 73 51 74 38 75 39 76 43 77 40 78
REMARK SMILES IDX 42 79 41 80
REMARK H PARENT 4 14 1 18 1 19 1 20 58 48 36 59
REMARK Flexibility Score: inf
ROOT
ATOM      1  C   UNL A   1      33.353  36.235  31.230  1.00  0.00     0.275 C 
ENDROOT
BRANCH   1   2
ATOM      2  O   UNL A   1      34.483  35.420  31.607  1.00  0.00    -0.458 OA
BRANCH   2   3
ATOM      3  C   UNL A   1      34.839  35.470  32.912  1.00  0.00     0.341 C 
ATOM      4  O   UNL A   1      34.515  36.321  33.727  1.00  0.00    -0.246 OA
BRANCH   3   5
ATOM      5  C   UNL A   1      35.593  34.269  33.304  1.00  0.00     0.099 A 
ATOM      6  C   UNL A   1      37.162  32.042  34.043  1.00  0.00     0.074 A 
ATOM      7  C   UNL A   1      37.432  33.305  34.569  1.00  0.00     0.030 A 
ATOM      8  C   UNL A   1      36.104  31.928  33.122  1.00  0.00     0.182 A 
ATOM      9  C   UNL A   1      36.677  34.412  34.180  1.00  0.00     0.021 A 
ATOM     10  C   UNL A   1      35.314  33.021  32.768  1.00  0.00     0.175 A 
ATOM     11  F   UNL A   1      35.846  30.730  32.569  1.00  0.00    -0.201 F 
ATOM     12  F   UNL A   1      34.323  32.859  31.878  1.00  0.00    -0.203 F 
BRANCH   6  13
ATOM     13  N   UNL A   1      37.890  30.924  34.435  1.00  0.00    -0.376 N 
ATOM     14  H   UNL A   1      38.013  30.176  33.807  1.00  0.00     0.160 HD
BRANCH  13  15
ATOM     15  C   UNL A   1      38.473  30.850  35.779  1.00  0.00     0.183 C 
BRANCH  15  16
ATOM     16  C   UNL A   1      40.035  30.830  35.756  1.00  0.00     0.231 C 
BRANCH  16  17
ATOM     17  N   UNL A   1      40.604  29.499  36.028  1.00  0.00    -0.350 N 
ATOM     18  H   UNL A   1      41.451  29.599  36.589  1.00  0.00     0.345 HD
ATOM     19  H   UNL A   1      40.832  29.040  35.146  1.00  0.00     0.345 HD
ATOM     20  H   UNL A   1      39.924  28.936  36.539  1.00  0.00     0.345 HD
ENDBRANCH  16  17
BRANCH  16  21
ATOM     21  C   UNL A   1      40.629  31.903  36.662  1.00  0.00     0.011 A 
ATOM     22  C   UNL A   1      39.781  32.802  37.329  1.00  0.00     0.010 A 
ATOM     23  C   UNL A   1      42.009  31.992  36.909  1.00  0.00     0.010 A 
ATOM     24  C   UNL A   1      40.296  33.742  38.225  1.00  0.00     0.001 A 
ATOM     25  C   UNL A   1      42.522  32.922  37.815  1.00  0.00     0.001 A 
ATOM     26  C   UNL A   1      41.666  33.794  38.476  1.00  0.00     0.000 A 
ENDBRANCH  16  21
ENDBRANCH  15  16
ENDBRANCH  13  15
ENDBRANCH   6  13
ENDBRANCH   3   5
ENDBRANCH   2   3
ENDBRANCH   1   2
BRANCH   1  27
ATOM     27  C   UNL A   1      32.918  35.951  29.793  1.00  0.00     0.275 C 
BRANCH  27  28
ATOM     28  O   UNL A   1      32.584  34.559  29.645  1.00  0.00    -0.458 OA
BRANCH  28  29
ATOM     29  C   UNL A   1      32.943  33.995  28.471  1.00  0.00     0.338 C 
ATOM     30  O   UNL A   1      32.296  33.935  27.440  1.00  0.00    -0.246 OA
BRANCH  29  31
ATOM     31  C   UNL A   1      34.309  33.458  28.572  1.00  0.00     0.060 A 
ATOM     32  C   UNL A   1      34.488  32.119  28.900  1.00  0.00     0.016 A 
ATOM     33  C   UNL A   1      35.406  34.315  28.516  1.00  0.00     0.016 A 
ATOM     34  C   UNL A   1      35.738  31.658  29.308  1.00  0.00     0.010 A 
ATOM     35  C   UNL A   1      36.682  33.818  28.804  1.00  0.00     0.010 A 
ATOM     36  C   UNL A   1      36.860  32.497  29.259  1.00  0.00    -0.014 A 
BRANCH  36  37
ATOM     37  C   UNL A   1      38.197  32.027  29.729  1.00  0.00     0.031 A 
ATOM     38  C   UNL A   1      38.757  30.716  29.231  1.00  0.00     0.074 A 
ATOM     39  C   UNL A   1      38.934  32.761  30.587  1.00  0.00     0.049 A 
ATOM     40  N   UNL A   1      39.783  30.029  29.671  1.00  0.00    -0.248 NA
ATOM     41  C   UNL A   1      38.060  30.085  28.098  1.00  0.00     0.031 C 
ATOM     42  C   UNL A   1      38.577  34.082  31.110  1.00  0.00     0.029 A 
ATOM     43  N   UNL A   1      40.153  32.500  31.166  1.00  0.00    -0.354 N 
ATOM     44  C   UNL A   1      39.808  28.858  28.920  1.00  0.00     0.074 A 
ATOM     45  C   UNL A   1      38.698  28.927  27.996  1.00  0.00     0.031 C 
ATOM     46  C   UNL A   1      39.576  34.537  31.880  1.00  0.00     0.029 A 
ATOM     47  C   UNL A   1      40.594  33.502  31.996  1.00  0.00     0.049 A 
ATOM     48  H   UNL A   1      40.662  31.673  31.000  1.00  0.00     0.167 HD
ATOM     49  C   UNL A   1      40.673  27.817  28.997  1.00  0.00     0.031 A 
ATOM     50  C   UNL A   1      41.672  33.570  32.803  1.00  0.00     0.031 A 
ATOM     51  C   UNL A   1      41.809  27.766  29.878  1.00  0.00     0.049 A 
ATOM     52  C   UNL A   1      42.586  32.385  32.914  1.00  0.00     0.074 A 
ATOM     53  C   UNL A   1      42.743  26.754  30.029  1.00  0.00     0.029 A 
ATOM     54  N   UNL A   1      42.181  28.783  30.743  1.00  0.00    -0.354 N 
ATOM     55  N   UNL A   1      42.544  31.246  32.266  1.00  0.00    -0.248 NA
ATOM     56  C   UNL A   1      43.679  32.486  33.891  1.00  0.00     0.031 C 
ATOM     57  C   UNL A   1      43.660  27.146  31.010  1.00  0.00     0.029 A 
ATOM     58  C   UNL A   1      43.324  28.420  31.436  1.00  0.00     0.049 A 
ATOM     59  H   UNL A   1      41.703  29.637  30.850  1.00  0.00     0.167 HD
ATOM     60  C   UNL A   1      43.612  30.501  32.747  1.00  0.00     0.074 A 
ATOM     61  C   UNL A   1      44.293  31.322  33.727  1.00  0.00     0.031 C 
ATOM     62  C   UNL A   1      43.992  29.246  32.406  1.00  0.00     0.031 A 
BRANCH  49  63
ATOM     63  C   UNL A   1      40.390  26.620  28.132  1.00  0.00    -0.014 A 
ATOM     64  C   UNL A   1      39.542  25.585  28.556  1.00  0.00     0.009 A 
ATOM     65  C   UNL A   1      40.972  26.540  26.857  1.00  0.00     0.009 A 
ATOM     66  C   UNL A   1      39.317  24.475  27.735  1.00  0.00     0.001 A 
ATOM     67  C   UNL A   1      40.724  25.444  26.028  1.00  0.00     0.001 A 
ATOM     68  C   UNL A   1      39.906  24.408  26.472  1.00  0.00     0.000 A 
ENDBRANCH  49  63
BRANCH  50  69
ATOM     69  C   UNL A   1      41.916  34.794  33.610  1.00  0.00    -0.014 A 
ATOM     70  C   UNL A   1      42.842  35.755  33.177  1.00  0.00     0.009 A 
ATOM     71  C   UNL A   1      41.217  35.014  34.808  1.00  0.00     0.009 A 
ATOM     72  C   UNL A   1      43.069  36.907  33.933  1.00  0.00     0.001 A 
ATOM     73  C   UNL A   1      41.424  36.180  35.545  1.00  0.00     0.001 A 
ATOM     74  C   UNL A   1      42.354  37.123  35.111  1.00  0.00     0.000 A 
ENDBRANCH  50  69
BRANCH  62  75
ATOM     75  C   UNL A   1      45.225  28.703  33.069  1.00  0.00    -0.014 A 
ATOM     76  C   UNL A   1      46.499  28.918  32.521  1.00  0.00     0.009 A 
ATOM     77  C   UNL A   1      45.109  27.991  34.272  1.00  0.00     0.009 A 
ATOM     78  C   UNL A   1      47.632  28.403  33.154  1.00  0.00     0.001 A 
ATOM     79  C   UNL A   1      46.246  27.497  34.913  1.00  0.00     0.001 A 
ATOM     80  C   UNL A   1      47.505  27.696  34.349  1.00  0.00     0.000 A 
ENDBRANCH  62  75
ENDBRANCH  36  37
ENDBRANCH  29  31
ENDBRANCH  28  29
ENDBRANCH  27  28
ENDBRANCH   1  27
TORSDOF 16
ENDMDL
MODEL 2
REMARK VINA RESULT:      -9.5      1.112      1.946
REMARK SMILES [NH3+][C@@H](CNc1ccc(C(=O)OCCOC(=O)c2ccc(-c3c4nc(c(-c5ccccc5)c5ccc([nH]5)c(-c5ccccc5)c5nc(c(-c6ccccc6)c6ccc3[nH]6)C=C5)C=C4)cc2)c(F)c1F)c1ccccc1
REMARK SMILES IDX 12 1 11 2 9 3 10 4 8 5 5 6 6 7 67 8 7 9 65 10 68 11 66 12
REMARK SMILES IDX 4 13 3 15 2 16 1 17 69 21 70 22 74 23 71 24 73 25 72 26
REMARK SMILES IDX 13 27 14 28 15 29 16 30 17 31 18 32 64 33 19 34 63 35 20 36
REMARK SMILES IDX 21 37 22 38 57 39 23 40 62 41 56 42 58 43 24 44 61 45 55 46
REMARK SMILES IDX 54 47 25 49 47 50 32 51 46 52 33 53 36 54 45 55 59 56 34 57
REMARK SMILES IDX 35 58 44 60 60 61 37 62 26 63 27 64 31 65 28 66 30 67 29 68
REMARK SMILES IDX 48 69 49 70 53 71 50 72 52 73 51 74 38 75 39 76 43 77 40 78
REMARK SMILES IDX 42 79 41 80
REMARK H PARENT 4 14 1 18 1 19 1 20 58 48 36 59
REMARK Flexibility Score: inf
ROOT
ATOM      1  C   UNL A   1      33.462  35.815  31.767  1.00  0.00     0.275 C 
ENDROOT
BRANCH   1   2
ATOM      2  O   UNL A   1      34.641  35.031  32.049  1.00  0.00    -0.458 OA
BRANCH   2   3
ATOM      3  C   UNL A   1      34.474  34.002  32.913  1.00  0.00     0.341 C 
ATOM      4  O   UNL A   1      33.433  33.405  33.148  1.00  0.00    -0.246 OA
BRANCH   3   5
ATOM      5  C   UNL A   1      35.760  33.570  33.482  1.00  0.00     0.099 A 
ATOM      6  C   UNL A   1      38.286  32.864  34.524  1.00  0.00     0.074 A 
ATOM      7  C   UNL A   1      37.792  34.159  34.681  1.00  0.00     0.030 A 
ATOM      8  C   UNL A   1      37.495  31.941  33.815  1.00  0.00     0.182 A 
ATOM      9  C   UNL A   1      36.558  34.517  34.137  1.00  0.00     0.021 A 
ATOM     10  C   UNL A   1      36.238  32.279  33.314  1.00  0.00     0.175 A 
ATOM     11  F   UNL A   1      37.963  30.697  33.616  1.00  0.00    -0.201 F 
ATOM     12  F   UNL A   1      35.530  31.364  32.636  1.00  0.00    -0.203 F 
BRANCH   6  13
ATOM     13  N   UNL A   1      39.504  32.483  35.077  1.00  0.00    -0.376 N 
ATOM     14  H   UNL A   1      40.326  32.965  34.828  1.00  0.00     0.160 HD
BRANCH  13  15
ATOM     15  C   UNL A   1      39.574  31.368  36.028  1.00  0.00     0.183 C 
BRANCH  15  16
ATOM     16  C   UNL A   1      41.041  30.920  36.324  1.00  0.00     0.231 C 
BRANCH  16  17
ATOM     17  N   UNL A   1      42.033  31.981  36.079  1.00  0.00    -0.350 N 
ATOM     18  H   UNL A   1      42.973  31.602  36.200  1.00  0.00     0.345 HD
ATOM     19  H   UNL A   1      41.885  32.744  36.740  1.00  0.00     0.345 HD
ATOM     20  H   UNL A   1      41.929  32.331  35.126  1.00  0.00     0.345 HD
ENDBRANCH  16  17
BRANCH  16  21
ATOM     21  C   UNL A   1      41.396  29.626  35.601  1.00  0.00     0.011 A 
ATOM     22  C   UNL A   1      42.194  28.664  36.243  1.00  0.00     0.010 A 
ATOM     23  C   UNL A   1      40.899  29.322  34.323  1.00  0.00     0.010 A 
ATOM     24  C   UNL A   1      42.467  27.437  35.633  1.00  0.00     0.001 A 
ATOM     25  C   UNL A   1      41.159  28.091  33.720  1.00  0.00     0.001 A 
ATOM     26  C   UNL A   1      41.941  27.147  34.376  1.00  0.00     0.000 A 
ENDBRANCH  16  21
ENDBRANCH  15  16
ENDBRANCH  13  15
ENDBRANCH   6  13
ENDBRANCH   3   5
ENDBRANCH   2   3
ENDBRANCH   1   2
BRANCH   1  27
ATOM     27  C   UNL A   1      33.152  35.833  30.272  1.00  0.00     0.275 C 
BRANCH  27  28
ATOM     28  O   UNL A   1      32.573  34.578  29.873  1.00  0.00    -0.458 OA
BRANCH  28  29
ATOM     29  C   UNL A   1      32.938  34.128  28.653  1.00  0.00     0.338 C 
ATOM     30  O   UNL A   1      32.339  34.253  27.598  1.00  0.00    -0.246 OA
BRANCH  29  31
ATOM     31  C   UNL A   1      34.246  33.458  28.738  1.00  0.00     0.060 A 
ATOM     32  C   UNL A   1      34.403  32.387  29.611  1.00  0.00     0.016 A 
ATOM     33  C   UNL A   1      35.354  33.998  28.090  1.00  0.00     0.016 A 
ATOM     34  C   UNL A   1      35.678  31.939  29.948  1.00  0.00     0.010 A 
ATOM     35  C   UNL A   1      36.623  33.462  28.335  1.00  0.00     0.010 A 
ATOM     36  C   UNL A   1      36.811  32.463  29.309  1.00  0.00    -0.014 A 
BRANCH  36  37
ATOM     37  C   UNL A   1      38.186  32.017  29.689  1.00  0.00     0.031 A 
ATOM     38  C   UNL A   1      38.722  30.700  29.182  1.00  0.00     0.074 A 
ATOM     39  C   UNL A   1      38.976  32.780  30.471  1.00  0.00     0.049 A 
ATOM     40  N   UNL A   1      39.787  30.035  29.560  1.00  0.00    -0.248 NA
ATOM     41  C   UNL A   1      37.949  30.034  28.120  1.00  0.00     0.031 C 
ATOM     42  C   UNL A   1      38.643  34.110  30.987  1.00  0.00     0.029 A 
ATOM     43  N   UNL A   1      40.238  32.546  30.962  1.00  0.00    -0.354 N 
ATOM     44  C   UNL A   1      39.769  28.846  28.838  1.00  0.00     0.074 A 
ATOM     45  C   UNL A   1      38.592  28.881  27.998  1.00  0.00     0.031 C 
ATOM     46  C   UNL A   1      39.692  34.595  31.668  1.00  0.00     0.029 A 
ATOM     47  C   UNL A   1      40.728  33.573  31.733  1.00  0.00     0.049 A 
ATOM     48  H   UNL A   1      40.743  31.720  30.779  1.00  0.00     0.167 HD
ATOM     49  C   UNL A   1      40.649  27.816  28.875  1.00  0.00     0.031 A 
ATOM     50  C   UNL A   1      41.862  33.671  32.454  1.00  0.00     0.031 A 
ATOM     51  C   UNL A   1      41.849  27.798  29.668  1.00  0.00     0.049 A 
ATOM     52  C   UNL A   1      42.796  32.499  32.525  1.00  0.00     0.074 A 
ATOM     53  C   UNL A   1      42.803  26.799  29.773  1.00  0.00     0.029 A 
ATOM     54  N   UNL A   1      42.273  28.840  30.479  1.00  0.00    -0.354 N 
ATOM     55  N   UNL A   1      42.719  31.344  31.910  1.00  0.00    -0.248 NA
ATOM     56  C   UNL A   1      43.958  32.635  33.414  1.00  0.00     0.031 C 
ATOM     57  C   UNL A   1      43.787  27.225  30.672  1.00  0.00     0.029 A 
ATOM     58  C   UNL A   1      43.469  28.506  31.092  1.00  0.00     0.049 A 
ATOM     59  H   UNL A   1      41.794  29.692  30.600  1.00  0.00     0.167 HD
ATOM     60  C   UNL A   1      43.829  30.622  32.327  1.00  0.00     0.074 A 
ATOM     61  C   UNL A   1      44.571  31.474  33.233  1.00  0.00     0.031 C 
ATOM     62  C   UNL A   1      44.198  29.363  31.989  1.00  0.00     0.031 A 
BRANCH  49  63
ATOM     63  C   UNL A   1      40.317  26.594  28.063  1.00  0.00    -0.014 A 
ATOM     64  C   UNL A   1      39.472  25.587  28.554  1.00  0.00     0.009 A 
ATOM     65  C   UNL A   1      40.848  26.463  26.769  1.00  0.00     0.009 A 
ATOM     66  C   UNL A   1      39.200  24.454  27.781  1.00  0.00     0.001 A 
ATOM     67  C   UNL A   1      40.553  25.344  25.988  1.00  0.00     0.001 A 
ATOM     68  C   UNL A   1      39.738  24.336  26.499  1.00  0.00     0.000 A 
ENDBRANCH  49  63
BRANCH  50  69
ATOM     69  C   UNL A   1      42.151  34.917  33.211  1.00  0.00    -0.014 A 
ATOM     70  C   UNL A   1      41.561  35.139  34.464  1.00  0.00     0.009 A 
ATOM     71  C   UNL A   1      43.028  35.884  32.692  1.00  0.00     0.009 A 
ATOM     72  C   UNL A   1      41.836  36.308  35.178  1.00  0.00     0.001 A 
ATOM     73  C   UNL A   1      43.324  37.036  33.421  1.00  0.00     0.001 A 
ATOM     74  C   UNL A   1      42.724  37.251  34.660  1.00  0.00     0.000 A 
ENDBRANCH  50  69
BRANCH  62  75
ATOM     75  C   UNL A   1      45.483  28.849  32.570  1.00  0.00    -0.014 A 
ATOM     76  C   UNL A   1      46.702  29.010  31.893  1.00  0.00     0.009 A 
ATOM     77  C   UNL A   1      45.474  28.220  33.823  1.00  0.00     0.009 A 
ATOM     78  C   UNL A   1      47.885  28.523  32.452  1.00  0.00     0.001 A 
ATOM     79  C   UNL A   1      46.662  27.755  34.389  1.00  0.00     0.001 A 
ATOM     80  C   UNL A   1      47.865  27.899  33.699  1.00  0.00     0.000 A 
ENDBRANCH  62  75
ENDBRANCH  36  37
ENDBRANCH  29  31
ENDBRANCH  28  29
ENDBRANCH  27  28
ENDBRANCH   1  27
TORSDOF 16
ENDMDL
MODEL 3
REMARK VINA RESULT:      -9.4      5.534     11.645
REMARK SMILES [NH3+][C@@H](CNc1ccc(C(=O)OCCOC(=O)c2ccc(-c3c4nc(c(-c5ccccc5)c5ccc([nH]5)c(-c5ccccc5)c5nc(c(-c6ccccc6)c6ccc3[nH]6)C=C5)C=C4)cc2)c(F)c1F)c1ccccc1
REMARK SMILES IDX 12 1 11 2 9 3 10 4 8 5 5 6 6 7 67 8 7 9 65 10 68 11 66 12
REMARK SMILES IDX 4 13 3 15 2 16 1 17 69 21 70 22 74 23 71 24 73 25 72 26
REMARK SMILES IDX 13 27 14 28 15 29 16 30 17 31 18 32 64 33 19 34 63 35 20 36
REMARK SMILES IDX 21 37 22 38 57 39 23 40 62 41 56 42 58 43 24 44 61 45 55 46
REMARK SMILES IDX 54 47 25 49 47 50 32 51 46 52 33 53 36 54 45 55 59 56 34 57
REMARK SMILES IDX 35 58 44 60 60 61 37 62 26 63 27 64 31 65 28 66 30 67 29 68
REMARK SMILES IDX 48 69 49 70 53 71 50 72 52 73 51 74 38 75 39 76 43 77 40 78
REMARK SMILES IDX 42 79 41 80
REMARK H PARENT 4 14 1 18 1 19 1 20 58 48 36 59
REMARK Flexibility Score: inf
ROOT
ATOM      1  C   UNL A   1      42.587  20.288  26.057  1.00  0.00     0.275 C 
ENDROOT
BRANCH   1   2
ATOM      2  O   UNL A   1      41.267  20.708  25.653  1.00  0.00    -0.458 OA
BRANCH   2   3
ATOM      3  C   UNL A   1      40.414  21.023  26.656  1.00  0.00     0.341 C 
ATOM      4  O   UNL A   1      40.607  20.876  27.853  1.00  0.00    -0.246 OA
BRANCH   3   5
ATOM      5  C   UNL A   1      39.218  21.709  26.142  1.00  0.00     0.099 A 
ATOM      6  C   UNL A   1      36.905  23.082  25.286  1.00  0.00     0.074 A 
ATOM      7  C   UNL A   1      37.864  23.726  26.067  1.00  0.00     0.030 A 
ATOM      8  C   UNL A   1      37.124  21.729  24.965  1.00  0.00     0.182 A 
ATOM      9  C   UNL A   1      38.991  23.039  26.518  1.00  0.00     0.021 A 
ATOM     10  C   UNL A   1      38.273  21.051  25.368  1.00  0.00     0.175 A 
ATOM     11  F   UNL A   1      36.198  21.072  24.245  1.00  0.00    -0.201 F 
ATOM     12  F   UNL A   1      38.426  19.759  25.042  1.00  0.00    -0.203 F 
BRANCH   6  13
ATOM     13  N   UNL A   1      35.786  23.757  24.811  1.00  0.00    -0.376 N 
ATOM     14  H   UNL A   1      35.721  23.982  23.855  1.00  0.00     0.160 HD
BRANCH  13  15
ATOM     15  C   UNL A   1      34.703  24.137  25.724  1.00  0.00     0.183 C 
BRANCH  15  16
ATOM     16  C   UNL A   1      33.289  23.793  25.156  1.00  0.00     0.231 C 
BRANCH  16  17
ATOM     17  N   UNL A   1      32.187  24.295  25.995  1.00  0.00    -0.350 N 
ATOM     18  H   UNL A   1      32.182  23.794  26.885  1.00  0.00     0.345 HD
ATOM     19  H   UNL A   1      31.299  24.145  25.515  1.00  0.00     0.345 HD
ATOM     20  H   UNL A   1      32.317  25.291  26.167  1.00  0.00     0.345 HD
ENDBRANCH  16  17
BRANCH  16  21
ATOM     21  C   UNL A   1      33.146  22.306  24.851  1.00  0.00     0.011 A 
ATOM     22  C   UNL A   1      33.359  21.361  25.869  1.00  0.00     0.010 A 
ATOM     23  C   UNL A   1      32.743  21.837  23.591  1.00  0.00     0.010 A 
ATOM     24  C   UNL A   1      33.157  19.999  25.634  1.00  0.00     0.001 A 
ATOM     25  C   UNL A   1      32.526  20.477  23.360  1.00  0.00     0.001 A 
ATOM     26  C   UNL A   1      32.731  19.559  24.383  1.00  0.00     0.000 A 
ENDBRANCH  16  21
ENDBRANCH  15  16
ENDBRANCH  13  15
ENDBRANCH   6  13
ENDBRANCH   3   5
ENDBRANCH   2   3
ENDBRANCH   1   2
BRANCH   1  27
ATOM     27  C   UNL A   1      43.654  21.271  25.578  1.00  0.00     0.275 C 
BRANCH  27  28
ATOM     28  O   UNL A   1      43.036  22.366  24.877  1.00  0.00    -0.458 OA
BRANCH  28  29
ATOM     29  C   UNL A   1      43.677  23.551  24.966  1.00  0.00     0.338 C 
ATOM     30  O   UNL A   1      44.679  23.908  24.369  1.00  0.00    -0.246 OA
BRANCH  29  31
ATOM     31  C   UNL A   1      42.962  24.438  25.897  1.00  0.00     0.060 A 
ATOM     32  C   UNL A   1      42.948  25.807  25.654  1.00  0.00     0.016 A 
ATOM     33  C   UNL A   1      42.461  23.938  27.097  1.00  0.00     0.016 A 
ATOM     34  C   UNL A   1      42.563  26.693  26.657  1.00  0.00     0.010 A 
ATOM     35  C   UNL A   1      41.957  24.824  28.054  1.00  0.00     0.010 A 
ATOM     36  C   UNL A   1      42.052  26.218  27.873  1.00  0.00    -0.014 A 
BRANCH  36  37
ATOM     37  C   UNL A   1      41.671  27.157  28.970  1.00  0.00     0.031 A 
ATOM     38  C   UNL A   1      42.497  27.222  30.233  1.00  0.00     0.074 A 
ATOM     39  C   UNL A   1      40.601  27.969  28.854  1.00  0.00     0.049 A 
ATOM     40  N   UNL A   1      42.222  27.799  31.377  1.00  0.00    -0.248 NA
ATOM     41  C   UNL A   1      43.797  26.532  30.210  1.00  0.00     0.031 C 
ATOM     42  C   UNL A   1      39.739  28.087  27.676  1.00  0.00     0.029 A 
ATOM     43  N   UNL A   1      40.061  28.868  29.744  1.00  0.00    -0.354 N 
ATOM     44  C   UNL A   1      43.276  27.480  32.227  1.00  0.00     0.074 A 
ATOM     45  C   UNL A   1      44.196  26.662  31.468  1.00  0.00     0.031 C 
ATOM     46  C   UNL A   1      38.821  29.040  27.893  1.00  0.00     0.029 A 
ATOM     47  C   UNL A   1      38.956  29.526  29.260  1.00  0.00     0.049 A 
ATOM     48  H   UNL A   1      40.432  29.024  30.643  1.00  0.00     0.167 HD
ATOM     49  C   UNL A   1      43.459  27.831  33.524  1.00  0.00     0.031 A 
ATOM     50  C   UNL A   1      38.111  30.388  29.858  1.00  0.00     0.031 A 
ATOM     51  C   UNL A   1      42.574  28.687  34.268  1.00  0.00     0.049 A 
ATOM     52  C   UNL A   1      38.300  30.720  31.309  1.00  0.00     0.074 A 
ATOM     53  C   UNL A   1      42.674  29.099  35.587  1.00  0.00     0.029 A 
ATOM     54  N   UNL A   1      41.434  29.283  33.750  1.00  0.00    -0.354 N 
ATOM     55  N   UNL A   1      39.250  30.337  32.127  1.00  0.00    -0.248 NA
ATOM     56  C   UNL A   1      37.281  31.583  31.925  1.00  0.00     0.031 C 
ATOM     57  C   UNL A   1      41.577  29.918  35.875  1.00  0.00     0.029 A 
ATOM     58  C   UNL A   1      40.819  30.052  34.724  1.00  0.00     0.049 A 
ATOM     59  H   UNL A   1      41.110  29.175  32.827  1.00  0.00     0.167 HD
ATOM     60  C   UNL A   1      38.951  30.922  33.350  1.00  0.00     0.074 A 
ATOM     61  C   UNL A   1      37.743  31.698  33.163  1.00  0.00     0.031 C 
ATOM     62  C   UNL A   1      39.619  30.821  34.524  1.00  0.00     0.031 A 
BRANCH  49  63
ATOM     63  C   UNL A   1      44.645  27.243  34.237  1.00  0.00    -0.014 A 
ATOM     64  C   UNL A   1      44.632  25.933  34.739  1.00  0.00     0.009 A 
ATOM     65  C   UNL A   1      45.807  28.017  34.391  1.00  0.00     0.009 A 
ATOM     66  C   UNL A   1      45.745  25.425  35.416  1.00  0.00     0.001 A 
ATOM     67  C   UNL A   1      46.928  27.498  35.042  1.00  0.00     0.001 A 
ATOM     68  C   UNL A   1      46.891  26.206  35.564  1.00  0.00     0.000 A 
ENDBRANCH  49  63
BRANCH  50  69
ATOM     69  C   UNL A   1      36.974  30.961  29.091  1.00  0.00    -0.014 A 
ATOM     70  C   UNL A   1      35.855  30.171  28.786  1.00  0.00     0.009 A 
ATOM     71  C   UNL A   1      36.994  32.301  28.673  1.00  0.00     0.009 A 
ATOM     72  C   UNL A   1      34.785  30.711  28.069  1.00  0.00     0.001 A 
ATOM     73  C   UNL A   1      35.910  32.845  27.983  1.00  0.00     0.001 A 
ATOM     74  C   UNL A   1      34.809  32.049  27.677  1.00  0.00     0.000 A 
ENDBRANCH  50  69
BRANCH  62  75
ATOM     75  C   UNL A   1      39.080  31.604  35.686  1.00  0.00    -0.014 A 
ATOM     76  C   UNL A   1      39.465  32.936  35.906  1.00  0.00     0.009 A 
ATOM     77  C   UNL A   1      38.153  31.008  36.554  1.00  0.00     0.009 A 
ATOM     78  C   UNL A   1      38.952  33.645  36.993  1.00  0.00     0.001 A 
ATOM     79  C   UNL A   1      37.625  31.727  37.626  1.00  0.00     0.001 A 
ATOM     80  C   UNL A   1      38.031  33.042  37.850  1.00  0.00     0.000 A 
ENDBRANCH  62  75
ENDBRANCH  36  37
ENDBRANCH  29  31
ENDBRANCH  28  29
ENDBRANCH  27  28
ENDBRANCH   1  27
TORSDOF 16
ENDMDL
