MODEL 1
REMARK VINA RESULT:     -11.0      0.000      0.000
REMARK SMILES Cc1cc(C)cc(Nc2nc(C)cc(C(=O)OCCOC(=O)c3ccc(-c4c5nc(c(-c6ccccc6)c6ccc([nH]6)c(-c6ccccc6)c6nc(c(-c7ccccc7)c7ccc4[nH]7)C=C6)C=C5)cc3)n2)c1
REMARK SMILES IDX 18 1 17 2 15 3 16 4 14 5 9 6 10 7 71 8 11 9 12 10 13 11 8 12
REMARK SMILES IDX 7 14 1 15 2 16 3 17 72 18 4 19 5 20 6 21 19 22 20 23 21 24
REMARK SMILES IDX 22 25 23 26 24 27 70 28 25 29 69 30 26 31 27 32 28 33 63 34
REMARK SMILES IDX 29 35 68 36 62 37 64 38 30 39 67 40 61 41 60 42 31 44 53 45
REMARK SMILES IDX 38 46 52 47 39 48 42 49 51 50 65 51 40 52 41 53 50 55 66 56
REMARK SMILES IDX 43 57 32 58 33 59 37 60 34 61 36 62 35 63 54 64 55 65 59 66
REMARK SMILES IDX 56 67 58 68 57 69 44 70 45 71 49 72 46 73 48 74 47 75
REMARK H PARENT 8 13 64 43 42 54
REMARK Flexibility Score: inf
ROOT
ATOM      1  C   UNL A   1      38.771  21.458  25.756  1.00  0.00     0.275 C 
ENDROOT
BRANCH   1   2
ATOM      2  O   UNL A   1      37.366  21.612  25.465  1.00  0.00    -0.457 OA
BRANCH   2   3
ATOM      3  C   UNL A   1      36.823  22.807  25.820  1.00  0.00     0.357 C 
ATOM      4  O   UNL A   1      37.433  23.861  25.926  1.00  0.00    -0.244 OA
BRANCH   3   5
ATOM      5  C   UNL A   1      35.346  22.686  25.994  1.00  0.00     0.154 A 
ATOM      6  C   UNL A   1      33.572  21.243  26.194  1.00  0.00     0.228 A 
ATOM      7  N   UNL A   1      32.694  22.254  26.163  1.00  0.00    -0.218 NA
ATOM      8  N   UNL A   1      34.886  21.420  26.071  1.00  0.00    -0.206 NA
ATOM      9  C   UNL A   1      33.182  23.514  26.125  1.00  0.00     0.044 A 
ATOM     10  C   UNL A   1      32.165  24.611  26.190  1.00  0.00     0.067 C 
ATOM     11  C   UNL A   1      34.529  23.790  26.038  1.00  0.00     0.059 A 
BRANCH   6  12
ATOM     12  N   UNL A   1      33.064  19.964  26.415  1.00  0.00    -0.324 N 
ATOM     13  H   UNL A   1      32.786  19.755  27.337  1.00  0.00     0.170 HD
BRANCH  12  14
ATOM     14  C   UNL A   1      32.907  18.937  25.460  1.00  0.00     0.041 A 
ATOM     15  C   UNL A   1      32.986  15.115  25.372  1.00  0.00     0.044 C 
ATOM     16  C   UNL A   1      32.910  16.550  24.936  1.00  0.00    -0.049 A 
ATOM     17  C   UNL A   1      32.713  16.853  23.584  1.00  0.00     0.007 A 
ATOM     18  C   UNL A   1      33.004  17.599  25.865  1.00  0.00     0.029 A 
ATOM     19  C   UNL A   1      32.587  18.178  23.157  1.00  0.00    -0.049 A 
ATOM     20  C   UNL A   1      32.319  18.495  21.716  1.00  0.00     0.044 C 
ATOM     21  C   UNL A   1      32.665  19.207  24.105  1.00  0.00     0.029 A 
ENDBRANCH  12  14
ENDBRANCH   6  12
ENDBRANCH   3   5
ENDBRANCH   2   3
ENDBRANCH   1   2
BRANCH   1  22
ATOM     22  C   UNL A   1      39.247  20.016  25.546  1.00  0.00     0.275 C 
BRANCH  22  23
ATOM     23  O   UNL A   1      40.214  19.616  26.537  1.00  0.00    -0.458 OA
BRANCH  23  24
ATOM     24  C   UNL A   1      41.504  19.665  26.131  1.00  0.00     0.338 C 
ATOM     25  O   UNL A   1      42.105  18.824  25.482  1.00  0.00    -0.246 OA
BRANCH  24  26
ATOM     26  C   UNL A   1      42.101  20.957  26.501  1.00  0.00     0.060 A 
ATOM     27  C   UNL A   1      42.168  21.264  27.854  1.00  0.00     0.016 A 
ATOM     28  C   UNL A   1      42.451  21.914  25.550  1.00  0.00     0.016 A 
ATOM     29  C   UNL A   1      42.493  22.545  28.273  1.00  0.00     0.010 A 
ATOM     30  C   UNL A   1      42.845  23.192  25.977  1.00  0.00     0.010 A 
ATOM     31  C   UNL A   1      42.829  23.532  27.343  1.00  0.00    -0.014 A 
BRANCH  31  32
ATOM     32  C   UNL A   1      43.113  24.907  27.832  1.00  0.00     0.031 A 
ATOM     33  C   UNL A   1      44.530  25.387  28.002  1.00  0.00     0.074 A 
ATOM     34  C   UNL A   1      42.096  25.768  28.033  1.00  0.00     0.049 A 
ATOM     35  N   UNL A   1      44.965  26.579  28.333  1.00  0.00    -0.248 NA
ATOM     36  C   UNL A   1      45.598  24.409  27.754  1.00  0.00     0.031 C 
ATOM     37  C   UNL A   1      40.677  25.462  27.838  1.00  0.00     0.029 A 
ATOM     38  N   UNL A   1      42.102  27.084  28.423  1.00  0.00    -0.354 N 
ATOM     39  C   UNL A   1      46.351  26.498  28.301  1.00  0.00     0.074 A 
ATOM     40  C   UNL A   1      46.688  25.132  27.969  1.00  0.00     0.031 C 
ATOM     41  C   UNL A   1      39.954  26.567  28.074  1.00  0.00     0.029 A 
ATOM     42  C   UNL A   1      40.849  27.638  28.500  1.00  0.00     0.049 A 
ATOM     43  H   UNL A   1      42.926  27.582  28.628  1.00  0.00     0.167 HD
ATOM     44  C   UNL A   1      47.269  27.471  28.518  1.00  0.00     0.031 A 
ATOM     45  C   UNL A   1      40.454  28.862  28.897  1.00  0.00     0.031 A 
ATOM     46  C   UNL A   1      46.950  28.815  28.918  1.00  0.00     0.049 A 
ATOM     47  C   UNL A   1      41.484  29.858  29.338  1.00  0.00     0.074 A 
ATOM     48  C   UNL A   1      47.810  29.864  29.192  1.00  0.00     0.029 A 
ATOM     49  N   UNL A   1      45.663  29.285  29.138  1.00  0.00    -0.354 N 
ATOM     50  N   UNL A   1      42.791  29.773  29.286  1.00  0.00    -0.248 NA
ATOM     51  C   UNL A   1      40.983  31.116  29.909  1.00  0.00     0.031 C 
ATOM     52  C   UNL A   1      47.047  30.947  29.645  1.00  0.00     0.029 A 
ATOM     53  C   UNL A   1      45.709  30.590  29.598  1.00  0.00     0.049 A 
ATOM     54  H   UNL A   1      44.840  28.767  28.988  1.00  0.00     0.167 HD
ATOM     55  C   UNL A   1      43.269  30.970  29.801  1.00  0.00     0.074 A 
ATOM     56  C   UNL A   1      42.111  31.769  30.149  1.00  0.00     0.031 C 
ATOM     57  C   UNL A   1      44.554  31.369  29.963  1.00  0.00     0.031 A 
BRANCH  44  58
ATOM     58  C   UNL A   1      48.712  27.085  28.375  1.00  0.00    -0.014 A 
ATOM     59  C   UNL A   1      49.373  27.195  27.140  1.00  0.00     0.009 A 
ATOM     60  C   UNL A   1      49.416  26.592  29.484  1.00  0.00     0.009 A 
ATOM     61  C   UNL A   1      50.701  26.782  27.011  1.00  0.00     0.001 A 
ATOM     62  C   UNL A   1      50.750  26.199  29.357  1.00  0.00     0.001 A 
ATOM     63  C   UNL A   1      51.388  26.285  28.119  1.00  0.00     0.000 A 
ENDBRANCH  44  58
BRANCH  45  64
ATOM     64  C   UNL A   1      39.005  29.191  28.937  1.00  0.00    -0.014 A 
ATOM     65  C   UNL A   1      38.261  29.002  30.110  1.00  0.00     0.009 A 
ATOM     66  C   UNL A   1      38.366  29.717  27.803  1.00  0.00     0.009 A 
ATOM     67  C   UNL A   1      36.903  29.329  30.143  1.00  0.00     0.001 A 
ATOM     68  C   UNL A   1      37.015  30.068  27.847  1.00  0.00     0.001 A 
ATOM     69  C   UNL A   1      36.285  29.869  29.016  1.00  0.00     0.000 A 
ENDBRANCH  45  64
BRANCH  57  70
ATOM     70  C   UNL A   1      44.775  32.742  30.529  1.00  0.00    -0.014 A 
ATOM     71  C   UNL A   1      44.945  32.939  31.910  1.00  0.00     0.009 A 
ATOM     72  C   UNL A   1      44.844  33.849  29.670  1.00  0.00     0.009 A 
ATOM     73  C   UNL A   1      45.150  34.223  32.418  1.00  0.00     0.001 A 
ATOM     74  C   UNL A   1      45.075  35.127  30.178  1.00  0.00     0.001 A 
ATOM     75  C   UNL A   1      45.219  35.315  31.553  1.00  0.00     0.000 A 
ENDBRANCH  57  70
ENDBRANCH  31  32
ENDBRANCH  24  26
ENDBRANCH  23  24
ENDBRANCH  22  23
ENDBRANCH   1  22
TORSDOF 13
ENDMDL
MODEL 2
REMARK VINA RESULT:     -11.0      2.320      6.992
REMARK SMILES Cc1cc(C)cc(Nc2nc(C)cc(C(=O)OCCOC(=O)c3ccc(-c4c5nc(c(-c6ccccc6)c6ccc([nH]6)c(-c6ccccc6)c6nc(c(-c7ccccc7)c7ccc4[nH]7)C=C6)C=C5)cc3)n2)c1
REMARK SMILES IDX 18 1 17 2 15 3 16 4 14 5 9 6 10 7 71 8 11 9 12 10 13 11 8 12
REMARK SMILES IDX 7 14 1 15 2 16 3 17 72 18 4 19 5 20 6 21 19 22 20 23 21 24
REMARK SMILES IDX 22 25 23 26 24 27 70 28 25 29 69 30 26 31 27 32 28 33 63 34
REMARK SMILES IDX 29 35 68 36 62 37 64 38 30 39 67 40 61 41 60 42 31 44 53 45
REMARK SMILES IDX 38 46 52 47 39 48 42 49 51 50 65 51 40 52 41 53 50 55 66 56
REMARK SMILES IDX 43 57 32 58 33 59 37 60 34 61 36 62 35 63 54 64 55 65 59 66
REMARK SMILES IDX 56 67 58 68 57 69 44 70 45 71 49 72 46 73 48 74 47 75
REMARK H PARENT 8 13 64 43 42 54
REMARK Flexibility Score: inf
ROOT
ATOM      1  C   UNL A   1      42.285  19.169  26.964  1.00  0.00     0.275 C 
ENDROOT
BRANCH   1   2
ATOM      2  O   UNL A   1      41.593  20.372  26.568  1.00  0.00    -0.457 OA
BRANCH   2   3
ATOM      3  C   UNL A   1      40.323  20.194  26.117  1.00  0.00     0.357 C 
ATOM      4  O   UNL A   1      39.845  19.134  25.738  1.00  0.00    -0.244 OA
BRANCH   3   5
ATOM      5  C   UNL A   1      39.544  21.462  26.216  1.00  0.00     0.154 A 
ATOM      6  C   UNL A   1      37.743  22.648  25.428  1.00  0.00     0.228 A 
ATOM      7  N   UNL A   1      38.089  23.727  26.141  1.00  0.00    -0.218 NA
ATOM      8  N   UNL A   1      38.463  21.528  25.411  1.00  0.00    -0.206 NA
ATOM      9  C   UNL A   1      39.153  23.622  26.968  1.00  0.00     0.044 A 
ATOM     10  C   UNL A   1      39.442  24.822  27.816  1.00  0.00     0.067 C 
ATOM     11  C   UNL A   1      39.930  22.487  27.045  1.00  0.00     0.059 A 
BRANCH   6  12
ATOM     12  N   UNL A   1      36.544  22.710  24.719  1.00  0.00    -0.324 N 
ATOM     13  H   UNL A   1      36.577  23.147  23.836  1.00  0.00     0.170 HD
BRANCH  12  14
ATOM     14  C   UNL A   1      35.289  22.214  25.131  1.00  0.00     0.041 A 
ATOM     15  C   UNL A   1      32.536  19.960  23.731  1.00  0.00     0.044 C 
ATOM     16  C   UNL A   1      33.294  20.894  24.629  1.00  0.00    -0.049 A 
ATOM     17  C   UNL A   1      32.736  21.284  25.852  1.00  0.00     0.007 A 
ATOM     18  C   UNL A   1      34.571  21.363  24.280  1.00  0.00     0.029 A 
ATOM     19  C   UNL A   1      33.441  22.111  26.730  1.00  0.00    -0.049 A 
ATOM     20  C   UNL A   1      32.863  22.480  28.064  1.00  0.00     0.044 C 
ATOM     21  C   UNL A   1      34.721  22.552  26.369  1.00  0.00     0.029 A 
ENDBRANCH  12  14
ENDBRANCH   6  12
ENDBRANCH   3   5
ENDBRANCH   2   3
ENDBRANCH   1   2
BRANCH   1  22
ATOM     22  C   UNL A   1      43.229  18.661  25.868  1.00  0.00     0.275 C 
BRANCH  22  23
ATOM     23  O   UNL A   1      43.412  19.631  24.819  1.00  0.00    -0.458 OA
BRANCH  23  24
ATOM     24  C   UNL A   1      44.692  19.806  24.418  1.00  0.00     0.338 C 
ATOM     25  O   UNL A   1      45.408  18.991  23.858  1.00  0.00    -0.246 OA
BRANCH  24  26
ATOM     26  C   UNL A   1      45.114  21.193  24.664  1.00  0.00     0.060 A 
ATOM     27  C   UNL A   1      45.613  21.494  25.926  1.00  0.00     0.016 A 
ATOM     28  C   UNL A   1      44.891  22.213  23.741  1.00  0.00     0.016 A 
ATOM     29  C   UNL A   1      45.806  22.811  26.315  1.00  0.00     0.010 A 
ATOM     30  C   UNL A   1      45.151  23.542  24.112  1.00  0.00     0.010 A 
ATOM     31  C   UNL A   1      45.573  23.856  25.417  1.00  0.00    -0.014 A 
BRANCH  31  32
ATOM     32  C   UNL A   1      45.737  25.255  25.894  1.00  0.00     0.031 A 
ATOM     33  C   UNL A   1      44.569  26.017  26.462  1.00  0.00     0.074 A 
ATOM     34  C   UNL A   1      46.962  25.816  25.912  1.00  0.00     0.049 A 
ATOM     35  N   UNL A   1      44.545  27.211  27.004  1.00  0.00    -0.248 NA
ATOM     36  C   UNL A   1      43.260  25.350  26.431  1.00  0.00     0.031 C 
ATOM     37  C   UNL A   1      48.195  25.168  25.462  1.00  0.00     0.029 A 
ATOM     38  N   UNL A   1      47.374  27.050  26.349  1.00  0.00    -0.354 N 
ATOM     39  C   UNL A   1      43.231  27.419  27.404  1.00  0.00     0.074 A 
ATOM     40  C   UNL A   1      42.476  26.254  26.998  1.00  0.00     0.031 C 
ATOM     41  C   UNL A   1      49.230  25.996  25.678  1.00  0.00     0.029 A 
ATOM     42  C   UNL A   1      48.726  27.254  26.219  1.00  0.00     0.049 A 
ATOM     43  H   UNL A   1      46.760  27.725  26.719  1.00  0.00     0.167 HD
ATOM     44  C   UNL A   1      42.696  28.477  28.059  1.00  0.00     0.031 A 
ATOM     45  C   UNL A   1      49.478  28.339  26.477  1.00  0.00     0.031 A 
ATOM     46  C   UNL A   1      43.419  29.671  28.405  1.00  0.00     0.049 A 
ATOM     47  C   UNL A   1      48.820  29.579  27.006  1.00  0.00     0.074 A 
ATOM     48  C   UNL A   1      42.956  30.809  29.041  1.00  0.00     0.029 A 
ATOM     49  N   UNL A   1      44.755  29.893  28.107  1.00  0.00    -0.354 N 
ATOM     50  N   UNL A   1      47.581  29.755  27.395  1.00  0.00    -0.248 NA
ATOM     51  C   UNL A   1      49.664  30.777  27.117  1.00  0.00     0.031 C 
ATOM     52  C   UNL A   1      43.995  31.748  29.065  1.00  0.00     0.029 A 
ATOM     53  C   UNL A   1      45.119  31.172  28.496  1.00  0.00     0.049 A 
ATOM     54  H   UNL A   1      45.356  29.239  27.684  1.00  0.00     0.167 HD
ATOM     55  C   UNL A   1      47.498  31.076  27.812  1.00  0.00     0.074 A 
ATOM     56  C   UNL A   1      48.816  31.653  27.638  1.00  0.00     0.031 C 
ATOM     57  C   UNL A   1      46.425  31.745  28.300  1.00  0.00     0.031 A 
BRANCH  44  58
ATOM     58  C   UNL A   1      41.234  28.398  28.391  1.00  0.00    -0.014 A 
ATOM     59  C   UNL A   1      40.259  28.858  27.490  1.00  0.00     0.009 A 
ATOM     60  C   UNL A   1      40.826  27.870  29.626  1.00  0.00     0.009 A 
ATOM     61  C   UNL A   1      38.906  28.826  27.837  1.00  0.00     0.001 A 
ATOM     62  C   UNL A   1      39.472  27.820  29.961  1.00  0.00     0.001 A 
ATOM     63  C   UNL A   1      38.514  28.307  29.071  1.00  0.00     0.000 A 
ENDBRANCH  44  58
BRANCH  45  64
ATOM     64  C   UNL A   1      50.935  28.310  26.191  1.00  0.00    -0.014 A 
ATOM     65  C   UNL A   1      51.850  27.900  27.171  1.00  0.00     0.009 A 
ATOM     66  C   UNL A   1      51.415  28.678  24.923  1.00  0.00     0.009 A 
ATOM     67  C   UNL A   1      53.217  27.862  26.887  1.00  0.00     0.001 A 
ATOM     68  C   UNL A   1      52.780  28.613  24.634  1.00  0.00     0.001 A 
ATOM     69  C   UNL A   1      53.679  28.210  25.618  1.00  0.00     0.000 A 
ENDBRANCH  45  64
BRANCH  57  70
ATOM     70  C   UNL A   1      46.638  33.177  28.697  1.00  0.00    -0.014 A 
ATOM     71  C   UNL A   1      46.453  34.221  27.776  1.00  0.00     0.009 A 
ATOM     72  C   UNL A   1      46.999  33.489  30.016  1.00  0.00     0.009 A 
ATOM     73  C   UNL A   1      46.656  35.547  28.163  1.00  0.00     0.001 A 
ATOM     74  C   UNL A   1      47.174  34.817  30.408  1.00  0.00     0.001 A 
ATOM     75  C   UNL A   1      47.011  35.844  29.479  1.00  0.00     0.000 A 
ENDBRANCH  57  70
ENDBRANCH  31  32
ENDBRANCH  24  26
ENDBRANCH  23  24
ENDBRANCH  22  23
ENDBRANCH   1  22
TORSDOF 13
ENDMDL
MODEL 3
REMARK VINA RESULT:     -10.9      7.004     11.169
REMARK SMILES Cc1cc(C)cc(Nc2nc(C)cc(C(=O)OCCOC(=O)c3ccc(-c4c5nc(c(-c6ccccc6)c6ccc([nH]6)c(-c6ccccc6)c6nc(c(-c7ccccc7)c7ccc4[nH]7)C=C6)C=C5)cc3)n2)c1
REMARK SMILES IDX 18 1 17 2 15 3 16 4 14 5 9 6 10 7 71 8 11 9 12 10 13 11 8 12
REMARK SMILES IDX 7 14 1 15 2 16 3 17 72 18 4 19 5 20 6 21 19 22 20 23 21 24
REMARK SMILES IDX 22 25 23 26 24 27 70 28 25 29 69 30 26 31 27 32 28 33 63 34
REMARK SMILES IDX 29 35 68 36 62 37 64 38 30 39 67 40 61 41 60 42 31 44 53 45
REMARK SMILES IDX 38 46 52 47 39 48 42 49 51 50 65 51 40 52 41 53 50 55 66 56
REMARK SMILES IDX 43 57 32 58 33 59 37 60 34 61 36 62 35 63 54 64 55 65 59 66
REMARK SMILES IDX 56 67 58 68 57 69 44 70 45 71 49 72 46 73 48 74 47 75
REMARK H PARENT 8 13 64 43 42 54
REMARK Flexibility Score: inf
ROOT
ATOM      1  C   UNL A   1      33.945  35.602  28.677  1.00  0.00     0.275 C 
ENDROOT
BRANCH   1   2
ATOM      2  O   UNL A   1      34.192  34.186  28.811  1.00  0.00    -0.457 OA
BRANCH   2   3
ATOM      3  C   UNL A   1      33.379  33.379  28.079  1.00  0.00     0.357 C 
ATOM      4  O   UNL A   1      32.288  33.692  27.625  1.00  0.00    -0.244 OA
BRANCH   3   5
ATOM      5  C   UNL A   1      34.030  32.060  27.827  1.00  0.00     0.154 A 
ATOM      6  C   UNL A   1      33.703  29.864  27.245  1.00  0.00     0.228 A 
ATOM      7  N   UNL A   1      34.990  29.571  27.467  1.00  0.00    -0.218 NA
ATOM      8  N   UNL A   1      33.189  31.074  27.453  1.00  0.00    -0.206 NA
ATOM      9  C   UNL A   1      35.820  30.583  27.803  1.00  0.00     0.044 A 
ATOM     10  C   UNL A   1      37.266  30.223  27.947  1.00  0.00     0.067 C 
ATOM     11  C   UNL A   1      35.381  31.874  28.000  1.00  0.00     0.059 A 
BRANCH   6  12
ATOM     12  N   UNL A   1      32.899  28.851  26.725  1.00  0.00    -0.324 N 
ATOM     13  H   UNL A   1      32.640  28.132  27.347  1.00  0.00     0.170 HD
BRANCH  12  14
ATOM     14  C   UNL A   1      32.416  28.746  25.403  1.00  0.00     0.041 A 
ATOM     15  C   UNL A   1      33.555  27.222  22.086  1.00  0.00     0.044 C 
ATOM     16  C   UNL A   1      32.757  27.980  23.107  1.00  0.00    -0.049 A 
ATOM     17  C   UNL A   1      31.559  28.598  22.730  1.00  0.00     0.007 A 
ATOM     18  C   UNL A   1      33.175  28.059  24.445  1.00  0.00     0.029 A 
ATOM     19  C   UNL A   1      30.771  29.266  23.670  1.00  0.00    -0.049 A 
ATOM     20  C   UNL A   1      29.460  29.877  23.273  1.00  0.00     0.044 C 
ATOM     21  C   UNL A   1      31.199  29.316  25.004  1.00  0.00     0.029 A 
ENDBRANCH  12  14
ENDBRANCH   6  12
ENDBRANCH   3   5
ENDBRANCH   2   3
ENDBRANCH   1   2
BRANCH   1  22
ATOM     22  C   UNL A   1      32.904  36.102  29.685  1.00  0.00     0.275 C 
BRANCH  22  23
ATOM     23  O   UNL A   1      33.482  36.349  30.982  1.00  0.00    -0.458 OA
BRANCH  23  24
ATOM     24  C   UNL A   1      33.022  35.553  31.975  1.00  0.00     0.338 C 
ATOM     25  O   UNL A   1      31.857  35.336  32.267  1.00  0.00    -0.246 OA
BRANCH  24  26
ATOM     26  C   UNL A   1      34.144  34.870  32.636  1.00  0.00     0.060 A 
ATOM     27  C   UNL A   1      35.405  35.438  32.500  1.00  0.00     0.016 A 
ATOM     28  C   UNL A   1      34.002  33.627  33.250  1.00  0.00     0.016 A 
ATOM     29  C   UNL A   1      36.541  34.740  32.884  1.00  0.00     0.010 A 
ATOM     30  C   UNL A   1      35.146  32.950  33.700  1.00  0.00     0.010 A 
ATOM     31  C   UNL A   1      36.430  33.483  33.484  1.00  0.00    -0.014 A 
BRANCH  31  32
ATOM     32  C   UNL A   1      37.675  32.745  33.826  1.00  0.00     0.031 A 
ATOM     33  C   UNL A   1      38.227  31.693  32.901  1.00  0.00     0.074 A 
ATOM     34  C   UNL A   1      38.374  33.086  34.927  1.00  0.00     0.049 A 
ATOM     35  N   UNL A   1      39.343  31.012  32.994  1.00  0.00    -0.248 NA
ATOM     36  C   UNL A   1      37.430  31.372  31.708  1.00  0.00     0.031 C 
ATOM     37  C   UNL A   1      37.997  34.137  35.875  1.00  0.00     0.029 A 
ATOM     38  N   UNL A   1      39.560  32.602  35.420  1.00  0.00    -0.354 N 
ATOM     39  C   UNL A   1      39.394  30.211  31.860  1.00  0.00     0.074 A 
ATOM     40  C   UNL A   1      38.176  30.450  31.119  1.00  0.00     0.031 C 
ATOM     41  C   UNL A   1      38.950  34.242  36.814  1.00  0.00     0.029 A 
ATOM     42  C   UNL A   1      39.968  33.224  36.573  1.00  0.00     0.049 A 
ATOM     43  H   UNL A   1      40.067  31.877  34.989  1.00  0.00     0.167 HD
ATOM     44  C   UNL A   1      40.368  29.358  31.461  1.00  0.00     0.031 A 
ATOM     45  C   UNL A   1      41.028  32.989  37.368  1.00  0.00     0.031 A 
ATOM     46  C   UNL A   1      41.550  29.058  32.223  1.00  0.00     0.049 A 
ATOM     47  C   UNL A   1      41.982  31.888  37.012  1.00  0.00     0.074 A 
ATOM     48  C   UNL A   1      42.579  28.185  31.917  1.00  0.00     0.029 A 
ATOM     49  N   UNL A   1      41.841  29.600  33.466  1.00  0.00    -0.354 N 
ATOM     50  N   UNL A   1      42.027  31.152  35.929  1.00  0.00    -0.248 NA
ATOM     51  C   UNL A   1      43.026  31.576  37.999  1.00  0.00     0.031 C 
ATOM     52  C   UNL A   1      43.457  28.146  33.007  1.00  0.00     0.029 A 
ATOM     53  C   UNL A   1      43.004  29.037  33.966  1.00  0.00     0.049 A 
ATOM     54  H   UNL A   1      41.301  30.283  33.925  1.00  0.00     0.167 HD
ATOM     55  C   UNL A   1      43.110  30.300  36.095  1.00  0.00     0.074 A 
ATOM     56  C   UNL A   1      43.702  30.619  37.379  1.00  0.00     0.031 C 
ATOM     57  C   UNL A   1      43.573  29.344  35.253  1.00  0.00     0.031 A 
BRANCH  44  58
ATOM     58  C   UNL A   1      40.154  28.651  30.154  1.00  0.00    -0.014 A 
ATOM     59  C   UNL A   1      39.421  27.454  30.089  1.00  0.00     0.009 A 
ATOM     60  C   UNL A   1      40.703  29.179  28.976  1.00  0.00     0.009 A 
ATOM     61  C   UNL A   1      39.276  26.781  28.873  1.00  0.00     0.001 A 
ATOM     62  C   UNL A   1      40.539  28.515  27.759  1.00  0.00     0.001 A 
ATOM     63  C   UNL A   1      39.834  27.312  27.710  1.00  0.00     0.000 A 
ENDBRANCH  44  58
BRANCH  45  64
ATOM     64  C   UNL A   1      41.210  33.787  38.608  1.00  0.00    -0.014 A 
ATOM     65  C   UNL A   1      40.629  33.376  39.816  1.00  0.00     0.009 A 
ATOM     66  C   UNL A   1      41.986  34.958  38.590  1.00  0.00     0.009 A 
ATOM     67  C   UNL A   1      40.819  34.126  40.980  1.00  0.00     0.001 A 
ATOM     68  C   UNL A   1      42.195  35.690  39.760  1.00  0.00     0.001 A 
ATOM     69  C   UNL A   1      41.608  35.275  40.952  1.00  0.00     0.000 A 
ENDBRANCH  45  64
BRANCH  57  70
ATOM     70  C   UNL A   1      44.792  28.584  35.688  1.00  0.00    -0.014 A 
ATOM     71  C   UNL A   1      44.680  27.375  36.394  1.00  0.00     0.009 A 
ATOM     72  C   UNL A   1      46.069  29.067  35.364  1.00  0.00     0.009 A 
ATOM     73  C   UNL A   1      45.824  26.682  36.790  1.00  0.00     0.001 A 
ATOM     74  C   UNL A   1      47.211  28.358  35.738  1.00  0.00     0.001 A 
ATOM     75  C   UNL A   1      47.088  27.171  36.459  1.00  0.00     0.000 A 
ENDBRANCH  57  70
ENDBRANCH  31  32
ENDBRANCH  24  26
ENDBRANCH  23  24
ENDBRANCH  22  23
ENDBRANCH   1  22
TORSDOF 13
ENDMDL
