MODEL 1
REMARK VINA RESULT:      -9.0      0.000      0.000
REMARK SMILES O=C(OCCOC(=O)C1CC2(CCCC2)C1)c1ccc(-c2c3nc(c(-c4ccccc4)c4ccc([nH]4)c(-c4ccccc4)c4nc(c(-c5ccccc5)c5ccc2[nH]5)C=C4)C=C3)cc1
REMARK SMILES IDX 4 1 3 2 2 3 1 4 17 5 18 6 64 7 19 8 63 9 20 10 21 11 22 12
REMARK SMILES IDX 57 13 23 14 62 15 56 16 58 17 24 18 61 19 55 20 54 21 25 23
REMARK SMILES IDX 47 24 32 25 46 26 33 27 36 28 45 29 59 30 34 31 35 32 44 34
REMARK SMILES IDX 60 35 37 36 26 37 27 38 31 39 28 40 30 41 29 42 48 43 49 44
REMARK SMILES IDX 53 45 50 46 52 47 51 48 38 49 39 50 43 51 40 52 42 53 41 54
REMARK SMILES IDX 5 55 6 56 7 57 8 58 9 59 10 60 16 61 11 62 12 63 15 64 13 65
REMARK SMILES IDX 14 66
REMARK H PARENT 58 22 36 33
REMARK Flexibility Score: inf
ROOT
ATOM      1  C   UNL A   1      33.398  33.851  28.280  1.00  0.00     0.275 C 
ENDROOT
BRANCH   1   2
ATOM      2  O   UNL A   1      34.311  32.877  27.741  1.00  0.00    -0.458 OA
BRANCH   2   3
ATOM      3  C   UNL A   1      34.380  31.533  27.882  1.00  0.00     0.338 C 
ATOM      4  O   UNL A   1      33.377  30.873  27.614  1.00  0.00    -0.246 OA
BRANCH   3   5
ATOM      5  C   UNL A   1      35.565  30.778  28.416  1.00  0.00     0.060 A 
ATOM      6  C   UNL A   1      35.622  30.035  29.599  1.00  0.00     0.016 A 
ATOM      7  C   UNL A   1      36.737  30.835  27.633  1.00  0.00     0.016 A 
ATOM      8  C   UNL A   1      36.785  29.349  29.979  1.00  0.00     0.010 A 
ATOM      9  C   UNL A   1      37.899  30.145  27.999  1.00  0.00     0.010 A 
ATOM     10  C   UNL A   1      37.933  29.411  29.191  1.00  0.00    -0.014 A 
BRANCH  10  11
ATOM     11  C   UNL A   1      39.221  28.892  29.707  1.00  0.00     0.031 A 
ATOM     12  C   UNL A   1      39.866  29.631  30.839  1.00  0.00     0.074 A 
ATOM     13  C   UNL A   1      39.801  27.786  29.205  1.00  0.00     0.049 A 
ATOM     14  N   UNL A   1      40.964  29.344  31.487  1.00  0.00    -0.248 NA
ATOM     15  C   UNL A   1      39.159  30.824  31.336  1.00  0.00     0.031 C 
ATOM     16  C   UNL A   1      39.215  26.906  28.205  1.00  0.00     0.029 A 
ATOM     17  N   UNL A   1      41.027  27.224  29.449  1.00  0.00    -0.354 N 
ATOM     18  C   UNL A   1      41.049  30.288  32.499  1.00  0.00     0.074 A 
ATOM     19  C   UNL A   1      39.943  31.203  32.332  1.00  0.00     0.031 C 
ATOM     20  C   UNL A   1      40.118  25.993  27.818  1.00  0.00     0.029 A 
ATOM     21  C   UNL A   1      41.332  26.186  28.599  1.00  0.00     0.049 A 
ATOM     22  H   UNL A   1      41.631  27.532  30.164  1.00  0.00     0.167 HD
ATOM     23  C   UNL A   1      41.952  30.360  33.501  1.00  0.00     0.031 A 
ATOM     24  C   UNL A   1      42.457  25.459  28.475  1.00  0.00     0.031 A 
ATOM     25  C   UNL A   1      43.081  29.480  33.617  1.00  0.00     0.049 A 
ATOM     26  C   UNL A   1      43.538  25.660  29.496  1.00  0.00     0.074 A 
ATOM     27  C   UNL A   1      44.069  29.462  34.583  1.00  0.00     0.029 A 
ATOM     28  N   UNL A   1      43.386  28.476  32.708  1.00  0.00    -0.354 N 
ATOM     29  N   UNL A   1      43.570  26.504  30.500  1.00  0.00    -0.248 NA
ATOM     30  C   UNL A   1      44.701  24.768  29.417  1.00  0.00     0.031 C 
ATOM     31  C   UNL A   1      45.008  28.490  34.221  1.00  0.00     0.029 A 
ATOM     32  C   UNL A   1      44.572  27.860  33.064  1.00  0.00     0.049 A 
ATOM     33  H   UNL A   1      42.837  28.236  31.926  1.00  0.00     0.167 HD
ATOM     34  C   UNL A   1      44.724  26.209  31.206  1.00  0.00     0.074 A 
ATOM     35  C   UNL A   1      45.369  25.111  30.510  1.00  0.00     0.031 C 
ATOM     36  C   UNL A   1      45.197  26.779  32.343  1.00  0.00     0.031 A 
BRANCH  23  37
ATOM     37  C   UNL A   1      41.750  31.460  34.504  1.00  0.00    -0.014 A 
ATOM     38  C   UNL A   1      42.306  32.735  34.304  1.00  0.00     0.009 A 
ATOM     39  C   UNL A   1      41.050  31.202  35.690  1.00  0.00     0.009 A 
ATOM     40  C   UNL A   1      42.211  33.712  35.298  1.00  0.00     0.001 A 
ATOM     41  C   UNL A   1      40.932  32.189  36.669  1.00  0.00     0.001 A 
ATOM     42  C   UNL A   1      41.525  33.437  36.479  1.00  0.00     0.000 A 
ENDBRANCH  23  37
BRANCH  24  43
ATOM     43  C   UNL A   1      42.581  24.454  27.387  1.00  0.00    -0.014 A 
ATOM     44  C   UNL A   1      43.145  24.789  26.147  1.00  0.00     0.009 A 
ATOM     45  C   UNL A   1      42.144  23.134  27.595  1.00  0.00     0.009 A 
ATOM     46  C   UNL A   1      43.245  23.833  25.132  1.00  0.00     0.001 A 
ATOM     47  C   UNL A   1      42.265  22.175  26.585  1.00  0.00     0.001 A 
ATOM     48  C   UNL A   1      42.809  22.528  25.351  1.00  0.00     0.000 A 
ENDBRANCH  24  43
BRANCH  36  49
ATOM     49  C   UNL A   1      46.463  26.208  32.913  1.00  0.00    -0.014 A 
ATOM     50  C   UNL A   1      47.717  26.724  32.559  1.00  0.00     0.009 A 
ATOM     51  C   UNL A   1      46.390  25.174  33.859  1.00  0.00     0.009 A 
ATOM     52  C   UNL A   1      48.879  26.195  33.122  1.00  0.00     0.001 A 
ATOM     53  C   UNL A   1      47.550  24.670  34.444  1.00  0.00     0.001 A 
ATOM     54  C   UNL A   1      48.794  25.175  34.068  1.00  0.00     0.000 A 
ENDBRANCH  36  49
ENDBRANCH  10  11
ENDBRANCH   3   5
ENDBRANCH   2   3
ENDBRANCH   1   2
BRANCH   1  55
ATOM     55  C   UNL A   1      34.005  34.728  29.373  1.00  0.00     0.274 C 
BRANCH  55  56
ATOM     56  O   UNL A   1      34.012  34.065  30.642  1.00  0.00    -0.462 OA
BRANCH  56  57
ATOM     57  C   UNL A   1      35.175  33.444  31.021  1.00  0.00     0.309 C 
ATOM     58  O   UNL A   1      36.216  33.511  30.372  1.00  0.00    -0.252 OA
BRANCH  57  59
ATOM     59  C   UNL A   1      34.988  32.676  32.359  1.00  0.00     0.100 C 
ATOM     60  C   UNL A   1      36.207  31.891  32.896  1.00  0.00     0.022 C 
ATOM     61  C   UNL A   1      35.045  33.445  33.706  1.00  0.00     0.022 C 
ATOM     62  C   UNL A   1      36.578  33.148  33.724  1.00  0.00    -0.028 C 
ATOM     63  C   UNL A   1      37.257  32.837  35.056  1.00  0.00     0.007 C 
ATOM     64  C   UNL A   1      37.415  34.239  33.033  1.00  0.00     0.007 C 
ATOM     65  C   UNL A   1      38.080  34.088  35.333  1.00  0.00     0.001 C 
ATOM     66  C   UNL A   1      38.604  34.464  33.957  1.00  0.00     0.001 C 
ENDBRANCH  57  59
ENDBRANCH  56  57
ENDBRANCH  55  56
ENDBRANCH   1  55
TORSDOF 11
ENDMDL
MODEL 2
REMARK VINA RESULT:      -9.0      4.584     10.589
REMARK SMILES O=C(OCCOC(=O)C1CC2(CCCC2)C1)c1ccc(-c2c3nc(c(-c4ccccc4)c4ccc([nH]4)c(-c4ccccc4)c4nc(c(-c5ccccc5)c5ccc2[nH]5)C=C4)C=C3)cc1
REMARK SMILES IDX 4 1 3 2 2 3 1 4 17 5 18 6 64 7 19 8 63 9 20 10 21 11 22 12
REMARK SMILES IDX 57 13 23 14 62 15 56 16 58 17 24 18 61 19 55 20 54 21 25 23
REMARK SMILES IDX 47 24 32 25 46 26 33 27 36 28 45 29 59 30 34 31 35 32 44 34
REMARK SMILES IDX 60 35 37 36 26 37 27 38 31 39 28 40 30 41 29 42 48 43 49 44
REMARK SMILES IDX 53 45 50 46 52 47 51 48 38 49 39 50 43 51 40 52 42 53 41 54
REMARK SMILES IDX 5 55 6 56 7 57 8 58 9 59 10 60 16 61 11 62 12 63 15 64 13 65
REMARK SMILES IDX 14 66
REMARK H PARENT 58 22 36 33
REMARK Flexibility Score: inf
ROOT
ATOM      1  C   UNL A   1      40.714  20.240  26.280  1.00  0.00     0.275 C 
ENDROOT
BRANCH   1   2
ATOM      2  O   UNL A   1      40.084  21.339  26.965  1.00  0.00    -0.458 OA
BRANCH   2   3
ATOM      3  C   UNL A   1      39.368  22.393  26.510  1.00  0.00     0.338 C 
ATOM      4  O   UNL A   1      38.439  22.166  25.735  1.00  0.00    -0.246 OA
BRANCH   3   5
ATOM      5  C   UNL A   1      39.661  23.836  26.813  1.00  0.00     0.060 A 
ATOM      6  C   UNL A   1      40.223  24.777  25.945  1.00  0.00     0.016 A 
ATOM      7  C   UNL A   1      39.331  24.272  28.113  1.00  0.00     0.016 A 
ATOM      8  C   UNL A   1      40.424  26.108  26.339  1.00  0.00     0.010 A 
ATOM      9  C   UNL A   1      39.519  25.601  28.511  1.00  0.00     0.010 A 
ATOM     10  C   UNL A   1      40.088  26.525  27.626  1.00  0.00    -0.014 A 
BRANCH  10  11
ATOM     11  C   UNL A   1      40.519  27.855  28.115  1.00  0.00     0.031 A 
ATOM     12  C   UNL A   1      41.990  28.103  28.253  1.00  0.00     0.074 A 
ATOM     13  C   UNL A   1      39.639  28.828  28.415  1.00  0.00     0.049 A 
ATOM     14  N   UNL A   1      42.608  29.196  28.614  1.00  0.00    -0.248 NA
ATOM     15  C   UNL A   1      42.884  26.989  27.893  1.00  0.00     0.031 C 
ATOM     16  C   UNL A   1      38.202  28.762  28.197  1.00  0.00     0.029 A 
ATOM     17  N   UNL A   1      39.821  30.059  28.991  1.00  0.00    -0.354 N 
ATOM     18  C   UNL A   1      43.958  28.917  28.474  1.00  0.00     0.074 A 
ATOM     19  C   UNL A   1      44.076  27.532  28.075  1.00  0.00     0.031 C 
ATOM     20  C   UNL A   1      37.609  29.832  28.747  1.00  0.00     0.029 A 
ATOM     21  C   UNL A   1      38.642  30.696  29.301  1.00  0.00     0.049 A 
ATOM     22  H   UNL A   1      40.709  30.448  29.167  1.00  0.00     0.167 HD
ATOM     23  C   UNL A   1      45.007  29.756  28.628  1.00  0.00     0.031 A 
ATOM     24  C   UNL A   1      38.419  31.858  29.943  1.00  0.00     0.031 A 
ATOM     25  C   UNL A   1      44.877  31.112  29.084  1.00  0.00     0.049 A 
ATOM     26  C   UNL A   1      39.604  32.719  30.268  1.00  0.00     0.074 A 
ATOM     27  C   UNL A   1      45.867  32.054  29.288  1.00  0.00     0.029 A 
ATOM     28  N   UNL A   1      43.673  31.706  29.437  1.00  0.00    -0.354 N 
ATOM     29  N   UNL A   1      40.876  32.476  30.054  1.00  0.00    -0.248 NA
ATOM     30  C   UNL A   1      39.328  34.037  30.851  1.00  0.00     0.031 C 
ATOM     31  C   UNL A   1      45.268  33.197  29.830  1.00  0.00     0.029 A 
ATOM     32  C   UNL A   1      43.898  32.989  29.903  1.00  0.00     0.049 A 
ATOM     33  H   UNL A   1      42.789  31.278  29.366  1.00  0.00     0.167 HD
ATOM     34  C   UNL A   1      41.549  33.630  30.423  1.00  0.00     0.074 A 
ATOM     35  C   UNL A   1      40.542  34.570  30.880  1.00  0.00     0.031 C 
ATOM     36  C   UNL A   1      42.877  33.897  30.366  1.00  0.00     0.031 A 
BRANCH  23  37
ATOM     37  C   UNL A   1      46.365  29.188  28.335  1.00  0.00    -0.014 A 
ATOM     38  C   UNL A   1      47.096  28.509  29.325  1.00  0.00     0.009 A 
ATOM     39  C   UNL A   1      46.947  29.387  27.076  1.00  0.00     0.009 A 
ATOM     40  C   UNL A   1      48.405  28.090  29.074  1.00  0.00     0.001 A 
ATOM     41  C   UNL A   1      48.245  28.941  26.820  1.00  0.00     0.001 A 
ATOM     42  C   UNL A   1      48.978  28.308  27.823  1.00  0.00     0.000 A 
ENDBRANCH  23  37
BRANCH  24  43
ATOM     43  C   UNL A   1      37.030  32.282  30.259  1.00  0.00    -0.014 A 
ATOM     44  C   UNL A   1      36.423  31.939  31.476  1.00  0.00     0.009 A 
ATOM     45  C   UNL A   1      36.304  33.056  29.337  1.00  0.00     0.009 A 
ATOM     46  C   UNL A   1      35.112  32.338  31.753  1.00  0.00     0.001 A 
ATOM     47  C   UNL A   1      35.000  33.471  29.626  1.00  0.00     0.001 A 
ATOM     48  C   UNL A   1      34.403  33.106  30.831  1.00  0.00     0.000 A 
ENDBRANCH  24  43
BRANCH  36  49
ATOM     49  C   UNL A   1      43.313  35.269  30.790  1.00  0.00    -0.014 A 
ATOM     50  C   UNL A   1      43.641  35.547  32.125  1.00  0.00     0.009 A 
ATOM     51  C   UNL A   1      43.447  36.280  29.826  1.00  0.00     0.009 A 
ATOM     52  C   UNL A   1      44.069  36.823  32.491  1.00  0.00     0.001 A 
ATOM     53  C   UNL A   1      43.907  37.544  30.190  1.00  0.00     0.001 A 
ATOM     54  C   UNL A   1      44.209  37.818  31.523  1.00  0.00     0.000 A 
ENDBRANCH  36  49
ENDBRANCH  10  11
ENDBRANCH   3   5
ENDBRANCH   2   3
ENDBRANCH   1   2
BRANCH   1  55
ATOM     55  C   UNL A   1      42.235  20.222  26.410  1.00  0.00     0.274 C 
BRANCH  55  56
ATOM     56  O   UNL A   1      42.818  21.464  26.001  1.00  0.00    -0.462 OA
BRANCH  56  57
ATOM     57  C   UNL A   1      43.992  21.406  25.294  1.00  0.00     0.309 C 
ATOM     58  O   UNL A   1      44.770  20.457  25.358  1.00  0.00    -0.252 OA
BRANCH  57  59
ATOM     59  C   UNL A   1      44.182  22.676  24.419  1.00  0.00     0.100 C 
ATOM     60  C   UNL A   1      43.805  24.033  25.058  1.00  0.00     0.022 C 
ATOM     61  C   UNL A   1      45.598  23.290  24.247  1.00  0.00     0.022 C 
ATOM     62  C   UNL A   1      45.285  24.171  25.497  1.00  0.00    -0.028 C 
ATOM     63  C   UNL A   1      45.791  25.612  25.534  1.00  0.00     0.007 C 
ATOM     64  C   UNL A   1      45.703  23.511  26.824  1.00  0.00     0.007 C 
ATOM     65  C   UNL A   1      46.913  25.565  26.563  1.00  0.00     0.001 C 
ATOM     66  C   UNL A   1      46.367  24.623  27.623  1.00  0.00     0.001 C 
ENDBRANCH  57  59
ENDBRANCH  56  57
ENDBRANCH  55  56
ENDBRANCH   1  55
TORSDOF 11
ENDMDL
MODEL 3
REMARK VINA RESULT:      -8.9      2.744      5.386
REMARK SMILES O=C(OCCOC(=O)C1CC2(CCCC2)C1)c1ccc(-c2c3nc(c(-c4ccccc4)c4ccc([nH]4)c(-c4ccccc4)c4nc(c(-c5ccccc5)c5ccc2[nH]5)C=C4)C=C3)cc1
REMARK SMILES IDX 4 1 3 2 2 3 1 4 17 5 18 6 64 7 19 8 63 9 20 10 21 11 22 12
REMARK SMILES IDX 57 13 23 14 62 15 56 16 58 17 24 18 61 19 55 20 54 21 25 23
REMARK SMILES IDX 47 24 32 25 46 26 33 27 36 28 45 29 59 30 34 31 35 32 44 34
REMARK SMILES IDX 60 35 37 36 26 37 27 38 31 39 28 40 30 41 29 42 48 43 49 44
REMARK SMILES IDX 53 45 50 46 52 47 51 48 38 49 39 50 43 51 40 52 42 53 41 54
REMARK SMILES IDX 5 55 6 56 7 57 8 58 9 59 10 60 16 61 11 62 12 63 15 64 13 65
REMARK SMILES IDX 14 66
REMARK H PARENT 58 22 36 33
REMARK Flexibility Score: inf
ROOT
ATOM      1  C   UNL A   1      31.592  32.257  27.134  1.00  0.00     0.275 C 
ENDROOT
BRANCH   1   2
ATOM      2  O   UNL A   1      32.223  33.548  27.230  1.00  0.00    -0.458 OA
BRANCH   2   3
ATOM      3  C   UNL A   1      32.944  34.127  28.217  1.00  0.00     0.338 C 
ATOM      4  O   UNL A   1      32.503  35.158  28.723  1.00  0.00    -0.246 OA
BRANCH   3   5
ATOM      5  C   UNL A   1      34.287  33.654  28.701  1.00  0.00     0.060 A 
ATOM      6  C   UNL A   1      35.517  33.827  28.061  1.00  0.00     0.016 A 
ATOM      7  C   UNL A   1      34.291  32.964  29.932  1.00  0.00     0.016 A 
ATOM      8  C   UNL A   1      36.711  33.360  28.630  1.00  0.00     0.010 A 
ATOM      9  C   UNL A   1      35.479  32.504  30.512  1.00  0.00     0.010 A 
ATOM     10  C   UNL A   1      36.699  32.684  29.849  1.00  0.00    -0.014 A 
BRANCH  10  11
ATOM     11  C   UNL A   1      37.915  31.987  30.327  1.00  0.00     0.031 A 
ATOM     12  C   UNL A   1      38.757  32.680  31.354  1.00  0.00     0.074 A 
ATOM     13  C   UNL A   1      38.263  30.766  29.881  1.00  0.00     0.049 A 
ATOM     14  N   UNL A   1      39.835  32.253  31.956  1.00  0.00    -0.248 NA
ATOM     15  C   UNL A   1      38.299  34.009  31.796  1.00  0.00     0.031 C 
ATOM     16  C   UNL A   1      37.465  29.934  28.992  1.00  0.00     0.029 A 
ATOM     17  N   UNL A   1      39.391  30.017  30.096  1.00  0.00    -0.354 N 
ATOM     18  C   UNL A   1      40.152  33.235  32.881  1.00  0.00     0.074 A 
ATOM     19  C   UNL A   1      39.206  34.314  32.708  1.00  0.00     0.031 C 
ATOM     20  C   UNL A   1      38.171  28.853  28.627  1.00  0.00     0.029 A 
ATOM     21  C   UNL A   1      39.454  28.887  29.315  1.00  0.00     0.049 A 
ATOM     22  H   UNL A   1      40.089  30.266  30.745  1.00  0.00     0.167 HD
ATOM     23  C   UNL A   1      41.126  33.219  33.818  1.00  0.00     0.031 A 
ATOM     24  C   UNL A   1      40.429  27.969  29.182  1.00  0.00     0.031 A 
ATOM     25  C   UNL A   1      42.096  32.166  33.936  1.00  0.00     0.049 A 
ATOM     26  C   UNL A   1      41.600  28.050  30.116  1.00  0.00     0.074 A 
ATOM     27  C   UNL A   1      43.134  32.045  34.839  1.00  0.00     0.029 A 
ATOM     28  N   UNL A   1      42.160  31.064  33.095  1.00  0.00    -0.354 N 
ATOM     29  N   UNL A   1      41.847  28.942  31.045  1.00  0.00    -0.248 NA
ATOM     30  C   UNL A   1      42.587  26.966  30.040  1.00  0.00     0.031 C 
ATOM     31  C   UNL A   1      43.868  30.902  34.500  1.00  0.00     0.029 A 
ATOM     32  C   UNL A   1      43.248  30.278  33.427  1.00  0.00     0.049 A 
ATOM     33  H   UNL A   1      41.522  30.869  32.369  1.00  0.00     0.167 HD
ATOM     34  C   UNL A   1      42.984  28.501  31.702  1.00  0.00     0.074 A 
ATOM     35  C   UNL A   1      43.382  27.263  31.059  1.00  0.00     0.031 C 
ATOM     36  C   UNL A   1      43.628  29.058  32.759  1.00  0.00     0.031 A 
BRANCH  23  37
ATOM     37  C   UNL A   1      41.185  34.404  34.739  1.00  0.00    -0.014 A 
ATOM     38  C   UNL A   1      40.433  34.440  35.925  1.00  0.00     0.009 A 
ATOM     39  C   UNL A   1      41.953  35.521  34.386  1.00  0.00     0.009 A 
ATOM     40  C   UNL A   1      40.406  35.595  36.711  1.00  0.00     0.001 A 
ATOM     41  C   UNL A   1      41.948  36.663  35.188  1.00  0.00     0.001 A 
ATOM     42  C   UNL A   1      41.163  36.705  36.341  1.00  0.00     0.000 A 
ENDBRANCH  23  37
BRANCH  24  43
ATOM     43  C   UNL A   1      40.302  26.885  28.173  1.00  0.00    -0.014 A 
ATOM     44  C   UNL A   1      40.852  27.017  26.890  1.00  0.00     0.009 A 
ATOM     45  C   UNL A   1      39.635  25.692  28.502  1.00  0.00     0.009 A 
ATOM     46  C   UNL A   1      40.715  25.990  25.950  1.00  0.00     0.001 A 
ATOM     47  C   UNL A   1      39.518  24.659  27.568  1.00  0.00     0.001 A 
ATOM     48  C   UNL A   1      40.052  24.812  26.289  1.00  0.00     0.000 A 
ENDBRANCH  24  43
BRANCH  36  49
ATOM     49  C   UNL A   1      44.818  28.317  33.295  1.00  0.00    -0.014 A 
ATOM     50  C   UNL A   1      46.114  28.594  32.837  1.00  0.00     0.009 A 
ATOM     51  C   UNL A   1      44.639  27.367  34.312  1.00  0.00     0.009 A 
ATOM     52  C   UNL A   1      47.208  27.912  33.370  1.00  0.00     0.001 A 
ATOM     53  C   UNL A   1      45.738  26.711  34.866  1.00  0.00     0.001 A 
ATOM     54  C   UNL A   1      47.020  26.977  34.388  1.00  0.00     0.000 A 
ENDBRANCH  36  49
ENDBRANCH  10  11
ENDBRANCH   3   5
ENDBRANCH   2   3
ENDBRANCH   1   2
BRANCH   1  55
ATOM     55  C   UNL A   1      32.573  31.104  26.930  1.00  0.00     0.274 C 
BRANCH  55  56
ATOM     56  O   UNL A   1      31.894  29.866  26.695  1.00  0.00    -0.462 OA
BRANCH  56  57
ATOM     57  C   UNL A   1      31.932  29.360  25.421  1.00  0.00     0.309 C 
ATOM     58  O   UNL A   1      30.991  29.442  24.635  1.00  0.00    -0.252 OA
BRANCH  57  59
ATOM     59  C   UNL A   1      33.305  28.695  25.124  1.00  0.00     0.100 C 
ATOM     60  C   UNL A   1      33.929  27.835  26.248  1.00  0.00     0.022 C 
ATOM     61  C   UNL A   1      33.368  27.401  24.268  1.00  0.00     0.022 C 
ATOM     62  C   UNL A   1      33.245  26.602  25.604  1.00  0.00    -0.028 C 
ATOM     63  C   UNL A   1      34.030  25.301  25.764  1.00  0.00     0.007 C 
ATOM     64  C   UNL A   1      31.788  26.303  25.999  1.00  0.00     0.007 C 
ATOM     65  C   UNL A   1      32.952  24.228  25.693  1.00  0.00     0.001 C 
ATOM     66  C   UNL A   1      31.797  24.852  26.458  1.00  0.00     0.001 C 
ENDBRANCH  57  59
ENDBRANCH  56  57
ENDBRANCH  55  56
ENDBRANCH   1  55
TORSDOF 11
ENDMDL
