MODEL 1
REMARK VINA RESULT:     -12.7      0.000      0.000
REMARK SMILES O=C(OCCOC(=O)c1cccc(COc2ccccc2C=C2C(=O)c3ccccc3C2=O)c1)c1ccc(-c2c3nc(c(-c4ccccc4)c4ccc([nH]4)c(-c4ccccc4)c4nc(c(-c5ccccc5)c5ccc2[nH]5)C=C4)C=C3)cc1
REMARK SMILES IDX 5 1 4 2 3 3 2 4 1 5 35 6 36 7 82 8 37 9 81 10 38 11 39 12
REMARK SMILES IDX 40 13 75 14 41 15 80 16 74 17 76 18 42 19 79 20 73 21 72 22
REMARK SMILES IDX 43 24 65 25 50 26 64 27 51 28 54 29 63 30 77 31 52 32 53 33
REMARK SMILES IDX 62 35 78 36 55 37 44 38 45 39 49 40 46 41 48 42 47 43 66 44
REMARK SMILES IDX 67 45 71 46 68 47 70 48 69 49 56 50 57 51 61 52 58 53 60 54
REMARK SMILES IDX 59 55 6 56 7 57 8 58 9 59 10 60 34 61 11 62 13 63 12 64
REMARK SMILES IDX 14 65 15 66 16 67 17 68 21 69 18 70 20 71 19 72 22 73 23 74
REMARK SMILES IDX 24 75 32 76 25 77 26 78 31 79 33 80 27 81 30 82 28 83 29 84
REMARK H PARENT 76 23 54 34
REMARK Flexibility Score: inf
ROOT
ATOM      1  C   UNL A   1      34.206  34.539  29.856  1.00  0.00     0.275 C 
ENDROOT
BRANCH   1   2
ATOM      2  C   UNL A   1      34.554  34.140  31.300  1.00  0.00     0.275 C 
BRANCH   2   3
ATOM      3  O   UNL A   1      34.857  32.753  31.544  1.00  0.00    -0.458 OA
BRANCH   3   4
ATOM      4  C   UNL A   1      35.812  32.210  32.339  1.00  0.00     0.338 C 
ATOM      5  O   UNL A   1      35.709  32.281  33.561  1.00  0.00    -0.246 OA
BRANCH   4   6
ATOM      6  C   UNL A   1      37.092  31.703  31.772  1.00  0.00     0.060 A 
ATOM      7  C   UNL A   1      38.098  31.069  32.502  1.00  0.00     0.016 A 
ATOM      8  C   UNL A   1      37.269  31.853  30.388  1.00  0.00     0.016 A 
ATOM      9  C   UNL A   1      39.173  30.457  31.859  1.00  0.00     0.010 A 
ATOM     10  C   UNL A   1      38.336  31.232  29.736  1.00  0.00     0.010 A 
ATOM     11  C   UNL A   1      39.291  30.517  30.470  1.00  0.00    -0.014 A 
BRANCH  11  12
ATOM     12  C   UNL A   1      40.541  30.057  29.833  1.00  0.00     0.031 A 
ATOM     13  C   UNL A   1      40.546  28.661  29.291  1.00  0.00     0.074 A 
ATOM     14  C   UNL A   1      41.598  30.871  29.650  1.00  0.00     0.049 A 
ATOM     15  N   UNL A   1      41.442  28.071  28.546  1.00  0.00    -0.248 NA
ATOM     16  C   UNL A   1      39.362  27.833  29.584  1.00  0.00     0.031 C 
ATOM     17  C   UNL A   1      41.666  32.279  30.035  1.00  0.00     0.029 A 
ATOM     18  N   UNL A   1      42.825  30.628  29.087  1.00  0.00    -0.354 N 
ATOM     19  C   UNL A   1      40.894  26.837  28.232  1.00  0.00     0.074 A 
ATOM     20  C   UNL A   1      39.652  26.711  28.953  1.00  0.00     0.031 C 
ATOM     21  C   UNL A   1      42.892  32.760  29.760  1.00  0.00     0.029 A 
ATOM     22  C   UNL A   1      43.684  31.702  29.145  1.00  0.00     0.049 A 
ATOM     23  H   UNL A   1      43.069  29.767  28.677  1.00  0.00     0.167 HD
ATOM     24  C   UNL A   1      41.355  25.912  27.363  1.00  0.00     0.031 A 
ATOM     25  C   UNL A   1      44.958  31.815  28.725  1.00  0.00     0.031 A 
ATOM     26  C   UNL A   1      42.616  26.019  26.695  1.00  0.00     0.049 A 
ATOM     27  C   UNL A   1      45.549  30.678  27.937  1.00  0.00     0.074 A 
ATOM     28  C   UNL A   1      43.205  25.138  25.811  1.00  0.00     0.029 A 
ATOM     29  N   UNL A   1      43.500  27.077  26.869  1.00  0.00    -0.354 N 
ATOM     30  N   UNL A   1      44.987  29.548  27.577  1.00  0.00    -0.248 NA
ATOM     31  C   UNL A   1      46.918  30.858  27.438  1.00  0.00     0.031 C 
ATOM     32  C   UNL A   1      44.477  25.630  25.501  1.00  0.00     0.029 A 
ATOM     33  C   UNL A   1      44.652  26.850  26.141  1.00  0.00     0.049 A 
ATOM     34  H   UNL A   1      43.330  27.869  27.428  1.00  0.00     0.167 HD
ATOM     35  C   UNL A   1      45.905  28.912  26.753  1.00  0.00     0.074 A 
ATOM     36  C   UNL A   1      47.066  29.779  26.682  1.00  0.00     0.031 C 
ATOM     37  C   UNL A   1      45.789  27.735  26.091  1.00  0.00     0.031 A 
BRANCH  24  38
ATOM     38  C   UNL A   1      40.475  24.717  27.150  1.00  0.00    -0.014 A 
ATOM     39  C   UNL A   1      40.908  23.427  27.513  1.00  0.00     0.009 A 
ATOM     40  C   UNL A   1      39.249  24.863  26.489  1.00  0.00     0.009 A 
ATOM     41  C   UNL A   1      40.156  22.305  27.163  1.00  0.00     0.001 A 
ATOM     42  C   UNL A   1      38.484  23.741  26.169  1.00  0.00     0.001 A 
ATOM     43  C   UNL A   1      38.945  22.463  26.491  1.00  0.00     0.000 A 
ENDBRANCH  24  38
BRANCH  25  44
ATOM     44  C   UNL A   1      45.739  33.055  28.989  1.00  0.00    -0.014 A 
ATOM     45  C   UNL A   1      46.207  33.359  30.276  1.00  0.00     0.009 A 
ATOM     46  C   UNL A   1      45.988  33.967  27.950  1.00  0.00     0.009 A 
ATOM     47  C   UNL A   1      46.877  34.561  30.525  1.00  0.00     0.001 A 
ATOM     48  C   UNL A   1      46.676  35.159  28.196  1.00  0.00     0.001 A 
ATOM     49  C   UNL A   1      47.111  35.460  29.485  1.00  0.00     0.000 A 
ENDBRANCH  25  44
BRANCH  37  50
ATOM     50  C   UNL A   1      46.923  27.345  25.188  1.00  0.00    -0.014 A 
ATOM     51  C   UNL A   1      47.014  27.824  23.874  1.00  0.00     0.009 A 
ATOM     52  C   UNL A   1      47.946  26.524  25.690  1.00  0.00     0.009 A 
ATOM     53  C   UNL A   1      48.092  27.460  23.068  1.00  0.00     0.001 A 
ATOM     54  C   UNL A   1      49.039  26.190  24.894  1.00  0.00     0.001 A 
ATOM     55  C   UNL A   1      49.107  26.650  23.580  1.00  0.00     0.000 A 
ENDBRANCH  37  50
ENDBRANCH  11  12
ENDBRANCH   4   6
ENDBRANCH   3   4
ENDBRANCH   2   3
ENDBRANCH   1   2
BRANCH   1  56
ATOM     56  O   UNL A   1      33.662  33.501  29.024  1.00  0.00    -0.458 OA
BRANCH  56  57
ATOM     57  C   UNL A   1      34.560  33.011  28.135  1.00  0.00     0.338 C 
ATOM     58  O   UNL A   1      35.499  33.629  27.666  1.00  0.00    -0.246 OA
BRANCH  57  59
ATOM     59  C   UNL A   1      34.364  31.582  27.849  1.00  0.00     0.060 A 
ATOM     60  C   UNL A   1      35.506  30.796  27.648  1.00  0.00     0.016 A 
ATOM     61  C   UNL A   1      33.103  31.045  27.621  1.00  0.00     0.023 A 
ATOM     62  C   UNL A   1      35.400  29.436  27.375  1.00  0.00     0.001 A 
ATOM     63  C   UNL A   1      33.003  29.700  27.232  1.00  0.00    -0.010 A 
ATOM     64  C   UNL A   1      34.144  28.881  27.192  1.00  0.00     0.007 A 
BRANCH  63  65
ATOM     65  C   UNL A   1      31.747  29.188  26.587  1.00  0.00     0.265 C 
BRANCH  65  66
ATOM     66  O   UNL A   1      32.194  28.438  25.443  1.00  0.00    -0.488 OA
BRANCH  66  67
ATOM     67  C   UNL A   1      31.160  28.034  24.635  1.00  0.00     0.127 A 
ATOM     68  C   UNL A   1      30.674  28.993  23.736  1.00  0.00     0.047 A 
ATOM     69  C   UNL A   1      30.526  26.781  24.785  1.00  0.00     0.017 A 
ATOM     70  C   UNL A   1      29.547  28.723  22.968  1.00  0.00     0.004 A 
ATOM     71  C   UNL A   1      29.353  26.571  24.044  1.00  0.00     0.012 A 
ATOM     72  C   UNL A   1      28.881  27.515  23.131  1.00  0.00     0.001 A 
BRANCH  69  73
ATOM     73  C   UNL A   1      30.961  25.726  25.734  1.00  0.00     0.028 C 
ATOM     74  C   UNL A   1      31.974  24.849  25.579  1.00  0.00     0.071 C 
ATOM     75  C   UNL A   1      32.993  24.745  24.487  1.00  0.00     0.197 C 
ATOM     76  C   UNL A   1      32.280  23.772  26.579  1.00  0.00     0.197 C 
ATOM     77  O   UNL A   1      33.195  25.482  23.547  1.00  0.00    -0.288 OA
ATOM     78  C   UNL A   1      33.813  23.570  24.809  1.00  0.00     0.034 A 
ATOM     79  C   UNL A   1      33.434  23.033  26.035  1.00  0.00     0.034 A 
ATOM     80  O   UNL A   1      31.705  23.529  27.617  1.00  0.00    -0.288 OA
ATOM     81  C   UNL A   1      34.900  23.087  24.100  1.00  0.00     0.013 A 
ATOM     82  C   UNL A   1      34.159  22.006  26.619  1.00  0.00     0.013 A 
ATOM     83  C   UNL A   1      35.628  22.038  24.664  1.00  0.00     0.001 A 
ATOM     84  C   UNL A   1      35.267  21.509  25.919  1.00  0.00     0.001 A 
ENDBRANCH  69  73
ENDBRANCH  66  67
ENDBRANCH  65  66
ENDBRANCH  63  65
ENDBRANCH  57  59
ENDBRANCH  56  57
ENDBRANCH   1  56
TORSDOF 15
ENDMDL
MODEL 2
REMARK VINA RESULT:     -12.6      4.144      9.547
REMARK SMILES O=C(OCCOC(=O)c1cccc(COc2ccccc2C=C2C(=O)c3ccccc3C2=O)c1)c1ccc(-c2c3nc(c(-c4ccccc4)c4ccc([nH]4)c(-c4ccccc4)c4nc(c(-c5ccccc5)c5ccc2[nH]5)C=C4)C=C3)cc1
REMARK SMILES IDX 5 1 4 2 3 3 2 4 1 5 35 6 36 7 82 8 37 9 81 10 38 11 39 12
REMARK SMILES IDX 40 13 75 14 41 15 80 16 74 17 76 18 42 19 79 20 73 21 72 22
REMARK SMILES IDX 43 24 65 25 50 26 64 27 51 28 54 29 63 30 77 31 52 32 53 33
REMARK SMILES IDX 62 35 78 36 55 37 44 38 45 39 49 40 46 41 48 42 47 43 66 44
REMARK SMILES IDX 67 45 71 46 68 47 70 48 69 49 56 50 57 51 61 52 58 53 60 54
REMARK SMILES IDX 59 55 6 56 7 57 8 58 9 59 10 60 34 61 11 62 13 63 12 64
REMARK SMILES IDX 14 65 15 66 16 67 17 68 21 69 18 70 20 71 19 72 22 73 23 74
REMARK SMILES IDX 24 75 32 76 25 77 26 78 31 79 33 80 27 81 30 82 28 83 29 84
REMARK H PARENT 76 23 54 34
REMARK Flexibility Score: inf
ROOT
ATOM      1  C   UNL A   1      42.333  20.206  26.227  1.00  0.00     0.275 C 
ENDROOT
BRANCH   1   2
ATOM      2  C   UNL A   1      43.341  21.159  25.563  1.00  0.00     0.275 C 
BRANCH   2   3
ATOM      3  O   UNL A   1      42.842  22.430  25.103  1.00  0.00    -0.458 OA
BRANCH   3   4
ATOM      4  C   UNL A   1      43.443  23.644  25.115  1.00  0.00     0.338 C 
ATOM      5  O   UNL A   1      44.368  23.881  24.342  1.00  0.00    -0.246 OA
BRANCH   4   6
ATOM      6  C   UNL A   1      43.151  24.640  26.183  1.00  0.00     0.060 A 
ATOM      7  C   UNL A   1      43.612  25.957  26.200  1.00  0.00     0.016 A 
ATOM      8  C   UNL A   1      42.318  24.213  27.228  1.00  0.00     0.016 A 
ATOM      9  C   UNL A   1      43.131  26.872  27.137  1.00  0.00     0.010 A 
ATOM     10  C   UNL A   1      41.822  25.126  28.161  1.00  0.00     0.010 A 
ATOM     11  C   UNL A   1      42.219  26.469  28.112  1.00  0.00    -0.014 A 
BRANCH  11  12
ATOM     12  C   UNL A   1      41.895  27.390  29.220  1.00  0.00     0.031 A 
ATOM     13  C   UNL A   1      40.685  28.256  29.043  1.00  0.00     0.074 A 
ATOM     14  C   UNL A   1      42.582  27.394  30.378  1.00  0.00     0.049 A 
ATOM     15  N   UNL A   1      40.089  29.022  29.916  1.00  0.00    -0.248 NA
ATOM     16  C   UNL A   1      40.030  28.216  27.724  1.00  0.00     0.031 C 
ATOM     17  C   UNL A   1      43.706  26.520  30.704  1.00  0.00     0.029 A 
ATOM     18  N   UNL A   1      42.432  28.165  31.503  1.00  0.00    -0.354 N 
ATOM     19  C   UNL A   1      38.958  29.494  29.267  1.00  0.00     0.074 A 
ATOM     20  C   UNL A   1      39.008  29.030  27.903  1.00  0.00     0.031 C 
ATOM     21  C   UNL A   1      44.189  26.845  31.917  1.00  0.00     0.029 A 
ATOM     22  C   UNL A   1      43.382  27.927  32.469  1.00  0.00     0.049 A 
ATOM     23  H   UNL A   1      41.710  28.825  31.611  1.00  0.00     0.167 HD
ATOM     24  C   UNL A   1      37.930  30.202  29.783  1.00  0.00     0.031 A 
ATOM     25  C   UNL A   1      43.561  28.508  33.670  1.00  0.00     0.031 A 
ATOM     26  C   UNL A   1      37.914  30.706  31.122  1.00  0.00     0.049 A 
ATOM     27  C   UNL A   1      42.513  29.473  34.153  1.00  0.00     0.074 A 
ATOM     28  C   UNL A   1      36.943  31.455  31.754  1.00  0.00     0.029 A 
ATOM     29  N   UNL A   1      38.951  30.530  32.030  1.00  0.00    -0.354 N 
ATOM     30  N   UNL A   1      41.403  29.848  33.559  1.00  0.00    -0.248 NA
ATOM     31  C   UNL A   1      42.702  30.042  35.494  1.00  0.00     0.031 C 
ATOM     32  C   UNL A   1      37.422  31.791  33.025  1.00  0.00     0.029 A 
ATOM     33  C   UNL A   1      38.662  31.193  33.207  1.00  0.00     0.049 A 
ATOM     34  H   UNL A   1      39.769  30.009  31.860  1.00  0.00     0.167 HD
ATOM     35  C   UNL A   1      40.729  30.638  34.479  1.00  0.00     0.074 A 
ATOM     36  C   UNL A   1      41.564  30.701  35.663  1.00  0.00     0.031 C 
ATOM     37  C   UNL A   1      39.516  31.234  34.367  1.00  0.00     0.031 A 
BRANCH  24  38
ATOM     38  C   UNL A   1      36.786  30.470  28.851  1.00  0.00    -0.014 A 
ATOM     39  C   UNL A   1      36.463  31.784  28.463  1.00  0.00     0.009 A 
ATOM     40  C   UNL A   1      35.961  29.416  28.439  1.00  0.00     0.009 A 
ATOM     41  C   UNL A   1      35.303  32.040  27.731  1.00  0.00     0.001 A 
ATOM     42  C   UNL A   1      34.819  29.672  27.680  1.00  0.00     0.001 A 
ATOM     43  C   UNL A   1      34.482  30.983  27.341  1.00  0.00     0.000 A 
ENDBRANCH  24  38
BRANCH  25  44
ATOM     44  C   UNL A   1      44.734  28.161  34.517  1.00  0.00    -0.014 A 
ATOM     45  C   UNL A   1      45.913  28.921  34.472  1.00  0.00     0.009 A 
ATOM     46  C   UNL A   1      44.693  27.033  35.354  1.00  0.00     0.009 A 
ATOM     47  C   UNL A   1      47.034  28.543  35.219  1.00  0.00     0.001 A 
ATOM     48  C   UNL A   1      45.807  26.668  36.115  1.00  0.00     0.001 A 
ATOM     49  C   UNL A   1      46.980  27.417  36.039  1.00  0.00     0.000 A 
ENDBRANCH  25  44
BRANCH  37  50
ATOM     50  C   UNL A   1      38.996  31.955  35.577  1.00  0.00    -0.014 A 
ATOM     51  C   UNL A   1      39.198  33.331  35.756  1.00  0.00     0.009 A 
ATOM     52  C   UNL A   1      38.243  31.245  36.526  1.00  0.00     0.009 A 
ATOM     53  C   UNL A   1      38.684  33.975  36.881  1.00  0.00     0.001 A 
ATOM     54  C   UNL A   1      37.701  31.898  37.631  1.00  0.00     0.001 A 
ATOM     55  C   UNL A   1      37.930  33.260  37.813  1.00  0.00     0.000 A 
ENDBRANCH  37  50
ENDBRANCH  11  12
ENDBRANCH   4   6
ENDBRANCH   3   4
ENDBRANCH   2   3
ENDBRANCH   1   2
BRANCH   1  56
ATOM     56  O   UNL A   1      41.128  20.808  26.731  1.00  0.00    -0.458 OA
BRANCH  56  57
ATOM     57  C   UNL A   1      40.024  20.439  26.039  1.00  0.00     0.338 C 
ATOM     58  O   UNL A   1      39.772  19.309  25.659  1.00  0.00    -0.246 OA
BRANCH  57  59
ATOM     59  C   UNL A   1      39.060  21.537  25.868  1.00  0.00     0.060 A 
ATOM     60  C   UNL A   1      39.314  22.737  26.546  1.00  0.00     0.016 A 
ATOM     61  C   UNL A   1      37.856  21.359  25.199  1.00  0.00     0.023 A 
ATOM     62  C   UNL A   1      38.449  23.820  26.431  1.00  0.00     0.001 A 
ATOM     63  C   UNL A   1      36.931  22.415  25.182  1.00  0.00    -0.010 A 
ATOM     64  C   UNL A   1      37.267  23.667  25.725  1.00  0.00     0.007 A 
BRANCH  63  65
ATOM     65  C   UNL A   1      35.490  22.157  24.846  1.00  0.00     0.265 C 
BRANCH  65  66
ATOM     66  O   UNL A   1      35.035  21.228  25.847  1.00  0.00    -0.488 OA
BRANCH  66  67
ATOM     67  C   UNL A   1      34.251  20.228  25.326  1.00  0.00     0.127 A 
ATOM     68  C   UNL A   1      34.935  19.169  24.714  1.00  0.00     0.047 A 
ATOM     69  C   UNL A   1      32.843  20.316  25.279  1.00  0.00     0.017 A 
ATOM     70  C   UNL A   1      34.229  18.175  24.044  1.00  0.00     0.004 A 
ATOM     71  C   UNL A   1      32.170  19.333  24.538  1.00  0.00     0.012 A 
ATOM     72  C   UNL A   1      32.847  18.265  23.948  1.00  0.00     0.001 A 
BRANCH  69  73
ATOM     73  C   UNL A   1      32.049  21.420  25.876  1.00  0.00     0.028 C 
ATOM     74  C   UNL A   1      31.717  22.595  25.304  1.00  0.00     0.071 C 
ATOM     75  C   UNL A   1      31.955  23.083  23.907  1.00  0.00     0.197 C 
ATOM     76  C   UNL A   1      30.969  23.674  26.031  1.00  0.00     0.197 C 
ATOM     77  O   UNL A   1      32.413  22.495  22.953  1.00  0.00    -0.288 OA
ATOM     78  C   UNL A   1      31.433  24.453  23.863  1.00  0.00     0.034 A 
ATOM     79  C   UNL A   1      30.824  24.783  25.070  1.00  0.00     0.034 A 
ATOM     80  O   UNL A   1      30.568  23.666  27.174  1.00  0.00    -0.288 OA
ATOM     81  C   UNL A   1      31.406  25.305  22.771  1.00  0.00     0.013 A 
ATOM     82  C   UNL A   1      30.130  25.973  25.218  1.00  0.00     0.013 A 
ATOM     83  C   UNL A   1      30.729  26.518  22.911  1.00  0.00     0.001 A 
ATOM     84  C   UNL A   1      30.086  26.844  24.121  1.00  0.00     0.001 A 
ENDBRANCH  69  73
ENDBRANCH  66  67
ENDBRANCH  65  66
ENDBRANCH  63  65
ENDBRANCH  57  59
ENDBRANCH  56  57
ENDBRANCH   1  56
TORSDOF 15
ENDMDL
MODEL 3
REMARK VINA RESULT:     -12.5      4.096      6.469
REMARK SMILES O=C(OCCOC(=O)c1cccc(COc2ccccc2C=C2C(=O)c3ccccc3C2=O)c1)c1ccc(-c2c3nc(c(-c4ccccc4)c4ccc([nH]4)c(-c4ccccc4)c4nc(c(-c5ccccc5)c5ccc2[nH]5)C=C4)C=C3)cc1
REMARK SMILES IDX 5 1 4 2 3 3 2 4 1 5 35 6 36 7 82 8 37 9 81 10 38 11 39 12
REMARK SMILES IDX 40 13 75 14 41 15 80 16 74 17 76 18 42 19 79 20 73 21 72 22
REMARK SMILES IDX 43 24 65 25 50 26 64 27 51 28 54 29 63 30 77 31 52 32 53 33
REMARK SMILES IDX 62 35 78 36 55 37 44 38 45 39 49 40 46 41 48 42 47 43 66 44
REMARK SMILES IDX 67 45 71 46 68 47 70 48 69 49 56 50 57 51 61 52 58 53 60 54
REMARK SMILES IDX 59 55 6 56 7 57 8 58 9 59 10 60 34 61 11 62 13 63 12 64
REMARK SMILES IDX 14 65 15 66 16 67 17 68 21 69 18 70 20 71 19 72 22 73 23 74
REMARK SMILES IDX 24 75 32 76 25 77 26 78 31 79 33 80 27 81 30 82 28 83 29 84
REMARK H PARENT 76 23 54 34
REMARK Flexibility Score: inf
ROOT
ATOM      1  C   UNL A   1      33.819  34.997  28.520  1.00  0.00     0.275 C 
ENDROOT
BRANCH   1   2
ATOM      2  C   UNL A   1      32.959  35.984  29.328  1.00  0.00     0.275 C 
BRANCH   2   3
ATOM      3  O   UNL A   1      32.378  35.499  30.555  1.00  0.00    -0.458 OA
BRANCH   3   4
ATOM      4  C   UNL A   1      32.813  35.652  31.829  1.00  0.00     0.338 C 
ATOM      5  O   UNL A   1      32.374  36.565  32.525  1.00  0.00    -0.246 OA
BRANCH   4   6
ATOM      6  C   UNL A   1      33.964  34.865  32.352  1.00  0.00     0.060 A 
ATOM      7  C   UNL A   1      33.862  33.724  33.147  1.00  0.00     0.016 A 
ATOM      8  C   UNL A   1      35.244  35.303  31.978  1.00  0.00     0.016 A 
ATOM      9  C   UNL A   1      34.983  32.944  33.429  1.00  0.00     0.010 A 
ATOM     10  C   UNL A   1      36.370  34.520  32.245  1.00  0.00     0.010 A 
ATOM     11  C   UNL A   1      36.242  33.325  32.965  1.00  0.00    -0.014 A 
BRANCH  11  12
ATOM     12  C   UNL A   1      37.438  32.611  33.456  1.00  0.00     0.031 A 
ATOM     13  C   UNL A   1      37.960  31.502  32.595  1.00  0.00     0.074 A 
ATOM     14  C   UNL A   1      38.096  32.989  34.568  1.00  0.00     0.049 A 
ATOM     15  N   UNL A   1      39.075  30.832  32.706  1.00  0.00    -0.248 NA
ATOM     16  C   UNL A   1      37.143  31.131  31.427  1.00  0.00     0.031 C 
ATOM     17  C   UNL A   1      37.746  34.121  35.422  1.00  0.00     0.029 A 
ATOM     18  N   UNL A   1      39.208  32.458  35.171  1.00  0.00    -0.354 N 
ATOM     19  C   UNL A   1      39.117  30.016  31.586  1.00  0.00     0.074 A 
ATOM     20  C   UNL A   1      37.875  30.183  30.873  1.00  0.00     0.031 C 
ATOM     21  C   UNL A   1      38.581  34.163  36.476  1.00  0.00     0.029 A 
ATOM     22  C   UNL A   1      39.549  33.081  36.350  1.00  0.00     0.049 A 
ATOM     23  H   UNL A   1      39.716  31.703  34.795  1.00  0.00     0.167 HD
ATOM     24  C   UNL A   1      40.134  29.240  31.152  1.00  0.00     0.031 A 
ATOM     25  C   UNL A   1      40.547  32.813  37.213  1.00  0.00     0.031 A 
ATOM     26  C   UNL A   1      41.341  29.036  31.893  1.00  0.00     0.049 A 
ATOM     27  C   UNL A   1      41.567  31.780  36.819  1.00  0.00     0.074 A 
ATOM     28  C   UNL A   1      42.432  28.256  31.572  1.00  0.00     0.029 A 
ATOM     29  N   UNL A   1      41.594  29.605  33.135  1.00  0.00    -0.354 N 
ATOM     30  N   UNL A   1      41.638  31.073  35.716  1.00  0.00    -0.248 NA
ATOM     31  C   UNL A   1      42.679  31.556  37.753  1.00  0.00     0.031 C 
ATOM     32  C   UNL A   1      43.321  28.299  32.652  1.00  0.00     0.029 A 
ATOM     33  C   UNL A   1      42.810  29.159  33.615  1.00  0.00     0.049 A 
ATOM     34  H   UNL A   1      40.997  30.232  33.602  1.00  0.00     0.167 HD
ATOM     35  C   UNL A   1      42.834  30.374  35.788  1.00  0.00     0.074 A 
ATOM     36  C   UNL A   1      43.447  30.731  37.054  1.00  0.00     0.031 C 
ATOM     37  C   UNL A   1      43.392  29.536  34.879  1.00  0.00     0.031 A 
BRANCH  24  38
ATOM     38  C   UNL A   1      39.921  28.557  29.834  1.00  0.00    -0.014 A 
ATOM     39  C   UNL A   1      39.470  27.225  29.775  1.00  0.00     0.009 A 
ATOM     40  C   UNL A   1      40.269  29.211  28.646  1.00  0.00     0.009 A 
ATOM     41  C   UNL A   1      39.430  26.545  28.557  1.00  0.00     0.001 A 
ATOM     42  C   UNL A   1      40.199  28.538  27.425  1.00  0.00     0.001 A 
ATOM     43  C   UNL A   1      39.796  27.202  27.384  1.00  0.00     0.000 A 
ENDBRANCH  24  38
BRANCH  25  44
ATOM     44  C   UNL A   1      40.666  33.560  38.496  1.00  0.00    -0.014 A 
ATOM     45  C   UNL A   1      41.438  34.728  38.587  1.00  0.00     0.009 A 
ATOM     46  C   UNL A   1      40.034  33.079  39.654  1.00  0.00     0.009 A 
ATOM     47  C   UNL A   1      41.600  35.380  39.815  1.00  0.00     0.001 A 
ATOM     48  C   UNL A   1      40.181  33.743  40.876  1.00  0.00     0.001 A 
ATOM     49  C   UNL A   1      40.972  34.886  40.957  1.00  0.00     0.000 A 
ENDBRANCH  25  44
BRANCH  37  50
ATOM     50  C   UNL A   1      44.756  28.995  35.197  1.00  0.00    -0.014 A 
ATOM     51  C   UNL A   1      45.922  29.689  34.843  1.00  0.00     0.009 A 
ATOM     52  C   UNL A   1      44.865  27.792  35.913  1.00  0.00     0.009 A 
ATOM     53  C   UNL A   1      47.174  29.169  35.171  1.00  0.00     0.001 A 
ATOM     54  C   UNL A   1      46.116  27.294  36.270  1.00  0.00     0.001 A 
ATOM     55  C   UNL A   1      47.270  27.977  35.891  1.00  0.00     0.000 A 
ENDBRANCH  37  50
ENDBRANCH  11  12
ENDBRANCH   4   6
ENDBRANCH   3   4
ENDBRANCH   2   3
ENDBRANCH   1   2
BRANCH   1  56
ATOM     56  O   UNL A   1      34.074  33.725  29.138  1.00  0.00    -0.458 OA
BRANCH  56  57
ATOM     57  C   UNL A   1      35.158  33.095  28.623  1.00  0.00     0.338 C 
ATOM     58  O   UNL A   1      36.295  33.532  28.622  1.00  0.00    -0.246 OA
BRANCH  57  59
ATOM     59  C   UNL A   1      34.857  31.739  28.139  1.00  0.00     0.060 A 
ATOM     60  C   UNL A   1      35.938  30.891  27.866  1.00  0.00     0.016 A 
ATOM     61  C   UNL A   1      33.567  31.349  27.801  1.00  0.00     0.023 A 
ATOM     62  C   UNL A   1      35.732  29.594  27.408  1.00  0.00     0.001 A 
ATOM     63  C   UNL A   1      33.373  30.083  27.230  1.00  0.00    -0.010 A 
ATOM     64  C   UNL A   1      34.443  29.180  27.113  1.00  0.00     0.007 A 
BRANCH  63  65
ATOM     65  C   UNL A   1      32.107  29.772  26.483  1.00  0.00     0.265 C 
BRANCH  65  66
ATOM     66  O   UNL A   1      32.396  28.573  25.742  1.00  0.00    -0.488 OA
BRANCH  66  67
ATOM     67  C   UNL A   1      31.409  28.254  24.842  1.00  0.00     0.127 A 
ATOM     68  C   UNL A   1      31.017  29.280  23.972  1.00  0.00     0.047 A 
ATOM     69  C   UNL A   1      30.727  27.017  24.872  1.00  0.00     0.017 A 
ATOM     70  C   UNL A   1      29.938  29.096  23.114  1.00  0.00     0.004 A 
ATOM     71  C   UNL A   1      29.603  26.893  24.041  1.00  0.00     0.012 A 
ATOM     72  C   UNL A   1      29.226  27.905  23.157  1.00  0.00     0.001 A 
BRANCH  69  73
ATOM     73  C   UNL A   1      31.061  25.894  25.783  1.00  0.00     0.028 C 
ATOM     74  C   UNL A   1      32.123  25.066  25.710  1.00  0.00     0.071 C 
ATOM     75  C   UNL A   1      33.298  25.092  24.781  1.00  0.00     0.197 C 
ATOM     76  C   UNL A   1      32.323  23.912  26.649  1.00  0.00     0.197 C 
ATOM     77  O   UNL A   1      33.605  25.917  23.949  1.00  0.00    -0.288 OA
ATOM     78  C   UNL A   1      34.110  23.919  25.122  1.00  0.00     0.034 A 
ATOM     79  C   UNL A   1      33.578  23.261  26.226  1.00  0.00     0.034 A 
ATOM     80  O   UNL A   1      31.611  23.559  27.563  1.00  0.00    -0.288 OA
ATOM     81  C   UNL A   1      35.311  23.535  24.548  1.00  0.00     0.013 A 
ATOM     82  C   UNL A   1      34.251  22.208  26.823  1.00  0.00     0.013 A 
ATOM     83  C   UNL A   1      35.992  22.462  25.125  1.00  0.00     0.001 A 
ATOM     84  C   UNL A   1      35.471  21.810  26.261  1.00  0.00     0.001 A 
ENDBRANCH  69  73
ENDBRANCH  66  67
ENDBRANCH  65  66
ENDBRANCH  63  65
ENDBRANCH  57  59
ENDBRANCH  56  57
ENDBRANCH   1  56
TORSDOF 15
ENDMDL
