MODEL 1
REMARK VINA RESULT:      -9.2      0.000      0.000
REMARK SMILES C[C@H]1[C@H](C(=O)OCCOC(=O)c2ccc(-c3c4nc(c(-c5ccccc5)c5ccc([nH]5)c(-c5ccccc5)c5nc(c(-c6ccccc6)c6ccc3[nH]6)C=C5)C=C4)cc2)CCN1C(=O)c1ccc2ccccc2c1
REMARK SMILES IDX 7 1 6 2 4 3 5 4 3 5 1 6 2 7 62 8 60 9 61 10 63 11 64 12
REMARK SMILES IDX 65 13 66 14 74 15 67 16 73 17 68 18 72 19 69 20 71 21 70 22
REMARK SMILES IDX 8 23 9 24 10 25 11 26 12 27 13 28 59 29 14 30 58 31 15 32
REMARK SMILES IDX 16 33 17 34 52 35 18 36 57 37 51 38 53 39 19 40 56 41 50 42
REMARK SMILES IDX 49 43 20 45 42 46 27 47 41 48 28 49 31 50 40 51 54 52 29 53
REMARK SMILES IDX 30 54 39 56 55 57 32 58 21 59 22 60 26 61 23 62 25 63 24 64
REMARK SMILES IDX 43 65 44 66 48 67 45 68 47 69 46 70 33 71 34 72 38 73 35 74
REMARK SMILES IDX 37 75 36 76
REMARK H PARENT 53 44 31 55
REMARK Flexibility Score: inf
ROOT
ATOM      1  C   UNL A   1      43.868  18.391  26.096  1.00  0.00     0.274 C 
ENDROOT
BRANCH   1   2
ATOM      2  O   UNL A   1      44.801  18.473  25.000  1.00  0.00    -0.462 OA
BRANCH   2   3
ATOM      3  C   UNL A   1      45.678  19.506  25.038  1.00  0.00     0.311 C 
ATOM      4  O   UNL A   1      46.898  19.384  25.072  1.00  0.00    -0.252 OA
BRANCH   3   5
ATOM      5  C   UNL A   1      45.016  20.864  25.100  1.00  0.00     0.123 C 
ATOM      6  C   UNL A   1      45.267  22.359  27.116  1.00  0.00     0.032 C 
ATOM      7  C   UNL A   1      45.837  22.008  25.737  1.00  0.00     0.096 C 
ATOM      8  N   UNL A   1      45.694  23.121  24.786  1.00  0.00    -0.335 N 
ATOM      9  C   UNL A   1      44.675  21.326  23.685  1.00  0.00     0.039 C 
ATOM     10  C   UNL A   1      44.683  22.832  23.790  1.00  0.00     0.121 C 
BRANCH   8  11
ATOM     11  C   UNL A   1      46.383  24.317  24.725  1.00  0.00     0.254 C 
ATOM     12  O   UNL A   1      47.524  24.418  24.282  1.00  0.00    -0.269 OA
BRANCH  11  13
ATOM     13  C   UNL A   1      45.701  25.562  25.113  1.00  0.00     0.040 A 
ATOM     14  C   UNL A   1      46.459  26.514  25.798  1.00  0.00     0.014 A 
ATOM     15  C   UNL A   1      44.329  25.736  24.928  1.00  0.00     0.022 A 
ATOM     16  C   UNL A   1      45.849  27.669  26.278  1.00  0.00     0.009 A 
ATOM     17  C   UNL A   1      43.698  26.890  25.433  1.00  0.00    -0.018 A 
ATOM     18  C   UNL A   1      44.470  27.865  26.112  1.00  0.00    -0.018 A 
ATOM     19  C   UNL A   1      42.314  27.092  25.303  1.00  0.00     0.009 A 
ATOM     20  C   UNL A   1      43.843  29.008  26.631  1.00  0.00     0.009 A 
ATOM     21  C   UNL A   1      41.703  28.230  25.836  1.00  0.00     0.001 A 
ATOM     22  C   UNL A   1      42.467  29.188  26.498  1.00  0.00     0.001 A 
ENDBRANCH  11  13
ENDBRANCH   8  11
ENDBRANCH   3   5
ENDBRANCH   2   3
ENDBRANCH   1   2
BRANCH   1  23
ATOM     23  C   UNL A   1      42.442  18.734  25.655  1.00  0.00     0.275 C 
BRANCH  23  24
ATOM     24  O   UNL A   1      41.671  19.314  26.723  1.00  0.00    -0.458 OA
BRANCH  24  25
ATOM     25  C   UNL A   1      40.875  20.345  26.358  1.00  0.00     0.338 C 
ATOM     26  O   UNL A   1      39.825  20.287  25.742  1.00  0.00    -0.246 OA
BRANCH  25  27
ATOM     27  C   UNL A   1      41.399  21.596  26.920  1.00  0.00     0.060 A 
ATOM     28  C   UNL A   1      41.655  21.661  28.292  1.00  0.00     0.016 A 
ATOM     29  C   UNL A   1      41.538  22.726  26.117  1.00  0.00     0.016 A 
ATOM     30  C   UNL A   1      42.037  22.862  28.879  1.00  0.00     0.010 A 
ATOM     31  C   UNL A   1      41.937  23.929  26.703  1.00  0.00     0.010 A 
ATOM     32  C   UNL A   1      42.176  24.006  28.087  1.00  0.00    -0.014 A 
BRANCH  32  33
ATOM     33  C   UNL A   1      42.537  25.304  28.698  1.00  0.00     0.031 A 
ATOM     34  C   UNL A   1      41.478  26.347  28.896  1.00  0.00     0.074 A 
ATOM     35  C   UNL A   1      43.813  25.555  29.040  1.00  0.00     0.049 A 
ATOM     36  N   UNL A   1      41.610  27.609  29.211  1.00  0.00    -0.248 NA
ATOM     37  C   UNL A   1      40.084  25.912  28.707  1.00  0.00     0.031 C 
ATOM     38  C   UNL A   1      44.916  24.597  28.963  1.00  0.00     0.029 A 
ATOM     39  N   UNL A   1      44.398  26.706  29.501  1.00  0.00    -0.354 N 
ATOM     40  C   UNL A   1      40.323  28.129  29.222  1.00  0.00     0.074 A 
ATOM     41  C   UNL A   1      39.423  27.048  28.882  1.00  0.00     0.031 C 
ATOM     42  C   UNL A   1      46.050  25.205  29.347  1.00  0.00     0.029 A 
ATOM     43  C   UNL A   1      45.762  26.607  29.633  1.00  0.00     0.049 A 
ATOM     44  H   UNL A   1      43.892  27.523  29.715  1.00  0.00     0.167 HD
ATOM     45  C   UNL A   1      39.932  29.399  29.481  1.00  0.00     0.031 A 
ATOM     46  C   UNL A   1      46.681  27.553  29.903  1.00  0.00     0.031 A 
ATOM     47  C   UNL A   1      40.835  30.466  29.820  1.00  0.00     0.049 A 
ATOM     48  C   UNL A   1      46.233  28.973  30.106  1.00  0.00     0.074 A 
ATOM     49  C   UNL A   1      40.541  31.789  30.102  1.00  0.00     0.029 A 
ATOM     50  N   UNL A   1      42.210  30.327  29.925  1.00  0.00    -0.354 N 
ATOM     51  N   UNL A   1      45.017  29.465  30.085  1.00  0.00    -0.248 NA
ATOM     52  C   UNL A   1      47.282  29.970  30.360  1.00  0.00     0.031 C 
ATOM     53  C   UNL A   1      41.745  32.460  30.335  1.00  0.00     0.029 A 
ATOM     54  C   UNL A   1      42.782  31.545  30.249  1.00  0.00     0.049 A 
ATOM     55  H   UNL A   1      42.706  29.488  29.789  1.00  0.00     0.167 HD
ATOM     56  C   UNL A   1      45.153  30.821  30.350  1.00  0.00     0.074 A 
ATOM     57  C   UNL A   1      46.568  31.074  30.532  1.00  0.00     0.031 C 
ATOM     58  C   UNL A   1      44.191  31.771  30.439  1.00  0.00     0.031 A 
BRANCH  45  59
ATOM     59  C   UNL A   1      38.468  29.713  29.359  1.00  0.00    -0.014 A 
ATOM     60  C   UNL A   1      37.651  29.852  30.490  1.00  0.00     0.009 A 
ATOM     61  C   UNL A   1      37.908  29.902  28.085  1.00  0.00     0.009 A 
ATOM     62  C   UNL A   1      36.293  30.146  30.347  1.00  0.00     0.001 A 
ATOM     63  C   UNL A   1      36.556  30.220  27.946  1.00  0.00     0.001 A 
ATOM     64  C   UNL A   1      35.748  30.334  29.076  1.00  0.00     0.000 A 
ENDBRANCH  45  59
BRANCH  46  65
ATOM     65  C   UNL A   1      48.122  27.194  29.945  1.00  0.00    -0.014 A 
ATOM     66  C   UNL A   1      48.745  26.885  31.163  1.00  0.00     0.009 A 
ATOM     67  C   UNL A   1      48.879  27.152  28.763  1.00  0.00     0.009 A 
ATOM     68  C   UNL A   1      50.102  26.558  31.198  1.00  0.00     0.001 A 
ATOM     69  C   UNL A   1      50.229  26.798  28.799  1.00  0.00     0.001 A 
ATOM     70  C   UNL A   1      50.841  26.510  30.016  1.00  0.00     0.000 A 
ENDBRANCH  46  65
BRANCH  58  71
ATOM     71  C   UNL A   1      44.626  33.161  30.800  1.00  0.00    -0.014 A 
ATOM     72  C   UNL A   1      44.757  33.557  32.138  1.00  0.00     0.009 A 
ATOM     73  C   UNL A   1      44.975  34.061  29.781  1.00  0.00     0.009 A 
ATOM     74  C   UNL A   1      45.216  34.840  32.448  1.00  0.00     0.001 A 
ATOM     75  C   UNL A   1      45.454  35.333  30.094  1.00  0.00     0.001 A 
ATOM     76  C   UNL A   1      45.569  35.723  31.427  1.00  0.00     0.000 A 
ENDBRANCH  58  71
ENDBRANCH  32  33
ENDBRANCH  25  27
ENDBRANCH  24  25
ENDBRANCH  23  24
ENDBRANCH   1  23
TORSDOF 13
ENDMDL
MODEL 2
REMARK VINA RESULT:      -9.2      3.865      7.191
REMARK SMILES C[C@H]1[C@H](C(=O)OCCOC(=O)c2ccc(-c3c4nc(c(-c5ccccc5)c5ccc([nH]5)c(-c5ccccc5)c5nc(c(-c6ccccc6)c6ccc3[nH]6)C=C5)C=C4)cc2)CCN1C(=O)c1ccc2ccccc2c1
REMARK SMILES IDX 7 1 6 2 4 3 5 4 3 5 1 6 2 7 62 8 60 9 61 10 63 11 64 12
REMARK SMILES IDX 65 13 66 14 74 15 67 16 73 17 68 18 72 19 69 20 71 21 70 22
REMARK SMILES IDX 8 23 9 24 10 25 11 26 12 27 13 28 59 29 14 30 58 31 15 32
REMARK SMILES IDX 16 33 17 34 52 35 18 36 57 37 51 38 53 39 19 40 56 41 50 42
REMARK SMILES IDX 49 43 20 45 42 46 27 47 41 48 28 49 31 50 40 51 54 52 29 53
REMARK SMILES IDX 30 54 39 56 55 57 32 58 21 59 22 60 26 61 23 62 25 63 24 64
REMARK SMILES IDX 43 65 44 66 48 67 45 68 47 69 46 70 33 71 34 72 38 73 35 74
REMARK SMILES IDX 37 75 36 76
REMARK H PARENT 53 44 31 55
REMARK Flexibility Score: inf
ROOT
ATOM      1  C   UNL A   1      34.924  20.410  25.070  1.00  0.00     0.274 C 
ENDROOT
BRANCH   1   2
ATOM      2  O   UNL A   1      33.850  21.146  24.451  1.00  0.00    -0.462 OA
BRANCH   2   3
ATOM      3  C   UNL A   1      32.774  21.405  25.233  1.00  0.00     0.311 C 
ATOM      4  O   UNL A   1      31.791  20.677  25.330  1.00  0.00    -0.252 OA
BRANCH   3   5
ATOM      5  C   UNL A   1      32.850  22.732  25.953  1.00  0.00     0.123 C 
ATOM      6  C   UNL A   1      34.823  24.277  25.659  1.00  0.00     0.032 C 
ATOM      7  C   UNL A   1      33.420  23.924  25.151  1.00  0.00     0.096 C 
ATOM      8  N   UNL A   1      32.460  25.011  25.398  1.00  0.00    -0.335 N 
ATOM      9  C   UNL A   1      31.449  23.151  26.393  1.00  0.00     0.039 C 
ATOM     10  C   UNL A   1      31.528  24.657  26.449  1.00  0.00     0.121 C 
BRANCH   8  11
ATOM     11  C   UNL A   1      32.339  26.235  24.770  1.00  0.00     0.254 C 
ATOM     12  O   UNL A   1      31.952  26.365  23.611  1.00  0.00    -0.269 OA
BRANCH  11  13
ATOM     13  C   UNL A   1      32.589  27.466  25.536  1.00  0.00     0.040 A 
ATOM     14  C   UNL A   1      31.573  28.425  25.547  1.00  0.00     0.014 A 
ATOM     15  C   UNL A   1      33.830  27.731  26.116  1.00  0.00     0.022 A 
ATOM     16  C   UNL A   1      31.786  29.650  26.171  1.00  0.00     0.009 A 
ATOM     17  C   UNL A   1      34.063  28.978  26.727  1.00  0.00    -0.018 A 
ATOM     18  C   UNL A   1      33.026  29.944  26.756  1.00  0.00    -0.018 A 
ATOM     19  C   UNL A   1      35.308  29.303  27.292  1.00  0.00     0.009 A 
ATOM     20  C   UNL A   1      33.259  31.194  27.349  1.00  0.00     0.009 A 
ATOM     21  C   UNL A   1      35.526  30.558  27.869  1.00  0.00     0.001 A 
ATOM     22  C   UNL A   1      34.502  31.501  27.899  1.00  0.00     0.001 A 
ENDBRANCH  11  13
ENDBRANCH   8  11
ENDBRANCH   3   5
ENDBRANCH   2   3
ENDBRANCH   1   2
BRANCH   1  23
ATOM     23  C   UNL A   1      36.295  20.968  24.675  1.00  0.00     0.275 C 
BRANCH  23  24
ATOM     24  O   UNL A   1      36.986  21.547  25.796  1.00  0.00    -0.458 OA
BRANCH  24  25
ATOM     25  C   UNL A   1      38.313  21.292  25.843  1.00  0.00     0.338 C 
ATOM     26  O   UNL A   1      38.894  20.311  25.413  1.00  0.00    -0.246 OA
BRANCH  25  27
ATOM     27  C   UNL A   1      39.019  22.452  26.402  1.00  0.00     0.060 A 
ATOM     28  C   UNL A   1      38.566  23.734  26.079  1.00  0.00     0.016 A 
ATOM     29  C   UNL A   1      40.179  22.277  27.154  1.00  0.00     0.016 A 
ATOM     30  C   UNL A   1      39.279  24.855  26.491  1.00  0.00     0.010 A 
ATOM     31  C   UNL A   1      40.887  23.402  27.581  1.00  0.00     0.010 A 
ATOM     32  C   UNL A   1      40.447  24.695  27.242  1.00  0.00    -0.014 A 
BRANCH  32  33
ATOM     33  C   UNL A   1      41.245  25.872  27.651  1.00  0.00     0.031 A 
ATOM     34  C   UNL A   1      40.634  26.900  28.556  1.00  0.00     0.074 A 
ATOM     35  C   UNL A   1      42.496  26.030  27.185  1.00  0.00     0.049 A 
ATOM     36  N   UNL A   1      41.071  28.093  28.863  1.00  0.00    -0.248 NA
ATOM     37  C   UNL A   1      39.358  26.538  29.193  1.00  0.00     0.031 C 
ATOM     38  C   UNL A   1      43.223  25.066  26.360  1.00  0.00     0.029 A 
ATOM     39  N   UNL A   1      43.369  27.079  27.326  1.00  0.00    -0.354 N 
ATOM     40  C   UNL A   1      40.108  28.641  29.700  1.00  0.00     0.074 A 
ATOM     41  C   UNL A   1      39.063  27.651  29.852  1.00  0.00     0.031 C 
ATOM     42  C   UNL A   1      44.427  25.575  26.052  1.00  0.00     0.029 A 
ATOM     43  C   UNL A   1      44.527  26.922  26.604  1.00  0.00     0.049 A 
ATOM     44  H   UNL A   1      43.185  27.866  27.887  1.00  0.00     0.167 HD
ATOM     45  C   UNL A   1      40.095  29.865  30.277  1.00  0.00     0.031 A 
ATOM     46  C   UNL A   1      45.530  27.788  26.369  1.00  0.00     0.031 A 
ATOM     47  C   UNL A   1      41.140  30.840  30.121  1.00  0.00     0.049 A 
ATOM     48  C   UNL A   1      45.455  29.171  26.953  1.00  0.00     0.074 A 
ATOM     49  C   UNL A   1      41.224  32.110  30.665  1.00  0.00     0.029 A 
ATOM     50  N   UNL A   1      42.286  30.649  29.366  1.00  0.00    -0.354 N 
ATOM     51  N   UNL A   1      44.527  29.694  27.718  1.00  0.00    -0.248 NA
ATOM     52  C   UNL A   1      46.560  30.086  26.634  1.00  0.00     0.031 C 
ATOM     53  C   UNL A   1      42.402  32.704  30.201  1.00  0.00     0.029 A 
ATOM     54  C   UNL A   1      43.075  31.785  29.413  1.00  0.00     0.049 A 
ATOM     55  H   UNL A   1      42.507  29.828  28.870  1.00  0.00     0.167 HD
ATOM     56  C   UNL A   1      44.949  30.988  27.994  1.00  0.00     0.074 A 
ATOM     57  C   UNL A   1      46.217  31.169  27.318  1.00  0.00     0.031 C 
ATOM     58  C   UNL A   1      44.341  31.938  28.744  1.00  0.00     0.031 A 
BRANCH  45  59
ATOM     59  C   UNL A   1      38.887  30.235  31.091  1.00  0.00    -0.014 A 
ATOM     60  C   UNL A   1      38.811  29.947  32.462  1.00  0.00     0.009 A 
ATOM     61  C   UNL A   1      37.822  30.911  30.476  1.00  0.00     0.009 A 
ATOM     62  C   UNL A   1      37.677  30.305  33.195  1.00  0.00     0.001 A 
ATOM     63  C   UNL A   1      36.700  31.288  31.216  1.00  0.00     0.001 A 
ATOM     64  C   UNL A   1      36.625  30.978  32.572  1.00  0.00     0.000 A 
ENDBRANCH  45  59
BRANCH  46  65
ATOM     65  C   UNL A   1      46.667  27.387  25.501  1.00  0.00    -0.014 A 
ATOM     66  C   UNL A   1      46.742  27.831  24.173  1.00  0.00     0.009 A 
ATOM     67  C   UNL A   1      47.687  26.563  26.001  1.00  0.00     0.009 A 
ATOM     68  C   UNL A   1      47.807  27.443  23.357  1.00  0.00     0.001 A 
ATOM     69  C   UNL A   1      48.766  26.199  25.192  1.00  0.00     0.001 A 
ATOM     70  C   UNL A   1      48.820  26.632  23.869  1.00  0.00     0.000 A 
ENDBRANCH  46  65
BRANCH  58  71
ATOM     71  C   UNL A   1      45.062  33.243  28.921  1.00  0.00    -0.014 A 
ATOM     72  C   UNL A   1      46.018  33.414  29.932  1.00  0.00     0.009 A 
ATOM     73  C   UNL A   1      44.828  34.288  28.015  1.00  0.00     0.009 A 
ATOM     74  C   UNL A   1      46.715  34.619  30.042  1.00  0.00     0.001 A 
ATOM     75  C   UNL A   1      45.541  35.483  28.114  1.00  0.00     0.001 A 
ATOM     76  C   UNL A   1      46.480  35.649  29.130  1.00  0.00     0.000 A 
ENDBRANCH  58  71
ENDBRANCH  32  33
ENDBRANCH  25  27
ENDBRANCH  24  25
ENDBRANCH  23  24
ENDBRANCH   1  23
TORSDOF 13
ENDMDL
MODEL 3
REMARK VINA RESULT:      -9.2      4.598      9.912
REMARK SMILES C[C@H]1[C@H](C(=O)OCCOC(=O)c2ccc(-c3c4nc(c(-c5ccccc5)c5ccc([nH]5)c(-c5ccccc5)c5nc(c(-c6ccccc6)c6ccc3[nH]6)C=C5)C=C4)cc2)CCN1C(=O)c1ccc2ccccc2c1
REMARK SMILES IDX 7 1 6 2 4 3 5 4 3 5 1 6 2 7 62 8 60 9 61 10 63 11 64 12
REMARK SMILES IDX 65 13 66 14 74 15 67 16 73 17 68 18 72 19 69 20 71 21 70 22
REMARK SMILES IDX 8 23 9 24 10 25 11 26 12 27 13 28 59 29 14 30 58 31 15 32
REMARK SMILES IDX 16 33 17 34 52 35 18 36 57 37 51 38 53 39 19 40 56 41 50 42
REMARK SMILES IDX 49 43 20 45 42 46 27 47 41 48 28 49 31 50 40 51 54 52 29 53
REMARK SMILES IDX 30 54 39 56 55 57 32 58 21 59 22 60 26 61 23 62 25 63 24 64
REMARK SMILES IDX 43 65 44 66 48 67 45 68 47 69 46 70 33 71 34 72 38 73 35 74
REMARK SMILES IDX 37 75 36 76
REMARK H PARENT 53 44 31 55
REMARK Flexibility Score: inf
ROOT
ATOM      1  C   UNL A   1      32.049  30.114  25.756  1.00  0.00     0.274 C 
ENDROOT
BRANCH   1   2
ATOM      2  O   UNL A   1      31.203  29.240  24.983  1.00  0.00    -0.462 OA
BRANCH   2   3
ATOM      3  C   UNL A   1      31.816  28.520  24.012  1.00  0.00     0.311 C 
ATOM      4  O   UNL A   1      32.583  28.989  23.177  1.00  0.00    -0.252 OA
BRANCH   3   5
ATOM      5  C   UNL A   1      31.420  27.062  23.994  1.00  0.00     0.123 C 
ATOM      6  C   UNL A   1      33.025  25.272  23.224  1.00  0.00     0.032 C 
ATOM      7  C   UNL A   1      32.497  26.045  24.439  1.00  0.00     0.096 C 
ATOM      8  N   UNL A   1      31.787  25.166  25.381  1.00  0.00    -0.335 N 
ATOM      9  C   UNL A   1      30.229  26.849  24.924  1.00  0.00     0.039 C 
ATOM     10  C   UNL A   1      30.359  25.406  25.348  1.00  0.00     0.121 C 
BRANCH   8  11
ATOM     11  C   UNL A   1      32.296  24.220  26.251  1.00  0.00     0.254 C 
ATOM     12  O   UNL A   1      31.749  23.907  27.305  1.00  0.00    -0.269 OA
BRANCH  11  13
ATOM     13  C   UNL A   1      33.500  23.465  25.870  1.00  0.00     0.040 A 
ATOM     14  C   UNL A   1      33.310  22.176  25.368  1.00  0.00     0.014 A 
ATOM     15  C   UNL A   1      34.783  23.955  26.121  1.00  0.00     0.022 A 
ATOM     16  C   UNL A   1      34.412  21.375  25.083  1.00  0.00     0.009 A 
ATOM     17  C   UNL A   1      35.903  23.142  25.859  1.00  0.00    -0.018 A 
ATOM     18  C   UNL A   1      35.712  21.840  25.332  1.00  0.00    -0.018 A 
ATOM     19  C   UNL A   1      37.211  23.578  26.129  1.00  0.00     0.009 A 
ATOM     20  C   UNL A   1      36.824  21.022  25.085  1.00  0.00     0.009 A 
ATOM     21  C   UNL A   1      38.308  22.745  25.888  1.00  0.00     0.001 A 
ATOM     22  C   UNL A   1      38.114  21.469  25.365  1.00  0.00     0.001 A 
ENDBRANCH  11  13
ENDBRANCH   8  11
ENDBRANCH   3   5
ENDBRANCH   2   3
ENDBRANCH   1   2
BRANCH   1  23
ATOM     23  C   UNL A   1      32.837  29.346  26.822  1.00  0.00     0.275 C 
BRANCH  23  24
ATOM     24  O   UNL A   1      34.242  29.654  26.780  1.00  0.00    -0.458 OA
BRANCH  24  25
ATOM     25  C   UNL A   1      34.669  30.501  27.745  1.00  0.00     0.338 C 
ATOM     26  O   UNL A   1      34.036  31.394  28.280  1.00  0.00    -0.246 OA
BRANCH  25  27
ATOM     27  C   UNL A   1      36.022  30.121  28.172  1.00  0.00     0.060 A 
ATOM     28  C   UNL A   1      37.066  30.200  27.245  1.00  0.00     0.016 A 
ATOM     29  C   UNL A   1      36.240  29.594  29.443  1.00  0.00     0.016 A 
ATOM     30  C   UNL A   1      38.334  29.736  27.575  1.00  0.00     0.010 A 
ATOM     31  C   UNL A   1      37.517  29.143  29.781  1.00  0.00     0.010 A 
ATOM     32  C   UNL A   1      38.567  29.200  28.845  1.00  0.00    -0.014 A 
BRANCH  32  33
ATOM     33  C   UNL A   1      39.897  28.659  29.202  1.00  0.00     0.031 A 
ATOM     34  C   UNL A   1      40.895  29.545  29.887  1.00  0.00     0.074 A 
ATOM     35  C   UNL A   1      40.215  27.393  28.881  1.00  0.00     0.049 A 
ATOM     36  N   UNL A   1      42.169  29.345  30.096  1.00  0.00    -0.248 NA
ATOM     37  C   UNL A   1      40.390  30.829  30.399  1.00  0.00     0.031 C 
ATOM     38  C   UNL A   1      39.308  26.416  28.280  1.00  0.00     0.029 A 
ATOM     39  N   UNL A   1      41.405  26.721  28.998  1.00  0.00    -0.354 N 
ATOM     40  C   UNL A   1      42.629  30.491  30.730  1.00  0.00     0.074 A 
ATOM     41  C   UNL A   1      41.498  31.383  30.872  1.00  0.00     0.031 C 
ATOM     42  C   UNL A   1      39.979  25.273  28.065  1.00  0.00     0.029 A 
ATOM     43  C   UNL A   1      41.373  25.461  28.453  1.00  0.00     0.049 A 
ATOM     44  H   UNL A   1      42.203  27.103  29.430  1.00  0.00     0.167 HD
ATOM     45  C   UNL A   1      43.886  30.775  31.145  1.00  0.00     0.031 A 
ATOM     46  C   UNL A   1      42.367  24.579  28.241  1.00  0.00     0.031 A 
ATOM     47  C   UNL A   1      45.003  29.880  31.001  1.00  0.00     0.049 A 
ATOM     48  C   UNL A   1      43.770  24.948  28.634  1.00  0.00     0.074 A 
ATOM     49  C   UNL A   1      46.318  30.071  31.388  1.00  0.00     0.029 A 
ATOM     50  N   UNL A   1      44.931  28.621  30.425  1.00  0.00    -0.354 N 
ATOM     51  N   UNL A   1      44.204  26.046  29.204  1.00  0.00    -0.248 NA
ATOM     52  C   UNL A   1      44.821  23.963  28.344  1.00  0.00     0.031 C 
ATOM     53  C   UNL A   1      47.051  28.943  31.006  1.00  0.00     0.029 A 
ATOM     54  C   UNL A   1      46.183  28.030  30.429  1.00  0.00     0.049 A 
ATOM     55  H   UNL A   1      44.112  28.208  30.067  1.00  0.00     0.167 HD
ATOM     56  C   UNL A   1      45.572  25.872  29.368  1.00  0.00     0.074 A 
ATOM     57  C   UNL A   1      45.895  24.562  28.840  1.00  0.00     0.031 C 
ATOM     58  C   UNL A   1      46.478  26.720  29.911  1.00  0.00     0.031 A 
BRANCH  45  59
ATOM     59  C   UNL A   1      44.128  32.129  31.747  1.00  0.00    -0.014 A 
ATOM     60  C   UNL A   1      44.039  32.343  33.131  1.00  0.00     0.009 A 
ATOM     61  C   UNL A   1      44.483  33.202  30.914  1.00  0.00     0.009 A 
ATOM     62  C   UNL A   1      44.271  33.612  33.665  1.00  0.00     0.001 A 
ATOM     63  C   UNL A   1      44.738  34.464  31.453  1.00  0.00     0.001 A 
ATOM     64  C   UNL A   1      44.625  34.670  32.826  1.00  0.00     0.000 A 
ENDBRANCH  45  59
BRANCH  46  65
ATOM     65  C   UNL A   1      42.077  23.281  27.579  1.00  0.00    -0.014 A 
ATOM     66  C   UNL A   1      42.366  23.093  26.220  1.00  0.00     0.009 A 
ATOM     67  C   UNL A   1      41.515  22.221  28.308  1.00  0.00     0.009 A 
ATOM     68  C   UNL A   1      42.082  21.874  25.599  1.00  0.00     0.001 A 
ATOM     69  C   UNL A   1      41.257  20.995  27.692  1.00  0.00     0.001 A 
ATOM     70  C   UNL A   1      41.533  20.825  26.337  1.00  0.00     0.000 A 
ENDBRANCH  46  65
BRANCH  58  71
ATOM     71  C   UNL A   1      47.897  26.240  30.013  1.00  0.00    -0.014 A 
ATOM     72  C   UNL A   1      48.792  26.384  28.943  1.00  0.00     0.009 A 
ATOM     73  C   UNL A   1      48.357  25.702  31.225  1.00  0.00     0.009 A 
ATOM     74  C   UNL A   1      50.121  25.979  29.082  1.00  0.00     0.001 A 
ATOM     75  C   UNL A   1      49.690  25.320  31.368  1.00  0.00     0.001 A 
ATOM     76  C   UNL A   1      50.570  25.453  30.295  1.00  0.00     0.000 A 
ENDBRANCH  58  71
ENDBRANCH  32  33
ENDBRANCH  25  27
ENDBRANCH  24  25
ENDBRANCH  23  24
ENDBRANCH   1  23
TORSDOF 13
ENDMDL
