MODEL 1
REMARK VINA RESULT:     -10.1      0.000      0.000
REMARK SMILES C/C(C(=O)OCCOC(=O)c1ccc(-c2c3nc(c(-c4ccccc4)c4ccc([nH]4)c(-c4ccccc4)c4nc(c(-c5ccccc5)c5ccc2[nH]5)C=C4)C=C3)cc1)=C1/CCCSC1
REMARK SMILES IDX 7 1 6 2 5 3 3 4 4 5 2 6 1 7 59 8 60 9 64 10 61 11 63 12
REMARK SMILES IDX 62 13 8 14 9 15 10 16 11 17 12 18 58 19 13 20 57 21 14 22
REMARK SMILES IDX 15 23 16 24 51 25 17 26 56 27 50 28 52 29 18 30 55 31 49 32
REMARK SMILES IDX 48 33 19 35 41 36 26 37 40 38 27 39 30 40 39 41 53 42 28 43
REMARK SMILES IDX 29 44 38 46 54 47 31 48 20 49 21 50 25 51 22 52 24 53 23 54
REMARK SMILES IDX 42 55 43 56 47 57 44 58 46 59 45 60 32 61 33 62 37 63 34 64
REMARK SMILES IDX 36 65 35 66
REMARK H PARENT 52 34 30 45
REMARK Flexibility Score: inf
ROOT
ATOM      1  C   UNL A   1      35.690  20.706  25.279  1.00  0.00     0.275 C 
ENDROOT
BRANCH   1   2
ATOM      2  C   UNL A   1      34.397  21.422  24.902  1.00  0.00     0.275 C 
BRANCH   2   3
ATOM      3  O   UNL A   1      33.418  21.249  25.949  1.00  0.00    -0.459 OA
BRANCH   3   4
ATOM      4  C   UNL A   1      33.369  22.192  26.924  1.00  0.00     0.333 C 
ATOM      5  O   UNL A   1      33.964  22.161  27.989  1.00  0.00    -0.247 OA
BRANCH   4   6
ATOM      6  C   UNL A   1      32.396  23.261  26.537  1.00  0.00     0.034 C 
ATOM      7  C   UNL A   1      30.952  22.911  26.793  1.00  0.00     0.052 C 
ATOM      8  C   UNL A   1      32.782  24.469  26.049  1.00  0.00    -0.050 C 
ATOM      9  C   UNL A   1      34.206  24.897  25.751  1.00  0.00     0.033 C 
ATOM     10  C   UNL A   1      31.797  25.580  25.753  1.00  0.00     0.101 C 
ATOM     11  C   UNL A   1      34.409  25.217  24.264  1.00  0.00     0.015 C 
ATOM     12  S   UNL A   1      31.745  25.896  23.971  1.00  0.00    -0.158 SA
ATOM     13  C   UNL A   1      33.494  26.310  23.731  1.00  0.00     0.070 C 
ENDBRANCH   4   6
ENDBRANCH   3   4
ENDBRANCH   2   3
ENDBRANCH   1   2
BRANCH   1  14
ATOM     14  O   UNL A   1      36.769  21.621  25.034  1.00  0.00    -0.458 OA
BRANCH  14  15
ATOM     15  C   UNL A   1      38.005  21.224  25.400  1.00  0.00     0.338 C 
ATOM     16  O   UNL A   1      38.546  20.153  25.166  1.00  0.00    -0.246 OA
BRANCH  15  17
ATOM     17  C   UNL A   1      38.664  22.346  26.097  1.00  0.00     0.060 A 
ATOM     18  C   UNL A   1      38.083  23.611  26.052  1.00  0.00     0.016 A 
ATOM     19  C   UNL A   1      39.913  22.183  26.692  1.00  0.00     0.016 A 
ATOM     20  C   UNL A   1      38.797  24.722  26.495  1.00  0.00     0.010 A 
ATOM     21  C   UNL A   1      40.586  23.297  27.218  1.00  0.00     0.010 A 
ATOM     22  C   UNL A   1      40.072  24.599  27.062  1.00  0.00    -0.014 A 
BRANCH  22  23
ATOM     23  C   UNL A   1      40.901  25.815  27.364  1.00  0.00     0.031 A 
ATOM     24  C   UNL A   1      40.414  26.833  28.376  1.00  0.00     0.074 A 
ATOM     25  C   UNL A   1      42.123  26.013  26.823  1.00  0.00     0.049 A 
ATOM     26  N   UNL A   1      40.846  28.051  28.604  1.00  0.00    -0.248 NA
ATOM     27  C   UNL A   1      39.281  26.440  29.231  1.00  0.00     0.031 C 
ATOM     28  C   UNL A   1      42.813  25.114  25.896  1.00  0.00     0.029 A 
ATOM     29  N   UNL A   1      43.025  27.038  27.007  1.00  0.00    -0.354 N 
ATOM     30  C   UNL A   1      39.972  28.598  29.537  1.00  0.00     0.074 A 
ATOM     31  C   UNL A   1      39.000  27.576  29.853  1.00  0.00     0.031 C 
ATOM     32  C   UNL A   1      44.052  25.576  25.669  1.00  0.00     0.029 A 
ATOM     33  C   UNL A   1      44.204  26.871  26.319  1.00  0.00     0.049 A 
ATOM     34  H   UNL A   1      42.841  27.820  27.578  1.00  0.00     0.167 HD
ATOM     35  C   UNL A   1      39.970  29.841  30.077  1.00  0.00     0.031 A 
ATOM     36  C   UNL A   1      45.272  27.681  26.174  1.00  0.00     0.031 A 
ATOM     37  C   UNL A   1      40.994  30.831  29.863  1.00  0.00     0.049 A 
ATOM     38  C   UNL A   1      45.255  29.054  26.781  1.00  0.00     0.074 A 
ATOM     39  C   UNL A   1      41.070  32.117  30.373  1.00  0.00     0.029 A 
ATOM     40  N   UNL A   1      42.139  30.630  29.114  1.00  0.00    -0.354 N 
ATOM     41  N   UNL A   1      44.346  29.613  27.541  1.00  0.00    -0.248 NA
ATOM     42  C   UNL A   1      46.401  29.925  26.476  1.00  0.00     0.031 C 
ATOM     43  C   UNL A   1      42.255  32.703  29.913  1.00  0.00     0.029 A 
ATOM     44  C   UNL A   1      42.932  31.765  29.152  1.00  0.00     0.049 A 
ATOM     45  H   UNL A   1      42.359  29.803  28.627  1.00  0.00     0.167 HD
ATOM     46  C   UNL A   1      44.808  30.896  27.801  1.00  0.00     0.074 A 
ATOM     47  C   UNL A   1      46.094  31.024  27.149  1.00  0.00     0.031 C 
ATOM     48  C   UNL A   1      44.210  31.887  28.503  1.00  0.00     0.031 A 
BRANCH  35  49
ATOM     49  C   UNL A   1      38.792  30.232  30.926  1.00  0.00    -0.014 A 
ATOM     50  C   UNL A   1      37.581  30.663  30.366  1.00  0.00     0.009 A 
ATOM     51  C   UNL A   1      38.890  30.107  32.322  1.00  0.00     0.009 A 
ATOM     52  C   UNL A   1      36.501  30.987  31.192  1.00  0.00     0.001 A 
ATOM     53  C   UNL A   1      37.801  30.403  33.141  1.00  0.00     0.001 A 
ATOM     54  C   UNL A   1      36.609  30.850  32.576  1.00  0.00     0.000 A 
ENDBRANCH  35  49
BRANCH  36  55
ATOM     55  C   UNL A   1      46.426  27.250  25.339  1.00  0.00    -0.014 A 
ATOM     56  C   UNL A   1      47.323  26.276  25.805  1.00  0.00     0.009 A 
ATOM     57  C   UNL A   1      46.648  27.828  24.080  1.00  0.00     0.009 A 
ATOM     58  C   UNL A   1      48.425  25.904  25.033  1.00  0.00     0.001 A 
ATOM     59  C   UNL A   1      47.731  27.428  23.295  1.00  0.00     0.001 A 
ATOM     60  C   UNL A   1      48.623  26.474  23.776  1.00  0.00     0.000 A 
ENDBRANCH  36  55
BRANCH  48  61
ATOM     61  C   UNL A   1      44.955  33.184  28.631  1.00  0.00    -0.014 A 
ATOM     62  C   UNL A   1      45.875  33.393  29.670  1.00  0.00     0.009 A 
ATOM     63  C   UNL A   1      44.746  34.204  27.689  1.00  0.00     0.009 A 
ATOM     64  C   UNL A   1      46.544  34.614  29.785  1.00  0.00     0.001 A 
ATOM     65  C   UNL A   1      45.434  35.414  27.793  1.00  0.00     0.001 A 
ATOM     66  C   UNL A   1      46.323  35.622  28.846  1.00  0.00     0.000 A 
ENDBRANCH  48  61
ENDBRANCH  22  23
ENDBRANCH  15  17
ENDBRANCH  14  15
ENDBRANCH   1  14
TORSDOF 11
ENDMDL
MODEL 2
REMARK VINA RESULT:     -10.1      4.314      8.973
REMARK SMILES C/C(C(=O)OCCOC(=O)c1ccc(-c2c3nc(c(-c4ccccc4)c4ccc([nH]4)c(-c4ccccc4)c4nc(c(-c5ccccc5)c5ccc2[nH]5)C=C4)C=C3)cc1)=C1/CCCSC1
REMARK SMILES IDX 7 1 6 2 5 3 3 4 4 5 2 6 1 7 59 8 60 9 64 10 61 11 63 12
REMARK SMILES IDX 62 13 8 14 9 15 10 16 11 17 12 18 58 19 13 20 57 21 14 22
REMARK SMILES IDX 15 23 16 24 51 25 17 26 56 27 50 28 52 29 18 30 55 31 49 32
REMARK SMILES IDX 48 33 19 35 41 36 26 37 40 38 27 39 30 40 39 41 53 42 28 43
REMARK SMILES IDX 29 44 38 46 54 47 31 48 20 49 21 50 25 51 22 52 24 53 23 54
REMARK SMILES IDX 42 55 43 56 47 57 44 58 46 59 45 60 32 61 33 62 37 63 34 64
REMARK SMILES IDX 36 65 35 66
REMARK H PARENT 52 34 30 45
REMARK Flexibility Score: inf
ROOT
ATOM      1  C   UNL A   1      31.699  30.062  25.329  1.00  0.00     0.275 C 
ENDROOT
BRANCH   1   2
ATOM      2  C   UNL A   1      31.515  28.576  25.043  1.00  0.00     0.275 C 
BRANCH   2   3
ATOM      3  O   UNL A   1      31.780  28.308  23.649  1.00  0.00    -0.459 OA
BRANCH   3   4
ATOM      4  C   UNL A   1      30.744  27.873  22.886  1.00  0.00     0.333 C 
ATOM      5  O   UNL A   1      30.158  28.517  22.031  1.00  0.00    -0.247 OA
BRANCH   4   6
ATOM      6  C   UNL A   1      30.359  26.491  23.309  1.00  0.00     0.034 C 
ATOM      7  C   UNL A   1      29.033  26.405  24.021  1.00  0.00     0.052 C 
ATOM      8  C   UNL A   1      31.111  25.395  23.024  1.00  0.00    -0.050 C 
ATOM      9  C   UNL A   1      32.456  25.394  22.325  1.00  0.00     0.033 C 
ATOM     10  C   UNL A   1      30.665  23.990  23.367  1.00  0.00     0.101 C 
ATOM     11  C   UNL A   1      33.569  24.837  23.224  1.00  0.00     0.015 C 
ATOM     12  S   UNL A   1      31.759  23.290  24.629  1.00  0.00    -0.158 SA
ATOM     13  C   UNL A   1      33.321  23.419  23.717  1.00  0.00     0.070 C 
ENDBRANCH   4   6
ENDBRANCH   3   4
ENDBRANCH   2   3
ENDBRANCH   1   2
BRANCH   1  14
ATOM     14  O   UNL A   1      32.140  30.182  26.690  1.00  0.00    -0.458 OA
BRANCH  14  15
ATOM     15  C   UNL A   1      32.703  31.352  27.052  1.00  0.00     0.338 C 
ATOM     16  O   UNL A   1      32.180  32.457  27.079  1.00  0.00    -0.246 OA
BRANCH  15  17
ATOM     17  C   UNL A   1      34.085  31.083  27.495  1.00  0.00     0.060 A 
ATOM     18  C   UNL A   1      34.511  29.765  27.636  1.00  0.00     0.016 A 
ATOM     19  C   UNL A   1      34.924  32.123  27.890  1.00  0.00     0.016 A 
ATOM     20  C   UNL A   1      35.718  29.485  28.272  1.00  0.00     0.010 A 
ATOM     21  C   UNL A   1      36.180  31.833  28.447  1.00  0.00     0.010 A 
ATOM     22  C   UNL A   1      36.568  30.507  28.717  1.00  0.00    -0.014 A 
BRANCH  22  23
ATOM     23  C   UNL A   1      37.772  30.193  29.561  1.00  0.00     0.031 A 
ATOM     24  C   UNL A   1      38.955  29.466  28.953  1.00  0.00     0.074 A 
ATOM     25  C   UNL A   1      37.886  30.604  30.843  1.00  0.00     0.049 A 
ATOM     26  N   UNL A   1      39.973  28.892  29.550  1.00  0.00    -0.248 NA
ATOM     27  C   UNL A   1      38.991  29.350  27.486  1.00  0.00     0.031 C 
ATOM     28  C   UNL A   1      36.902  31.390  31.588  1.00  0.00     0.029 A 
ATOM     29  N   UNL A   1      38.915  30.439  31.744  1.00  0.00    -0.354 N 
ATOM     30  C   UNL A   1      40.697  28.259  28.546  1.00  0.00     0.074 A 
ATOM     31  C   UNL A   1      40.019  28.536  27.300  1.00  0.00     0.031 C 
ATOM     32  C   UNL A   1      37.409  31.714  32.787  1.00  0.00     0.029 A 
ATOM     33  C   UNL A   1      38.695  31.049  32.956  1.00  0.00     0.049 A 
ATOM     34  H   UNL A   1      39.733  29.930  31.538  1.00  0.00     0.167 HD
ATOM     35  C   UNL A   1      41.820  27.506  28.649  1.00  0.00     0.031 A 
ATOM     36  C   UNL A   1      39.408  31.039  34.100  1.00  0.00     0.031 A 
ATOM     37  C   UNL A   1      42.571  27.315  29.862  1.00  0.00     0.049 A 
ATOM     38  C   UNL A   1      40.651  30.202  34.197  1.00  0.00     0.074 A 
ATOM     39  C   UNL A   1      43.722  26.568  30.055  1.00  0.00     0.029 A 
ATOM     40  N   UNL A   1      42.274  27.912  31.075  1.00  0.00    -0.354 N 
ATOM     41  N   UNL A   1      41.241  29.485  33.273  1.00  0.00    -0.248 NA
ATOM     42  C   UNL A   1      41.306  30.144  35.513  1.00  0.00     0.031 C 
ATOM     43  C   UNL A   1      44.109  26.695  31.394  1.00  0.00     0.029 A 
ATOM     44  C   UNL A   1      43.222  27.554  32.020  1.00  0.00     0.049 A 
ATOM     45  H   UNL A   1      41.505  28.502  31.241  1.00  0.00     0.167 HD
ATOM     46  C   UNL A   1      42.331  28.891  33.895  1.00  0.00     0.074 A 
ATOM     47  C   UNL A   1      42.344  29.358  35.265  1.00  0.00     0.031 C 
ATOM     48  C   UNL A   1      43.231  28.021  33.380  1.00  0.00     0.031 A 
BRANCH  35  49
ATOM     49  C   UNL A   1      42.290  26.781  27.419  1.00  0.00    -0.014 A 
ATOM     50  C   UNL A   1      41.836  25.495  27.092  1.00  0.00     0.009 A 
ATOM     51  C   UNL A   1      43.168  27.437  26.539  1.00  0.00     0.009 A 
ATOM     52  C   UNL A   1      42.276  24.871  25.922  1.00  0.00     0.001 A 
ATOM     53  C   UNL A   1      43.582  26.823  25.357  1.00  0.00     0.001 A 
ATOM     54  C   UNL A   1      43.142  25.537  25.053  1.00  0.00     0.000 A 
ENDBRANCH  35  49
BRANCH  36  55
ATOM     55  C   UNL A   1      38.917  31.784  35.291  1.00  0.00    -0.014 A 
ATOM     56  C   UNL A   1      39.240  33.138  35.472  1.00  0.00     0.009 A 
ATOM     57  C   UNL A   1      38.140  31.136  36.264  1.00  0.00     0.009 A 
ATOM     58  C   UNL A   1      38.808  33.820  36.611  1.00  0.00     0.001 A 
ATOM     59  C   UNL A   1      37.680  31.831  37.383  1.00  0.00     0.001 A 
ATOM     60  C   UNL A   1      38.021  33.169  37.561  1.00  0.00     0.000 A 
ENDBRANCH  36  55
BRANCH  48  61
ATOM     61  C   UNL A   1      44.324  27.544  34.292  1.00  0.00    -0.014 A 
ATOM     62  C   UNL A   1      45.527  28.255  34.417  1.00  0.00     0.009 A 
ATOM     63  C   UNL A   1      44.140  26.376  35.050  1.00  0.00     0.009 A 
ATOM     64  C   UNL A   1      46.541  27.784  35.255  1.00  0.00     0.001 A 
ATOM     65  C   UNL A   1      45.145  25.922  35.904  1.00  0.00     0.001 A 
ATOM     66  C   UNL A   1      46.349  26.620  35.998  1.00  0.00     0.000 A 
ENDBRANCH  48  61
ENDBRANCH  22  23
ENDBRANCH  15  17
ENDBRANCH  14  15
ENDBRANCH   1  14
TORSDOF 11
ENDMDL
MODEL 3
REMARK VINA RESULT:      -9.8      4.031      8.087
REMARK SMILES C/C(C(=O)OCCOC(=O)c1ccc(-c2c3nc(c(-c4ccccc4)c4ccc([nH]4)c(-c4ccccc4)c4nc(c(-c5ccccc5)c5ccc2[nH]5)C=C4)C=C3)cc1)=C1/CCCSC1
REMARK SMILES IDX 7 1 6 2 5 3 3 4 4 5 2 6 1 7 59 8 60 9 64 10 61 11 63 12
REMARK SMILES IDX 62 13 8 14 9 15 10 16 11 17 12 18 58 19 13 20 57 21 14 22
REMARK SMILES IDX 15 23 16 24 51 25 17 26 56 27 50 28 52 29 18 30 55 31 49 32
REMARK SMILES IDX 48 33 19 35 41 36 26 37 40 38 27 39 30 40 39 41 53 42 28 43
REMARK SMILES IDX 29 44 38 46 54 47 31 48 20 49 21 50 25 51 22 52 24 53 23 54
REMARK SMILES IDX 42 55 43 56 47 57 44 58 46 59 45 60 32 61 33 62 37 63 34 64
REMARK SMILES IDX 36 65 35 66
REMARK H PARENT 52 34 30 45
REMARK Flexibility Score: inf
ROOT
ATOM      1  C   UNL A   1      43.641  21.540  25.197  1.00  0.00     0.275 C 
ENDROOT
BRANCH   1   2
ATOM      2  C   UNL A   1      42.406  20.945  25.866  1.00  0.00     0.275 C 
BRANCH   2   3
ATOM      3  O   UNL A   1      41.329  21.906  25.852  1.00  0.00    -0.459 OA
BRANCH   3   4
ATOM      4  C   UNL A   1      40.406  21.828  26.845  1.00  0.00     0.333 C 
ATOM      5  O   UNL A   1      40.394  21.016  27.756  1.00  0.00    -0.247 OA
BRANCH   4   6
ATOM      6  C   UNL A   1      39.336  22.847  26.614  1.00  0.00     0.034 C 
ATOM      7  C   UNL A   1      39.526  24.133  27.376  1.00  0.00     0.052 C 
ATOM      8  C   UNL A   1      38.308  22.654  25.745  1.00  0.00    -0.050 C 
ATOM      9  C   UNL A   1      38.037  21.391  24.951  1.00  0.00     0.033 C 
ATOM     10  C   UNL A   1      37.285  23.728  25.443  1.00  0.00     0.101 C 
ATOM     11  C   UNL A   1      36.686  20.763  25.318  1.00  0.00     0.015 C 
ATOM     12  S   UNL A   1      35.660  23.220  26.061  1.00  0.00    -0.158 SA
ATOM     13  C   UNL A   1      35.493  21.684  25.112  1.00  0.00     0.070 C 
ENDBRANCH   4   6
ENDBRANCH   3   4
ENDBRANCH   2   3
ENDBRANCH   1   2
BRANCH   1  14
ATOM     14  O   UNL A   1      44.400  22.204  26.218  1.00  0.00    -0.458 OA
BRANCH  14  15
ATOM     15  C   UNL A   1      44.760  23.482  25.983  1.00  0.00     0.338 C 
ATOM     16  O   UNL A   1      45.613  23.888  25.205  1.00  0.00    -0.246 OA
BRANCH  15  17
ATOM     17  C   UNL A   1      43.890  24.364  26.785  1.00  0.00     0.060 A 
ATOM     18  C   UNL A   1      43.750  25.700  26.420  1.00  0.00     0.016 A 
ATOM     19  C   UNL A   1      43.307  23.909  27.967  1.00  0.00     0.016 A 
ATOM     20  C   UNL A   1      43.133  26.600  27.285  1.00  0.00     0.010 A 
ATOM     21  C   UNL A   1      42.607  24.806  28.789  1.00  0.00     0.010 A 
ATOM     22  C   UNL A   1      42.571  26.184  28.500  1.00  0.00    -0.014 A 
BRANCH  22  23
ATOM     23  C   UNL A   1      42.074  27.188  29.502  1.00  0.00     0.031 A 
ATOM     24  C   UNL A   1      42.902  27.505  30.732  1.00  0.00     0.074 A 
ATOM     25  C   UNL A   1      40.938  27.895  29.319  1.00  0.00     0.049 A 
ATOM     26  N   UNL A   1      42.557  28.145  31.823  1.00  0.00    -0.248 NA
ATOM     27  C   UNL A   1      44.294  27.024  30.746  1.00  0.00     0.031 C 
ATOM     28  C   UNL A   1      40.042  27.806  28.164  1.00  0.00     0.029 A 
ATOM     29  N   UNL A   1      40.355  28.866  30.104  1.00  0.00    -0.354 N 
ATOM     30  C   UNL A   1      43.642  28.042  32.687  1.00  0.00     0.074 A 
ATOM     31  C   UNL A   1      44.667  27.300  31.987  1.00  0.00     0.031 C 
ATOM     32  C   UNL A   1      39.086  28.740  28.271  1.00  0.00     0.029 A 
ATOM     33  C   UNL A   1      39.213  29.406  29.562  1.00  0.00     0.049 A 
ATOM     34  H   UNL A   1      40.723  29.146  30.974  1.00  0.00     0.167 HD
ATOM     35  C   UNL A   1      43.774  28.513  33.951  1.00  0.00     0.031 A 
ATOM     36  C   UNL A   1      38.327  30.295  30.056  1.00  0.00     0.031 A 
ATOM     37  C   UNL A   1      42.812  29.350  34.619  1.00  0.00     0.049 A 
ATOM     38  C   UNL A   1      38.490  30.809  31.457  1.00  0.00     0.074 A 
ATOM     39  C   UNL A   1      42.868  29.873  35.901  1.00  0.00     0.029 A 
ATOM     40  N   UNL A   1      41.646  29.824  34.045  1.00  0.00    -0.354 N 
ATOM     41  N   UNL A   1      39.451  30.580  32.317  1.00  0.00    -0.248 NA
ATOM     42  C   UNL A   1      37.419  31.678  31.969  1.00  0.00     0.031 C 
ATOM     43  C   UNL A   1      41.721  30.647  36.110  1.00  0.00     0.029 A 
ATOM     44  C   UNL A   1      40.976  30.638  34.944  1.00  0.00     0.049 A 
ATOM     45  H   UNL A   1      41.339  29.615  33.134  1.00  0.00     0.167 HD
ATOM     46  C   UNL A   1      39.099  31.272  33.469  1.00  0.00     0.074 A 
ATOM     47  C   UNL A   1      37.856  31.959  33.188  1.00  0.00     0.031 C 
ATOM     48  C   UNL A   1      39.742  31.319  34.660  1.00  0.00     0.031 A 
BRANCH  35  49
ATOM     49  C   UNL A   1      44.991  28.094  34.728  1.00  0.00    -0.014 A 
ATOM     50  C   UNL A   1      46.152  28.880  34.776  1.00  0.00     0.009 A 
ATOM     51  C   UNL A   1      44.942  26.906  35.477  1.00  0.00     0.009 A 
ATOM     52  C   UNL A   1      47.249  28.468  35.537  1.00  0.00     0.001 A 
ATOM     53  C   UNL A   1      46.028  26.512  36.258  1.00  0.00     0.001 A 
ATOM     54  C   UNL A   1      47.184  27.289  36.282  1.00  0.00     0.000 A 
ENDBRANCH  35  49
BRANCH  36  55
ATOM     55  C   UNL A   1      37.144  30.697  29.247  1.00  0.00    -0.014 A 
ATOM     56  C   UNL A   1      36.135  29.770  28.946  1.00  0.00     0.009 A 
ATOM     57  C   UNL A   1      37.031  32.006  28.755  1.00  0.00     0.009 A 
ATOM     58  C   UNL A   1      35.046  30.144  28.154  1.00  0.00     0.001 A 
ATOM     59  C   UNL A   1      35.925  32.386  27.995  1.00  0.00     0.001 A 
ATOM     60  C   UNL A   1      34.938  31.453  27.687  1.00  0.00     0.000 A 
ENDBRANCH  36  55
BRANCH  48  61
ATOM     61  C   UNL A   1      39.129  32.166  35.737  1.00  0.00    -0.014 A 
ATOM     62  C   UNL A   1      38.233  31.619  36.669  1.00  0.00     0.009 A 
ATOM     63  C   UNL A   1      39.464  33.526  35.831  1.00  0.00     0.009 A 
ATOM     64  C   UNL A   1      37.657  32.427  37.651  1.00  0.00     0.001 A 
ATOM     65  C   UNL A   1      38.905  34.326  36.828  1.00  0.00     0.001 A 
ATOM     66  C   UNL A   1      37.994  33.779  37.731  1.00  0.00     0.000 A 
ENDBRANCH  48  61
ENDBRANCH  22  23
ENDBRANCH  15  17
ENDBRANCH  14  15
ENDBRANCH   1  14
TORSDOF 11
ENDMDL
