MODEL 1
REMARK VINA RESULT:     -11.6      0.000      0.000
REMARK SMILES Cc1cccc(C(=O)OCCOC(=O)c2ccc(-c3c4nc(c(-c5ccccc5)c5ccc([nH]5)c(-c5ccccc5)c5nc(c(-c6ccccc6)c6ccc3[nH]6)C=C5)C=C4)cc2)c1OC[C@@H]1C[C@H]2CC[C@@H]1C2
REMARK SMILES IDX 10 1 9 2 7 3 8 4 6 5 1 6 2 7 3 8 63 9 4 10 5 11 64 12 65 13
REMARK SMILES IDX 66 14 67 15 71 16 68 17 70 18 72 19 69 20 11 21 12 22 13 23
REMARK SMILES IDX 14 24 15 25 16 26 62 27 17 28 61 29 18 30 19 31 20 32 55 33
REMARK SMILES IDX 21 34 60 35 54 36 56 37 22 38 59 39 53 40 52 41 23 43 45 44
REMARK SMILES IDX 30 45 44 46 31 47 34 48 43 49 57 50 32 51 33 52 42 54 58 55
REMARK SMILES IDX 35 56 24 57 25 58 29 59 26 60 28 61 27 62 46 63 47 64 51 65
REMARK SMILES IDX 48 66 50 67 49 68 36 69 37 70 41 71 38 72 40 73 39 74
REMARK H PARENT 56 42 34 53
REMARK Flexibility Score: inf
ROOT
ATOM      1  C   UNL A   1      37.807  21.402  25.115  1.00  0.00     0.275 C 
ENDROOT
BRANCH   1   2
ATOM      2  O   UNL A   1      36.509  21.672  24.568  1.00  0.00    -0.458 OA
BRANCH   2   3
ATOM      3  C   UNL A   1      35.593  21.936  25.545  1.00  0.00     0.342 C 
ATOM      4  O   UNL A   1      35.591  21.452  26.667  1.00  0.00    -0.246 OA
BRANCH   3   5
ATOM      5  C   UNL A   1      34.561  22.893  25.106  1.00  0.00     0.102 A 
ATOM      6  C   UNL A   1      31.399  23.082  23.003  1.00  0.00     0.048 C 
ATOM      7  C   UNL A   1      32.484  23.423  23.988  1.00  0.00    -0.008 A 
ATOM      8  C   UNL A   1      32.629  24.771  24.355  1.00  0.00     0.007 A 
ATOM      9  C   UNL A   1      33.400  22.459  24.457  1.00  0.00     0.136 A 
ATOM     10  C   UNL A   1      33.757  25.190  25.042  1.00  0.00     0.001 A 
ATOM     11  C   UNL A   1      34.741  24.258  25.364  1.00  0.00     0.019 A 
BRANCH   9  12
ATOM     12  O   UNL A   1      33.207  21.177  24.036  1.00  0.00    -0.492 OA
BRANCH  12  13
ATOM     13  C   UNL A   1      32.478  20.254  24.856  1.00  0.00     0.233 C 
BRANCH  13  14
ATOM     14  C   UNL A   1      33.092  18.899  25.263  1.00  0.00     0.030 C 
ATOM     15  C   UNL A   1      34.492  18.721  24.606  1.00  0.00     0.011 C 
ATOM     16  C   UNL A   1      32.371  17.625  24.766  1.00  0.00    -0.004 C 
ATOM     17  C   UNL A   1      34.401  17.345  23.921  1.00  0.00    -0.010 C 
ATOM     18  C   UNL A   1      32.908  16.419  25.558  1.00  0.00     0.004 C 
ATOM     19  C   UNL A   1      32.975  17.378  23.386  1.00  0.00     0.007 C 
ATOM     20  C   UNL A   1      34.320  16.242  24.988  1.00  0.00     0.004 C 
ENDBRANCH  13  14
ENDBRANCH  12  13
ENDBRANCH   9  12
ENDBRANCH   3   5
ENDBRANCH   2   3
ENDBRANCH   1   2
BRANCH   1  21
ATOM     21  C   UNL A   1      38.318  19.970  24.895  1.00  0.00     0.275 C 
BRANCH  21  22
ATOM     22  O   UNL A   1      39.258  19.338  25.810  1.00  0.00    -0.458 OA
BRANCH  22  23
ATOM     23  C   UNL A   1      40.563  19.618  26.009  1.00  0.00     0.338 C 
ATOM     24  O   UNL A   1      41.456  18.816  25.755  1.00  0.00    -0.246 OA
BRANCH  23  25
ATOM     25  C   UNL A   1      40.881  20.932  26.572  1.00  0.00     0.060 A 
ATOM     26  C   UNL A   1      40.778  21.109  27.960  1.00  0.00     0.016 A 
ATOM     27  C   UNL A   1      41.364  21.942  25.750  1.00  0.00     0.016 A 
ATOM     28  C   UNL A   1      41.317  22.235  28.561  1.00  0.00     0.010 A 
ATOM     29  C   UNL A   1      41.965  23.024  26.340  1.00  0.00     0.010 A 
ATOM     30  C   UNL A   1      41.913  23.177  27.737  1.00  0.00    -0.014 A 
BRANCH  30  31
ATOM     31  C   UNL A   1      42.199  24.531  28.162  1.00  0.00     0.031 A 
ATOM     32  C   UNL A   1      41.151  25.540  28.328  1.00  0.00     0.074 A 
ATOM     33  C   UNL A   1      43.465  24.614  28.623  1.00  0.00     0.049 A 
ATOM     34  N   UNL A   1      41.384  26.731  28.746  1.00  0.00    -0.248 NA
ATOM     35  C   UNL A   1      39.742  25.322  28.011  1.00  0.00     0.031 C 
ATOM     36  C   UNL A   1      44.107  25.536  29.537  1.00  0.00     0.029 A 
ATOM     37  N   UNL A   1      44.518  23.824  28.149  1.00  0.00    -0.354 N 
ATOM     38  C   UNL A   1      40.174  27.315  29.047  1.00  0.00     0.074 A 
ATOM     39  C   UNL A   1      39.182  26.445  28.482  1.00  0.00     0.031 C 
ATOM     40  C   UNL A   1      45.440  25.467  29.340  1.00  0.00     0.029 A 
ATOM     41  C   UNL A   1      45.657  24.625  28.165  1.00  0.00     0.049 A 
ATOM     42  H   UNL A   1      44.466  22.884  27.861  1.00  0.00     0.167 HD
ATOM     43  C   UNL A   1      40.184  28.399  29.870  1.00  0.00     0.031 A 
ATOM     44  C   UNL A   1      46.108  25.080  26.955  1.00  0.00     0.031 A 
ATOM     45  C   UNL A   1      41.555  28.878  30.016  1.00  0.00     0.049 A 
ATOM     46  C   UNL A   1      45.927  26.579  26.866  1.00  0.00     0.074 A 
ATOM     47  C   UNL A   1      42.529  28.631  30.968  1.00  0.00     0.029 A 
ATOM     48  N   UNL A   1      42.209  29.339  28.878  1.00  0.00    -0.354 N 
ATOM     49  N   UNL A   1      44.913  27.244  27.356  1.00  0.00    -0.248 NA
ATOM     50  C   UNL A   1      46.972  27.442  26.328  1.00  0.00     0.031 C 
ATOM     51  C   UNL A   1      43.791  28.801  30.329  1.00  0.00     0.029 A 
ATOM     52  C   UNL A   1      43.575  29.181  29.013  1.00  0.00     0.049 A 
ATOM     53  H   UNL A   1      41.761  29.723  28.089  1.00  0.00     0.167 HD
ATOM     54  C   UNL A   1      45.212  28.583  27.330  1.00  0.00     0.074 A 
ATOM     55  C   UNL A   1      46.490  28.655  26.639  1.00  0.00     0.031 C 
ATOM     56  C   UNL A   1      44.463  29.560  27.925  1.00  0.00     0.031 A 
BRANCH  43  57
ATOM     57  C   UNL A   1      39.039  28.875  30.732  1.00  0.00    -0.014 A 
ATOM     58  C   UNL A   1      38.558  30.188  30.543  1.00  0.00     0.009 A 
ATOM     59  C   UNL A   1      38.468  28.163  31.800  1.00  0.00     0.009 A 
ATOM     60  C   UNL A   1      37.601  30.765  31.388  1.00  0.00     0.001 A 
ATOM     61  C   UNL A   1      37.501  28.733  32.646  1.00  0.00     0.001 A 
ATOM     62  C   UNL A   1      37.074  30.038  32.445  1.00  0.00     0.000 A 
ENDBRANCH  43  57
BRANCH  44  63
ATOM     63  C   UNL A   1      45.907  24.103  25.825  1.00  0.00    -0.014 A 
ATOM     64  C   UNL A   1      46.402  22.785  25.987  1.00  0.00     0.009 A 
ATOM     65  C   UNL A   1      44.997  24.328  24.782  1.00  0.00     0.009 A 
ATOM     66  C   UNL A   1      45.908  21.717  25.229  1.00  0.00     0.001 A 
ATOM     67  C   UNL A   1      44.529  23.257  23.998  1.00  0.00     0.001 A 
ATOM     68  C   UNL A   1      44.956  21.951  24.245  1.00  0.00     0.000 A 
ENDBRANCH  44  63
BRANCH  56  69
ATOM     69  C   UNL A   1      44.563  31.027  27.585  1.00  0.00    -0.014 A 
ATOM     70  C   UNL A   1      44.154  31.565  26.360  1.00  0.00     0.009 A 
ATOM     71  C   UNL A   1      44.923  31.947  28.595  1.00  0.00     0.009 A 
ATOM     72  C   UNL A   1      44.174  32.943  26.128  1.00  0.00     0.001 A 
ATOM     73  C   UNL A   1      44.877  33.326  28.391  1.00  0.00     0.001 A 
ATOM     74  C   UNL A   1      44.522  33.823  27.147  1.00  0.00     0.000 A 
ENDBRANCH  56  69
ENDBRANCH  30  31
ENDBRANCH  23  25
ENDBRANCH  22  23
ENDBRANCH  21  22
ENDBRANCH   1  21
TORSDOF 14
ENDMDL
MODEL 2
REMARK VINA RESULT:     -11.4      2.258      4.592
REMARK SMILES Cc1cccc(C(=O)OCCOC(=O)c2ccc(-c3c4nc(c(-c5ccccc5)c5ccc([nH]5)c(-c5ccccc5)c5nc(c(-c6ccccc6)c6ccc3[nH]6)C=C5)C=C4)cc2)c1OC[C@@H]1C[C@H]2CC[C@@H]1C2
REMARK SMILES IDX 10 1 9 2 7 3 8 4 6 5 1 6 2 7 3 8 63 9 4 10 5 11 64 12 65 13
REMARK SMILES IDX 66 14 67 15 71 16 68 17 70 18 72 19 69 20 11 21 12 22 13 23
REMARK SMILES IDX 14 24 15 25 16 26 62 27 17 28 61 29 18 30 19 31 20 32 55 33
REMARK SMILES IDX 21 34 60 35 54 36 56 37 22 38 59 39 53 40 52 41 23 43 45 44
REMARK SMILES IDX 30 45 44 46 31 47 34 48 43 49 57 50 32 51 33 52 42 54 58 55
REMARK SMILES IDX 35 56 24 57 25 58 29 59 26 60 28 61 27 62 46 63 47 64 51 65
REMARK SMILES IDX 48 66 50 67 49 68 36 69 37 70 41 71 38 72 40 73 39 74
REMARK H PARENT 56 42 34 53
REMARK Flexibility Score: inf
ROOT
ATOM      1  C   UNL A   1      42.783  18.550  25.740  1.00  0.00     0.275 C 
ENDROOT
BRANCH   1   2
ATOM      2  O   UNL A   1      42.204  19.400  26.740  1.00  0.00    -0.458 OA
BRANCH   2   3
ATOM      3  C   UNL A   1      40.984  19.877  26.353  1.00  0.00     0.342 C 
ATOM      4  O   UNL A   1      40.177  19.281  25.656  1.00  0.00    -0.246 OA
BRANCH   3   5
ATOM      5  C   UNL A   1      40.722  21.233  26.867  1.00  0.00     0.102 A 
ATOM      6  C   UNL A   1      38.464  24.236  26.288  1.00  0.00     0.048 C 
ATOM      7  C   UNL A   1      39.437  23.280  26.922  1.00  0.00    -0.008 A 
ATOM      8  C   UNL A   1      40.271  23.779  27.936  1.00  0.00     0.007 A 
ATOM      9  C   UNL A   1      39.597  21.958  26.459  1.00  0.00     0.136 A 
ATOM     10  C   UNL A   1      41.356  23.037  28.375  1.00  0.00     0.001 A 
ATOM     11  C   UNL A   1      41.606  21.794  27.798  1.00  0.00     0.019 A 
BRANCH   9  12
ATOM     12  O   UNL A   1      38.767  21.557  25.455  1.00  0.00    -0.492 OA
BRANCH  12  13
ATOM     13  C   UNL A   1      37.403  21.219  25.743  1.00  0.00     0.233 C 
BRANCH  13  14
ATOM     14  C   UNL A   1      36.288  21.471  24.707  1.00  0.00     0.030 C 
ATOM     15  C   UNL A   1      36.693  22.628  23.748  1.00  0.00     0.011 C 
ATOM     16  C   UNL A   1      34.937  21.995  25.245  1.00  0.00    -0.004 C 
ATOM     17  C   UNL A   1      35.487  23.584  23.801  1.00  0.00    -0.010 C 
ATOM     18  C   UNL A   1      33.877  21.836  24.140  1.00  0.00     0.004 C 
ATOM     19  C   UNL A   1      35.120  23.510  25.277  1.00  0.00     0.007 C 
ATOM     20  C   UNL A   1      34.273  22.920  23.132  1.00  0.00     0.004 C 
ENDBRANCH  13  14
ENDBRANCH  12  13
ENDBRANCH   9  12
ENDBRANCH   3   5
ENDBRANCH   2   3
ENDBRANCH   1   2
BRANCH   1  21
ATOM     21  C   UNL A   1      44.024  19.125  25.040  1.00  0.00     0.275 C 
BRANCH  21  22
ATOM     22  O   UNL A   1      44.161  20.547  24.758  1.00  0.00    -0.458 OA
BRANCH  22  23
ATOM     23  C   UNL A   1      45.205  21.362  25.012  1.00  0.00     0.338 C 
ATOM     24  O   UNL A   1      46.366  21.042  24.773  1.00  0.00    -0.246 OA
BRANCH  23  25
ATOM     25  C   UNL A   1      44.902  22.661  25.617  1.00  0.00     0.060 A 
ATOM     26  C   UNL A   1      44.821  22.745  27.015  1.00  0.00     0.016 A 
ATOM     27  C   UNL A   1      44.794  23.792  24.818  1.00  0.00     0.016 A 
ATOM     28  C   UNL A   1      44.803  23.982  27.639  1.00  0.00     0.010 A 
ATOM     29  C   UNL A   1      44.850  25.020  25.426  1.00  0.00     0.010 A 
ATOM     30  C   UNL A   1      44.826  25.108  26.829  1.00  0.00    -0.014 A 
BRANCH  30  31
ATOM     31  C   UNL A   1      44.466  26.428  27.301  1.00  0.00     0.031 A 
ATOM     32  C   UNL A   1      43.114  26.973  27.156  1.00  0.00     0.074 A 
ATOM     33  C   UNL A   1      45.442  26.918  28.095  1.00  0.00     0.049 A 
ATOM     34  N   UNL A   1      42.770  28.124  27.607  1.00  0.00    -0.248 NA
ATOM     35  C   UNL A   1      42.024  26.293  26.461  1.00  0.00     0.031 C 
ATOM     36  C   UNL A   1      45.431  27.921  29.140  1.00  0.00     0.029 A 
ATOM     37  N   UNL A   1      46.798  26.607  27.943  1.00  0.00    -0.354 N 
ATOM     38  C   UNL A   1      41.396  28.203  27.552  1.00  0.00     0.074 A 
ATOM     39  C   UNL A   1      40.985  27.090  26.744  1.00  0.00     0.031 C 
ATOM     40  C   UNL A   1      46.695  28.354  29.323  1.00  0.00     0.029 A 
ATOM     41  C   UNL A   1      47.510  27.759  28.265  1.00  0.00     0.049 A 
ATOM     42  H   UNL A   1      47.176  25.743  27.663  1.00  0.00     0.167 HD
ATOM     43  C   UNL A   1      40.786  29.137  28.332  1.00  0.00     0.031 A 
ATOM     44  C   UNL A   1      48.061  28.456  27.223  1.00  0.00     0.031 A 
ATOM     45  C   UNL A   1      41.791  30.061  28.848  1.00  0.00     0.049 A 
ATOM     46  C   UNL A   1      47.367  29.791  27.069  1.00  0.00     0.074 A 
ATOM     47  C   UNL A   1      42.500  30.094  30.037  1.00  0.00     0.029 A 
ATOM     48  N   UNL A   1      42.502  30.829  27.932  1.00  0.00    -0.354 N 
ATOM     49  N   UNL A   1      46.088  29.998  27.249  1.00  0.00    -0.248 NA
ATOM     50  C   UNL A   1      48.119  31.017  26.834  1.00  0.00     0.031 C 
ATOM     51  C   UNL A   1      43.729  30.765  29.773  1.00  0.00     0.029 A 
ATOM     52  C   UNL A   1      43.741  31.161  28.444  1.00  0.00     0.049 A 
ATOM     53  H   UNL A   1      42.169  31.098  27.045  1.00  0.00     0.167 HD
ATOM     54  C   UNL A   1      45.864  31.351  27.292  1.00  0.00     0.074 A 
ATOM     55  C   UNL A   1      47.157  31.941  26.983  1.00  0.00     0.031 C 
ATOM     56  C   UNL A   1      44.678  31.933  27.642  1.00  0.00     0.031 A 
BRANCH  43  57
ATOM     57  C   UNL A   1      39.364  29.087  28.835  1.00  0.00    -0.014 A 
ATOM     58  C   UNL A   1      38.338  29.568  27.994  1.00  0.00     0.009 A 
ATOM     59  C   UNL A   1      38.966  28.705  30.127  1.00  0.00     0.009 A 
ATOM     60  C   UNL A   1      37.011  29.696  28.426  1.00  0.00     0.001 A 
ATOM     61  C   UNL A   1      37.635  28.823  30.564  1.00  0.00     0.001 A 
ATOM     62  C   UNL A   1      36.659  29.327  29.716  1.00  0.00     0.000 A 
ENDBRANCH  43  57
BRANCH  44  63
ATOM     63  C   UNL A   1      48.542  27.581  26.095  1.00  0.00    -0.014 A 
ATOM     64  C   UNL A   1      47.735  27.484  24.935  1.00  0.00     0.009 A 
ATOM     65  C   UNL A   1      49.866  27.126  26.001  1.00  0.00     0.009 A 
ATOM     66  C   UNL A   1      48.264  27.078  23.703  1.00  0.00     0.001 A 
ATOM     67  C   UNL A   1      50.384  26.684  24.769  1.00  0.00     0.001 A 
ATOM     68  C   UNL A   1      49.596  26.695  23.617  1.00  0.00     0.000 A 
ENDBRANCH  44  63
BRANCH  56  69
ATOM     69  C   UNL A   1      44.312  33.363  27.326  1.00  0.00    -0.014 A 
ATOM     70  C   UNL A   1      44.043  33.823  26.032  1.00  0.00     0.009 A 
ATOM     71  C   UNL A   1      44.055  34.261  28.386  1.00  0.00     0.009 A 
ATOM     72  C   UNL A   1      43.611  35.132  25.800  1.00  0.00     0.001 A 
ATOM     73  C   UNL A   1      43.557  35.545  28.164  1.00  0.00     0.001 A 
ATOM     74  C   UNL A   1      43.356  35.987  26.866  1.00  0.00     0.000 A 
ENDBRANCH  56  69
ENDBRANCH  30  31
ENDBRANCH  23  25
ENDBRANCH  22  23
ENDBRANCH  21  22
ENDBRANCH   1  21
TORSDOF 14
ENDMDL
MODEL 3
REMARK VINA RESULT:     -11.3      4.222      9.247
REMARK SMILES Cc1cccc(C(=O)OCCOC(=O)c2ccc(-c3c4nc(c(-c5ccccc5)c5ccc([nH]5)c(-c5ccccc5)c5nc(c(-c6ccccc6)c6ccc3[nH]6)C=C5)C=C4)cc2)c1OC[C@@H]1C[C@H]2CC[C@@H]1C2
REMARK SMILES IDX 10 1 9 2 7 3 8 4 6 5 1 6 2 7 3 8 63 9 4 10 5 11 64 12 65 13
REMARK SMILES IDX 66 14 67 15 71 16 68 17 70 18 72 19 69 20 11 21 12 22 13 23
REMARK SMILES IDX 14 24 15 25 16 26 62 27 17 28 61 29 18 30 19 31 20 32 55 33
REMARK SMILES IDX 21 34 60 35 54 36 56 37 22 38 59 39 53 40 52 41 23 43 45 44
REMARK SMILES IDX 30 45 44 46 31 47 34 48 43 49 57 50 32 51 33 52 42 54 58 55
REMARK SMILES IDX 35 56 24 57 25 58 29 59 26 60 28 61 27 62 46 63 47 64 51 65
REMARK SMILES IDX 48 66 50 67 49 68 36 69 37 70 41 71 38 72 40 73 39 74
REMARK H PARENT 56 42 34 53
REMARK Flexibility Score: inf
ROOT
ATOM      1  C   UNL A   1      31.962  29.130  27.261  1.00  0.00     0.275 C 
ENDROOT
BRANCH   1   2
ATOM      2  O   UNL A   1      32.521  27.810  27.206  1.00  0.00    -0.458 OA
BRANCH   2   3
ATOM      3  C   UNL A   1      31.702  26.942  26.542  1.00  0.00     0.342 C 
ATOM      4  O   UNL A   1      30.595  26.584  26.915  1.00  0.00    -0.246 OA
BRANCH   3   5
ATOM      5  C   UNL A   1      32.301  26.452  25.288  1.00  0.00     0.102 A 
ATOM      6  C   UNL A   1      31.683  26.385  21.537  1.00  0.00     0.048 C 
ATOM      7  C   UNL A   1      32.360  26.286  22.877  1.00  0.00    -0.008 A 
ATOM      8  C   UNL A   1      33.532  25.516  22.957  1.00  0.00     0.007 A 
ATOM      9  C   UNL A   1      31.800  26.846  24.043  1.00  0.00     0.136 A 
ATOM     10  C   UNL A   1      34.056  25.169  24.192  1.00  0.00     0.001 A 
ATOM     11  C   UNL A   1      33.405  25.591  25.348  1.00  0.00     0.019 A 
BRANCH   9  12
ATOM     12  O   UNL A   1      30.647  27.558  23.887  1.00  0.00    -0.492 OA
BRANCH  12  13
ATOM     13  C   UNL A   1      30.653  28.981  24.065  1.00  0.00     0.233 C 
BRANCH  13  14
ATOM     14  C   UNL A   1      29.897  29.905  23.088  1.00  0.00     0.030 C 
ATOM     15  C   UNL A   1      29.270  31.105  23.855  1.00  0.00     0.011 C 
ATOM     16  C   UNL A   1      28.648  29.317  22.392  1.00  0.00    -0.004 C 
ATOM     17  C   UNL A   1      27.794  31.088  23.415  1.00  0.00    -0.010 C 
ATOM     18  C   UNL A   1      28.264  30.237  21.220  1.00  0.00     0.004 C 
ATOM     19  C   UNL A   1      27.516  29.591  23.380  1.00  0.00     0.007 C 
ATOM     20  C   UNL A   1      27.695  31.471  21.930  1.00  0.00     0.004 C 
ENDBRANCH  13  14
ENDBRANCH  12  13
ENDBRANCH   9  12
ENDBRANCH   3   5
ENDBRANCH   2   3
ENDBRANCH   1   2
BRANCH   1  21
ATOM     21  C   UNL A   1      32.967  30.270  27.034  1.00  0.00     0.275 C 
BRANCH  21  22
ATOM     22  O   UNL A   1      34.398  30.087  27.233  1.00  0.00    -0.458 OA
BRANCH  22  23
ATOM     23  C   UNL A   1      35.185  30.581  28.212  1.00  0.00     0.338 C 
ATOM     24  O   UNL A   1      34.857  31.543  28.899  1.00  0.00    -0.246 OA
BRANCH  23  25
ATOM     25  C   UNL A   1      36.482  29.930  28.413  1.00  0.00     0.060 A 
ATOM     26  C   UNL A   1      37.444  30.026  27.398  1.00  0.00     0.016 A 
ATOM     27  C   UNL A   1      36.770  29.317  29.625  1.00  0.00     0.016 A 
ATOM     28  C   UNL A   1      38.759  29.664  27.646  1.00  0.00     0.010 A 
ATOM     29  C   UNL A   1      38.080  29.024  29.906  1.00  0.00     0.010 A 
ATOM     30  C   UNL A   1      39.059  29.172  28.908  1.00  0.00    -0.014 A 
BRANCH  30  31
ATOM     31  C   UNL A   1      40.274  28.443  29.202  1.00  0.00     0.031 A 
ATOM     32  C   UNL A   1      40.511  27.082  28.713  1.00  0.00     0.074 A 
ATOM     33  C   UNL A   1      41.201  29.276  29.721  1.00  0.00     0.049 A 
ATOM     34  N   UNL A   1      41.600  26.439  28.930  1.00  0.00    -0.248 NA
ATOM     35  C   UNL A   1      39.536  26.297  27.961  1.00  0.00     0.031 C 
ATOM     36  C   UNL A   1      42.647  29.208  29.772  1.00  0.00     0.029 A 
ATOM     37  N   UNL A   1      40.889  30.399  30.495  1.00  0.00    -0.354 N 
ATOM     38  C   UNL A   1      41.603  25.330  28.113  1.00  0.00     0.074 A 
ATOM     39  C   UNL A   1      40.264  25.229  27.607  1.00  0.00     0.031 C 
ATOM     40  C   UNL A   1      43.073  30.034  30.750  1.00  0.00     0.029 A 
ATOM     41  C   UNL A   1      41.886  30.507  31.461  1.00  0.00     0.049 A 
ATOM     42  H   UNL A   1      40.117  30.998  30.380  1.00  0.00     0.167 HD
ATOM     43  C   UNL A   1      42.800  24.729  27.870  1.00  0.00     0.031 A 
ATOM     44  C   UNL A   1      41.550  30.147  32.738  1.00  0.00     0.031 A 
ATOM     45  C   UNL A   1      43.798  25.254  28.797  1.00  0.00     0.049 A 
ATOM     46  C   UNL A   1      42.297  28.894  33.136  1.00  0.00     0.074 A 
ATOM     47  C   UNL A   1      44.726  26.274  28.683  1.00  0.00     0.029 A 
ATOM     48  N   UNL A   1      43.604  25.033  30.156  1.00  0.00    -0.354 N 
ATOM     49  N   UNL A   1      42.562  27.891  32.338  1.00  0.00    -0.248 NA
ATOM     50  C   UNL A   1      42.918  28.761  34.448  1.00  0.00     0.031 C 
ATOM     51  C   UNL A   1      44.968  26.769  29.998  1.00  0.00     0.029 A 
ATOM     52  C   UNL A   1      44.215  26.027  30.896  1.00  0.00     0.049 A 
ATOM     53  H   UNL A   1      43.103  24.275  30.537  1.00  0.00     0.167 HD
ATOM     54  C   UNL A   1      43.472  27.070  32.953  1.00  0.00     0.074 A 
ATOM     55  C   UNL A   1      43.627  27.634  34.285  1.00  0.00     0.031 C 
ATOM     56  C   UNL A   1      44.111  26.024  32.347  1.00  0.00     0.031 A 
BRANCH  43  57
ATOM     57  C   UNL A   1      43.143  23.880  26.670  1.00  0.00    -0.014 A 
ATOM     58  C   UNL A   1      42.950  22.485  26.758  1.00  0.00     0.009 A 
ATOM     59  C   UNL A   1      43.753  24.339  25.490  1.00  0.00     0.009 A 
ATOM     60  C   UNL A   1      43.373  21.604  25.754  1.00  0.00     0.001 A 
ATOM     61  C   UNL A   1      44.171  23.461  24.475  1.00  0.00     0.001 A 
ATOM     62  C   UNL A   1      43.989  22.092  24.612  1.00  0.00     0.000 A 
ENDBRANCH  43  57
BRANCH  44  63
ATOM     63  C   UNL A   1      40.126  30.475  33.106  1.00  0.00    -0.014 A 
ATOM     64  C   UNL A   1      39.668  31.798  32.889  1.00  0.00     0.009 A 
ATOM     65  C   UNL A   1      39.159  29.486  33.343  1.00  0.00     0.009 A 
ATOM     66  C   UNL A   1      38.304  32.095  32.780  1.00  0.00     0.001 A 
ATOM     67  C   UNL A   1      37.788  29.796  33.268  1.00  0.00     0.001 A 
ATOM     68  C   UNL A   1      37.363  31.088  32.951  1.00  0.00     0.000 A 
ENDBRANCH  44  63
BRANCH  56  69
ATOM     69  C   UNL A   1      44.798  24.906  33.093  1.00  0.00    -0.014 A 
ATOM     70  C   UNL A   1      46.142  24.947  33.481  1.00  0.00     0.009 A 
ATOM     71  C   UNL A   1      44.028  23.829  33.587  1.00  0.00     0.009 A 
ATOM     72  C   UNL A   1      46.708  23.932  34.256  1.00  0.00     0.001 A 
ATOM     73  C   UNL A   1      44.570  22.851  34.419  1.00  0.00     0.001 A 
ATOM     74  C   UNL A   1      45.919  22.892  34.736  1.00  0.00     0.000 A 
ENDBRANCH  56  69
ENDBRANCH  30  31
ENDBRANCH  23  25
ENDBRANCH  22  23
ENDBRANCH  21  22
ENDBRANCH   1  21
TORSDOF 14
ENDMDL
