MODEL 1
REMARK VINA RESULT:     -10.9      0.000      0.000
REMARK SMILES C[C@@H]1CC[C@@](C(=O)OCCOC(=O)c2ccc(-c3c4nc(c(-c5ccccc5)c5ccc([nH]5)c(-c5ccccc5)c5nc(c(-c6ccccc6)c6ccc3[nH]6)C=C5)C=C4)cc2)([C@@H]2CCC[C@H](S(C)(=O)=O)C2)C1
REMARK SMILES IDX 9 1 8 2 6 3 7 4 5 5 1 6 2 7 3 8 72 9 4 10 62 11 63 12 71 13
REMARK SMILES IDX 64 14 66 15 65 16 67 17 68 18 69 19 70 20 10 21 11 22 12 23
REMARK SMILES IDX 13 24 14 25 15 26 61 27 16 28 60 29 17 30 18 31 19 32 54 33
REMARK SMILES IDX 20 34 59 35 53 36 55 37 21 38 58 39 52 40 51 41 22 43 44 44
REMARK SMILES IDX 29 45 43 46 30 47 33 48 42 49 56 50 31 51 32 52 41 54 57 55
REMARK SMILES IDX 34 56 23 57 24 58 28 59 25 60 27 61 26 62 45 63 46 64 50 65
REMARK SMILES IDX 47 66 49 67 48 68 35 69 36 70 40 71 37 72 39 73 38 74
REMARK H PARENT 55 42 33 53
REMARK Flexibility Score: inf
ROOT
ATOM      1  C   UNL A   1      38.071  21.515  25.479  1.00  0.00     0.274 C 
ENDROOT
BRANCH   1   2
ATOM      2  O   UNL A   1      36.631  21.429  25.429  1.00  0.00    -0.462 OA
BRANCH   2   3
ATOM      3  C   UNL A   1      36.036  22.035  24.373  1.00  0.00     0.312 C 
ATOM      4  O   UNL A   1      36.648  22.427  23.381  1.00  0.00    -0.252 OA
BRANCH   3   5
ATOM      5  C   UNL A   1      34.517  22.285  24.552  1.00  0.00     0.071 C 
ATOM      6  C   UNL A   1      34.312  19.028  24.654  1.00  0.00     0.007 C 
ATOM      7  C   UNL A   1      33.397  20.149  25.146  1.00  0.00    -0.013 C 
ATOM      8  C   UNL A   1      32.626  20.786  24.007  1.00  0.00     0.004 C 
ATOM      9  C   UNL A   1      34.139  21.351  25.746  1.00  0.00     0.022 C 
ATOM     10  C   UNL A   1      33.602  21.785  23.396  1.00  0.00     0.019 C 
BRANCH   5  11
ATOM     11  C   UNL A   1      34.366  23.840  24.825  1.00  0.00     0.008 C 
ATOM     12  C   UNL A   1      33.353  24.245  25.910  1.00  0.00     0.005 C 
ATOM     13  C   UNL A   1      34.046  24.610  23.520  1.00  0.00     0.024 C 
ATOM     14  C   UNL A   1      33.342  25.762  26.117  1.00  0.00     0.002 C 
ATOM     15  C   UNL A   1      33.895  26.125  23.688  1.00  0.00     0.108 C 
ATOM     16  C   UNL A   1      32.970  26.503  24.839  1.00  0.00     0.020 C 
BRANCH  15  17
ATOM     17  S   UNL A   1      33.329  26.823  22.116  1.00  0.00     0.150 S 
ATOM     18  C   UNL A   1      31.654  27.305  22.421  1.00  0.00     0.158 C 
ATOM     19  O   UNL A   1      34.074  28.048  21.888  1.00  0.00    -0.229 OA
ATOM     20  O   UNL A   1      33.315  25.776  21.114  1.00  0.00    -0.229 OA
ENDBRANCH  15  17
ENDBRANCH   5  11
ENDBRANCH   3   5
ENDBRANCH   2   3
ENDBRANCH   1   2
BRANCH   1  21
ATOM     21  C   UNL A   1      38.712  20.187  25.097  1.00  0.00     0.275 C 
BRANCH  21  22
ATOM     22  O   UNL A   1      39.420  19.653  26.229  1.00  0.00    -0.458 OA
BRANCH  22  23
ATOM     23  C   UNL A   1      40.762  19.601  26.108  1.00  0.00     0.338 C 
ATOM     24  O   UNL A   1      41.421  18.675  25.643  1.00  0.00    -0.246 OA
BRANCH  23  25
ATOM     25  C   UNL A   1      41.375  20.823  26.662  1.00  0.00     0.060 A 
ATOM     26  C   UNL A   1      41.253  21.140  28.011  1.00  0.00     0.016 A 
ATOM     27  C   UNL A   1      42.003  21.724  25.802  1.00  0.00     0.016 A 
ATOM     28  C   UNL A   1      41.635  22.408  28.460  1.00  0.00     0.010 A 
ATOM     29  C   UNL A   1      42.494  22.945  26.288  1.00  0.00     0.010 A 
ATOM     30  C   UNL A   1      42.255  23.346  27.610  1.00  0.00    -0.014 A 
BRANCH  30  31
ATOM     31  C   UNL A   1      42.602  24.715  28.122  1.00  0.00     0.031 A 
ATOM     32  C   UNL A   1      44.033  25.127  28.430  1.00  0.00     0.074 A 
ATOM     33  C   UNL A   1      41.643  25.663  28.218  1.00  0.00     0.049 A 
ATOM     34  N   UNL A   1      44.508  26.332  28.659  1.00  0.00    -0.248 NA
ATOM     35  C   UNL A   1      45.072  24.086  28.429  1.00  0.00     0.031 C 
ATOM     36  C   UNL A   1      40.219  25.465  27.942  1.00  0.00     0.029 A 
ATOM     37  N   UNL A   1      41.726  26.995  28.556  1.00  0.00    -0.354 N 
ATOM     38  C   UNL A   1      45.891  26.197  28.737  1.00  0.00     0.074 A 
ATOM     39  C   UNL A   1      46.183  24.793  28.583  1.00  0.00     0.031 C 
ATOM     40  C   UNL A   1      39.576  26.633  28.065  1.00  0.00     0.029 A 
ATOM     41  C   UNL A   1      40.514  27.641  28.544  1.00  0.00     0.049 A 
ATOM     42  H   UNL A   1      42.573  27.441  28.785  1.00  0.00     0.167 HD
ATOM     43  C   UNL A   1      46.845  27.142  28.918  1.00  0.00     0.031 A 
ATOM     44  C   UNL A   1      40.163  28.883  28.934  1.00  0.00     0.031 A 
ATOM     45  C   UNL A   1      46.587  28.506  29.287  1.00  0.00     0.049 A 
ATOM     46  C   UNL A   1      41.209  29.814  29.467  1.00  0.00     0.074 A 
ATOM     47  C   UNL A   1      47.497  29.497  29.618  1.00  0.00     0.029 A 
ATOM     48  N   UNL A   1      45.326  29.046  29.458  1.00  0.00    -0.354 N 
ATOM     49  N   UNL A   1      42.512  29.676  29.469  1.00  0.00    -0.248 NA
ATOM     50  C   UNL A   1      40.733  31.062  30.083  1.00  0.00     0.031 C 
ATOM     51  C   UNL A   1      46.780  30.602  30.092  1.00  0.00     0.029 A 
ATOM     52  C   UNL A   1      45.428  30.324  29.981  1.00  0.00     0.049 A 
ATOM     53  H   UNL A   1      44.482  28.589  29.240  1.00  0.00     0.167 HD
ATOM     54  C   UNL A   1      43.011  30.816  30.084  1.00  0.00     0.074 A 
ATOM     55  C   UNL A   1      41.874  31.647  30.421  1.00  0.00     0.031 C 
ATOM     56  C   UNL A   1      44.301  31.139  30.348  1.00  0.00     0.031 A 
BRANCH  43  57
ATOM     57  C   UNL A   1      48.278  26.703  28.800  1.00  0.00    -0.014 A 
ATOM     58  C   UNL A   1      48.963  26.197  29.917  1.00  0.00     0.009 A 
ATOM     59  C   UNL A   1      48.935  26.758  27.564  1.00  0.00     0.009 A 
ATOM     60  C   UNL A   1      50.288  25.769  29.797  1.00  0.00     0.001 A 
ATOM     61  C   UNL A   1      50.256  26.321  27.445  1.00  0.00     0.001 A 
ATOM     62  C   UNL A   1      50.932  25.831  28.562  1.00  0.00     0.000 A 
ENDBRANCH  43  57
BRANCH  44  63
ATOM     63  C   UNL A   1      38.723  29.259  28.962  1.00  0.00    -0.014 A 
ATOM     64  C   UNL A   1      37.923  29.023  30.087  1.00  0.00     0.009 A 
ATOM     65  C   UNL A   1      38.143  29.866  27.833  1.00  0.00     0.009 A 
ATOM     66  C   UNL A   1      36.574  29.389  30.081  1.00  0.00     0.001 A 
ATOM     67  C   UNL A   1      36.807  30.265  27.843  1.00  0.00     0.001 A 
ATOM     68  C   UNL A   1      36.021  30.020  28.965  1.00  0.00     0.000 A 
ENDBRANCH  44  63
BRANCH  56  69
ATOM     69  C   UNL A   1      44.556  32.446  31.040  1.00  0.00    -0.014 A 
ATOM     70  C   UNL A   1      44.717  33.632  30.308  1.00  0.00     0.009 A 
ATOM     71  C   UNL A   1      44.611  32.495  32.441  1.00  0.00     0.009 A 
ATOM     72  C   UNL A   1      44.961  34.840  30.967  1.00  0.00     0.001 A 
ATOM     73  C   UNL A   1      44.829  33.708  33.097  1.00  0.00     0.001 A 
ATOM     74  C   UNL A   1      45.013  34.877  32.360  1.00  0.00     0.000 A 
ENDBRANCH  56  69
ENDBRANCH  30  31
ENDBRANCH  23  25
ENDBRANCH  22  23
ENDBRANCH  21  22
ENDBRANCH   1  21
TORSDOF 13
ENDMDL
MODEL 2
REMARK VINA RESULT:     -10.6      0.662      6.070
REMARK SMILES C[C@@H]1CC[C@@](C(=O)OCCOC(=O)c2ccc(-c3c4nc(c(-c5ccccc5)c5ccc([nH]5)c(-c5ccccc5)c5nc(c(-c6ccccc6)c6ccc3[nH]6)C=C5)C=C4)cc2)([C@@H]2CCC[C@H](S(C)(=O)=O)C2)C1
REMARK SMILES IDX 9 1 8 2 6 3 7 4 5 5 1 6 2 7 3 8 72 9 4 10 62 11 63 12 71 13
REMARK SMILES IDX 64 14 66 15 65 16 67 17 68 18 69 19 70 20 10 21 11 22 12 23
REMARK SMILES IDX 13 24 14 25 15 26 61 27 16 28 60 29 17 30 18 31 19 32 54 33
REMARK SMILES IDX 20 34 59 35 53 36 55 37 21 38 58 39 52 40 51 41 22 43 44 44
REMARK SMILES IDX 29 45 43 46 30 47 33 48 42 49 56 50 31 51 32 52 41 54 57 55
REMARK SMILES IDX 34 56 23 57 24 58 28 59 25 60 27 61 26 62 45 63 46 64 50 65
REMARK SMILES IDX 47 66 49 67 48 68 35 69 36 70 40 71 37 72 39 73 38 74
REMARK H PARENT 55 42 33 53
REMARK Flexibility Score: inf
ROOT
ATOM      1  C   UNL A   1      38.077  21.815  25.465  1.00  0.00     0.274 C 
ENDROOT
BRANCH   1   2
ATOM      2  O   UNL A   1      36.637  21.839  25.569  1.00  0.00    -0.462 OA
BRANCH   2   3
ATOM      3  C   UNL A   1      35.970  22.252  24.465  1.00  0.00     0.312 C 
ATOM      4  O   UNL A   1      36.522  22.547  23.406  1.00  0.00    -0.252 OA
BRANCH   3   5
ATOM      5  C   UNL A   1      34.442  22.417  24.666  1.00  0.00     0.071 C 
ATOM      6  C   UNL A   1      34.405  19.153  24.665  1.00  0.00     0.007 C 
ATOM      7  C   UNL A   1      33.440  20.209  25.202  1.00  0.00    -0.013 C 
ATOM      8  C   UNL A   1      32.624  20.841  24.092  1.00  0.00     0.004 C 
ATOM      9  C   UNL A   1      34.125  21.428  25.833  1.00  0.00     0.022 C 
ATOM     10  C   UNL A   1      33.541  21.907  23.504  1.00  0.00     0.019 C 
BRANCH   5  11
ATOM     11  C   UNL A   1      34.214  23.953  24.990  1.00  0.00     0.008 C 
ATOM     12  C   UNL A   1      33.149  24.274  26.053  1.00  0.00     0.005 C 
ATOM     13  C   UNL A   1      33.905  24.758  23.704  1.00  0.00     0.024 C 
ATOM     14  C   UNL A   1      33.064  25.780  26.315  1.00  0.00     0.002 C 
ATOM     15  C   UNL A   1      33.682  26.258  23.921  1.00  0.00     0.108 C 
ATOM     16  C   UNL A   1      32.703  26.552  25.053  1.00  0.00     0.020 C 
BRANCH  15  17
ATOM     17  S   UNL A   1      33.140  26.991  22.358  1.00  0.00     0.150 S 
ATOM     18  C   UNL A   1      34.041  28.509  22.242  1.00  0.00     0.158 C 
ATOM     19  O   UNL A   1      33.625  26.142  21.285  1.00  0.00    -0.229 OA
ATOM     20  O   UNL A   1      31.731  27.318  22.455  1.00  0.00    -0.229 OA
ENDBRANCH  15  17
ENDBRANCH   5  11
ENDBRANCH   3   5
ENDBRANCH   2   3
ENDBRANCH   1   2
BRANCH   1  21
ATOM     21  C   UNL A   1      38.580  20.406  25.177  1.00  0.00     0.275 C 
BRANCH  21  22
ATOM     22  O   UNL A   1      39.337  19.928  26.303  1.00  0.00    -0.458 OA
BRANCH  22  23
ATOM     23  C   UNL A   1      40.671  19.849  26.120  1.00  0.00     0.338 C 
ATOM     24  O   UNL A   1      41.290  18.905  25.635  1.00  0.00    -0.246 OA
BRANCH  23  25
ATOM     25  C   UNL A   1      41.332  21.063  26.633  1.00  0.00     0.060 A 
ATOM     26  C   UNL A   1      41.238  21.420  27.974  1.00  0.00     0.016 A 
ATOM     27  C   UNL A   1      41.979  21.918  25.741  1.00  0.00     0.016 A 
ATOM     28  C   UNL A   1      41.669  22.686  28.384  1.00  0.00     0.010 A 
ATOM     29  C   UNL A   1      42.518  23.134  26.187  1.00  0.00     0.010 A 
ATOM     30  C   UNL A   1      42.309  23.579  27.501  1.00  0.00    -0.014 A 
BRANCH  30  31
ATOM     31  C   UNL A   1      42.709  24.949  27.971  1.00  0.00     0.031 A 
ATOM     32  C   UNL A   1      41.708  26.086  28.099  1.00  0.00     0.074 A 
ATOM     33  C   UNL A   1      43.970  25.174  28.403  1.00  0.00     0.049 A 
ATOM     34  N   UNL A   1      41.858  27.247  28.700  1.00  0.00    -0.248 NA
ATOM     35  C   UNL A   1      40.361  25.893  27.542  1.00  0.00     0.031 C 
ATOM     36  C   UNL A   1      45.064  24.199  28.382  1.00  0.00     0.029 A 
ATOM     37  N   UNL A   1      44.543  26.292  28.965  1.00  0.00    -0.354 N 
ATOM     38  C   UNL A   1      40.612  27.865  28.668  1.00  0.00     0.074 A 
ATOM     39  C   UNL A   1      39.726  26.984  27.947  1.00  0.00     0.031 C 
ATOM     40  C   UNL A   1      46.148  24.738  28.954  1.00  0.00     0.029 A 
ATOM     41  C   UNL A   1      45.872  26.132  29.275  1.00  0.00     0.049 A 
ATOM     42  H   UNL A   1      44.047  27.126  29.129  1.00  0.00     0.167 HD
ATOM     43  C   UNL A   1      40.222  29.056  29.185  1.00  0.00     0.031 A 
ATOM     44  C   UNL A   1      46.797  27.012  29.706  1.00  0.00     0.031 A 
ATOM     45  C   UNL A   1      41.112  30.049  29.715  1.00  0.00     0.049 A 
ATOM     46  C   UNL A   1      46.406  28.439  29.946  1.00  0.00     0.074 A 
ATOM     47  C   UNL A   1      40.817  31.335  30.139  1.00  0.00     0.029 A 
ATOM     48  N   UNL A   1      42.484  29.901  29.812  1.00  0.00    -0.354 N 
ATOM     49  N   UNL A   1      45.210  28.974  29.965  1.00  0.00    -0.248 NA
ATOM     50  C   UNL A   1      47.498  29.392  30.194  1.00  0.00     0.031 C 
ATOM     51  C   UNL A   1      42.025  31.996  30.392  1.00  0.00     0.029 A 
ATOM     52  C   UNL A   1      43.061  31.098  30.198  1.00  0.00     0.049 A 
ATOM     53  H   UNL A   1      42.975  29.067  29.633  1.00  0.00     0.167 HD
ATOM     54  C   UNL A   1      45.405  30.324  30.225  1.00  0.00     0.074 A 
ATOM     55  C   UNL A   1      46.831  30.523  30.382  1.00  0.00     0.031 C 
ATOM     56  C   UNL A   1      44.479  31.308  30.322  1.00  0.00     0.031 A 
BRANCH  43  57
ATOM     57  C   UNL A   1      38.756  29.385  29.122  1.00  0.00    -0.014 A 
ATOM     58  C   UNL A   1      38.199  29.940  27.959  1.00  0.00     0.009 A 
ATOM     59  C   UNL A   1      37.922  29.104  30.212  1.00  0.00     0.009 A 
ATOM     60  C   UNL A   1      36.832  30.224  27.897  1.00  0.00     0.001 A 
ATOM     61  C   UNL A   1      36.554  29.380  30.145  1.00  0.00     0.001 A 
ATOM     62  C   UNL A   1      36.012  29.942  28.989  1.00  0.00     0.000 A 
ENDBRANCH  43  57
BRANCH  44  63
ATOM     63  C   UNL A   1      48.220  26.586  29.800  1.00  0.00    -0.014 A 
ATOM     64  C   UNL A   1      49.090  26.683  28.706  1.00  0.00     0.009 A 
ATOM     65  C   UNL A   1      48.712  26.071  31.013  1.00  0.00     0.009 A 
ATOM     66  C   UNL A   1      50.422  26.275  28.828  1.00  0.00     0.001 A 
ATOM     67  C   UNL A   1      50.049  25.701  31.143  1.00  0.00     0.001 A 
ATOM     68  C   UNL A   1      50.902  25.797  30.048  1.00  0.00     0.000 A 
ENDBRANCH  44  63
BRANCH  56  69
ATOM     69  C   UNL A   1      44.976  32.696  30.605  1.00  0.00    -0.014 A 
ATOM     70  C   UNL A   1      45.175  33.138  31.922  1.00  0.00     0.009 A 
ATOM     71  C   UNL A   1      45.273  33.562  29.542  1.00  0.00     0.009 A 
ATOM     72  C   UNL A   1      45.631  34.435  32.169  1.00  0.00     0.001 A 
ATOM     73  C   UNL A   1      45.754  34.848  29.792  1.00  0.00     0.001 A 
ATOM     74  C   UNL A   1      45.924  35.287  31.105  1.00  0.00     0.000 A 
ENDBRANCH  56  69
ENDBRANCH  30  31
ENDBRANCH  23  25
ENDBRANCH  22  23
ENDBRANCH  21  22
ENDBRANCH   1  21
TORSDOF 13
ENDMDL
MODEL 3
REMARK VINA RESULT:     -10.6      3.579      8.788
REMARK SMILES C[C@@H]1CC[C@@](C(=O)OCCOC(=O)c2ccc(-c3c4nc(c(-c5ccccc5)c5ccc([nH]5)c(-c5ccccc5)c5nc(c(-c6ccccc6)c6ccc3[nH]6)C=C5)C=C4)cc2)([C@@H]2CCC[C@H](S(C)(=O)=O)C2)C1
REMARK SMILES IDX 9 1 8 2 6 3 7 4 5 5 1 6 2 7 3 8 72 9 4 10 62 11 63 12 71 13
REMARK SMILES IDX 64 14 66 15 65 16 67 17 68 18 69 19 70 20 10 21 11 22 12 23
REMARK SMILES IDX 13 24 14 25 15 26 61 27 16 28 60 29 17 30 18 31 19 32 54 33
REMARK SMILES IDX 20 34 59 35 53 36 55 37 21 38 58 39 52 40 51 41 22 43 44 44
REMARK SMILES IDX 29 45 43 46 30 47 33 48 42 49 56 50 31 51 32 52 41 54 57 55
REMARK SMILES IDX 34 56 23 57 24 58 28 59 25 60 27 61 26 62 45 63 46 64 50 65
REMARK SMILES IDX 47 66 49 67 48 68 35 69 36 70 40 71 37 72 39 73 38 74
REMARK H PARENT 55 42 33 53
REMARK Flexibility Score: inf
ROOT
ATOM      1  C   UNL A   1      31.839  31.152  26.679  1.00  0.00     0.274 C 
ENDROOT
BRANCH   1   2
ATOM      2  O   UNL A   1      32.282  30.016  25.906  1.00  0.00    -0.462 OA
BRANCH   2   3
ATOM      3  C   UNL A   1      31.725  28.824  26.231  1.00  0.00     0.312 C 
ATOM      4  O   UNL A   1      31.371  28.526  27.370  1.00  0.00    -0.252 OA
BRANCH   3   5
ATOM      5  C   UNL A   1      31.649  27.814  25.059  1.00  0.00     0.071 C 
ATOM      6  C   UNL A   1      29.786  30.083  23.633  1.00  0.00     0.007 C 
ATOM      7  C   UNL A   1      30.605  28.912  23.092  1.00  0.00    -0.013 C 
ATOM      8  C   UNL A   1      29.906  27.586  23.318  1.00  0.00     0.004 C 
ATOM      9  C   UNL A   1      31.946  28.696  23.804  1.00  0.00     0.022 C 
ATOM     10  C   UNL A   1      30.242  27.218  24.759  1.00  0.00     0.019 C 
BRANCH   5  11
ATOM     11  C   UNL A   1      32.731  26.698  25.381  1.00  0.00     0.008 C 
ATOM     12  C   UNL A   1      33.558  26.186  24.190  1.00  0.00     0.005 C 
ATOM     13  C   UNL A   1      32.091  25.491  26.110  1.00  0.00     0.024 C 
ATOM     14  C   UNL A   1      34.600  25.159  24.640  1.00  0.00     0.002 C 
ATOM     15  C   UNL A   1      33.067  24.367  26.473  1.00  0.00     0.108 C 
ATOM     16  C   UNL A   1      33.951  23.952  25.303  1.00  0.00     0.020 C 
BRANCH  15  17
ATOM     17  S   UNL A   1      32.118  22.971  27.127  1.00  0.00     0.150 S 
ATOM     18  C   UNL A   1      32.146  21.769  25.830  1.00  0.00     0.158 C 
ATOM     19  O   UNL A   1      32.875  22.406  28.229  1.00  0.00    -0.229 OA
ATOM     20  O   UNL A   1      30.742  23.386  27.319  1.00  0.00    -0.229 OA
ENDBRANCH  15  17
ENDBRANCH   5  11
ENDBRANCH   3   5
ENDBRANCH   2   3
ENDBRANCH   1   2
BRANCH   1  21
ATOM     21  C   UNL A   1      33.001  31.789  27.429  1.00  0.00     0.275 C 
BRANCH  21  22
ATOM     22  O   UNL A   1      32.971  33.214  27.239  1.00  0.00    -0.458 OA
BRANCH  22  23
ATOM     23  C   UNL A   1      33.203  33.957  28.340  1.00  0.00     0.338 C 
ATOM     24  O   UNL A   1      32.478  34.836  28.798  1.00  0.00    -0.246 OA
BRANCH  23  25
ATOM     25  C   UNL A   1      34.507  33.603  28.933  1.00  0.00     0.060 A 
ATOM     26  C   UNL A   1      35.685  33.729  28.204  1.00  0.00     0.016 A 
ATOM     27  C   UNL A   1      34.548  33.042  30.209  1.00  0.00     0.016 A 
ATOM     28  C   UNL A   1      36.866  33.170  28.700  1.00  0.00     0.010 A 
ATOM     29  C   UNL A   1      35.763  32.594  30.749  1.00  0.00     0.010 A 
ATOM     30  C   UNL A   1      36.934  32.579  29.978  1.00  0.00    -0.014 A 
BRANCH  30  31
ATOM     31  C   UNL A   1      38.213  31.944  30.449  1.00  0.00     0.031 A 
ATOM     32  C   UNL A   1      38.649  30.562  29.989  1.00  0.00     0.074 A 
ATOM     33  C   UNL A   1      39.071  32.647  31.221  1.00  0.00     0.049 A 
ATOM     34  N   UNL A   1      39.822  29.984  30.129  1.00  0.00    -0.248 NA
ATOM     35  C   UNL A   1      37.688  29.745  29.234  1.00  0.00     0.031 C 
ATOM     36  C   UNL A   1      38.839  33.996  31.741  1.00  0.00     0.029 A 
ATOM     37  N   UNL A   1      40.327  32.330  31.688  1.00  0.00    -0.354 N 
ATOM     38  C   UNL A   1      39.757  28.795  29.410  1.00  0.00     0.074 A 
ATOM     39  C   UNL A   1      38.421  28.700  28.875  1.00  0.00     0.031 C 
ATOM     40  C   UNL A   1      39.929  34.410  32.402  1.00  0.00     0.029 A 
ATOM     41  C   UNL A   1      40.892  33.318  32.457  1.00  0.00     0.049 A 
ATOM     42  H   UNL A   1      40.776  31.477  31.490  1.00  0.00     0.167 HD
ATOM     43  C   UNL A   1      40.712  27.855  29.203  1.00  0.00     0.031 A 
ATOM     44  C   UNL A   1      42.024  33.338  33.189  1.00  0.00     0.031 A 
ATOM     45  C   UNL A   1      41.973  27.803  29.887  1.00  0.00     0.049 A 
ATOM     46  C   UNL A   1      42.910  32.129  33.216  1.00  0.00     0.074 A 
ATOM     47  C   UNL A   1      42.944  26.816  29.835  1.00  0.00     0.029 A 
ATOM     48  N   UNL A   1      42.400  28.736  30.814  1.00  0.00    -0.354 N 
ATOM     49  N   UNL A   1      42.850  31.048  32.478  1.00  0.00    -0.248 NA
ATOM     50  C   UNL A   1      44.001  32.129  34.202  1.00  0.00     0.031 C 
ATOM     51  C   UNL A   1      43.906  27.102  30.811  1.00  0.00     0.029 A 
ATOM     52  C   UNL A   1      43.571  28.304  31.412  1.00  0.00     0.049 A 
ATOM     53  H   UNL A   1      41.938  29.581  31.019  1.00  0.00     0.167 HD
ATOM     54  C   UNL A   1      43.894  30.240  32.909  1.00  0.00     0.074 A 
ATOM     55  C   UNL A   1      44.586  30.964  33.955  1.00  0.00     0.031 C 
ATOM     56  C   UNL A   1      44.242  29.004  32.474  1.00  0.00     0.031 A 
BRANCH  43  57
ATOM     57  C   UNL A   1      40.386  26.745  28.242  1.00  0.00    -0.014 A 
ATOM     58  C   UNL A   1      40.865  26.779  26.923  1.00  0.00     0.009 A 
ATOM     59  C   UNL A   1      39.630  25.643  28.666  1.00  0.00     0.009 A 
ATOM     60  C   UNL A   1      40.578  25.734  26.041  1.00  0.00     0.001 A 
ATOM     61  C   UNL A   1      39.353  24.595  27.785  1.00  0.00     0.001 A 
ATOM     62  C   UNL A   1      39.823  24.644  26.473  1.00  0.00     0.000 A 
ENDBRANCH  43  57
BRANCH  44  63
ATOM     63  C   UNL A   1      42.304  34.506  34.068  1.00  0.00    -0.014 A 
ATOM     64  C   UNL A   1      43.072  35.590  33.627  1.00  0.00     0.009 A 
ATOM     65  C   UNL A   1      41.788  34.529  35.377  1.00  0.00     0.009 A 
ATOM     66  C   UNL A   1      43.315  36.673  34.478  1.00  0.00     0.001 A 
ATOM     67  C   UNL A   1      41.999  35.626  36.210  1.00  0.00     0.001 A 
ATOM     68  C   UNL A   1      42.769  36.695  35.762  1.00  0.00     0.000 A 
ENDBRANCH  44  63
BRANCH  56  69
ATOM     69  C   UNL A   1      45.422  28.350  33.132  1.00  0.00    -0.014 A 
ATOM     70  C   UNL A   1      46.725  28.568  32.661  1.00  0.00     0.009 A 
ATOM     71  C   UNL A   1      45.230  27.526  34.251  1.00  0.00     0.009 A 
ATOM     72  C   UNL A   1      47.813  27.946  33.279  1.00  0.00     0.001 A 
ATOM     73  C   UNL A   1      46.321  26.927  34.883  1.00  0.00     0.001 A 
ATOM     74  C   UNL A   1      47.610  27.129  34.391  1.00  0.00     0.000 A 
ENDBRANCH  56  69
ENDBRANCH  30  31
ENDBRANCH  23  25
ENDBRANCH  22  23
ENDBRANCH  21  22
ENDBRANCH   1  21
TORSDOF 13
ENDMDL
