MODEL 1
REMARK VINA RESULT:     -10.0      0.000      0.000
REMARK SMILES C[C@H](Oc1cc2oc(=O)cc(-c3ccccc3)c2cc1Cl)C(=O)OCCOC(=O)c1ccc(-c2c3nc(c(-c4ccccc4)c4ccc([nH]4)c(-c4ccccc4)c4nc(c(-c5ccccc5)c5ccc2[nH]5)C=C4)C=C3)cc1
REMARK SMILES IDX 25 1 24 2 22 3 23 4 2 5 1 6 3 7 4 8 5 9 20 10 6 11 19 12
REMARK SMILES IDX 21 13 7 14 18 15 8 16 11 17 9 18 10 19 12 20 13 21 17 22
REMARK SMILES IDX 14 23 16 24 15 25 26 26 27 27 28 28 29 29 30 30 31 31 77 32
REMARK SMILES IDX 32 33 76 34 33 35 34 36 35 37 70 38 36 39 75 40 69 41 71 42
REMARK SMILES IDX 37 43 74 44 68 45 67 46 38 48 60 49 45 50 59 51 46 52 49 53
REMARK SMILES IDX 58 54 72 55 47 56 48 57 57 59 73 60 50 61 39 62 40 63 44 64
REMARK SMILES IDX 41 65 43 66 42 67 61 68 62 69 66 70 63 71 65 72 64 73 51 74
REMARK SMILES IDX 52 75 56 76 53 77 55 78 54 79
REMARK H PARENT 71 47 49 58
REMARK Flexibility Score: inf
ROOT
ATOM      1  C   UNL A   1      33.390  34.290  28.970  1.00  0.00     0.274 C 
ENDROOT
BRANCH   1   2
ATOM      2  O   UNL A   1      33.672  34.249  30.380  1.00  0.00    -0.459 OA
BRANCH   2   3
ATOM      3  C   UNL A   1      33.501  35.409  31.073  1.00  0.00     0.347 C 
ATOM      4  O   UNL A   1      32.858  36.375  30.675  1.00  0.00    -0.248 OA
BRANCH   3   5
ATOM      5  C   UNL A   1      34.297  35.422  32.382  1.00  0.00     0.279 C 
ATOM      6  C   UNL A   1      34.132  36.826  32.970  1.00  0.00     0.066 C 
BRANCH   5   7
ATOM      7  O   UNL A   1      35.641  35.022  32.108  1.00  0.00    -0.477 OA
BRANCH   7   8
ATOM      8  C   UNL A   1      36.219  33.951  32.726  1.00  0.00     0.142 A 
ATOM      9  C   UNL A   1      36.119  33.670  34.083  1.00  0.00     0.096 A 
ATOM     10  C   UNL A   1      37.025  33.115  31.933  1.00  0.00     0.084 A 
ATOM     11  C   UNL A   1      36.950  32.700  34.650  1.00  0.00     0.142 A 
ATOM     12  C   UNL A   1      37.795  32.092  32.507  1.00  0.00     0.037 A 
ATOM     13  Cl  UNL A   1      37.142  33.338  30.222  1.00  0.00    -0.080 Cl
ATOM     14  O   UNL A   1      36.915  32.613  36.053  1.00  0.00    -0.423 OA
ATOM     15  C   UNL A   1      37.817  31.915  33.892  1.00  0.00     0.027 A 
ATOM     16  C   UNL A   1      37.859  31.867  36.733  1.00  0.00     0.336 A 
ATOM     17  C   UNL A   1      38.727  30.980  34.580  1.00  0.00    -0.000 A 
ATOM     18  O   UNL A   1      37.952  31.887  37.955  1.00  0.00    -0.246 OA
ATOM     19  C   UNL A   1      38.741  31.015  35.924  1.00  0.00     0.103 A 
BRANCH  17  20
ATOM     20  C   UNL A   1      39.691  30.051  33.948  1.00  0.00    -0.017 A 
ATOM     21  C   UNL A   1      39.231  28.948  33.212  1.00  0.00     0.009 A 
ATOM     22  C   UNL A   1      41.072  30.246  34.087  1.00  0.00     0.009 A 
ATOM     23  C   UNL A   1      40.135  28.059  32.627  1.00  0.00     0.001 A 
ATOM     24  C   UNL A   1      41.974  29.362  33.490  1.00  0.00     0.001 A 
ATOM     25  C   UNL A   1      41.506  28.269  32.763  1.00  0.00     0.000 A 
ENDBRANCH  17  20
ENDBRANCH   7   8
ENDBRANCH   5   7
ENDBRANCH   3   5
ENDBRANCH   2   3
ENDBRANCH   1   2
BRANCH   1  26
ATOM     26  C   UNL A   1      34.182  33.238  28.189  1.00  0.00     0.275 C 
BRANCH  26  27
ATOM     27  O   UNL A   1      34.401  32.049  28.969  1.00  0.00    -0.458 OA
BRANCH  27  28
ATOM     28  C   UNL A   1      34.462  30.903  28.250  1.00  0.00     0.338 C 
ATOM     29  O   UNL A   1      33.612  30.453  27.503  1.00  0.00    -0.246 OA
BRANCH  28  30
ATOM     30  C   UNL A   1      35.800  30.305  28.379  1.00  0.00     0.060 A 
ATOM     31  C   UNL A   1      36.201  29.867  29.647  1.00  0.00     0.016 A 
ATOM     32  C   UNL A   1      36.674  30.236  27.293  1.00  0.00     0.016 A 
ATOM     33  C   UNL A   1      37.481  29.359  29.835  1.00  0.00     0.010 A 
ATOM     34  C   UNL A   1      37.964  29.734  27.486  1.00  0.00     0.010 A 
ATOM     35  C   UNL A   1      38.378  29.305  28.759  1.00  0.00    -0.014 A 
BRANCH  35  36
ATOM     36  C   UNL A   1      39.772  28.861  28.986  1.00  0.00     0.031 A 
ATOM     37  C   UNL A   1      40.764  29.810  29.592  1.00  0.00     0.074 A 
ATOM     38  C   UNL A   1      40.138  27.606  28.668  1.00  0.00     0.049 A 
ATOM     39  N   UNL A   1      42.041  29.635  29.819  1.00  0.00    -0.248 NA
ATOM     40  C   UNL A   1      40.252  31.129  29.996  1.00  0.00     0.031 C 
ATOM     41  C   UNL A   1      39.253  26.580  28.119  1.00  0.00     0.029 A 
ATOM     42  N   UNL A   1      41.358  26.985  28.761  1.00  0.00    -0.354 N 
ATOM     43  C   UNL A   1      42.490  30.825  30.377  1.00  0.00     0.074 A 
ATOM     44  C   UNL A   1      41.353  31.719  30.440  1.00  0.00     0.031 C 
ATOM     45  C   UNL A   1      39.960  25.454  27.925  1.00  0.00     0.029 A 
ATOM     46  C   UNL A   1      41.352  25.695  28.294  1.00  0.00     0.049 A 
ATOM     47  H   UNL A   1      42.160  27.424  29.127  1.00  0.00     0.167 HD
ATOM     48  C   UNL A   1      43.736  31.143  30.801  1.00  0.00     0.031 A 
ATOM     49  C   UNL A   1      42.362  24.815  28.158  1.00  0.00     0.031 A 
ATOM     50  C   UNL A   1      44.866  30.255  30.733  1.00  0.00     0.049 A 
ATOM     51  C   UNL A   1      43.750  25.217  28.570  1.00  0.00     0.074 A 
ATOM     52  C   UNL A   1      46.169  30.485  31.142  1.00  0.00     0.029 A 
ATOM     53  N   UNL A   1      44.828  28.968  30.219  1.00  0.00    -0.354 N 
ATOM     54  N   UNL A   1      44.162  26.344  29.100  1.00  0.00    -0.248 NA
ATOM     55  C   UNL A   1      44.815  24.225  28.364  1.00  0.00     0.031 C 
ATOM     56  C   UNL A   1      46.929  29.351  30.833  1.00  0.00     0.029 A 
ATOM     57  C   UNL A   1      46.089  28.400  30.279  1.00  0.00     0.049 A 
ATOM     58  H   UNL A   1      44.024  28.526  29.864  1.00  0.00     0.167 HD
ATOM     59  C   UNL A   1      45.524  26.187  29.314  1.00  0.00     0.074 A 
ATOM     60  C   UNL A   1      45.868  24.852  28.868  1.00  0.00     0.031 C 
ATOM     61  C   UNL A   1      46.413  27.069  29.833  1.00  0.00     0.031 A 
BRANCH  48  62
ATOM     62  C   UNL A   1      43.949  32.528  31.342  1.00  0.00    -0.014 A 
ATOM     63  C   UNL A   1      43.820  32.803  32.712  1.00  0.00     0.009 A 
ATOM     64  C   UNL A   1      44.318  33.564  30.472  1.00  0.00     0.009 A 
ATOM     65  C   UNL A   1      44.027  34.097  33.194  1.00  0.00     0.001 A 
ATOM     66  C   UNL A   1      44.549  34.851  30.959  1.00  0.00     0.001 A 
ATOM     67  C   UNL A   1      44.395  35.118  32.318  1.00  0.00     0.000 A 
ENDBRANCH  48  62
BRANCH  49  68
ATOM     68  C   UNL A   1      42.104  23.471  27.579  1.00  0.00    -0.014 A 
ATOM     69  C   UNL A   1      41.609  22.430  28.378  1.00  0.00     0.009 A 
ATOM     70  C   UNL A   1      42.365  23.221  26.222  1.00  0.00     0.009 A 
ATOM     71  C   UNL A   1      41.401  21.160  27.834  1.00  0.00     0.001 A 
ATOM     72  C   UNL A   1      42.131  21.959  25.675  1.00  0.00     0.001 A 
ATOM     73  C   UNL A   1      41.658  20.927  26.484  1.00  0.00     0.000 A 
ENDBRANCH  49  68
BRANCH  61  74
ATOM     74  C   UNL A   1      47.833  26.605  29.981  1.00  0.00    -0.014 A 
ATOM     75  C   UNL A   1      48.279  25.986  31.158  1.00  0.00     0.009 A 
ATOM     76  C   UNL A   1      48.727  26.758  28.908  1.00  0.00     0.009 A 
ATOM     77  C   UNL A   1      49.603  25.554  31.268  1.00  0.00     0.001 A 
ATOM     78  C   UNL A   1      50.041  26.301  29.013  1.00  0.00     0.001 A 
ATOM     79  C   UNL A   1      50.480  25.708  30.196  1.00  0.00     0.000 A 
ENDBRANCH  61  74
ENDBRANCH  35  36
ENDBRANCH  28  30
ENDBRANCH  27  28
ENDBRANCH  26  27
ENDBRANCH   1  26
TORSDOF 14
ENDMDL
MODEL 2
REMARK VINA RESULT:      -9.8      5.380     11.415
REMARK SMILES C[C@H](Oc1cc2oc(=O)cc(-c3ccccc3)c2cc1Cl)C(=O)OCCOC(=O)c1ccc(-c2c3nc(c(-c4ccccc4)c4ccc([nH]4)c(-c4ccccc4)c4nc(c(-c5ccccc5)c5ccc2[nH]5)C=C4)C=C3)cc1
REMARK SMILES IDX 25 1 24 2 22 3 23 4 2 5 1 6 3 7 4 8 5 9 20 10 6 11 19 12
REMARK SMILES IDX 21 13 7 14 18 15 8 16 11 17 9 18 10 19 12 20 13 21 17 22
REMARK SMILES IDX 14 23 16 24 15 25 26 26 27 27 28 28 29 29 30 30 31 31 77 32
REMARK SMILES IDX 32 33 76 34 33 35 34 36 35 37 70 38 36 39 75 40 69 41 71 42
REMARK SMILES IDX 37 43 74 44 68 45 67 46 38 48 60 49 45 50 59 51 46 52 49 53
REMARK SMILES IDX 58 54 72 55 47 56 48 57 57 59 73 60 50 61 39 62 40 63 44 64
REMARK SMILES IDX 41 65 43 66 42 67 61 68 62 69 66 70 63 71 65 72 64 73 51 74
REMARK SMILES IDX 52 75 56 76 53 77 55 78 54 79
REMARK H PARENT 71 47 49 58
REMARK Flexibility Score: inf
ROOT
ATOM      1  C   UNL A   1      43.764  21.659  25.384  1.00  0.00     0.274 C 
ENDROOT
BRANCH   1   2
ATOM      2  O   UNL A   1      42.331  21.770  25.449  1.00  0.00    -0.459 OA
BRANCH   2   3
ATOM      3  C   UNL A   1      41.749  21.492  26.649  1.00  0.00     0.347 C 
ATOM      4  O   UNL A   1      42.311  21.575  27.737  1.00  0.00    -0.248 OA
BRANCH   3   5
ATOM      5  C   UNL A   1      40.325  20.952  26.488  1.00  0.00     0.279 C 
ATOM      6  C   UNL A   1      40.467  19.482  26.082  1.00  0.00     0.066 C 
BRANCH   5   7
ATOM      7  O   UNL A   1      39.618  21.781  25.565  1.00  0.00    -0.477 OA
BRANCH   7   8
ATOM      8  C   UNL A   1      38.285  22.043  25.698  1.00  0.00     0.142 A 
ATOM      9  C   UNL A   1      37.270  21.127  25.449  1.00  0.00     0.096 A 
ATOM     10  C   UNL A   1      37.923  23.355  26.050  1.00  0.00     0.084 A 
ATOM     11  C   UNL A   1      35.946  21.568  25.371  1.00  0.00     0.142 A 
ATOM     12  C   UNL A   1      36.581  23.764  26.044  1.00  0.00     0.037 A 
ATOM     13  Cl  UNL A   1      39.116  24.538  26.459  1.00  0.00    -0.080 Cl
ATOM     14  O   UNL A   1      35.010  20.614  24.932  1.00  0.00    -0.423 OA
ATOM     15  C   UNL A   1      35.575  22.885  25.637  1.00  0.00     0.027 A 
ATOM     16  C   UNL A   1      33.728  20.997  24.590  1.00  0.00     0.336 A 
ATOM     17  C   UNL A   1      34.170  23.289  25.441  1.00  0.00    -0.000 A 
ATOM     18  O   UNL A   1      32.934  20.225  24.064  1.00  0.00    -0.246 OA
ATOM     19  C   UNL A   1      33.338  22.376  24.910  1.00  0.00     0.103 A 
BRANCH  17  20
ATOM     20  C   UNL A   1      33.585  24.625  25.696  1.00  0.00    -0.017 A 
ATOM     21  C   UNL A   1      34.309  25.786  25.382  1.00  0.00     0.009 A 
ATOM     22  C   UNL A   1      32.312  24.754  26.268  1.00  0.00     0.009 A 
ATOM     23  C   UNL A   1      33.770  27.049  25.635  1.00  0.00     0.001 A 
ATOM     24  C   UNL A   1      31.769  26.019  26.507  1.00  0.00     0.001 A 
ATOM     25  C   UNL A   1      32.498  27.164  26.194  1.00  0.00     0.000 A 
ENDBRANCH  17  20
ENDBRANCH   7   8
ENDBRANCH   5   7
ENDBRANCH   3   5
ENDBRANCH   2   3
ENDBRANCH   1   2
BRANCH   1  26
ATOM     26  C   UNL A   1      44.383  22.698  24.444  1.00  0.00     0.275 C 
BRANCH  26  27
ATOM     27  O   UNL A   1      43.743  23.980  24.573  1.00  0.00    -0.458 OA
BRANCH  27  28
ATOM     28  C   UNL A   1      44.522  24.952  25.106  1.00  0.00     0.338 C 
ATOM     29  O   UNL A   1      45.618  25.314  24.720  1.00  0.00    -0.246 OA
BRANCH  28  30
ATOM     30  C   UNL A   1      43.789  25.646  26.176  1.00  0.00     0.060 A 
ATOM     31  C   UNL A   1      44.085  26.995  26.402  1.00  0.00     0.016 A 
ATOM     32  C   UNL A   1      42.878  24.972  26.990  1.00  0.00     0.016 A 
ATOM     33  C   UNL A   1      43.471  27.677  27.447  1.00  0.00     0.010 A 
ATOM     34  C   UNL A   1      42.268  25.656  28.046  1.00  0.00     0.010 A 
ATOM     35  C   UNL A   1      42.571  27.007  28.287  1.00  0.00    -0.014 A 
BRANCH  35  36
ATOM     36  C   UNL A   1      41.999  27.708  29.458  1.00  0.00     0.031 A 
ATOM     37  C   UNL A   1      40.679  28.411  29.330  1.00  0.00     0.074 A 
ATOM     38  C   UNL A   1      42.651  27.696  30.634  1.00  0.00     0.049 A 
ATOM     39  N   UNL A   1      40.036  29.127  30.217  1.00  0.00    -0.248 NA
ATOM     40  C   UNL A   1      39.992  28.291  28.035  1.00  0.00     0.031 C 
ATOM     41  C   UNL A   1      43.915  27.008  30.894  1.00  0.00     0.029 A 
ATOM     42  N   UNL A   1      42.336  28.287  31.832  1.00  0.00    -0.354 N 
ATOM     43  C   UNL A   1      38.877  29.557  29.583  1.00  0.00     0.074 A 
ATOM     44  C   UNL A   1      38.912  29.035  28.234  1.00  0.00     0.031 C 
ATOM     45  C   UNL A   1      44.268  27.215  32.173  1.00  0.00     0.029 A 
ATOM     46  C   UNL A   1      43.280  28.083  32.808  1.00  0.00     0.049 A 
ATOM     47  H   UNL A   1      41.513  28.806  31.977  1.00  0.00     0.167 HD
ATOM     48  C   UNL A   1      37.873  30.317  30.082  1.00  0.00     0.031 A 
ATOM     49  C   UNL A   1      43.349  28.562  34.063  1.00  0.00     0.031 A 
ATOM     50  C   UNL A   1      37.841  30.839  31.423  1.00  0.00     0.049 A 
ATOM     51  C   UNL A   1      42.257  29.462  34.570  1.00  0.00     0.074 A 
ATOM     52  C   UNL A   1      36.864  31.616  32.022  1.00  0.00     0.029 A 
ATOM     53  N   UNL A   1      38.834  30.642  32.369  1.00  0.00    -0.354 N 
ATOM     54  N   UNL A   1      41.164  29.859  33.963  1.00  0.00    -0.248 NA
ATOM     55  C   UNL A   1      42.408  29.981  35.937  1.00  0.00     0.031 C 
ATOM     56  C   UNL A   1      37.289  31.925  33.319  1.00  0.00     0.029 A 
ATOM     57  C   UNL A   1      38.504  31.300  33.542  1.00  0.00     0.049 A 
ATOM     58  H   UNL A   1      39.652  30.112  32.228  1.00  0.00     0.167 HD
ATOM     59  C   UNL A   1      40.487  30.651  34.880  1.00  0.00     0.074 A 
ATOM     60  C   UNL A   1      41.285  30.669  36.089  1.00  0.00     0.031 C 
ATOM     61  C   UNL A   1      39.309  31.305  34.736  1.00  0.00     0.031 A 
BRANCH  48  62
ATOM     62  C   UNL A   1      36.741  30.660  29.156  1.00  0.00    -0.014 A 
ATOM     63  C   UNL A   1      35.807  29.691  28.756  1.00  0.00     0.009 A 
ATOM     64  C   UNL A   1      36.587  31.980  28.707  1.00  0.00     0.009 A 
ATOM     65  C   UNL A   1      34.760  30.034  27.898  1.00  0.00     0.001 A 
ATOM     66  C   UNL A   1      35.526  32.324  27.870  1.00  0.00     0.001 A 
ATOM     67  C   UNL A   1      34.618  31.350  27.459  1.00  0.00     0.000 A 
ENDBRANCH  48  62
BRANCH  49  68
ATOM     68  C   UNL A   1      44.512  28.225  34.925  1.00  0.00    -0.014 A 
ATOM     69  C   UNL A   1      45.674  29.011  34.900  1.00  0.00     0.009 A 
ATOM     70  C   UNL A   1      44.468  27.103  35.769  1.00  0.00     0.009 A 
ATOM     71  C   UNL A   1      46.775  28.667  35.688  1.00  0.00     0.001 A 
ATOM     72  C   UNL A   1      45.560  26.778  36.574  1.00  0.00     0.001 A 
ATOM     73  C   UNL A   1      46.716  27.556  36.526  1.00  0.00     0.000 A 
ENDBRANCH  49  68
BRANCH  61  74
ATOM     74  C   UNL A   1      38.796  32.065  35.925  1.00  0.00    -0.014 A 
ATOM     75  C   UNL A   1      38.027  31.436  36.916  1.00  0.00     0.009 A 
ATOM     76  C   UNL A   1      39.122  33.423  36.073  1.00  0.00     0.009 A 
ATOM     77  C   UNL A   1      37.569  32.161  38.018  1.00  0.00     0.001 A 
ATOM     78  C   UNL A   1      38.684  34.138  37.189  1.00  0.00     0.001 A 
ATOM     79  C   UNL A   1      37.902  33.508  38.155  1.00  0.00     0.000 A 
ENDBRANCH  61  74
ENDBRANCH  35  36
ENDBRANCH  28  30
ENDBRANCH  27  28
ENDBRANCH  26  27
ENDBRANCH   1  26
TORSDOF 14
ENDMDL
MODEL 3
REMARK VINA RESULT:      -9.7      5.018     11.141
REMARK SMILES C[C@H](Oc1cc2oc(=O)cc(-c3ccccc3)c2cc1Cl)C(=O)OCCOC(=O)c1ccc(-c2c3nc(c(-c4ccccc4)c4ccc([nH]4)c(-c4ccccc4)c4nc(c(-c5ccccc5)c5ccc2[nH]5)C=C4)C=C3)cc1
REMARK SMILES IDX 25 1 24 2 22 3 23 4 2 5 1 6 3 7 4 8 5 9 20 10 6 11 19 12
REMARK SMILES IDX 21 13 7 14 18 15 8 16 11 17 9 18 10 19 12 20 13 21 17 22
REMARK SMILES IDX 14 23 16 24 15 25 26 26 27 27 28 28 29 29 30 30 31 31 77 32
REMARK SMILES IDX 32 33 76 34 33 35 34 36 35 37 70 38 36 39 75 40 69 41 71 42
REMARK SMILES IDX 37 43 74 44 68 45 67 46 38 48 60 49 45 50 59 51 46 52 49 53
REMARK SMILES IDX 58 54 72 55 47 56 48 57 57 59 73 60 50 61 39 62 40 63 44 64
REMARK SMILES IDX 41 65 43 66 42 67 61 68 62 69 66 70 63 71 65 72 64 73 51 74
REMARK SMILES IDX 52 75 56 76 53 77 55 78 54 79
REMARK H PARENT 71 47 49 58
REMARK Flexibility Score: inf
ROOT
ATOM      1  C   UNL A   1      41.822  19.982  26.429  1.00  0.00     0.274 C 
ENDROOT
BRANCH   1   2
ATOM      2  O   UNL A   1      42.739  20.349  25.383  1.00  0.00    -0.459 OA
BRANCH   2   3
ATOM      3  C   UNL A   1      43.848  19.570  25.240  1.00  0.00     0.347 C 
ATOM      4  O   UNL A   1      43.854  18.344  25.282  1.00  0.00    -0.248 OA
BRANCH   3   5
ATOM      5  C   UNL A   1      45.128  20.404  25.124  1.00  0.00     0.279 C 
ATOM      6  C   UNL A   1      46.294  19.422  25.270  1.00  0.00     0.066 C 
BRANCH   5   7
ATOM      7  O   UNL A   1      45.082  21.455  26.090  1.00  0.00    -0.477 OA
BRANCH   7   8
ATOM      8  C   UNL A   1      45.193  22.769  25.738  1.00  0.00     0.142 A 
ATOM      9  C   UNL A   1      46.163  23.282  24.885  1.00  0.00     0.096 A 
ATOM     10  C   UNL A   1      44.294  23.669  26.337  1.00  0.00     0.084 A 
ATOM     11  C   UNL A   1      46.340  24.665  24.793  1.00  0.00     0.142 A 
ATOM     12  C   UNL A   1      44.436  25.055  26.171  1.00  0.00     0.037 A 
ATOM     13  Cl  UNL A   1      43.003  23.113  27.344  1.00  0.00    -0.080 Cl
ATOM     14  O   UNL A   1      47.461  25.089  24.057  1.00  0.00    -0.423 OA
ATOM     15  C   UNL A   1      45.510  25.575  25.445  1.00  0.00     0.027 A 
ATOM     16  C   UNL A   1      47.868  26.408  24.098  1.00  0.00     0.336 A 
ATOM     17  C   UNL A   1      45.822  27.014  25.370  1.00  0.00    -0.000 A 
ATOM     18  O   UNL A   1      48.921  26.784  23.593  1.00  0.00    -0.246 OA
ATOM     19  C   UNL A   1      46.966  27.363  24.755  1.00  0.00     0.103 A 
BRANCH  17  20
ATOM     20  C   UNL A   1      45.047  28.125  25.968  1.00  0.00    -0.017 A 
ATOM     21  C   UNL A   1      43.655  28.188  25.798  1.00  0.00     0.009 A 
ATOM     22  C   UNL A   1      45.687  29.135  26.698  1.00  0.00     0.009 A 
ATOM     23  C   UNL A   1      42.920  29.242  26.346  1.00  0.00     0.001 A 
ATOM     24  C   UNL A   1      44.948  30.181  27.257  1.00  0.00     0.001 A 
ATOM     25  C   UNL A   1      43.567  30.235  27.079  1.00  0.00     0.000 A 
ENDBRANCH  17  20
ENDBRANCH   7   8
ENDBRANCH   5   7
ENDBRANCH   3   5
ENDBRANCH   2   3
ENDBRANCH   1   2
BRANCH   1  26
ATOM     26  C   UNL A   1      40.406  20.500  26.166  1.00  0.00     0.275 C 
BRANCH  26  27
ATOM     27  O   UNL A   1      40.119  21.681  26.936  1.00  0.00    -0.458 OA
BRANCH  27  28
ATOM     28  C   UNL A   1      39.343  22.595  26.307  1.00  0.00     0.338 C 
ATOM     29  O   UNL A   1      38.515  22.388  25.439  1.00  0.00    -0.246 OA
BRANCH  28  30
ATOM     30  C   UNL A   1      39.530  23.917  26.924  1.00  0.00     0.060 A 
ATOM     31  C   UNL A   1      40.246  24.880  26.203  1.00  0.00     0.016 A 
ATOM     32  C   UNL A   1      39.072  24.189  28.215  1.00  0.00     0.016 A 
ATOM     33  C   UNL A   1      40.509  26.122  26.772  1.00  0.00     0.010 A 
ATOM     34  C   UNL A   1      39.346  25.434  28.788  1.00  0.00     0.010 A 
ATOM     35  C   UNL A   1      40.076  26.401  28.075  1.00  0.00    -0.014 A 
BRANCH  35  36
ATOM     36  C   UNL A   1      40.447  27.684  28.714  1.00  0.00     0.031 A 
ATOM     37  C   UNL A   1      41.827  27.860  29.277  1.00  0.00     0.074 A 
ATOM     38  C   UNL A   1      39.557  28.690  28.769  1.00  0.00     0.049 A 
ATOM     39  N   UNL A   1      42.330  28.881  29.924  1.00  0.00    -0.248 NA
ATOM     40  C   UNL A   1      42.764  26.742  29.088  1.00  0.00     0.031 C 
ATOM     41  C   UNL A   1      38.204  28.655  28.215  1.00  0.00     0.029 A 
ATOM     42  N   UNL A   1      39.662  29.941  29.324  1.00  0.00    -0.354 N 
ATOM     43  C   UNL A   1      43.637  28.522  30.232  1.00  0.00     0.074 A 
ATOM     44  C   UNL A   1      43.843  27.186  29.716  1.00  0.00     0.031 C 
ATOM     45  C   UNL A   1      37.604  29.832  28.456  1.00  0.00     0.029 A 
ATOM     46  C   UNL A   1      38.513  30.684  29.219  1.00  0.00     0.049 A 
ATOM     47  H   UNL A   1      40.481  30.272  29.757  1.00  0.00     0.167 HD
ATOM     48  C   UNL A   1      44.579  29.243  30.886  1.00  0.00     0.031 A 
ATOM     49  C   UNL A   1      38.220  31.905  29.703  1.00  0.00     0.031 A 
ATOM     50  C   UNL A   1      44.370  30.570  31.403  1.00  0.00     0.049 A 
ATOM     51  C   UNL A   1      39.260  32.656  30.486  1.00  0.00     0.074 A 
ATOM     52  C   UNL A   1      45.266  31.384  32.075  1.00  0.00     0.029 A 
ATOM     53  N   UNL A   1      43.180  31.275  31.308  1.00  0.00    -0.354 N 
ATOM     54  N   UNL A   1      40.493  32.309  30.769  1.00  0.00    -0.248 NA
ATOM     55  C   UNL A   1      38.868  33.969  31.019  1.00  0.00     0.031 C 
ATOM     56  C   UNL A   1      44.603  32.565  32.427  1.00  0.00     0.029 A 
ATOM     57  C   UNL A   1      43.311  32.505  31.929  1.00  0.00     0.049 A 
ATOM     58  H   UNL A   1      42.364  30.948  30.865  1.00  0.00     0.167 HD
ATOM     59  C   UNL A   1      41.030  33.368  31.487  1.00  0.00     0.074 A 
ATOM     60  C   UNL A   1      39.994  34.376  31.587  1.00  0.00     0.031 C 
ATOM     61  C   UNL A   1      42.271  33.496  32.018  1.00  0.00     0.031 A 
BRANCH  48  62
ATOM     62  C   UNL A   1      45.913  28.592  31.111  1.00  0.00    -0.014 A 
ATOM     63  C   UNL A   1      46.963  28.745  30.191  1.00  0.00     0.009 A 
ATOM     64  C   UNL A   1      46.133  27.844  32.276  1.00  0.00     0.009 A 
ATOM     65  C   UNL A   1      48.197  28.134  30.424  1.00  0.00     0.001 A 
ATOM     66  C   UNL A   1      47.375  27.255  32.517  1.00  0.00     0.001 A 
ATOM     67  C   UNL A   1      48.403  27.394  31.587  1.00  0.00     0.000 A 
ENDBRANCH  48  62
BRANCH  49  68
ATOM     68  C   UNL A   1      36.869  32.487  29.487  1.00  0.00    -0.014 A 
ATOM     69  C   UNL A   1      36.589  33.237  28.335  1.00  0.00     0.009 A 
ATOM     70  C   UNL A   1      35.857  32.304  30.442  1.00  0.00     0.009 A 
ATOM     71  C   UNL A   1      35.327  33.809  28.155  1.00  0.00     0.001 A 
ATOM     72  C   UNL A   1      34.589  32.854  30.246  1.00  0.00     0.001 A 
ATOM     73  C   UNL A   1      34.329  33.614  29.107  1.00  0.00     0.000 A 
ENDBRANCH  49  68
BRANCH  61  74
ATOM     74  C   UNL A   1      42.586  34.785  32.721  1.00  0.00    -0.014 A 
ATOM     75  C   UNL A   1      42.235  34.987  34.064  1.00  0.00     0.009 A 
ATOM     76  C   UNL A   1      43.281  35.796  32.037  1.00  0.00     0.009 A 
ATOM     77  C   UNL A   1      42.549  36.191  34.701  1.00  0.00     0.001 A 
ATOM     78  C   UNL A   1      43.614  36.987  32.684  1.00  0.00     0.001 A 
ATOM     79  C   UNL A   1      43.240  37.186  34.012  1.00  0.00     0.000 A 
ENDBRANCH  61  74
ENDBRANCH  35  36
ENDBRANCH  28  30
ENDBRANCH  27  28
ENDBRANCH  26  27
ENDBRANCH   1  26
TORSDOF 14
ENDMDL
