MODEL 1
REMARK VINA RESULT:     -10.3      0.000      0.000
REMARK SMILES O=C(CC[N@@H+]1CCc2ccccc2C1)OCCOC(=O)c1ccc(-c2c3nc(c(-c4ccccc4)c4ccc([nH]4)c(-c4ccccc4)c4nc(c(-c5ccccc5)c5ccc2[nH]5)C=C4)C=C3)cc1
REMARK SMILES IDX 16 1 15 2 2 3 1 4 3 5 4 6 5 7 6 8 14 9 7 11 13 12 8 13 12 14
REMARK SMILES IDX 9 15 11 16 10 17 17 18 18 19 19 20 20 21 21 22 22 23 68 24
REMARK SMILES IDX 23 25 67 26 24 27 25 28 26 29 61 30 27 31 66 32 60 33 62 34
REMARK SMILES IDX 28 35 65 36 59 37 58 38 29 40 51 41 36 42 50 43 37 44 40 45
REMARK SMILES IDX 49 46 63 47 38 48 39 49 48 51 64 52 41 53 30 54 31 55 35 56
REMARK SMILES IDX 32 57 34 58 33 59 52 60 53 61 57 62 54 63 56 64 55 65 42 66
REMARK SMILES IDX 43 67 47 68 44 69 46 70 45 71
REMARK H PARENT 5 10 62 39 40 50
REMARK Flexibility Score: inf
ROOT
ATOM      1  C   UNL A   1      44.409  21.294  24.660  1.00  0.00     0.274 C 
ENDROOT
BRANCH   1   2
ATOM      2  O   UNL A   1      43.033  21.503  25.033  1.00  0.00    -0.462 OA
BRANCH   2   3
ATOM      3  C   UNL A   1      42.436  20.591  25.837  1.00  0.00     0.311 C 
ATOM      4  O   UNL A   1      41.992  19.541  25.391  1.00  0.00    -0.252 OA
BRANCH   3   5
ATOM      5  C   UNL A   1      42.159  21.093  27.237  1.00  0.00     0.184 C 
BRANCH   5   6
ATOM      6  C   UNL A   1      40.678  21.395  27.463  1.00  0.00     0.274 C 
BRANCH   6   7
ATOM      7  N   UNL A   1      40.008  22.059  26.346  1.00  0.00    -0.330 N 
ATOM      8  C   UNL A   1      39.901  23.511  26.395  1.00  0.00     0.267 C 
ATOM      9  C   UNL A   1      38.922  21.313  25.720  1.00  0.00     0.299 C 
ATOM     10  H   UNL A   1      40.720  21.996  25.618  1.00  0.00     0.348 HD
ATOM     11  C   UNL A   1      38.501  24.061  26.674  1.00  0.00     0.097 C 
ATOM     12  C   UNL A   1      37.669  22.086  25.374  1.00  0.00     0.010 A 
ATOM     13  C   UNL A   1      37.470  23.408  25.798  1.00  0.00    -0.034 A 
ATOM     14  C   UNL A   1      36.657  21.447  24.639  1.00  0.00     0.010 A 
ATOM     15  C   UNL A   1      36.290  24.084  25.457  1.00  0.00     0.004 A 
ATOM     16  C   UNL A   1      35.482  22.122  24.308  1.00  0.00     0.001 A 
ATOM     17  C   UNL A   1      35.304  23.443  24.706  1.00  0.00     0.000 A 
ENDBRANCH   6   7
ENDBRANCH   5   6
ENDBRANCH   3   5
ENDBRANCH   2   3
ENDBRANCH   1   2
BRANCH   1  18
ATOM     18  C   UNL A   1      45.181  22.582  24.327  1.00  0.00     0.275 C 
BRANCH  18  19
ATOM     19  O   UNL A   1      44.403  23.771  24.505  1.00  0.00    -0.458 OA
BRANCH  19  20
ATOM     20  C   UNL A   1      45.100  24.823  25.003  1.00  0.00     0.338 C 
ATOM     21  O   UNL A   1      46.176  25.233  24.626  1.00  0.00    -0.246 OA
BRANCH  20  22
ATOM     22  C   UNL A   1      44.211  25.532  25.947  1.00  0.00     0.060 A 
ATOM     23  C   UNL A   1      44.365  26.916  26.081  1.00  0.00     0.016 A 
ATOM     24  C   UNL A   1      43.235  24.850  26.678  1.00  0.00     0.016 A 
ATOM     25  C   UNL A   1      43.584  27.614  27.000  1.00  0.00     0.010 A 
ATOM     26  C   UNL A   1      42.453  25.549  27.599  1.00  0.00     0.010 A 
ATOM     27  C   UNL A   1      42.655  26.927  27.794  1.00  0.00    -0.014 A 
BRANCH  27  28
ATOM     28  C   UNL A   1      42.026  27.615  28.945  1.00  0.00     0.031 A 
ATOM     29  C   UNL A   1      42.686  27.512  30.294  1.00  0.00     0.074 A 
ATOM     30  C   UNL A   1      40.907  28.344  28.795  1.00  0.00     0.049 A 
ATOM     31  N   UNL A   1      42.342  28.065  31.428  1.00  0.00    -0.248 NA
ATOM     32  C   UNL A   1      43.896  26.676  30.372  1.00  0.00     0.031 C 
ATOM     33  C   UNL A   1      40.183  28.543  27.541  1.00  0.00     0.029 A 
ATOM     34  N   UNL A   1      40.185  29.058  29.719  1.00  0.00    -0.354 N 
ATOM     35  C   UNL A   1      43.296  27.653  32.349  1.00  0.00     0.074 A 
ATOM     36  C   UNL A   1      44.209  26.772  31.656  1.00  0.00     0.031 C 
ATOM     37  C   UNL A   1      39.116  29.329  27.775  1.00  0.00     0.029 A 
ATOM     38  C   UNL A   1      39.074  29.672  29.196  1.00  0.00     0.049 A 
ATOM     39  H   UNL A   1      40.441  29.124  30.668  1.00  0.00     0.167 HD
ATOM     40  C   UNL A   1      43.414  27.988  33.656  1.00  0.00     0.031 A 
ATOM     41  C   UNL A   1      38.129  30.419  29.798  1.00  0.00     0.031 A 
ATOM     42  C   UNL A   1      42.500  28.848  34.358  1.00  0.00     0.049 A 
ATOM     43  C   UNL A   1      38.240  30.712  31.272  1.00  0.00     0.074 A 
ATOM     44  C   UNL A   1      42.551  29.263  35.677  1.00  0.00     0.029 A 
ATOM     45  N   UNL A   1      41.366  29.414  33.802  1.00  0.00    -0.354 N 
ATOM     46  N   UNL A   1      39.181  30.366  32.117  1.00  0.00    -0.248 NA
ATOM     47  C   UNL A   1      37.159  31.511  31.870  1.00  0.00     0.031 C 
ATOM     48  C   UNL A   1      41.415  30.035  35.934  1.00  0.00     0.029 A 
ATOM     49  C   UNL A   1      40.688  30.146  34.760  1.00  0.00     0.049 A 
ATOM     50  H   UNL A   1      41.083  29.310  32.864  1.00  0.00     0.167 HD
ATOM     51  C   UNL A   1      38.822  30.931  33.336  1.00  0.00     0.074 A 
ATOM     52  C   UNL A   1      37.586  31.653  33.117  1.00  0.00     0.031 C 
ATOM     53  C   UNL A   1      39.461  30.862  34.528  1.00  0.00     0.031 A 
BRANCH  40  54
ATOM     54  C   UNL A   1      44.566  27.403  34.418  1.00  0.00    -0.014 A 
ATOM     55  C   UNL A   1      45.789  28.084  34.520  1.00  0.00     0.009 A 
ATOM     56  C   UNL A   1      44.412  26.176  35.081  1.00  0.00     0.009 A 
ATOM     57  C   UNL A   1      46.844  27.536  35.252  1.00  0.00     0.001 A 
ATOM     58  C   UNL A   1      45.460  25.642  35.832  1.00  0.00     0.001 A 
ATOM     59  C   UNL A   1      46.677  26.318  35.911  1.00  0.00     0.000 A 
ENDBRANCH  40  54
BRANCH  41  60
ATOM     60  C   UNL A   1      36.977  30.943  29.018  1.00  0.00    -0.014 A 
ATOM     61  C   UNL A   1      36.913  32.297  28.657  1.00  0.00     0.009 A 
ATOM     62  C   UNL A   1      35.913  30.096  28.671  1.00  0.00     0.009 A 
ATOM     63  C   UNL A   1      35.790  32.800  27.996  1.00  0.00     0.001 A 
ATOM     64  C   UNL A   1      34.804  30.596  27.985  1.00  0.00     0.001 A 
ATOM     65  C   UNL A   1      34.738  31.948  27.659  1.00  0.00     0.000 A 
ENDBRANCH  41  60
BRANCH  53  66
ATOM     66  C   UNL A   1      38.855  31.609  35.684  1.00  0.00    -0.014 A 
ATOM     67  C   UNL A   1      38.939  33.007  35.772  1.00  0.00     0.009 A 
ATOM     68  C   UNL A   1      38.150  30.906  36.673  1.00  0.00     0.009 A 
ATOM     69  C   UNL A   1      38.354  33.682  36.845  1.00  0.00     0.001 A 
ATOM     70  C   UNL A   1      37.543  31.585  37.729  1.00  0.00     0.001 A 
ATOM     71  C   UNL A   1      37.652  32.971  37.819  1.00  0.00     0.000 A 
ENDBRANCH  53  66
ENDBRANCH  27  28
ENDBRANCH  20  22
ENDBRANCH  19  20
ENDBRANCH  18  19
ENDBRANCH   1  18
TORSDOF 13
ENDMDL
MODEL 2
REMARK VINA RESULT:     -10.1      0.902      6.344
REMARK SMILES O=C(CC[N@@H+]1CCc2ccccc2C1)OCCOC(=O)c1ccc(-c2c3nc(c(-c4ccccc4)c4ccc([nH]4)c(-c4ccccc4)c4nc(c(-c5ccccc5)c5ccc2[nH]5)C=C4)C=C3)cc1
REMARK SMILES IDX 16 1 15 2 2 3 1 4 3 5 4 6 5 7 6 8 14 9 7 11 13 12 8 13 12 14
REMARK SMILES IDX 9 15 11 16 10 17 17 18 18 19 19 20 20 21 21 22 22 23 68 24
REMARK SMILES IDX 23 25 67 26 24 27 25 28 26 29 61 30 27 31 66 32 60 33 62 34
REMARK SMILES IDX 28 35 65 36 59 37 58 38 29 40 51 41 36 42 50 43 37 44 40 45
REMARK SMILES IDX 49 46 63 47 38 48 39 49 48 51 64 52 41 53 30 54 31 55 35 56
REMARK SMILES IDX 32 57 34 58 33 59 52 60 53 61 57 62 54 63 56 64 55 65 42 66
REMARK SMILES IDX 43 67 47 68 44 69 46 70 45 71
REMARK H PARENT 5 10 62 39 40 50
REMARK Flexibility Score: inf
ROOT
ATOM      1  C   UNL A   1      45.043  21.222  24.569  1.00  0.00     0.274 C 
ENDROOT
BRANCH   1   2
ATOM      2  O   UNL A   1      44.413  20.002  24.133  1.00  0.00    -0.462 OA
BRANCH   2   3
ATOM      3  C   UNL A   1      44.215  19.017  25.043  1.00  0.00     0.311 C 
ATOM      4  O   UNL A   1      45.036  18.122  25.203  1.00  0.00    -0.252 OA
BRANCH   3   5
ATOM      5  C   UNL A   1      42.823  18.994  25.631  1.00  0.00     0.184 C 
BRANCH   5   6
ATOM      6  C   UNL A   1      42.639  20.040  26.731  1.00  0.00     0.274 C 
BRANCH   6   7
ATOM      7  N   UNL A   1      41.248  20.348  27.059  1.00  0.00    -0.330 N 
ATOM      8  C   UNL A   1      40.219  19.485  26.497  1.00  0.00     0.267 C 
ATOM      9  C   UNL A   1      40.934  21.761  27.238  1.00  0.00     0.299 C 
ATOM     10  H   UNL A   1      41.191  20.022  28.024  1.00  0.00     0.348 HD
ATOM     11  C   UNL A   1      39.379  20.101  25.376  1.00  0.00     0.097 C 
ATOM     12  C   UNL A   1      39.648  22.262  26.618  1.00  0.00     0.010 A 
ATOM     13  C   UNL A   1      38.882  21.468  25.751  1.00  0.00    -0.034 A 
ATOM     14  C   UNL A   1      39.230  23.576  26.887  1.00  0.00     0.010 A 
ATOM     15  C   UNL A   1      37.699  21.976  25.197  1.00  0.00     0.004 A 
ATOM     16  C   UNL A   1      38.055  24.079  26.327  1.00  0.00     0.001 A 
ATOM     17  C   UNL A   1      37.284  23.275  25.492  1.00  0.00     0.000 A 
ENDBRANCH   6   7
ENDBRANCH   5   6
ENDBRANCH   3   5
ENDBRANCH   2   3
ENDBRANCH   1   2
BRANCH   1  18
ATOM     18  C   UNL A   1      44.519  22.491  23.876  1.00  0.00     0.275 C 
BRANCH  18  19
ATOM     19  O   UNL A   1      43.863  23.396  24.771  1.00  0.00    -0.458 OA
BRANCH  19  20
ATOM     20  C   UNL A   1      44.616  24.464  25.134  1.00  0.00     0.338 C 
ATOM     21  O   UNL A   1      45.650  24.838  24.626  1.00  0.00    -0.246 OA
BRANCH  20  22
ATOM     22  C   UNL A   1      43.836  25.235  26.124  1.00  0.00     0.060 A 
ATOM     23  C   UNL A   1      44.037  26.618  26.185  1.00  0.00     0.016 A 
ATOM     24  C   UNL A   1      42.913  24.612  26.968  1.00  0.00     0.016 A 
ATOM     25  C   UNL A   1      43.361  27.376  27.140  1.00  0.00     0.010 A 
ATOM     26  C   UNL A   1      42.237  25.371  27.926  1.00  0.00     0.010 A 
ATOM     27  C   UNL A   1      42.491  26.748  28.043  1.00  0.00    -0.014 A 
BRANCH  27  28
ATOM     28  C   UNL A   1      41.989  27.500  29.216  1.00  0.00     0.031 A 
ATOM     29  C   UNL A   1      40.684  28.241  29.092  1.00  0.00     0.074 A 
ATOM     30  C   UNL A   1      42.660  27.504  30.381  1.00  0.00     0.049 A 
ATOM     31  N   UNL A   1      40.032  28.926  29.997  1.00  0.00    -0.248 NA
ATOM     32  C   UNL A   1      40.028  28.200  27.776  1.00  0.00     0.031 C 
ATOM     33  C   UNL A   1      43.920  26.811  30.639  1.00  0.00     0.029 A 
ATOM     34  N   UNL A   1      42.362  28.120  31.571  1.00  0.00    -0.354 N 
ATOM     35  C   UNL A   1      38.887  29.387  29.361  1.00  0.00     0.074 A 
ATOM     36  C   UNL A   1      38.951  28.943  27.987  1.00  0.00     0.031 C 
ATOM     37  C   UNL A   1      44.289  27.040  31.913  1.00  0.00     0.029 A 
ATOM     38  C   UNL A   1      43.302  27.910  32.550  1.00  0.00     0.049 A 
ATOM     39  H   UNL A   1      41.551  28.660  31.711  1.00  0.00     0.167 HD
ATOM     40  C   UNL A   1      37.863  30.108  29.877  1.00  0.00     0.031 A 
ATOM     41  C   UNL A   1      43.360  28.373  33.814  1.00  0.00     0.031 A 
ATOM     42  C   UNL A   1      37.801  30.570  31.237  1.00  0.00     0.049 A 
ATOM     43  C   UNL A   1      42.244  29.240  34.340  1.00  0.00     0.074 A 
ATOM     44  C   UNL A   1      36.792  31.287  31.856  1.00  0.00     0.029 A 
ATOM     45  N   UNL A   1      38.792  30.372  32.183  1.00  0.00    -0.354 N 
ATOM     46  N   UNL A   1      41.139  29.617  33.746  1.00  0.00    -0.248 NA
ATOM     47  C   UNL A   1      42.386  29.733  35.719  1.00  0.00     0.031 C 
ATOM     48  C   UNL A   1      37.200  31.571  33.163  1.00  0.00     0.029 A 
ATOM     49  C   UNL A   1      38.436  30.983  33.371  1.00  0.00     0.049 A 
ATOM     50  H   UNL A   1      39.627  29.871  32.030  1.00  0.00     0.167 HD
ATOM     51  C   UNL A   1      40.439  30.364  34.688  1.00  0.00     0.074 A 
ATOM     52  C   UNL A   1      41.239  30.374  35.895  1.00  0.00     0.031 C 
ATOM     53  C   UNL A   1      39.240  30.983  34.565  1.00  0.00     0.031 A 
BRANCH  40  54
ATOM     54  C   UNL A   1      36.731  30.458  28.956  1.00  0.00    -0.014 A 
ATOM     55  C   UNL A   1      35.813  29.484  28.532  1.00  0.00     0.009 A 
ATOM     56  C   UNL A   1      36.556  31.786  28.542  1.00  0.00     0.009 A 
ATOM     57  C   UNL A   1      34.753  29.831  27.693  1.00  0.00     0.001 A 
ATOM     58  C   UNL A   1      35.481  32.135  27.722  1.00  0.00     0.001 A 
ATOM     59  C   UNL A   1      34.585  31.157  27.293  1.00  0.00     0.000 A 
ENDBRANCH  40  54
BRANCH  41  60
ATOM     60  C   UNL A   1      44.520  28.042  34.681  1.00  0.00    -0.014 A 
ATOM     61  C   UNL A   1      45.670  28.846  34.678  1.00  0.00     0.009 A 
ATOM     62  C   UNL A   1      44.499  26.891  35.484  1.00  0.00     0.009 A 
ATOM     63  C   UNL A   1      46.788  28.483  35.433  1.00  0.00     0.001 A 
ATOM     64  C   UNL A   1      45.608  26.546  36.259  1.00  0.00     0.001 A 
ATOM     65  C   UNL A   1      46.755  27.335  36.224  1.00  0.00     0.000 A 
ENDBRANCH  41  60
BRANCH  53  66
ATOM     66  C   UNL A   1      38.702  31.696  35.774  1.00  0.00    -0.014 A 
ATOM     67  C   UNL A   1      38.891  33.076  35.950  1.00  0.00     0.009 A 
ATOM     68  C   UNL A   1      37.953  30.985  36.724  1.00  0.00     0.009 A 
ATOM     69  C   UNL A   1      38.367  33.721  37.072  1.00  0.00     0.001 A 
ATOM     70  C   UNL A   1      37.407  31.638  37.830  1.00  0.00     0.001 A 
ATOM     71  C   UNL A   1      37.621  33.003  38.008  1.00  0.00     0.000 A 
ENDBRANCH  53  66
ENDBRANCH  27  28
ENDBRANCH  20  22
ENDBRANCH  19  20
ENDBRANCH  18  19
ENDBRANCH   1  18
TORSDOF 13
ENDMDL
MODEL 3
REMARK VINA RESULT:     -10.0      3.576      5.486
REMARK SMILES O=C(CC[N@@H+]1CCc2ccccc2C1)OCCOC(=O)c1ccc(-c2c3nc(c(-c4ccccc4)c4ccc([nH]4)c(-c4ccccc4)c4nc(c(-c5ccccc5)c5ccc2[nH]5)C=C4)C=C3)cc1
REMARK SMILES IDX 16 1 15 2 2 3 1 4 3 5 4 6 5 7 6 8 14 9 7 11 13 12 8 13 12 14
REMARK SMILES IDX 9 15 11 16 10 17 17 18 18 19 19 20 20 21 21 22 22 23 68 24
REMARK SMILES IDX 23 25 67 26 24 27 25 28 26 29 61 30 27 31 66 32 60 33 62 34
REMARK SMILES IDX 28 35 65 36 59 37 58 38 29 40 51 41 36 42 50 43 37 44 40 45
REMARK SMILES IDX 49 46 63 47 38 48 39 49 48 51 64 52 41 53 30 54 31 55 35 56
REMARK SMILES IDX 32 57 34 58 33 59 52 60 53 61 57 62 54 63 56 64 55 65 42 66
REMARK SMILES IDX 43 67 47 68 44 69 46 70 45 71
REMARK H PARENT 5 10 62 39 40 50
REMARK Flexibility Score: inf
ROOT
ATOM      1  C   UNL A   1      41.535  19.724  26.095  1.00  0.00     0.274 C 
ENDROOT
BRANCH   1   2
ATOM      2  O   UNL A   1      42.775  20.198  25.537  1.00  0.00    -0.462 OA
BRANCH   2   3
ATOM      3  C   UNL A   1      43.650  19.290  25.041  1.00  0.00     0.311 C 
ATOM      4  O   UNL A   1      43.463  18.087  25.172  1.00  0.00    -0.252 OA
BRANCH   3   5
ATOM      5  C   UNL A   1      44.951  19.889  24.556  1.00  0.00     0.184 C 
BRANCH   5   6
ATOM      6  C   UNL A   1      45.369  21.112  25.374  1.00  0.00     0.274 C 
BRANCH   6   7
ATOM      7  N   UNL A   1      45.366  22.374  24.637  1.00  0.00    -0.330 N 
ATOM      8  C   UNL A   1      46.649  23.027  24.418  1.00  0.00     0.267 C 
ATOM      9  C   UNL A   1      44.191  23.219  24.827  1.00  0.00     0.299 C 
ATOM     10  H   UNL A   1      45.209  22.051  23.682  1.00  0.00     0.348 HD
ATOM     11  C   UNL A   1      46.896  24.292  25.242  1.00  0.00     0.097 C 
ATOM     12  C   UNL A   1      44.434  24.701  25.006  1.00  0.00     0.010 A 
ATOM     13  C   UNL A   1      45.722  25.228  25.175  1.00  0.00    -0.034 A 
ATOM     14  C   UNL A   1      43.331  25.571  25.043  1.00  0.00     0.010 A 
ATOM     15  C   UNL A   1      45.899  26.609  25.342  1.00  0.00     0.004 A 
ATOM     16  C   UNL A   1      43.512  26.943  25.216  1.00  0.00     0.001 A 
ATOM     17  C   UNL A   1      44.796  27.463  25.353  1.00  0.00     0.000 A 
ENDBRANCH   6   7
ENDBRANCH   5   6
ENDBRANCH   3   5
ENDBRANCH   2   3
ENDBRANCH   1   2
BRANCH   1  18
ATOM     18  C   UNL A   1      40.832  20.726  27.026  1.00  0.00     0.275 C 
BRANCH  18  19
ATOM     19  O   UNL A   1      40.809  22.060  26.509  1.00  0.00    -0.458 OA
BRANCH  19  20
ATOM     20  C   UNL A   1      39.568  22.602  26.420  1.00  0.00     0.338 C 
ATOM     21  O   UNL A   1      38.539  22.031  26.136  1.00  0.00    -0.246 OA
BRANCH  20  22
ATOM     22  C   UNL A   1      39.651  23.978  26.953  1.00  0.00     0.060 A 
ATOM     23  C   UNL A   1      40.060  24.995  26.084  1.00  0.00     0.016 A 
ATOM     24  C   UNL A   1      39.318  24.265  28.280  1.00  0.00     0.016 A 
ATOM     25  C   UNL A   1      40.202  26.298  26.561  1.00  0.00     0.010 A 
ATOM     26  C   UNL A   1      39.461  25.569  28.757  1.00  0.00     0.010 A 
ATOM     27  C   UNL A   1      39.945  26.581  27.910  1.00  0.00    -0.014 A 
BRANCH  27  28
ATOM     28  C   UNL A   1      40.352  27.890  28.472  1.00  0.00     0.031 A 
ATOM     29  C   UNL A   1      41.801  28.106  28.817  1.00  0.00     0.074 A 
ATOM     30  C   UNL A   1      39.461  28.881  28.647  1.00  0.00     0.049 A 
ATOM     31  N   UNL A   1      42.391  29.179  29.277  1.00  0.00    -0.248 NA
ATOM     32  C   UNL A   1      42.704  26.961  28.615  1.00  0.00     0.031 C 
ATOM     33  C   UNL A   1      38.036  28.809  28.332  1.00  0.00     0.029 A 
ATOM     34  N   UNL A   1      39.636  30.152  29.135  1.00  0.00    -0.354 N 
ATOM     35  C   UNL A   1      43.732  28.841  29.408  1.00  0.00     0.074 A 
ATOM     36  C   UNL A   1      43.864  27.454  29.020  1.00  0.00     0.031 C 
ATOM     37  C   UNL A   1      37.464  29.988  28.636  1.00  0.00     0.029 A 
ATOM     38  C   UNL A   1      38.478  30.888  29.182  1.00  0.00     0.049 A 
ATOM     39  H   UNL A   1      40.510  30.504  29.423  1.00  0.00     0.167 HD
ATOM     40  C   UNL A   1      44.768  29.619  29.803  1.00  0.00     0.031 A 
ATOM     41  C   UNL A   1      38.262  32.143  29.623  1.00  0.00     0.031 A 
ATOM     42  C   UNL A   1      44.643  30.992  30.208  1.00  0.00     0.049 A 
ATOM     43  C   UNL A   1      39.421  32.961  30.133  1.00  0.00     0.074 A 
ATOM     44  C   UNL A   1      45.640  31.868  30.602  1.00  0.00     0.029 A 
ATOM     45  N   UNL A   1      43.447  31.686  30.282  1.00  0.00    -0.354 N 
ATOM     46  N   UNL A   1      40.693  32.649  30.193  1.00  0.00    -0.248 NA
ATOM     47  C   UNL A   1      39.110  34.312  30.624  1.00  0.00     0.031 C 
ATOM     48  C   UNL A   1      45.039  33.075  30.969  1.00  0.00     0.029 A 
ATOM     49  C   UNL A   1      43.676  32.968  30.749  1.00  0.00     0.049 A 
ATOM     50  H   UNL A   1      42.565  31.320  30.039  1.00  0.00     0.167 HD
ATOM     51  C   UNL A   1      41.335  33.774  30.698  1.00  0.00     0.074 A 
ATOM     52  C   UNL A   1      40.316  34.779  30.913  1.00  0.00     0.031 C 
ATOM     53  C   UNL A   1      42.652  33.959  30.956  1.00  0.00     0.031 A 
BRANCH  40  54
ATOM     54  C   UNL A   1      46.130  28.991  29.835  1.00  0.00    -0.014 A 
ATOM     55  C   UNL A   1      46.520  28.157  30.895  1.00  0.00     0.009 A 
ATOM     56  C   UNL A   1      47.019  29.200  28.770  1.00  0.00     0.009 A 
ATOM     57  C   UNL A   1      47.783  27.563  30.898  1.00  0.00     0.001 A 
ATOM     58  C   UNL A   1      48.272  28.586  28.764  1.00  0.00     0.001 A 
ATOM     59  C   UNL A   1      48.656  27.773  29.830  1.00  0.00     0.000 A 
ENDBRANCH  40  54
BRANCH  41  60
ATOM     60  C   UNL A   1      36.890  32.714  29.618  1.00  0.00    -0.014 A 
ATOM     61  C   UNL A   1      36.058  32.590  30.741  1.00  0.00     0.009 A 
ATOM     62  C   UNL A   1      36.390  33.346  28.469  1.00  0.00     0.009 A 
ATOM     63  C   UNL A   1      34.742  33.056  30.700  1.00  0.00     0.001 A 
ATOM     64  C   UNL A   1      35.083  33.835  28.441  1.00  0.00     0.001 A 
ATOM     65  C   UNL A   1      34.257  33.680  29.551  1.00  0.00     0.000 A 
ENDBRANCH  41  60
BRANCH  53  66
ATOM     66  C   UNL A   1      43.075  35.307  31.471  1.00  0.00    -0.014 A 
ATOM     67  C   UNL A   1      43.038  35.609  32.841  1.00  0.00     0.009 A 
ATOM     68  C   UNL A   1      43.563  36.271  30.574  1.00  0.00     0.009 A 
ATOM     69  C   UNL A   1      43.452  36.862  33.298  1.00  0.00     0.001 A 
ATOM     70  C   UNL A   1      44.002  37.511  31.037  1.00  0.00     0.001 A 
ATOM     71  C   UNL A   1      43.938  37.809  32.397  1.00  0.00     0.000 A 
ENDBRANCH  53  66
ENDBRANCH  27  28
ENDBRANCH  20  22
ENDBRANCH  19  20
ENDBRANCH  18  19
ENDBRANCH   1  18
TORSDOF 13
ENDMDL
