MODEL 1
REMARK VINA RESULT:     -10.8      0.000      0.000
REMARK SMILES CCN(CC)c1ncc(NC(=O)c2ccc(C)cc2)cc1C(=O)OCCOC(=O)c1ccc(-c2c3nc(c(-c4ccccc4)c4ccc([nH]4)c(-c4ccccc4)c4nc(c(-c5ccccc5)c5ccc2[nH]5)C=C4)C=C3)cc1
REMARK SMILES IDX 25 1 24 2 22 3 23 4 21 5 6 6 7 7 8 8 20 9 9 10 3 11 2 12
REMARK SMILES IDX 1 13 4 14 5 15 10 16 11 17 12 19 13 20 14 21 19 22 15 23
REMARK SMILES IDX 18 24 16 25 17 26 26 27 27 28 28 29 29 30 30 31 31 32 77 33
REMARK SMILES IDX 32 34 76 35 33 36 34 37 35 38 70 39 36 40 75 41 69 42 71 43
REMARK SMILES IDX 37 44 74 45 68 46 67 47 38 49 60 50 45 51 59 52 46 53 49 54
REMARK SMILES IDX 58 55 72 56 47 57 48 58 57 60 73 61 50 62 39 63 40 64 44 65
REMARK SMILES IDX 41 66 43 67 42 68 61 69 62 70 66 71 63 72 65 73 64 74 51 75
REMARK SMILES IDX 52 76 56 77 53 78 55 79 54 80
REMARK H PARENT 10 18 71 48 49 59
REMARK Flexibility Score: inf
ROOT
ATOM      1  C   UNL A   1      32.621  27.764  26.917  1.00  0.00     0.275 C 
ENDROOT
BRANCH   1   2
ATOM      2  O   UNL A   1      31.318  27.193  27.267  1.00  0.00    -0.458 OA
BRANCH   2   3
ATOM      3  C   UNL A   1      30.751  26.520  26.221  1.00  0.00     0.342 C 
ATOM      4  O   UNL A   1      29.688  25.911  26.341  1.00  0.00    -0.246 OA
BRANCH   3   5
ATOM      5  C   UNL A   1      31.535  26.194  24.999  1.00  0.00     0.104 A 
ATOM      6  C   UNL A   1      31.704  26.903  23.774  1.00  0.00     0.143 A 
ATOM      7  N   UNL A   1      31.786  26.156  22.641  1.00  0.00    -0.236 NA
ATOM      8  C   UNL A   1      31.719  24.815  22.635  1.00  0.00     0.139 A 
ATOM      9  C   UNL A   1      31.536  24.769  24.965  1.00  0.00     0.047 A 
ATOM     10  C   UNL A   1      31.626  24.072  23.782  1.00  0.00     0.061 A 
BRANCH   6  11
ATOM     11  N   UNL A   1      31.734  28.267  23.470  1.00  0.00    -0.356 N 
BRANCH  11  12
ATOM     12  C   UNL A   1      30.609  29.202  23.714  1.00  0.00     0.114 C 
ATOM     13  C   UNL A   1      29.730  29.468  22.464  1.00  0.00     0.027 C 
ENDBRANCH  11  12
BRANCH  11  14
ATOM     14  C   UNL A   1      33.088  28.899  23.533  1.00  0.00     0.114 C 
ATOM     15  C   UNL A   1      34.113  28.598  22.449  1.00  0.00     0.027 C 
ENDBRANCH  11  14
ENDBRANCH   6  11
BRANCH  10  16
ATOM     16  N   UNL A   1      31.634  22.675  23.806  1.00  0.00    -0.321 N 
ATOM     17  C   UNL A   1      32.741  21.855  23.868  1.00  0.00     0.255 C 
ATOM     18  H   UNL A   1      30.756  22.229  23.776  1.00  0.00     0.170 HD
ATOM     19  O   UNL A   1      32.643  20.660  23.602  1.00  0.00    -0.269 OA
BRANCH  17  20
ATOM     20  C   UNL A   1      34.041  22.411  24.348  1.00  0.00     0.040 A 
ATOM     21  C   UNL A   1      34.285  22.470  25.719  1.00  0.00     0.014 A 
ATOM     22  C   UNL A   1      35.021  22.872  23.454  1.00  0.00     0.014 A 
ATOM     23  C   UNL A   1      35.534  22.895  26.181  1.00  0.00     0.004 A 
ATOM     24  C   UNL A   1      36.283  23.236  23.911  1.00  0.00     0.004 A 
ATOM     25  C   UNL A   1      36.553  23.236  25.280  1.00  0.00    -0.051 A 
ATOM     26  C   UNL A   1      37.905  23.654  25.775  1.00  0.00     0.044 C 
ENDBRANCH  17  20
ENDBRANCH  10  16
ENDBRANCH   3   5
ENDBRANCH   2   3
ENDBRANCH   1   2
BRANCH   1  27
ATOM     27  C   UNL A   1      32.813  29.272  27.206  1.00  0.00     0.275 C 
BRANCH  27  28
ATOM     28  O   UNL A   1      34.027  29.926  26.793  1.00  0.00    -0.458 OA
BRANCH  28  29
ATOM     29  C   UNL A   1      34.642  30.679  27.730  1.00  0.00     0.338 C 
ATOM     30  O   UNL A   1      34.187  31.684  28.215  1.00  0.00    -0.246 OA
BRANCH  29  31
ATOM     31  C   UNL A   1      35.861  29.968  28.184  1.00  0.00     0.060 A 
ATOM     32  C   UNL A   1      36.962  30.024  27.330  1.00  0.00     0.016 A 
ATOM     33  C   UNL A   1      36.010  29.527  29.490  1.00  0.00     0.016 A 
ATOM     34  C   UNL A   1      38.238  29.705  27.725  1.00  0.00     0.010 A 
ATOM     35  C   UNL A   1      37.282  29.257  29.930  1.00  0.00     0.010 A 
ATOM     36  C   UNL A   1      38.374  29.334  29.036  1.00  0.00    -0.014 A 
BRANCH  36  37
ATOM     37  C   UNL A   1      39.611  28.774  29.507  1.00  0.00     0.031 A 
ATOM     38  C   UNL A   1      39.978  27.398  29.125  1.00  0.00     0.074 A 
ATOM     39  C   UNL A   1      40.394  29.822  29.842  1.00  0.00     0.049 A 
ATOM     40  N   UNL A   1      41.093  26.843  29.442  1.00  0.00    -0.248 NA
ATOM     41  C   UNL A   1      39.090  26.459  28.426  1.00  0.00     0.031 C 
ATOM     42  C   UNL A   1      41.765  30.097  29.460  1.00  0.00     0.029 A 
ATOM     43  N   UNL A   1      40.024  31.003  30.496  1.00  0.00    -0.354 N 
ATOM     44  C   UNL A   1      41.232  25.757  28.599  1.00  0.00     0.074 A 
ATOM     45  C   UNL A   1      39.901  25.422  28.180  1.00  0.00     0.031 C 
ATOM     46  C   UNL A   1      42.175  31.200  30.122  1.00  0.00     0.029 A 
ATOM     47  C   UNL A   1      41.161  31.507  31.121  1.00  0.00     0.049 A 
ATOM     48  H   UNL A   1      39.125  31.403  30.510  1.00  0.00     0.167 HD
ATOM     49  C   UNL A   1      42.482  25.451  28.153  1.00  0.00     0.031 A 
ATOM     50  C   UNL A   1      41.368  31.400  32.474  1.00  0.00     0.031 A 
ATOM     51  C   UNL A   1      43.451  26.352  28.780  1.00  0.00     0.049 A 
ATOM     52  C   UNL A   1      42.481  30.428  32.805  1.00  0.00     0.074 A 
ATOM     53  C   UNL A   1      44.033  27.530  28.343  1.00  0.00     0.029 A 
ATOM     54  N   UNL A   1      43.580  26.341  30.160  1.00  0.00    -0.354 N 
ATOM     55  N   UNL A   1      42.965  29.529  31.996  1.00  0.00    -0.248 NA
ATOM     56  C   UNL A   1      42.992  30.304  34.158  1.00  0.00     0.031 C 
ATOM     57  C   UNL A   1      44.485  28.243  29.494  1.00  0.00     0.029 A 
ATOM     58  C   UNL A   1      44.204  27.487  30.620  1.00  0.00     0.049 A 
ATOM     59  H   UNL A   1      43.267  25.610  30.740  1.00  0.00     0.167 HD
ATOM     60  C   UNL A   1      43.814  28.700  32.676  1.00  0.00     0.074 A 
ATOM     61  C   UNL A   1      43.775  29.223  34.034  1.00  0.00     0.031 C 
ATOM     62  C   UNL A   1      44.433  27.641  32.062  1.00  0.00     0.031 A 
BRANCH  49  63
ATOM     63  C   UNL A   1      42.831  24.592  26.957  1.00  0.00    -0.014 A 
ATOM     64  C   UNL A   1      42.744  23.192  27.097  1.00  0.00     0.009 A 
ATOM     65  C   UNL A   1      43.292  25.051  25.709  1.00  0.00     0.009 A 
ATOM     66  C   UNL A   1      43.130  22.305  26.083  1.00  0.00     0.001 A 
ATOM     67  C   UNL A   1      43.678  24.167  24.685  1.00  0.00     0.001 A 
ATOM     68  C   UNL A   1      43.604  22.794  24.876  1.00  0.00     0.000 A 
ENDBRANCH  49  63
BRANCH  50  69
ATOM     69  C   UNL A   1      40.121  31.367  33.304  1.00  0.00    -0.014 A 
ATOM     70  C   UNL A   1      39.308  32.514  33.317  1.00  0.00     0.009 A 
ATOM     71  C   UNL A   1      39.558  30.098  33.528  1.00  0.00     0.009 A 
ATOM     72  C   UNL A   1      37.941  32.356  33.168  1.00  0.00     0.001 A 
ATOM     73  C   UNL A   1      38.198  29.944  33.361  1.00  0.00     0.001 A 
ATOM     74  C   UNL A   1      37.431  31.069  33.082  1.00  0.00     0.000 A 
ENDBRANCH  50  69
BRANCH  62  75
ATOM     75  C   UNL A   1      45.328  26.615  32.735  1.00  0.00    -0.014 A 
ATOM     76  C   UNL A   1      44.881  25.510  33.460  1.00  0.00     0.009 A 
ATOM     77  C   UNL A   1      46.734  26.764  32.666  1.00  0.00     0.009 A 
ATOM     78  C   UNL A   1      45.764  24.589  34.038  1.00  0.00     0.001 A 
ATOM     79  C   UNL A   1      47.624  25.843  33.218  1.00  0.00     0.001 A 
ATOM     80  C   UNL A   1      47.134  24.749  33.908  1.00  0.00     0.000 A 
ENDBRANCH  62  75
ENDBRANCH  36  37
ENDBRANCH  29  31
ENDBRANCH  28  29
ENDBRANCH  27  28
ENDBRANCH   1  27
TORSDOF 16
ENDMDL
MODEL 2
REMARK VINA RESULT:     -10.8      2.069      3.302
REMARK SMILES CCN(CC)c1ncc(NC(=O)c2ccc(C)cc2)cc1C(=O)OCCOC(=O)c1ccc(-c2c3nc(c(-c4ccccc4)c4ccc([nH]4)c(-c4ccccc4)c4nc(c(-c5ccccc5)c5ccc2[nH]5)C=C4)C=C3)cc1
REMARK SMILES IDX 25 1 24 2 22 3 23 4 21 5 6 6 7 7 8 8 20 9 9 10 3 11 2 12
REMARK SMILES IDX 1 13 4 14 5 15 10 16 11 17 12 19 13 20 14 21 19 22 15 23
REMARK SMILES IDX 18 24 16 25 17 26 26 27 27 28 28 29 29 30 30 31 31 32 77 33
REMARK SMILES IDX 32 34 76 35 33 36 34 37 35 38 70 39 36 40 75 41 69 42 71 43
REMARK SMILES IDX 37 44 74 45 68 46 67 47 38 49 60 50 45 51 59 52 46 53 49 54
REMARK SMILES IDX 58 55 72 56 47 57 48 58 57 60 73 61 50 62 39 63 40 64 44 65
REMARK SMILES IDX 41 66 43 67 42 68 61 69 62 70 66 71 63 72 65 73 64 74 51 75
REMARK SMILES IDX 52 76 56 77 53 78 55 79 54 80
REMARK H PARENT 10 18 71 48 49 59
REMARK Flexibility Score: inf
ROOT
ATOM      1  C   UNL A   1      31.567  31.185  26.209  1.00  0.00     0.275 C 
ENDROOT
BRANCH   1   2
ATOM      2  O   UNL A   1      32.429  30.006  26.323  1.00  0.00    -0.458 OA
BRANCH   2   3
ATOM      3  C   UNL A   1      31.723  28.877  26.629  1.00  0.00     0.342 C 
ATOM      4  O   UNL A   1      31.472  28.562  27.793  1.00  0.00    -0.246 OA
BRANCH   3   5
ATOM      5  C   UNL A   1      31.520  27.799  25.623  1.00  0.00     0.104 A 
ATOM      6  C   UNL A   1      31.208  27.858  24.233  1.00  0.00     0.143 A 
ATOM      7  N   UNL A   1      30.380  26.893  23.751  1.00  0.00    -0.236 NA
ATOM      8  C   UNL A   1      29.864  25.915  24.512  1.00  0.00     0.139 A 
ATOM      9  C   UNL A   1      31.011  26.710  26.388  1.00  0.00     0.047 A 
ATOM     10  C   UNL A   1      30.178  25.763  25.837  1.00  0.00     0.061 A 
BRANCH   6  11
ATOM     11  N   UNL A   1      31.530  28.778  23.232  1.00  0.00    -0.356 N 
BRANCH  11  12
ATOM     12  C   UNL A   1      32.837  28.831  22.533  1.00  0.00     0.114 C 
ATOM     13  C   UNL A   1      33.630  27.500  22.584  1.00  0.00     0.027 C 
ENDBRANCH  11  12
BRANCH  11  14
ATOM     14  C   UNL A   1      30.371  29.251  22.411  1.00  0.00     0.114 C 
ATOM     15  C   UNL A   1      29.370  30.228  23.012  1.00  0.00     0.027 C 
ENDBRANCH  11  14
ENDBRANCH   6  11
BRANCH  10  16
ATOM     16  N   UNL A   1      29.717  24.709  26.629  1.00  0.00    -0.321 N 
ATOM     17  C   UNL A   1      30.181  23.409  26.630  1.00  0.00     0.255 C 
ATOM     18  H   UNL A   1      28.983  24.915  27.252  1.00  0.00     0.170 HD
ATOM     19  O   UNL A   1      29.522  22.516  27.156  1.00  0.00    -0.269 OA
BRANCH  17  20
ATOM     20  C   UNL A   1      31.532  23.112  26.069  1.00  0.00     0.040 A 
ATOM     21  C   UNL A   1      31.625  22.466  24.838  1.00  0.00     0.014 A 
ATOM     22  C   UNL A   1      32.708  23.471  26.748  1.00  0.00     0.014 A 
ATOM     23  C   UNL A   1      32.879  22.269  24.252  1.00  0.00     0.004 A 
ATOM     24  C   UNL A   1      33.950  23.331  26.138  1.00  0.00     0.004 A 
ATOM     25  C   UNL A   1      34.042  22.741  24.877  1.00  0.00    -0.051 A 
ATOM     26  C   UNL A   1      35.383  22.566  24.231  1.00  0.00     0.044 C 
ENDBRANCH  17  20
ENDBRANCH  10  16
ENDBRANCH   3   5
ENDBRANCH   2   3
ENDBRANCH   1   2
BRANCH   1  27
ATOM     27  C   UNL A   1      31.778  32.298  27.262  1.00  0.00     0.275 C 
BRANCH  27  28
ATOM     28  O   UNL A   1      32.754  33.328  27.022  1.00  0.00    -0.458 OA
BRANCH  28  29
ATOM     29  C   UNL A   1      33.282  33.912  28.119  1.00  0.00     0.338 C 
ATOM     30  O   UNL A   1      32.791  34.840  28.710  1.00  0.00    -0.246 OA
BRANCH  29  31
ATOM     31  C   UNL A   1      34.445  33.110  28.569  1.00  0.00     0.060 A 
ATOM     32  C   UNL A   1      35.648  33.339  27.901  1.00  0.00     0.016 A 
ATOM     33  C   UNL A   1      34.430  32.398  29.758  1.00  0.00     0.016 A 
ATOM     34  C   UNL A   1      36.867  32.931  28.385  1.00  0.00     0.010 A 
ATOM     35  C   UNL A   1      35.638  32.029  30.296  1.00  0.00     0.010 A 
ATOM     36  C   UNL A   1      36.836  32.287  29.593  1.00  0.00    -0.014 A 
BRANCH  36  37
ATOM     37  C   UNL A   1      38.011  31.629  30.094  1.00  0.00     0.031 A 
ATOM     38  C   UNL A   1      38.405  30.321  29.538  1.00  0.00     0.074 A 
ATOM     39  C   UNL A   1      38.763  32.591  30.670  1.00  0.00     0.049 A 
ATOM     40  N   UNL A   1      39.475  29.695  29.876  1.00  0.00    -0.248 NA
ATOM     41  C   UNL A   1      37.588  29.527  28.610  1.00  0.00     0.031 C 
ATOM     42  C   UNL A   1      40.170  32.887  30.481  1.00  0.00     0.029 A 
ATOM     43  N   UNL A   1      38.337  33.662  31.463  1.00  0.00    -0.354 N 
ATOM     44  C   UNL A   1      39.694  28.752  28.889  1.00  0.00     0.074 A 
ATOM     45  C   UNL A   1      38.412  28.521  28.287  1.00  0.00     0.031 C 
ATOM     46  C   UNL A   1      40.516  33.862  31.350  1.00  0.00     0.029 A 
ATOM     47  C   UNL A   1      39.405  34.033  32.274  1.00  0.00     0.049 A 
ATOM     48  H   UNL A   1      37.445  34.078  31.448  1.00  0.00     0.167 HD
ATOM     49  C   UNL A   1      40.982  28.488  28.532  1.00  0.00     0.031 A 
ATOM     50  C   UNL A   1      39.466  33.709  33.607  1.00  0.00     0.031 A 
ATOM     51  C   UNL A   1      41.886  29.254  29.392  1.00  0.00     0.049 A 
ATOM     52  C   UNL A   1      40.529  32.669  33.892  1.00  0.00     0.074 A 
ATOM     53  C   UNL A   1      42.521  30.472  29.210  1.00  0.00     0.029 A 
ATOM     54  N   UNL A   1      41.867  29.023  30.758  1.00  0.00    -0.354 N 
ATOM     55  N   UNL A   1      41.089  31.897  33.005  1.00  0.00    -0.248 NA
ATOM     56  C   UNL A   1      40.893  32.321  35.254  1.00  0.00     0.031 C 
ATOM     57  C   UNL A   1      42.854  30.983  30.500  1.00  0.00     0.029 A 
ATOM     58  C   UNL A   1      42.449  30.067  31.457  1.00  0.00     0.049 A 
ATOM     59  H   UNL A   1      41.488  28.218  31.179  1.00  0.00     0.167 HD
ATOM     60  C   UNL A   1      41.854  30.950  33.628  1.00  0.00     0.074 A 
ATOM     61  C   UNL A   1      41.676  31.254  35.040  1.00  0.00     0.031 C 
ATOM     62  C   UNL A   1      42.525  29.986  32.920  1.00  0.00     0.031 A 
BRANCH  49  63
ATOM     63  C   UNL A   1      41.448  27.820  27.257  1.00  0.00    -0.014 A 
ATOM     64  C   UNL A   1      41.404  26.412  27.192  1.00  0.00     0.009 A 
ATOM     65  C   UNL A   1      41.978  28.466  26.126  1.00  0.00     0.009 A 
ATOM     66  C   UNL A   1      41.896  25.692  26.095  1.00  0.00     0.001 A 
ATOM     67  C   UNL A   1      42.471  27.750  25.020  1.00  0.00     0.001 A 
ATOM     68  C   UNL A   1      42.437  26.362  25.009  1.00  0.00     0.000 A 
ENDBRANCH  49  63
BRANCH  50  69
ATOM     69  C   UNL A   1      38.138  33.578  34.288  1.00  0.00    -0.014 A 
ATOM     70  C   UNL A   1      37.347  34.732  34.417  1.00  0.00     0.009 A 
ATOM     71  C   UNL A   1      37.534  32.309  34.230  1.00  0.00     0.009 A 
ATOM     72  C   UNL A   1      36.001  34.649  34.105  1.00  0.00     0.001 A 
ATOM     73  C   UNL A   1      36.197  32.232  33.902  1.00  0.00     0.001 A 
ATOM     74  C   UNL A   1      35.482  33.414  33.745  1.00  0.00     0.000 A 
ENDBRANCH  50  69
BRANCH  62  75
ATOM     75  C   UNL A   1      43.335  28.844  33.511  1.00  0.00    -0.014 A 
ATOM     76  C   UNL A   1      42.936  27.507  33.544  1.00  0.00     0.009 A 
ATOM     77  C   UNL A   1      44.591  29.114  34.105  1.00  0.00     0.009 A 
ATOM     78  C   UNL A   1      43.743  26.500  34.086  1.00  0.00     0.001 A 
ATOM     79  C   UNL A   1      45.415  28.118  34.628  1.00  0.00     0.001 A 
ATOM     80  C   UNL A   1      44.987  26.803  34.617  1.00  0.00     0.000 A 
ENDBRANCH  62  75
ENDBRANCH  36  37
ENDBRANCH  29  31
ENDBRANCH  28  29
ENDBRANCH  27  28
ENDBRANCH   1  27
TORSDOF 16
ENDMDL
MODEL 3
REMARK VINA RESULT:     -10.8      2.638      7.577
REMARK SMILES CCN(CC)c1ncc(NC(=O)c2ccc(C)cc2)cc1C(=O)OCCOC(=O)c1ccc(-c2c3nc(c(-c4ccccc4)c4ccc([nH]4)c(-c4ccccc4)c4nc(c(-c5ccccc5)c5ccc2[nH]5)C=C4)C=C3)cc1
REMARK SMILES IDX 25 1 24 2 22 3 23 4 21 5 6 6 7 7 8 8 20 9 9 10 3 11 2 12
REMARK SMILES IDX 1 13 4 14 5 15 10 16 11 17 12 19 13 20 14 21 19 22 15 23
REMARK SMILES IDX 18 24 16 25 17 26 26 27 27 28 28 29 29 30 30 31 31 32 77 33
REMARK SMILES IDX 32 34 76 35 33 36 34 37 35 38 70 39 36 40 75 41 69 42 71 43
REMARK SMILES IDX 37 44 74 45 68 46 67 47 38 49 60 50 45 51 59 52 46 53 49 54
REMARK SMILES IDX 58 55 72 56 47 57 48 58 57 60 73 61 50 62 39 63 40 64 44 65
REMARK SMILES IDX 41 66 43 67 42 68 61 69 62 70 66 71 63 72 65 73 64 74 51 75
REMARK SMILES IDX 52 76 56 77 53 78 55 79 54 80
REMARK H PARENT 10 18 71 48 49 59
REMARK Flexibility Score: inf
ROOT
ATOM      1  C   UNL A   1      36.471  22.400  23.771  1.00  0.00     0.275 C 
ENDROOT
BRANCH   1   2
ATOM      2  O   UNL A   1      35.733  23.665  23.771  1.00  0.00    -0.458 OA
BRANCH   2   3
ATOM      3  C   UNL A   1      34.500  23.545  23.195  1.00  0.00     0.342 C 
ATOM      4  O   UNL A   1      34.364  23.336  21.988  1.00  0.00    -0.246 OA
BRANCH   3   5
ATOM      5  C   UNL A   1      33.271  23.995  23.903  1.00  0.00     0.104 A 
ATOM      6  C   UNL A   1      32.332  23.281  24.703  1.00  0.00     0.143 A 
ATOM      7  N   UNL A   1      31.029  23.653  24.596  1.00  0.00    -0.236 NA
ATOM      8  C   UNL A   1      30.607  24.640  23.789  1.00  0.00     0.139 A 
ATOM      9  C   UNL A   1      32.800  25.082  23.110  1.00  0.00     0.047 A 
ATOM     10  C   UNL A   1      31.464  25.409  23.047  1.00  0.00     0.061 A 
BRANCH   6  11
ATOM     11  N   UNL A   1      32.464  22.185  25.560  1.00  0.00    -0.356 N 
BRANCH  11  12
ATOM     12  C   UNL A   1      32.997  20.863  25.150  1.00  0.00     0.114 C 
ATOM     13  C   UNL A   1      32.485  20.381  23.767  1.00  0.00     0.027 C 
ENDBRANCH  11  12
BRANCH  11  14
ATOM     14  C   UNL A   1      32.707  22.530  26.995  1.00  0.00     0.114 C 
ATOM     15  C   UNL A   1      34.104  22.383  27.581  1.00  0.00     0.027 C 
ENDBRANCH  11  14
ENDBRANCH   6  11
BRANCH  10  16
ATOM     16  N   UNL A   1      31.058  26.491  22.263  1.00  0.00    -0.321 N 
ATOM     17  C   UNL A   1      31.013  27.817  22.641  1.00  0.00     0.255 C 
ATOM     18  H   UNL A   1      30.772  26.286  21.344  1.00  0.00     0.170 HD
ATOM     19  O   UNL A   1      30.382  28.632  21.974  1.00  0.00    -0.269 OA
BRANCH  17  20
ATOM     20  C   UNL A   1      31.815  28.272  23.817  1.00  0.00     0.040 A 
ATOM     21  C   UNL A   1      31.199  28.349  25.065  1.00  0.00     0.014 A 
ATOM     22  C   UNL A   1      33.170  28.619  23.695  1.00  0.00     0.014 A 
ATOM     23  C   UNL A   1      31.958  28.677  26.191  1.00  0.00     0.004 A 
ATOM     24  C   UNL A   1      33.938  28.885  24.824  1.00  0.00     0.004 A 
ATOM     25  C   UNL A   1      33.338  28.902  26.084  1.00  0.00    -0.051 A 
ATOM     26  C   UNL A   1      34.160  29.215  27.298  1.00  0.00     0.044 C 
ENDBRANCH  17  20
ENDBRANCH  10  16
ENDBRANCH   3   5
ENDBRANCH   2   3
ENDBRANCH   1   2
BRANCH   1  27
ATOM     27  C   UNL A   1      37.310  22.091  25.034  1.00  0.00     0.275 C 
BRANCH  27  28
ATOM     28  O   UNL A   1      37.899  23.173  25.778  1.00  0.00    -0.458 OA
BRANCH  28  29
ATOM     29  C   UNL A   1      39.005  22.870  26.489  1.00  0.00     0.338 C 
ATOM     30  O   UNL A   1      39.537  21.789  26.510  1.00  0.00    -0.246 OA
BRANCH  29  31
ATOM     31  C   UNL A   1      39.548  24.118  27.076  1.00  0.00     0.060 A 
ATOM     32  C   UNL A   1      40.149  25.008  26.186  1.00  0.00     0.016 A 
ATOM     33  C   UNL A   1      39.229  24.523  28.363  1.00  0.00     0.016 A 
ATOM     34  C   UNL A   1      40.410  26.321  26.497  1.00  0.00     0.010 A 
ATOM     35  C   UNL A   1      39.425  25.844  28.682  1.00  0.00     0.010 A 
ATOM     36  C   UNL A   1      40.028  26.718  27.750  1.00  0.00    -0.014 A 
BRANCH  36  37
ATOM     37  C   UNL A   1      40.440  27.995  28.264  1.00  0.00     0.031 A 
ATOM     38  C   UNL A   1      39.470  29.105  28.312  1.00  0.00     0.074 A 
ATOM     39  C   UNL A   1      41.532  27.762  29.022  1.00  0.00     0.049 A 
ATOM     40  N   UNL A   1      39.729  30.258  28.817  1.00  0.00    -0.248 NA
ATOM     41  C   UNL A   1      38.130  29.073  27.709  1.00  0.00     0.031 C 
ATOM     42  C   UNL A   1      41.814  28.193  30.377  1.00  0.00     0.029 A 
ATOM     43  N   UNL A   1      42.596  26.891  28.759  1.00  0.00    -0.354 N 
ATOM     44  C   UNL A   1      38.506  30.863  29.037  1.00  0.00     0.074 A 
ATOM     45  C   UNL A   1      37.593  30.224  28.134  1.00  0.00     0.031 C 
ATOM     46  C   UNL A   1      43.075  27.821  30.684  1.00  0.00     0.029 A 
ATOM     47  C   UNL A   1      43.705  27.365  29.454  1.00  0.00     0.049 A 
ATOM     48  H   UNL A   1      42.565  26.090  28.188  1.00  0.00     0.167 HD
ATOM     49  C   UNL A   1      38.369  31.642  30.146  1.00  0.00     0.031 A 
ATOM     50  C   UNL A   1      44.735  28.028  28.835  1.00  0.00     0.031 A 
ATOM     51  C   UNL A   1      39.657  31.724  30.839  1.00  0.00     0.049 A 
ATOM     52  C   UNL A   1      44.766  29.498  29.196  1.00  0.00     0.074 A 
ATOM     53  C   UNL A   1      40.176  31.013  31.908  1.00  0.00     0.029 A 
ATOM     54  N   UNL A   1      40.740  32.280  30.176  1.00  0.00    -0.354 N 
ATOM     55  N   UNL A   1      43.781  30.167  29.723  1.00  0.00    -0.248 NA
ATOM     56  C   UNL A   1      45.880  30.344  28.806  1.00  0.00     0.031 C 
ATOM     57  C   UNL A   1      41.598  31.126  31.854  1.00  0.00     0.029 A 
ATOM     58  C   UNL A   1      41.937  31.926  30.774  1.00  0.00     0.049 A 
ATOM     59  H   UNL A   1      40.667  32.854  29.379  1.00  0.00     0.167 HD
ATOM     60  C   UNL A   1      44.079  31.503  29.736  1.00  0.00     0.074 A 
ATOM     61  C   UNL A   1      45.401  31.554  29.129  1.00  0.00     0.031 C 
ATOM     62  C   UNL A   1      43.191  32.435  30.208  1.00  0.00     0.031 A 
BRANCH  49  63
ATOM     63  C   UNL A   1      37.072  32.072  30.795  1.00  0.00    -0.014 A 
ATOM     64  C   UNL A   1      36.484  33.280  30.366  1.00  0.00     0.009 A 
ATOM     65  C   UNL A   1      36.403  31.405  31.837  1.00  0.00     0.009 A 
ATOM     66  C   UNL A   1      35.334  33.814  30.963  1.00  0.00     0.001 A 
ATOM     67  C   UNL A   1      35.245  31.933  32.439  1.00  0.00     0.001 A 
ATOM     68  C   UNL A   1      34.717  33.142  32.006  1.00  0.00     0.000 A 
ENDBRANCH  49  63
BRANCH  50  69
ATOM     69  C   UNL A   1      44.972  27.638  27.408  1.00  0.00    -0.014 A 
ATOM     70  C   UNL A   1      45.471  26.350  27.150  1.00  0.00     0.009 A 
ATOM     71  C   UNL A   1      44.183  28.296  26.447  1.00  0.00     0.009 A 
ATOM     72  C   UNL A   1      44.883  25.601  26.146  1.00  0.00     0.001 A 
ATOM     73  C   UNL A   1      43.586  27.542  25.459  1.00  0.00     0.001 A 
ATOM     74  C   UNL A   1      43.872  26.183  25.395  1.00  0.00     0.000 A 
ENDBRANCH  50  69
BRANCH  62  75
ATOM     75  C   UNL A   1      43.386  33.941  30.196  1.00  0.00    -0.014 A 
ATOM     76  C   UNL A   1      43.618  34.733  31.321  1.00  0.00     0.009 A 
ATOM     77  C   UNL A   1      43.313  34.644  28.968  1.00  0.00     0.009 A 
ATOM     78  C   UNL A   1      43.810  36.116  31.235  1.00  0.00     0.001 A 
ATOM     79  C   UNL A   1      43.525  36.018  28.866  1.00  0.00     0.001 A 
ATOM     80  C   UNL A   1      43.775  36.758  30.007  1.00  0.00     0.000 A 
ENDBRANCH  62  75
ENDBRANCH  36  37
ENDBRANCH  29  31
ENDBRANCH  28  29
ENDBRANCH  27  28
ENDBRANCH   1  27
TORSDOF 16
ENDMDL
