MODEL 1
REMARK VINA RESULT:     -11.7      0.000      0.000
REMARK SMILES O=C(OCCOC(=O)[C@@H]1c2ccccc2C(=O)N(C2CCCC2)C12CCCCC2)c1ccc(-c2c3nc(c(-c4ccccc4)c4ccc([nH]4)c(-c4ccccc4)c4nc(c(-c5ccccc5)c5ccc2[nH]5)C=C4)C=C3)cc1
REMARK SMILES IDX 4 1 3 2 2 3 1 4 30 5 31 6 77 7 32 8 76 9 33 10 34 11 35 12
REMARK SMILES IDX 70 13 36 14 75 15 69 16 71 17 37 18 74 19 68 20 67 21 38 23
REMARK SMILES IDX 60 24 45 25 59 26 46 27 49 28 58 29 72 30 47 31 48 32 57 34
REMARK SMILES IDX 73 35 50 36 39 37 40 38 44 39 41 40 43 41 42 42 61 43 62 44
REMARK SMILES IDX 66 45 63 46 65 47 64 48 51 49 52 50 56 51 53 52 55 53 54 54
REMARK SMILES IDX 5 55 6 56 7 57 8 58 9 59 10 60 24 61 11 62 15 63 18 64 25 65
REMARK SMILES IDX 29 66 12 67 14 68 16 69 26 70 28 71 13 72 17 73 27 74 19 75
REMARK SMILES IDX 20 76 23 77 21 78 22 79
REMARK H PARENT 71 22 49 33
REMARK Flexibility Score: inf
ROOT
ATOM      1  C   UNL A   1      48.159  25.416  38.675  1.00  0.00     0.275 C 
ENDROOT
BRANCH   1   2
ATOM      2  O   UNL A   1      46.984  25.757  37.912  1.00  0.00    -0.458 OA
BRANCH   2   3
ATOM      3  C   UNL A   1      45.984  26.621  38.212  1.00  0.00     0.338 C 
ATOM      4  O   UNL A   1      45.806  26.995  39.367  1.00  0.00    -0.246 OA
BRANCH   3   5
ATOM      5  C   UNL A   1      45.031  27.131  37.197  1.00  0.00     0.060 A 
ATOM      6  C   UNL A   1      43.377  26.518  37.190  1.00  0.00     0.016 A 
ATOM      7  C   UNL A   1      45.386  28.366  36.001  1.00  0.00     0.016 A 
ATOM      8  C   UNL A   1      42.133  27.089  36.075  1.00  0.00     0.010 A 
ATOM      9  C   UNL A   1      44.011  28.965  34.796  1.00  0.00     0.010 A 
ATOM     10  C   UNL A   1      42.410  28.339  34.871  1.00  0.00    -0.014 A 
BRANCH  10  11
ATOM     11  C   UNL A   1      41.434  29.127  34.061  1.00  0.00     0.031 A 
ATOM     12  C   UNL A   1      41.217  28.901  32.549  1.00  0.00     0.074 A 
ATOM     13  C   UNL A   1      40.951  30.249  34.615  1.00  0.00     0.049 A 
ATOM     14  N   UNL A   1      40.249  29.310  31.767  1.00  0.00    -0.248 NA
ATOM     15  C   UNL A   1      42.155  28.047  31.806  1.00  0.00     0.031 C 
ATOM     16  C   UNL A   1      41.240  30.749  35.958  1.00  0.00     0.029 A 
ATOM     17  N   UNL A   1      40.172  31.221  34.060  1.00  0.00    -0.354 N 
ATOM     18  C   UNL A   1      40.419  28.624  30.552  1.00  0.00     0.074 A 
ATOM     19  C   UNL A   1      41.648  27.912  30.599  1.00  0.00     0.031 C 
ATOM     20  C   UNL A   1      40.704  31.965  36.102  1.00  0.00     0.029 A 
ATOM     21  C   UNL A   1      39.966  32.287  34.892  1.00  0.00     0.049 A 
ATOM     22  H   UNL A   1      39.796  31.162  33.152  1.00  0.00     0.167 HD
ATOM     23  C   UNL A   1      39.560  28.508  29.519  1.00  0.00     0.031 A 
ATOM     24  C   UNL A   1      39.210  33.382  34.720  1.00  0.00     0.031 A 
ATOM     25  C   UNL A   1      38.452  29.394  29.418  1.00  0.00     0.049 A 
ATOM     26  C   UNL A   1      38.326  33.399  33.510  1.00  0.00     0.074 A 
ATOM     27  C   UNL A   1      37.505  29.500  28.426  1.00  0.00     0.029 A 
ATOM     28  N   UNL A   1      38.227  30.408  30.335  1.00  0.00    -0.354 N 
ATOM     29  N   UNL A   1      38.266  32.528  32.525  1.00  0.00    -0.248 NA
ATOM     30  C   UNL A   1      37.362  34.493  33.414  1.00  0.00     0.031 C 
ATOM     31  C   UNL A   1      36.805  30.681  28.669  1.00  0.00     0.029 A 
ATOM     32  C   UNL A   1      37.235  31.232  29.874  1.00  0.00     0.049 A 
ATOM     33  H   UNL A   1      38.707  30.520  31.187  1.00  0.00     0.167 HD
ATOM     34  C   UNL A   1      37.242  32.959  31.697  1.00  0.00     0.074 A 
ATOM     35  C   UNL A   1      36.702  34.158  32.313  1.00  0.00     0.031 C 
ATOM     36  C   UNL A   1      36.780  32.427  30.536  1.00  0.00     0.031 A 
BRANCH  23  37
ATOM     37  C   UNL A   1      39.796  27.461  28.459  1.00  0.00    -0.014 A 
ATOM     38  C   UNL A   1      39.364  26.139  28.642  1.00  0.00     0.009 A 
ATOM     39  C   UNL A   1      40.536  27.766  27.300  1.00  0.00     0.009 A 
ATOM     40  C   UNL A   1      39.694  25.144  27.714  1.00  0.00     0.001 A 
ATOM     41  C   UNL A   1      40.848  26.773  26.365  1.00  0.00     0.001 A 
ATOM     42  C   UNL A   1      40.440  25.459  26.580  1.00  0.00     0.000 A 
ENDBRANCH  23  37
BRANCH  24  43
ATOM     43  C   UNL A   1      39.163  34.352  35.844  1.00  0.00    -0.014 A 
ATOM     44  C   UNL A   1      39.961  35.512  35.809  1.00  0.00     0.009 A 
ATOM     45  C   UNL A   1      38.561  33.985  37.056  1.00  0.00     0.009 A 
ATOM     46  C   UNL A   1      40.201  36.247  36.974  1.00  0.00     0.001 A 
ATOM     47  C   UNL A   1      38.779  34.739  38.212  1.00  0.00     0.001 A 
ATOM     48  C   UNL A   1      39.614  35.856  38.177  1.00  0.00     0.000 A 
ENDBRANCH  24  43
BRANCH  36  49
ATOM     49  C   UNL A   1      35.708  33.171  29.809  1.00  0.00    -0.014 A 
ATOM     50  C   UNL A   1      36.018  33.827  28.608  1.00  0.00     0.009 A 
ATOM     51  C   UNL A   1      34.484  33.416  30.445  1.00  0.00     0.009 A 
ATOM     52  C   UNL A   1      35.138  34.770  28.086  1.00  0.00     0.001 A 
ATOM     53  C   UNL A   1      33.588  34.324  29.893  1.00  0.00     0.001 A 
ATOM     54  C   UNL A   1      33.926  35.016  28.729  1.00  0.00     0.000 A 
ENDBRANCH  36  49
ENDBRANCH  10  11
ENDBRANCH   3   5
ENDBRANCH   2   3
ENDBRANCH   1   2
BRANCH   1  55
ATOM     55  C   UNL A   1      48.130  23.985  39.267  1.00  0.00     0.274 C 
BRANCH  55  56
ATOM     56  O   UNL A   1      46.819  23.440  39.556  1.00  0.00    -0.462 OA
BRANCH  56  57
ATOM     57  C   UNL A   1      46.458  22.221  39.068  1.00  0.00     0.315 C 
ATOM     58  O   UNL A   1      45.668  21.476  39.630  1.00  0.00    -0.251 OA
BRANCH  57  59
ATOM     59  C   UNL A   1      47.244  21.818  37.797  1.00  0.00     0.156 C 
ATOM     60  C   UNL A   1      46.343  22.080  36.589  1.00  0.00    -0.019 A 
ATOM     61  C   UNL A   1      47.885  20.332  37.718  1.00  0.00     0.061 C 
ATOM     62  C   UNL A   1      45.320  23.050  36.654  1.00  0.00     0.005 A 
ATOM     63  C   UNL A   1      46.481  21.334  35.410  1.00  0.00     0.044 A 
ATOM     64  N   UNL A   1      48.570  20.322  36.254  1.00  0.00    -0.329 N 
ATOM     65  C   UNL A   1      46.425  19.144  37.807  1.00  0.00     0.030 C 
ATOM     66  C   UNL A   1      49.238  20.048  39.042  1.00  0.00     0.030 C 
ATOM     67  C   UNL A   1      44.373  23.164  35.643  1.00  0.00     0.000 A 
ATOM     68  C   UNL A   1      45.533  21.467  34.386  1.00  0.00     0.014 A 
ATOM     69  C   UNL A   1      47.686  20.495  35.170  1.00  0.00     0.254 C 
ATOM     70  C   UNL A   1      46.040  17.981  39.206  1.00  0.00     0.002 C 
ATOM     71  C   UNL A   1      48.875  18.629  40.679  1.00  0.00     0.002 C 
ATOM     72  C   UNL A   1      44.462  22.352  34.520  1.00  0.00     0.001 A 
ATOM     73  O   UNL A   1      47.925  20.096  34.033  1.00  0.00    -0.269 OA
ATOM     74  C   UNL A   1      47.209  17.644  40.602  1.00  0.00     0.000 C 
BRANCH  64  75
ATOM     75  C   UNL A   1      50.053  20.379  35.813  1.00  0.00     0.086 C 
ATOM     76  C   UNL A   1      50.991  21.525  36.219  1.00  0.00     0.025 C 
ATOM     77  C   UNL A   1      50.913  19.140  36.026  1.00  0.00     0.025 C 
ATOM     78  C   UNL A   1      52.417  21.016  35.905  1.00  0.00     0.002 C 
ATOM     79  C   UNL A   1      52.383  19.505  35.986  1.00  0.00     0.002 C 
ENDBRANCH  64  75
ENDBRANCH  57  59
ENDBRANCH  56  57
ENDBRANCH  55  56
ENDBRANCH   1  55
TORSDOF 12
ENDMDL
MODEL 2
REMARK VINA RESULT:     -11.3      3.356      6.226
REMARK SMILES O=C(OCCOC(=O)[C@@H]1c2ccccc2C(=O)N(C2CCCC2)C12CCCCC2)c1ccc(-c2c3nc(c(-c4ccccc4)c4ccc([nH]4)c(-c4ccccc4)c4nc(c(-c5ccccc5)c5ccc2[nH]5)C=C4)C=C3)cc1
REMARK SMILES IDX 4 1 3 2 2 3 1 4 30 5 31 6 77 7 32 8 76 9 33 10 34 11 35 12
REMARK SMILES IDX 70 13 36 14 75 15 69 16 71 17 37 18 74 19 68 20 67 21 38 23
REMARK SMILES IDX 60 24 45 25 59 26 46 27 49 28 58 29 72 30 47 31 48 32 57 34
REMARK SMILES IDX 73 35 50 36 39 37 40 38 44 39 41 40 43 41 42 42 61 43 62 44
REMARK SMILES IDX 66 45 63 46 65 47 64 48 51 49 52 50 56 51 53 52 55 53 54 54
REMARK SMILES IDX 5 55 6 56 7 57 8 58 9 59 10 60 24 61 11 62 15 63 18 64 25 65
REMARK SMILES IDX 29 66 12 67 14 68 16 69 26 70 28 71 13 72 17 73 27 74 19 75
REMARK SMILES IDX 20 76 23 77 21 78 22 79
REMARK H PARENT 71 22 49 33
REMARK Flexibility Score: inf
ROOT
ATOM      1  C   UNL A   1      47.299  23.879  34.382  1.00  0.00     0.275 C 
ENDROOT
BRANCH   1   2
ATOM      2  O   UNL A   1      47.030  24.000  35.794  1.00  0.00    -0.458 OA
BRANCH   2   3
ATOM      3  C   UNL A   1      45.849  24.188  36.432  1.00  0.00     0.338 C 
ATOM      4  O   UNL A   1      45.566  23.532  37.430  1.00  0.00    -0.246 OA
BRANCH   3   5
ATOM      5  C   UNL A   1      44.821  25.145  35.958  1.00  0.00     0.060 A 
ATOM      6  C   UNL A   1      45.260  26.841  35.751  1.00  0.00     0.016 A 
ATOM      7  C   UNL A   1      43.174  24.731  35.514  1.00  0.00     0.016 A 
ATOM      8  C   UNL A   1      44.148  28.066  35.136  1.00  0.00     0.010 A 
ATOM      9  C   UNL A   1      41.982  26.088  34.852  1.00  0.00     0.010 A 
ATOM     10  C   UNL A   1      42.495  27.718  34.650  1.00  0.00    -0.014 A 
BRANCH  10  11
ATOM     11  C   UNL A   1      41.531  28.542  33.862  1.00  0.00     0.031 A 
ATOM     12  C   UNL A   1      41.476  28.528  32.319  1.00  0.00     0.074 A 
ATOM     13  C   UNL A   1      40.898  29.528  34.514  1.00  0.00     0.049 A 
ATOM     14  N   UNL A   1      40.551  28.974  31.505  1.00  0.00    -0.248 NA
ATOM     15  C   UNL A   1      42.553  27.869  31.564  1.00  0.00     0.031 C 
ATOM     16  C   UNL A   1      41.015  29.842  35.937  1.00  0.00     0.029 A 
ATOM     17  N   UNL A   1      40.089  30.509  34.023  1.00  0.00    -0.354 N 
ATOM     18  C   UNL A   1      40.895  28.492  30.230  1.00  0.00     0.074 A 
ATOM     19  C   UNL A   1      42.173  27.877  30.304  1.00  0.00     0.031 C 
ATOM     20  C   UNL A   1      40.360  30.978  36.194  1.00  0.00     0.029 A 
ATOM     21  C   UNL A   1      39.711  31.421  34.972  1.00  0.00     0.049 A 
ATOM     22  H   UNL A   1      39.806  30.559  33.082  1.00  0.00     0.167 HD
ATOM     23  C   UNL A   1      40.149  28.467  29.106  1.00  0.00     0.031 A 
ATOM     24  C   UNL A   1      38.877  32.467  34.877  1.00  0.00     0.031 A 
ATOM     25  C   UNL A   1      38.979  29.270  29.016  1.00  0.00     0.049 A 
ATOM     26  C   UNL A   1      38.112  32.598  33.596  1.00  0.00     0.074 A 
ATOM     27  C   UNL A   1      38.123  29.450  27.955  1.00  0.00     0.029 A 
ATOM     28  N   UNL A   1      38.579  30.116  30.037  1.00  0.00    -0.354 N 
ATOM     29  N   UNL A   1      38.222  31.882  32.497  1.00  0.00    -0.248 NA
ATOM     30  C   UNL A   1      37.065  33.617  33.555  1.00  0.00     0.031 C 
ATOM     31  C   UNL A   1      37.298  30.525  28.287  1.00  0.00     0.029 A 
ATOM     32  C   UNL A   1      37.564  30.922  29.596  1.00  0.00     0.049 A 
ATOM     33  H   UNL A   1      38.966  30.136  30.942  1.00  0.00     0.167 HD
ATOM     34  C   UNL A   1      37.245  32.352  31.635  1.00  0.00     0.074 A 
ATOM     35  C   UNL A   1      36.543  33.401  32.354  1.00  0.00     0.031 C 
ATOM     36  C   UNL A   1      36.943  31.965  30.369  1.00  0.00     0.031 A 
BRANCH  23  37
ATOM     37  C   UNL A   1      40.577  27.611  27.940  1.00  0.00    -0.014 A 
ATOM     38  C   UNL A   1      41.383  28.135  26.918  1.00  0.00     0.009 A 
ATOM     39  C   UNL A   1      40.103  26.292  27.803  1.00  0.00     0.009 A 
ATOM     40  C   UNL A   1      41.675  27.378  25.777  1.00  0.00     0.001 A 
ATOM     41  C   UNL A   1      40.411  25.531  26.671  1.00  0.00     0.001 A 
ATOM     42  C   UNL A   1      41.185  26.080  25.651  1.00  0.00     0.000 A 
ENDBRANCH  23  37
BRANCH  24  43
ATOM     43  C   UNL A   1      38.638  33.252  36.116  1.00  0.00    -0.014 A 
ATOM     44  C   UNL A   1      39.442  34.373  36.408  1.00  0.00     0.009 A 
ATOM     45  C   UNL A   1      37.825  32.726  37.128  1.00  0.00     0.009 A 
ATOM     46  C   UNL A   1      39.475  34.907  37.699  1.00  0.00     0.001 A 
ATOM     47  C   UNL A   1      37.839  33.282  38.410  1.00  0.00     0.001 A 
ATOM     48  C   UNL A   1      38.677  34.358  38.701  1.00  0.00     0.000 A 
ENDBRANCH  24  43
BRANCH  36  49
ATOM     49  C   UNL A   1      35.879  32.726  29.646  1.00  0.00    -0.014 A 
ATOM     50  C   UNL A   1      34.698  32.069  29.269  1.00  0.00     0.009 A 
ATOM     51  C   UNL A   1      36.165  34.000  29.138  1.00  0.00     0.009 A 
ATOM     52  C   UNL A   1      33.846  32.654  28.338  1.00  0.00     0.001 A 
ATOM     53  C   UNL A   1      35.286  34.601  28.244  1.00  0.00     0.001 A 
ATOM     54  C   UNL A   1      34.142  33.919  27.828  1.00  0.00     0.000 A 
ENDBRANCH  36  49
ENDBRANCH  10  11
ENDBRANCH   3   5
ENDBRANCH   2   3
ENDBRANCH   1   2
BRANCH   1  55
ATOM     55  C   UNL A   1      48.086  25.074  33.789  1.00  0.00     0.274 C 
BRANCH  55  56
ATOM     56  O   UNL A   1      47.648  25.547  32.492  1.00  0.00    -0.462 OA
BRANCH  56  57
ATOM     57  C   UNL A   1      47.092  26.784  32.362  1.00  0.00     0.315 C 
ATOM     58  O   UNL A   1      47.170  27.652  33.219  1.00  0.00    -0.251 OA
BRANCH  57  59
ATOM     59  C   UNL A   1      46.243  26.935  31.078  1.00  0.00     0.156 C 
ATOM     60  C   UNL A   1      45.292  25.738  31.003  1.00  0.00    -0.019 A 
ATOM     61  C   UNL A   1      47.004  27.147  29.663  1.00  0.00     0.061 C 
ATOM     62  C   UNL A   1      44.900  25.059  32.176  1.00  0.00     0.005 A 
ATOM     63  C   UNL A   1      44.829  25.261  29.769  1.00  0.00     0.044 A 
ATOM     64  N   UNL A   1      45.779  27.224  28.612  1.00  0.00    -0.329 N 
ATOM     65  C   UNL A   1      48.038  25.593  29.406  1.00  0.00     0.030 C 
ATOM     66  C   UNL A   1      47.987  28.788  29.600  1.00  0.00     0.030 C 
ATOM     67  C   UNL A   1      44.201  23.859  32.112  1.00  0.00     0.000 A 
ATOM     68  C   UNL A   1      44.108  24.060  29.713  1.00  0.00     0.014 A 
ATOM     69  C   UNL A   1      44.977  26.068  28.529  1.00  0.00     0.254 C 
ATOM     70  C   UNL A   1      49.895  25.495  29.423  1.00  0.00     0.002 C 
ATOM     71  C   UNL A   1      50.182  28.739  29.540  1.00  0.00     0.002 C 
ATOM     72  C   UNL A   1      43.829  23.343  30.879  1.00  0.00     0.001 A 
ATOM     73  O   UNL A   1      44.314  25.776  27.537  1.00  0.00    -0.269 OA
ATOM     74  C   UNL A   1      50.994  26.985  29.431  1.00  0.00     0.000 C 
BRANCH  64  75
ATOM     75  C   UNL A   1      45.173  28.413  27.827  1.00  0.00     0.086 C 
ATOM     76  C   UNL A   1      44.503  29.606  28.523  1.00  0.00     0.025 C 
ATOM     77  C   UNL A   1      46.030  29.078  26.757  1.00  0.00     0.025 C 
ATOM     78  C   UNL A   1      44.388  30.701  27.438  1.00  0.00     0.002 C 
ATOM     79  C   UNL A   1      45.495  30.458  26.434  1.00  0.00     0.002 C 
ENDBRANCH  64  75
ENDBRANCH  57  59
ENDBRANCH  56  57
ENDBRANCH  55  56
ENDBRANCH   1  55
TORSDOF 12
ENDMDL
MODEL 3
REMARK VINA RESULT:     -11.2      9.236     16.976
REMARK SMILES O=C(OCCOC(=O)[C@@H]1c2ccccc2C(=O)N(C2CCCC2)C12CCCCC2)c1ccc(-c2c3nc(c(-c4ccccc4)c4ccc([nH]4)c(-c4ccccc4)c4nc(c(-c5ccccc5)c5ccc2[nH]5)C=C4)C=C3)cc1
REMARK SMILES IDX 4 1 3 2 2 3 1 4 30 5 31 6 77 7 32 8 76 9 33 10 34 11 35 12
REMARK SMILES IDX 70 13 36 14 75 15 69 16 71 17 37 18 74 19 68 20 67 21 38 23
REMARK SMILES IDX 60 24 45 25 59 26 46 27 49 28 58 29 72 30 47 31 48 32 57 34
REMARK SMILES IDX 73 35 50 36 39 37 40 38 44 39 41 40 43 41 42 42 61 43 62 44
REMARK SMILES IDX 66 45 63 46 65 47 64 48 51 49 52 50 56 51 53 52 55 53 54 54
REMARK SMILES IDX 5 55 6 56 7 57 8 58 9 59 10 60 24 61 11 62 15 63 18 64 25 65
REMARK SMILES IDX 29 66 12 67 14 68 16 69 26 70 28 71 13 72 17 73 27 74 19 75
REMARK SMILES IDX 20 76 23 77 21 78 22 79
REMARK H PARENT 71 22 49 33
REMARK Flexibility Score: inf
ROOT
ATOM      1  C   UNL A   1      42.985  38.760  27.916  1.00  0.00     0.275 C 
ENDROOT
BRANCH   1   2
ATOM      2  O   UNL A   1      43.411  37.729  27.003  1.00  0.00    -0.458 OA
BRANCH   2   3
ATOM      3  C   UNL A   1      44.552  36.998  27.002  1.00  0.00     0.338 C 
ATOM      4  O   UNL A   1      45.649  37.549  26.993  1.00  0.00    -0.246 OA
BRANCH   3   5
ATOM      5  C   UNL A   1      44.557  35.516  26.973  1.00  0.00     0.060 A 
ATOM      6  C   UNL A   1      45.109  34.631  28.395  1.00  0.00     0.016 A 
ATOM      7  C   UNL A   1      43.995  34.524  25.636  1.00  0.00     0.016 A 
ATOM      8  C   UNL A   1      45.105  32.870  28.508  1.00  0.00     0.010 A 
ATOM      9  C   UNL A   1      44.007  32.607  25.785  1.00  0.00     0.010 A 
ATOM     10  C   UNL A   1      44.534  31.817  27.221  1.00  0.00    -0.014 A 
BRANCH  10  11
ATOM     11  C   UNL A   1      44.198  30.363  27.246  1.00  0.00     0.031 A 
ATOM     12  C   UNL A   1      42.998  29.789  28.031  1.00  0.00     0.074 A 
ATOM     13  C   UNL A   1      45.137  29.513  26.807  1.00  0.00     0.049 A 
ATOM     14  N   UNL A   1      42.424  28.614  27.952  1.00  0.00    -0.248 NA
ATOM     15  C   UNL A   1      42.281  30.651  28.984  1.00  0.00     0.031 C 
ATOM     16  C   UNL A   1      46.441  29.872  26.251  1.00  0.00     0.029 A 
ATOM     17  N   UNL A   1      45.159  28.151  26.850  1.00  0.00    -0.354 N 
ATOM     18  C   UNL A   1      41.242  28.711  28.707  1.00  0.00     0.074 A 
ATOM     19  C   UNL A   1      41.234  29.961  29.382  1.00  0.00     0.031 C 
ATOM     20  C   UNL A   1      47.164  28.763  26.066  1.00  0.00     0.029 A 
ATOM     21  C   UNL A   1      46.341  27.616  26.412  1.00  0.00     0.049 A 
ATOM     22  H   UNL A   1      44.402  27.605  27.164  1.00  0.00     0.167 HD
ATOM     23  C   UNL A   1      40.192  27.866  28.745  1.00  0.00     0.031 A 
ATOM     24  C   UNL A   1      46.699  26.334  26.249  1.00  0.00     0.031 A 
ATOM     25  C   UNL A   1      40.327  26.546  28.233  1.00  0.00     0.049 A 
ATOM     26  C   UNL A   1      45.616  25.312  26.418  1.00  0.00     0.074 A 
ATOM     27  C   UNL A   1      39.421  25.511  28.236  1.00  0.00     0.029 A 
ATOM     28  N   UNL A   1      41.520  26.070  27.715  1.00  0.00    -0.354 N 
ATOM     29  N   UNL A   1      44.373  25.490  26.813  1.00  0.00    -0.248 NA
ATOM     30  C   UNL A   1      45.948  23.935  26.056  1.00  0.00     0.031 C 
ATOM     31  C   UNL A   1      40.124  24.367  27.860  1.00  0.00     0.029 A 
ATOM     32  C   UNL A   1      41.425  24.720  27.508  1.00  0.00     0.049 A 
ATOM     33  H   UNL A   1      42.315  26.619  27.524  1.00  0.00     0.167 HD
ATOM     34  C   UNL A   1      43.765  24.248  26.730  1.00  0.00     0.074 A 
ATOM     35  C   UNL A   1      44.777  23.335  26.228  1.00  0.00     0.031 C 
ATOM     36  C   UNL A   1      42.494  23.880  27.035  1.00  0.00     0.031 A 
BRANCH  23  37
ATOM     37  C   UNL A   1      38.888  28.315  29.359  1.00  0.00    -0.014 A 
ATOM     38  C   UNL A   1      37.930  28.999  28.597  1.00  0.00     0.009 A 
ATOM     39  C   UNL A   1      38.642  28.137  30.734  1.00  0.00     0.009 A 
ATOM     40  C   UNL A   1      36.778  29.523  29.197  1.00  0.00     0.001 A 
ATOM     41  C   UNL A   1      37.482  28.645  31.329  1.00  0.00     0.001 A 
ATOM     42  C   UNL A   1      36.558  29.351  30.563  1.00  0.00     0.000 A 
ENDBRANCH  23  37
BRANCH  24  43
ATOM     43  C   UNL A   1      48.059  26.077  25.710  1.00  0.00    -0.014 A 
ATOM     44  C   UNL A   1      49.128  25.809  26.588  1.00  0.00     0.009 A 
ATOM     45  C   UNL A   1      48.348  26.384  24.373  1.00  0.00     0.009 A 
ATOM     46  C   UNL A   1      50.452  25.911  26.150  1.00  0.00     0.001 A 
ATOM     47  C   UNL A   1      49.672  26.455  23.932  1.00  0.00     0.001 A 
ATOM     48  C   UNL A   1      50.723  26.239  24.823  1.00  0.00     0.000 A 
ENDBRANCH  24  43
BRANCH  36  49
ATOM     49  C   UNL A   1      42.146  22.431  26.927  1.00  0.00    -0.014 A 
ATOM     50  C   UNL A   1      41.348  21.992  25.859  1.00  0.00     0.009 A 
ATOM     51  C   UNL A   1      42.402  21.576  28.006  1.00  0.00     0.009 A 
ATOM     52  C   UNL A   1      40.758  20.734  25.905  1.00  0.00     0.001 A 
ATOM     53  C   UNL A   1      41.848  20.301  28.025  1.00  0.00     0.001 A 
ATOM     54  C   UNL A   1      41.009  19.891  26.988  1.00  0.00     0.000 A 
ENDBRANCH  36  49
ENDBRANCH  10  11
ENDBRANCH   3   5
ENDBRANCH   2   3
ENDBRANCH   1   2
BRANCH   1  55
ATOM     55  C   UNL A   1      42.380  40.004  27.220  1.00  0.00     0.274 C 
BRANCH  55  56
ATOM     56  O   UNL A   1      43.037  40.440  26.006  1.00  0.00    -0.462 OA
BRANCH  56  57
ATOM     57  C   UNL A   1      44.311  40.920  26.047  1.00  0.00     0.315 C 
ATOM     58  O   UNL A   1      45.261  40.362  25.517  1.00  0.00    -0.251 OA
BRANCH  57  59
ATOM     59  C   UNL A   1      44.458  42.176  26.940  1.00  0.00     0.156 C 
ATOM     60  C   UNL A   1      44.608  43.388  26.019  1.00  0.00    -0.019 A 
ATOM     61  C   UNL A   1      45.604  42.186  28.086  1.00  0.00     0.061 C 
ATOM     62  C   UNL A   1      44.083  43.363  24.710  1.00  0.00     0.005 A 
ATOM     63  C   UNL A   1      45.308  44.529  26.436  1.00  0.00     0.044 A 
ATOM     64  N   UNL A   1      45.434  43.653  28.741  1.00  0.00    -0.329 N 
ATOM     65  C   UNL A   1      47.241  42.024  27.167  1.00  0.00     0.030 C 
ATOM     66  C   UNL A   1      45.302  40.860  29.434  1.00  0.00     0.030 C 
ATOM     67  C   UNL A   1      44.377  44.371  23.798  1.00  0.00     0.000 A 
ATOM     68  C   UNL A   1      45.586  45.550  25.516  1.00  0.00     0.014 A 
ATOM     69  C   UNL A   1      45.654  44.737  27.867  1.00  0.00     0.254 C 
ATOM     70  C   UNL A   1      48.393  40.565  27.223  1.00  0.00     0.002 C 
ATOM     71  C   UNL A   1      46.671  39.151  29.603  1.00  0.00     0.002 C 
ATOM     72  C   UNL A   1      45.154  45.452  24.193  1.00  0.00     0.001 A 
ATOM     73  O   UNL A   1      45.993  45.854  28.249  1.00  0.00    -0.269 OA
ATOM     74  C   UNL A   1      48.204  39.164  28.419  1.00  0.00     0.000 C 
BRANCH  64  75
ATOM     75  C   UNL A   1      44.855  44.108  30.103  1.00  0.00     0.086 C 
ATOM     76  C   UNL A   1      43.426  43.765  30.549  1.00  0.00     0.025 C 
ATOM     77  C   UNL A   1      45.678  43.844  31.357  1.00  0.00     0.025 C 
ATOM     78  C   UNL A   1      43.388  44.067  32.065  1.00  0.00     0.002 C 
ATOM     79  C   UNL A   1      44.800  43.915  32.590  1.00  0.00     0.002 C 
ENDBRANCH  64  75
ENDBRANCH  57  59
ENDBRANCH  56  57
ENDBRANCH  55  56
ENDBRANCH   1  55
TORSDOF 12
ENDMDL
