MODEL 1
REMARK VINA RESULT:     -10.2      0.000      0.000
REMARK SMILES Cc1cc(C[N@@H+]2C[C@@H](C(=O)OCCOC(=O)c3ccc(-c4c5nc(c(-c6ccccc6)c6ccc([nH]6)c(-c6ccccc6)c6nc(c(-c7ccccc7)c7ccc4[nH]7)C=C6)C=C5)cc3)[C@H](C3CC3)C2)on1
REMARK SMILES IDX 12 1 11 2 9 3 10 4 8 5 6 6 7 7 69 8 65 10 5 11 4 12 1 13
REMARK SMILES IDX 2 14 3 15 71 16 70 17 66 18 67 19 68 20 13 21 14 22 15 23
REMARK SMILES IDX 16 24 17 25 18 26 64 27 19 28 63 29 20 30 21 31 22 32 57 33
REMARK SMILES IDX 23 34 62 35 56 36 58 37 24 38 61 39 55 40 54 41 25 43 47 44
REMARK SMILES IDX 32 45 46 46 33 47 36 48 45 49 59 50 34 51 35 52 44 54 60 55
REMARK SMILES IDX 37 56 26 57 27 58 31 59 28 60 30 61 29 62 48 63 49 64 53 65
REMARK SMILES IDX 50 66 52 67 51 68 38 69 39 70 43 71 40 72 42 73 41 74
REMARK H PARENT 6 9 58 42 36 53
REMARK Flexibility Score: inf
ROOT
ATOM      1  C   UNL A   1      38.136  20.906  24.964  1.00  0.00     0.274 C 
ENDROOT
BRANCH   1   2
ATOM      2  O   UNL A   1      36.699  20.783  25.043  1.00  0.00    -0.462 OA
BRANCH   2   3
ATOM      3  C   UNL A   1      36.004  21.880  24.648  1.00  0.00     0.315 C 
ATOM      4  O   UNL A   1      36.384  22.622  23.749  1.00  0.00    -0.252 OA
BRANCH   3   5
ATOM      5  C   UNL A   1      34.712  22.129  25.413  1.00  0.00     0.163 C 
ATOM      6  N   UNL A   1      33.178  21.398  27.093  1.00  0.00    -0.328 N 
ATOM      7  C   UNL A   1      34.614  21.472  26.785  1.00  0.00     0.278 C 
ATOM      8  C   UNL A   1      32.501  21.178  25.815  1.00  0.00     0.267 C 
ATOM      9  H   UNL A   1      33.008  20.623  27.734  1.00  0.00     0.348 HD
ATOM     10  C   UNL A   1      33.481  21.587  24.691  1.00  0.00     0.067 C 
BRANCH   6  11
ATOM     11  C   UNL A   1      32.632  22.510  27.891  1.00  0.00     0.341 C 
BRANCH  11  12
ATOM     12  C   UNL A   1      31.839  23.548  27.176  1.00  0.00     0.191 A 
ATOM     13  C   UNL A   1      30.653  26.511  25.391  1.00  0.00     0.070 C 
ATOM     14  C   UNL A   1      30.914  25.225  26.082  1.00  0.00     0.081 A 
ATOM     15  C   UNL A   1      32.160  24.622  26.377  1.00  0.00     0.078 A 
ATOM     16  N   UNL A   1      29.901  24.522  26.603  1.00  0.00    -0.085 NA
ATOM     17  O   UNL A   1      30.485  23.464  27.280  1.00  0.00    -0.355 OA
ENDBRANCH  11  12
ENDBRANCH   6  11
BRANCH  10  18
ATOM     18  C   UNL A   1      32.784  22.450  23.665  1.00  0.00    -0.001 C 
ATOM     19  C   UNL A   1      33.439  22.941  22.398  1.00  0.00     0.004 C 
ATOM     20  C   UNL A   1      32.321  21.964  22.308  1.00  0.00     0.004 C 
ENDBRANCH  10  18
ENDBRANCH   3   5
ENDBRANCH   2   3
ENDBRANCH   1   2
BRANCH   1  21
ATOM     21  C   UNL A   1      38.861  19.560  25.085  1.00  0.00     0.275 C 
BRANCH  21  22
ATOM     22  O   UNL A   1      39.648  19.460  26.293  1.00  0.00    -0.458 OA
BRANCH  22  23
ATOM     23  C   UNL A   1      40.982  19.610  26.125  1.00  0.00     0.338 C 
ATOM     24  O   UNL A   1      41.720  18.875  25.478  1.00  0.00    -0.246 OA
BRANCH  23  25
ATOM     25  C   UNL A   1      41.455  20.907  26.660  1.00  0.00     0.060 A 
ATOM     26  C   UNL A   1      41.513  21.950  25.739  1.00  0.00     0.016 A 
ATOM     27  C   UNL A   1      41.862  21.139  27.978  1.00  0.00     0.016 A 
ATOM     28  C   UNL A   1      41.833  23.241  26.137  1.00  0.00     0.010 A 
ATOM     29  C   UNL A   1      42.256  22.437  28.370  1.00  0.00     0.010 A 
ATOM     30  C   UNL A   1      42.199  23.506  27.458  1.00  0.00    -0.014 A 
BRANCH  30  31
ATOM     31  C   UNL A   1      42.582  24.905  27.773  1.00  0.00     0.031 A 
ATOM     32  C   UNL A   1      43.951  25.390  27.384  1.00  0.00     0.074 A 
ATOM     33  C   UNL A   1      41.665  25.797  28.199  1.00  0.00     0.049 A 
ATOM     34  N   UNL A   1      44.467  26.589  27.484  1.00  0.00    -0.248 NA
ATOM     35  C   UNL A   1      44.843  24.396  26.766  1.00  0.00     0.031 C 
ATOM     36  C   UNL A   1      40.253  25.510  28.446  1.00  0.00     0.029 A 
ATOM     37  N   UNL A   1      41.781  27.144  28.451  1.00  0.00    -0.354 N 
ATOM     38  C   UNL A   1      45.744  26.493  26.946  1.00  0.00     0.074 A 
ATOM     39  C   UNL A   1      45.917  25.125  26.504  1.00  0.00     0.031 C 
ATOM     40  C   UNL A   1      39.630  26.651  28.794  1.00  0.00     0.029 A 
ATOM     41  C   UNL A   1      40.608  27.735  28.858  1.00  0.00     0.049 A 
ATOM     42  H   UNL A   1      42.625  27.640  28.349  1.00  0.00     0.167 HD
ATOM     43  C   UNL A   1      46.700  27.447  26.851  1.00  0.00     0.031 A 
ATOM     44  C   UNL A   1      40.361  28.995  29.270  1.00  0.00     0.031 A 
ATOM     45  C   UNL A   1      46.561  28.793  27.339  1.00  0.00     0.049 A 
ATOM     46  C   UNL A   1      41.493  29.992  29.315  1.00  0.00     0.074 A 
ATOM     47  C   UNL A   1      47.508  29.802  27.370  1.00  0.00     0.029 A 
ATOM     48  N   UNL A   1      45.403  29.313  27.895  1.00  0.00    -0.354 N 
ATOM     49  N   UNL A   1      42.723  29.873  28.876  1.00  0.00    -0.248 NA
ATOM     50  C   UNL A   1      41.200  31.297  29.928  1.00  0.00     0.031 C 
ATOM     51  C   UNL A   1      46.942  30.912  28.007  1.00  0.00     0.029 A 
ATOM     52  C   UNL A   1      45.620  30.620  28.300  1.00  0.00     0.049 A 
ATOM     53  H   UNL A   1      44.551  28.828  27.987  1.00  0.00     0.167 HD
ATOM     54  C   UNL A   1      43.342  31.090  29.143  1.00  0.00     0.074 A 
ATOM     55  C   UNL A   1      42.344  31.944  29.752  1.00  0.00     0.031 C 
ATOM     56  C   UNL A   1      44.625  31.464  28.912  1.00  0.00     0.031 A 
BRANCH  43  57
ATOM     57  C   UNL A   1      48.028  27.018  26.295  1.00  0.00    -0.014 A 
ATOM     58  C   UNL A   1      48.310  27.075  24.922  1.00  0.00     0.009 A 
ATOM     59  C   UNL A   1      49.010  26.533  27.174  1.00  0.00     0.009 A 
ATOM     60  C   UNL A   1      49.538  26.618  24.437  1.00  0.00     0.001 A 
ATOM     61  C   UNL A   1      50.245  26.105  26.690  1.00  0.00     0.001 A 
ATOM     62  C   UNL A   1      50.504  26.136  25.321  1.00  0.00     0.000 A 
ENDBRANCH  43  57
BRANCH  44  63
ATOM     63  C   UNL A   1      39.012  29.386  29.771  1.00  0.00    -0.014 A 
ATOM     64  C   UNL A   1      38.639  29.167  31.107  1.00  0.00     0.009 A 
ATOM     65  C   UNL A   1      38.053  29.898  28.882  1.00  0.00     0.009 A 
ATOM     66  C   UNL A   1      37.330  29.417  31.530  1.00  0.00     0.001 A 
ATOM     67  C   UNL A   1      36.755  30.183  29.315  1.00  0.00     0.001 A 
ATOM     68  C   UNL A   1      36.391  29.928  30.634  1.00  0.00     0.000 A 
ENDBRANCH  44  63
BRANCH  56  69
ATOM     69  C   UNL A   1      45.013  32.872  29.283  1.00  0.00    -0.014 A 
ATOM     70  C   UNL A   1      45.539  33.182  30.547  1.00  0.00     0.009 A 
ATOM     71  C   UNL A   1      44.866  33.903  28.342  1.00  0.00     0.009 A 
ATOM     72  C   UNL A   1      45.862  34.501  30.877  1.00  0.00     0.001 A 
ATOM     73  C   UNL A   1      45.223  35.215  28.660  1.00  0.00     0.001 A 
ATOM     74  C   UNL A   1      45.707  35.514  29.932  1.00  0.00     0.000 A 
ENDBRANCH  56  69
ENDBRANCH  30  31
ENDBRANCH  23  25
ENDBRANCH  22  23
ENDBRANCH  21  22
ENDBRANCH   1  21
TORSDOF 14
ENDMDL
MODEL 2
REMARK VINA RESULT:     -10.2      1.794      2.411
REMARK SMILES Cc1cc(C[N@@H+]2C[C@@H](C(=O)OCCOC(=O)c3ccc(-c4c5nc(c(-c6ccccc6)c6ccc([nH]6)c(-c6ccccc6)c6nc(c(-c7ccccc7)c7ccc4[nH]7)C=C6)C=C5)cc3)[C@H](C3CC3)C2)on1
REMARK SMILES IDX 12 1 11 2 9 3 10 4 8 5 6 6 7 7 69 8 65 10 5 11 4 12 1 13
REMARK SMILES IDX 2 14 3 15 71 16 70 17 66 18 67 19 68 20 13 21 14 22 15 23
REMARK SMILES IDX 16 24 17 25 18 26 64 27 19 28 63 29 20 30 21 31 22 32 57 33
REMARK SMILES IDX 23 34 62 35 56 36 58 37 24 38 61 39 55 40 54 41 25 43 47 44
REMARK SMILES IDX 32 45 46 46 33 47 36 48 45 49 59 50 34 51 35 52 44 54 60 55
REMARK SMILES IDX 37 56 26 57 27 58 31 59 28 60 30 61 29 62 48 63 49 64 53 65
REMARK SMILES IDX 50 66 52 67 51 68 38 69 39 70 43 71 40 72 42 73 41 74
REMARK H PARENT 6 9 58 42 36 53
REMARK Flexibility Score: inf
ROOT
ATOM      1  C   UNL A   1      37.634  19.950  25.006  1.00  0.00     0.274 C 
ENDROOT
BRANCH   1   2
ATOM      2  O   UNL A   1      36.871  21.077  24.522  1.00  0.00    -0.462 OA
BRANCH   2   3
ATOM      3  C   UNL A   1      35.847  21.467  25.324  1.00  0.00     0.315 C 
ATOM      4  O   UNL A   1      35.951  21.557  26.542  1.00  0.00    -0.252 OA
BRANCH   3   5
ATOM      5  C   UNL A   1      34.548  21.779  24.596  1.00  0.00     0.163 C 
ATOM      6  N   UNL A   1      32.478  22.972  24.564  1.00  0.00    -0.328 N 
ATOM      7  C   UNL A   1      33.890  23.108  24.947  1.00  0.00     0.278 C 
ATOM      8  C   UNL A   1      32.126  21.573  24.810  1.00  0.00     0.267 C 
ATOM      9  H   UNL A   1      31.909  23.597  25.136  1.00  0.00     0.348 HD
ATOM     10  C   UNL A   1      33.444  20.768  24.894  1.00  0.00     0.067 C 
BRANCH   6  11
ATOM     11  C   UNL A   1      32.123  23.464  23.221  1.00  0.00     0.341 C 
BRANCH  11  12
ATOM     12  C   UNL A   1      32.618  24.812  22.827  1.00  0.00     0.191 A 
ATOM     13  C   UNL A   1      33.287  28.390  22.472  1.00  0.00     0.070 C 
ATOM     14  C   UNL A   1      33.191  26.910  22.457  1.00  0.00     0.081 A 
ATOM     15  C   UNL A   1      32.585  26.058  23.411  1.00  0.00     0.078 A 
ATOM     16  N   UNL A   1      33.629  26.216  21.399  1.00  0.00    -0.085 NA
ATOM     17  O   UNL A   1      33.278  24.899  21.640  1.00  0.00    -0.355 OA
ENDBRANCH  11  12
ENDBRANCH   6  11
BRANCH  10  18
ATOM     18  C   UNL A   1      33.351  19.506  24.067  1.00  0.00    -0.001 C 
ATOM     19  C   UNL A   1      33.981  18.195  24.463  1.00  0.00     0.004 C 
ATOM     20  C   UNL A   1      32.498  18.308  24.425  1.00  0.00     0.004 C 
ENDBRANCH  10  18
ENDBRANCH   3   5
ENDBRANCH   2   3
ENDBRANCH   1   2
BRANCH   1  21
ATOM     21  C   UNL A   1      39.118  20.275  25.217  1.00  0.00     0.275 C 
BRANCH  21  22
ATOM     22  O   UNL A   1      39.844  19.186  25.828  1.00  0.00    -0.458 OA
BRANCH  22  23
ATOM     23  C   UNL A   1      41.180  19.372  25.936  1.00  0.00     0.338 C 
ATOM     24  O   UNL A   1      42.053  18.691  25.409  1.00  0.00    -0.246 OA
BRANCH  23  25
ATOM     25  C   UNL A   1      41.498  20.645  26.622  1.00  0.00     0.060 A 
ATOM     26  C   UNL A   1      42.077  21.629  25.824  1.00  0.00     0.016 A 
ATOM     27  C   UNL A   1      41.288  20.906  27.980  1.00  0.00     0.016 A 
ATOM     28  C   UNL A   1      42.320  22.902  26.319  1.00  0.00     0.010 A 
ATOM     29  C   UNL A   1      41.600  22.180  28.503  1.00  0.00     0.010 A 
ATOM     30  C   UNL A   1      42.077  23.200  27.661  1.00  0.00    -0.014 A 
BRANCH  30  31
ATOM     31  C   UNL A   1      42.425  24.572  28.111  1.00  0.00     0.031 A 
ATOM     32  C   UNL A   1      43.874  24.968  28.185  1.00  0.00     0.074 A 
ATOM     33  C   UNL A   1      41.477  25.520  28.244  1.00  0.00     0.049 A 
ATOM     34  N   UNL A   1      44.404  26.131  28.468  1.00  0.00    -0.248 NA
ATOM     35  C   UNL A   1      44.853  23.919  27.859  1.00  0.00     0.031 C 
ATOM     36  C   UNL A   1      40.045  25.325  28.027  1.00  0.00     0.029 A 
ATOM     37  N   UNL A   1      41.589  26.857  28.548  1.00  0.00    -0.354 N 
ATOM     38  C   UNL A   1      45.778  25.953  28.358  1.00  0.00     0.074 A 
ATOM     39  C   UNL A   1      45.997  24.577  27.965  1.00  0.00     0.031 C 
ATOM     40  C   UNL A   1      39.414  26.503  28.184  1.00  0.00     0.029 A 
ATOM     41  C   UNL A   1      40.386  27.522  28.577  1.00  0.00     0.049 A 
ATOM     42  H   UNL A   1      42.451  27.298  28.729  1.00  0.00     0.167 HD
ATOM     43  C   UNL A   1      46.770  26.844  28.590  1.00  0.00     0.031 A 
ATOM     44  C   UNL A   1      40.099  28.795  28.916  1.00  0.00     0.031 A 
ATOM     45  C   UNL A   1      46.566  28.195  29.037  1.00  0.00     0.049 A 
ATOM     46  C   UNL A   1      41.216  29.717  29.338  1.00  0.00     0.074 A 
ATOM     47  C   UNL A   1      47.514  29.140  29.388  1.00  0.00     0.029 A 
ATOM     48  N   UNL A   1      45.326  28.789  29.210  1.00  0.00    -0.354 N 
ATOM     49  N   UNL A   1      42.513  29.519  29.308  1.00  0.00    -0.248 NA
ATOM     50  C   UNL A   1      40.825  31.038  29.855  1.00  0.00     0.031 C 
ATOM     51  C   UNL A   1      46.844  30.284  29.837  1.00  0.00     0.029 A 
ATOM     52  C   UNL A   1      45.483  30.078  29.692  1.00  0.00     0.049 A 
ATOM     53  H   UNL A   1      44.461  28.359  29.019  1.00  0.00     0.167 HD
ATOM     54  C   UNL A   1      43.088  30.693  29.782  1.00  0.00     0.074 A 
ATOM     55  C   UNL A   1      42.003  31.609  30.062  1.00  0.00     0.031 C 
ATOM     56  C   UNL A   1      44.399  30.984  29.976  1.00  0.00     0.031 A 
BRANCH  43  57
ATOM     57  C   UNL A   1      48.177  26.330  28.473  1.00  0.00    -0.014 A 
ATOM     58  C   UNL A   1      48.848  25.752  29.562  1.00  0.00     0.009 A 
ATOM     59  C   UNL A   1      48.846  26.447  27.244  1.00  0.00     0.009 A 
ATOM     60  C   UNL A   1      50.174  25.334  29.428  1.00  0.00     0.001 A 
ATOM     61  C   UNL A   1      50.160  26.003  27.107  1.00  0.00     0.001 A 
ATOM     62  C   UNL A   1      50.827  25.458  28.202  1.00  0.00     0.000 A 
ENDBRANCH  43  57
BRANCH  44  63
ATOM     63  C   UNL A   1      38.686  29.271  28.974  1.00  0.00    -0.014 A 
ATOM     64  C   UNL A   1      37.908  29.106  30.131  1.00  0.00     0.009 A 
ATOM     65  C   UNL A   1      38.080  29.815  27.830  1.00  0.00     0.009 A 
ATOM     66  C   UNL A   1      36.549  29.438  30.127  1.00  0.00     0.001 A 
ATOM     67  C   UNL A   1      36.732  30.181  27.839  1.00  0.00     0.001 A 
ATOM     68  C   UNL A   1      35.964  29.978  28.983  1.00  0.00     0.000 A 
ENDBRANCH  44  63
BRANCH  56  69
ATOM     69  C   UNL A   1      44.734  32.363  30.480  1.00  0.00    -0.014 A 
ATOM     70  C   UNL A   1      44.939  33.439  29.601  1.00  0.00     0.009 A 
ATOM     71  C   UNL A   1      44.825  32.594  31.862  1.00  0.00     0.009 A 
ATOM     72  C   UNL A   1      45.279  34.702  30.093  1.00  0.00     0.001 A 
ATOM     73  C   UNL A   1      45.129  33.865  32.354  1.00  0.00     0.001 A 
ATOM     74  C   UNL A   1      45.369  34.914  31.468  1.00  0.00     0.000 A 
ENDBRANCH  56  69
ENDBRANCH  30  31
ENDBRANCH  23  25
ENDBRANCH  22  23
ENDBRANCH  21  22
ENDBRANCH   1  21
TORSDOF 14
ENDMDL
MODEL 3
REMARK VINA RESULT:     -10.1      2.786      7.644
REMARK SMILES Cc1cc(C[N@@H+]2C[C@@H](C(=O)OCCOC(=O)c3ccc(-c4c5nc(c(-c6ccccc6)c6ccc([nH]6)c(-c6ccccc6)c6nc(c(-c7ccccc7)c7ccc4[nH]7)C=C6)C=C5)cc3)[C@H](C3CC3)C2)on1
REMARK SMILES IDX 12 1 11 2 9 3 10 4 8 5 6 6 7 7 69 8 65 10 5 11 4 12 1 13
REMARK SMILES IDX 2 14 3 15 71 16 70 17 66 18 67 19 68 20 13 21 14 22 15 23
REMARK SMILES IDX 16 24 17 25 18 26 64 27 19 28 63 29 20 30 21 31 22 32 57 33
REMARK SMILES IDX 23 34 62 35 56 36 58 37 24 38 61 39 55 40 54 41 25 43 47 44
REMARK SMILES IDX 32 45 46 46 33 47 36 48 45 49 59 50 34 51 35 52 44 54 60 55
REMARK SMILES IDX 37 56 26 57 27 58 31 59 28 60 30 61 29 62 48 63 49 64 53 65
REMARK SMILES IDX 50 66 52 67 51 68 38 69 39 70 43 71 40 72 42 73 41 74
REMARK H PARENT 6 9 58 42 36 53
REMARK Flexibility Score: inf
ROOT
ATOM      1  C   UNL A   1      32.183  29.224  25.667  1.00  0.00     0.274 C 
ENDROOT
BRANCH   1   2
ATOM      2  O   UNL A   1      32.782  27.920  25.834  1.00  0.00    -0.462 OA
BRANCH   2   3
ATOM      3  C   UNL A   1      33.248  27.349  24.694  1.00  0.00     0.315 C 
ATOM      4  O   UNL A   1      33.827  27.984  23.819  1.00  0.00    -0.252 OA
BRANCH   3   5
ATOM      5  C   UNL A   1      32.992  25.854  24.577  1.00  0.00     0.163 C 
ATOM      6  N   UNL A   1      33.645  23.751  23.647  1.00  0.00    -0.328 N 
ATOM      7  C   UNL A   1      34.196  25.000  24.195  1.00  0.00     0.278 C 
ATOM      8  C   UNL A   1      32.409  24.123  22.957  1.00  0.00     0.267 C 
ATOM      9  H   UNL A   1      34.316  23.342  22.997  1.00  0.00     0.348 HD
ATOM     10  C   UNL A   1      31.977  25.510  23.490  1.00  0.00     0.067 C 
BRANCH   6  11
ATOM     11  C   UNL A   1      33.503  22.636  24.599  1.00  0.00     0.341 C 
BRANCH  11  12
ATOM     12  C   UNL A   1      32.392  22.712  25.589  1.00  0.00     0.191 A 
ATOM     13  C   UNL A   1      29.176  22.718  27.328  1.00  0.00     0.070 C 
ATOM     14  C   UNL A   1      30.575  22.745  26.839  1.00  0.00     0.081 A 
ATOM     15  C   UNL A   1      31.083  22.288  25.599  1.00  0.00     0.078 A 
ATOM     16  N   UNL A   1      31.532  23.339  27.563  1.00  0.00    -0.085 NA
ATOM     17  O   UNL A   1      32.673  23.307  26.780  1.00  0.00    -0.355 OA
ENDBRANCH  11  12
ENDBRANCH   6  11
BRANCH  10  18
ATOM     18  C   UNL A   1      30.503  25.516  23.824  1.00  0.00    -0.001 C 
ATOM     19  C   UNL A   1      29.946  25.968  25.151  1.00  0.00     0.004 C 
ATOM     20  C   UNL A   1      29.654  26.764  23.928  1.00  0.00     0.004 C 
ENDBRANCH  10  18
ENDBRANCH   3   5
ENDBRANCH   2   3
ENDBRANCH   1   2
BRANCH   1  21
ATOM     21  C   UNL A   1      32.947  30.335  26.398  1.00  0.00     0.275 C 
BRANCH  21  22
ATOM     22  O   UNL A   1      33.780  29.828  27.464  1.00  0.00    -0.458 OA
BRANCH  22  23
ATOM     23  C   UNL A   1      34.561  30.750  28.073  1.00  0.00     0.338 C 
ATOM     24  O   UNL A   1      34.212  31.865  28.445  1.00  0.00    -0.246 OA
BRANCH  23  25
ATOM     25  C   UNL A   1      35.881  30.188  28.438  1.00  0.00     0.060 A 
ATOM     26  C   UNL A   1      36.820  30.148  27.410  1.00  0.00     0.016 A 
ATOM     27  C   UNL A   1      36.227  29.686  29.696  1.00  0.00     0.016 A 
ATOM     28  C   UNL A   1      38.128  29.748  27.650  1.00  0.00     0.010 A 
ATOM     29  C   UNL A   1      37.537  29.212  29.924  1.00  0.00     0.010 A 
ATOM     30  C   UNL A   1      38.509  29.285  28.910  1.00  0.00    -0.014 A 
BRANCH  30  31
ATOM     31  C   UNL A   1      39.913  28.823  29.052  1.00  0.00     0.031 A 
ATOM     32  C   UNL A   1      40.886  29.676  29.817  1.00  0.00     0.074 A 
ATOM     33  C   UNL A   1      40.270  27.572  28.699  1.00  0.00     0.049 A 
ATOM     34  N   UNL A   1      42.132  29.431  30.137  1.00  0.00    -0.248 NA
ATOM     35  C   UNL A   1      40.372  30.959  30.320  1.00  0.00     0.031 C 
ATOM     36  C   UNL A   1      39.384  26.570  28.110  1.00  0.00     0.029 A 
ATOM     37  N   UNL A   1      41.472  26.916  28.833  1.00  0.00    -0.354 N 
ATOM     38  C   UNL A   1      42.552  30.531  30.874  1.00  0.00     0.074 A 
ATOM     39  C   UNL A   1      41.424  31.434  30.970  1.00  0.00     0.031 C 
ATOM     40  C   UNL A   1      40.066  25.421  27.954  1.00  0.00     0.029 A 
ATOM     41  C   UNL A   1      41.453  25.623  28.369  1.00  0.00     0.049 A 
ATOM     42  H   UNL A   1      42.272  27.334  29.226  1.00  0.00     0.167 HD
ATOM     43  C   UNL A   1      43.772  30.784  31.401  1.00  0.00     0.031 A 
ATOM     44  C   UNL A   1      42.448  24.719  28.258  1.00  0.00     0.031 A 
ATOM     45  C   UNL A   1      44.916  29.923  31.262  1.00  0.00     0.049 A 
ATOM     46  C   UNL A   1      43.841  25.097  28.699  1.00  0.00     0.074 A 
ATOM     47  C   UNL A   1      46.217  30.141  31.682  1.00  0.00     0.029 A 
ATOM     48  N   UNL A   1      44.898  28.684  30.642  1.00  0.00    -0.354 N 
ATOM     49  N   UNL A   1      44.250  26.173  29.327  1.00  0.00    -0.248 NA
ATOM     50  C   UNL A   1      44.913  24.134  28.400  1.00  0.00     0.031 C 
ATOM     51  C   UNL A   1      46.999  29.062  31.256  1.00  0.00     0.029 A 
ATOM     52  C   UNL A   1      46.172  28.138  30.641  1.00  0.00     0.049 A 
ATOM     53  H   UNL A   1      44.099  28.254  30.260  1.00  0.00     0.167 HD
ATOM     54  C   UNL A   1      45.619  26.007  29.514  1.00  0.00     0.074 A 
ATOM     55  C   UNL A   1      45.964  24.713  28.962  1.00  0.00     0.031 C 
ATOM     56  C   UNL A   1      46.512  26.854  30.084  1.00  0.00     0.031 A 
BRANCH  43  57
ATOM     57  C   UNL A   1      43.952  32.113  32.079  1.00  0.00    -0.014 A 
ATOM     58  C   UNL A   1      44.341  33.260  31.370  1.00  0.00     0.009 A 
ATOM     59  C   UNL A   1      43.740  32.206  33.464  1.00  0.00     0.009 A 
ATOM     60  C   UNL A   1      44.549  34.466  32.044  1.00  0.00     0.001 A 
ATOM     61  C   UNL A   1      43.920  33.418  34.129  1.00  0.00     0.001 A 
ATOM     62  C   UNL A   1      44.336  34.544  33.420  1.00  0.00     0.000 A 
ENDBRANCH  43  57
BRANCH  44  63
ATOM     63  C   UNL A   1      42.209  23.393  27.618  1.00  0.00    -0.014 A 
ATOM     64  C   UNL A   1      42.513  23.172  26.265  1.00  0.00     0.009 A 
ATOM     65  C   UNL A   1      41.586  22.364  28.342  1.00  0.00     0.009 A 
ATOM     66  C   UNL A   1      42.163  21.967  25.646  1.00  0.00     0.001 A 
ATOM     67  C   UNL A   1      41.271  21.148  27.731  1.00  0.00     0.001 A 
ATOM     68  C   UNL A   1      41.546  20.956  26.380  1.00  0.00     0.000 A 
ENDBRANCH  44  63
BRANCH  56  69
ATOM     69  C   UNL A   1      47.942  26.391  30.176  1.00  0.00    -0.014 A 
ATOM     70  C   UNL A   1      48.853  26.601  29.128  1.00  0.00     0.009 A 
ATOM     71  C   UNL A   1      48.391  25.751  31.342  1.00  0.00     0.009 A 
ATOM     72  C   UNL A   1      50.167  26.134  29.226  1.00  0.00     0.001 A 
ATOM     73  C   UNL A   1      49.714  25.318  31.453  1.00  0.00     0.001 A 
ATOM     74  C   UNL A   1      50.596  25.498  30.390  1.00  0.00     0.000 A 
ENDBRANCH  56  69
ENDBRANCH  30  31
ENDBRANCH  23  25
ENDBRANCH  22  23
ENDBRANCH  21  22
ENDBRANCH   1  21
TORSDOF 14
ENDMDL
