MODEL 1
REMARK VINA RESULT:     -11.4      0.000      0.000
REMARK SMILES Cc1c(C(=O)OCCOC(=O)c2ccc(-c3c4nc(c(-c5ccccc5)c5ccc([nH]5)c(-c5ccccc5)c5nc(c(-c6ccccc6)c6ccc3[nH]6)C=C5)C=C4)cc2)sc2ncnc(NCc3cn4c(n3)SCC4)c12
REMARK SMILES IDX 7 1 6 2 4 3 5 4 3 5 1 6 2 7 76 8 60 9 61 10 65 11 62 12
REMARK SMILES IDX 64 13 63 14 66 15 67 17 68 18 69 19 72 20 70 21 71 22 75 23
REMARK SMILES IDX 73 24 74 25 8 26 9 27 10 28 11 29 12 30 13 31 59 32 14 33
REMARK SMILES IDX 58 34 15 35 16 36 17 37 52 38 18 39 57 40 51 41 53 42 19 43
REMARK SMILES IDX 56 44 50 45 49 46 20 48 42 49 27 50 41 51 28 52 31 53 40 54
REMARK SMILES IDX 54 55 29 56 30 57 39 59 55 60 32 61 21 62 22 63 26 64 23 65
REMARK SMILES IDX 25 66 24 67 43 68 44 69 48 70 45 71 47 72 46 73 33 74 34 75
REMARK SMILES IDX 38 76 35 77 37 78 36 79
REMARK H PARENT 66 16 53 47 31 58
REMARK Flexibility Score: inf
ROOT
ATOM      1  C   UNL A   1      38.265  34.106  33.744  1.00  0.00     0.275 C 
ENDROOT
BRANCH   1   2
ATOM      2  O   UNL A   1      37.087  34.921  33.832  1.00  0.00    -0.458 OA
BRANCH   2   3
ATOM      3  C   UNL A   1      35.904  34.241  33.802  1.00  0.00     0.348 C 
ATOM      4  O   UNL A   1      35.534  33.510  34.719  1.00  0.00    -0.245 OA
BRANCH   3   5
ATOM      5  C   UNL A   1      35.123  34.553  32.610  1.00  0.00     0.118 A 
ATOM      6  C   UNL A   1      35.842  32.576  31.216  1.00  0.00     0.047 C 
ATOM      7  C   UNL A   1      35.063  33.837  31.408  1.00  0.00    -0.012 A 
ATOM      8  C   UNL A   1      34.156  34.466  30.427  1.00  0.00     0.058 A 
ATOM      9  S   UNL A   1      34.132  35.934  32.574  1.00  0.00    -0.108 S 
ATOM     10  C   UNL A   1      33.644  35.638  30.981  1.00  0.00     0.129 A 
ATOM     11  C   UNL A   1      33.711  34.212  29.093  1.00  0.00     0.138 A 
ATOM     12  N   UNL A   1      32.834  36.541  30.405  1.00  0.00    -0.225 NA
ATOM     13  N   UNL A   1      32.923  35.141  28.491  1.00  0.00    -0.219 NA
ATOM     14  C   UNL A   1      32.529  36.225  29.156  1.00  0.00     0.225 A 
BRANCH  11  15
ATOM     15  N   UNL A   1      33.971  33.192  28.218  1.00  0.00    -0.364 N 
ATOM     16  H   UNL A   1      33.987  33.458  27.270  1.00  0.00     0.162 HD
BRANCH  15  17
ATOM     17  C   UNL A   1      34.226  31.803  28.453  1.00  0.00     0.172 C 
BRANCH  17  18
ATOM     18  C   UNL A   1      33.850  30.791  27.424  1.00  0.00     0.079 A 
ATOM     19  C   UNL A   1      32.695  30.813  26.650  1.00  0.00     0.113 A 
ATOM     20  N   UNL A   1      34.550  29.606  27.252  1.00  0.00    -0.226 NA
ATOM     21  N   UNL A   1      32.681  29.599  26.064  1.00  0.00    -0.325 N 
ATOM     22  C   UNL A   1      33.807  28.927  26.423  1.00  0.00     0.168 A 
ATOM     23  C   UNL A   1      31.605  28.816  25.496  1.00  0.00     0.135 C 
ATOM     24  S   UNL A   1      33.697  27.241  26.081  1.00  0.00    -0.086 SA
ATOM     25  C   UNL A   1      31.864  27.388  25.978  1.00  0.00     0.100 C 
ENDBRANCH  17  18
ENDBRANCH  15  17
ENDBRANCH  11  15
ENDBRANCH   3   5
ENDBRANCH   2   3
ENDBRANCH   1   2
BRANCH   1  26
ATOM     26  C   UNL A   1      39.170  34.571  32.610  1.00  0.00     0.275 C 
BRANCH  26  27
ATOM     27  O   UNL A   1      38.784  34.045  31.336  1.00  0.00    -0.458 OA
BRANCH  27  28
ATOM     28  C   UNL A   1      39.811  33.777  30.497  1.00  0.00     0.338 C 
ATOM     29  O   UNL A   1      40.194  34.463  29.566  1.00  0.00    -0.246 OA
BRANCH  28  30
ATOM     30  C   UNL A   1      40.286  32.401  30.709  1.00  0.00     0.060 A 
ATOM     31  C   UNL A   1      41.646  32.153  30.501  1.00  0.00     0.016 A 
ATOM     32  C   UNL A   1      39.370  31.350  30.863  1.00  0.00     0.016 A 
ATOM     33  C   UNL A   1      42.064  30.851  30.305  1.00  0.00     0.010 A 
ATOM     34  C   UNL A   1      39.790  30.049  30.666  1.00  0.00     0.010 A 
ATOM     35  C   UNL A   1      41.118  29.818  30.323  1.00  0.00    -0.014 A 
BRANCH  35  36
ATOM     36  C   UNL A   1      41.587  28.468  30.065  1.00  0.00     0.031 A 
ATOM     37  C   UNL A   1      42.416  27.913  31.166  1.00  0.00     0.074 A 
ATOM     38  C   UNL A   1      41.232  27.767  28.970  1.00  0.00     0.049 A 
ATOM     39  N   UNL A   1      43.672  27.612  31.138  1.00  0.00    -0.248 NA
ATOM     40  C   UNL A   1      41.810  27.834  32.507  1.00  0.00     0.031 C 
ATOM     41  C   UNL A   1      40.225  28.108  27.960  1.00  0.00     0.029 A 
ATOM     42  N   UNL A   1      41.638  26.527  28.579  1.00  0.00    -0.354 N 
ATOM     43  C   UNL A   1      43.973  27.116  32.403  1.00  0.00     0.074 A 
ATOM     44  C   UNL A   1      42.844  27.423  33.242  1.00  0.00     0.031 C 
ATOM     45  C   UNL A   1      39.931  27.007  27.229  1.00  0.00     0.029 A 
ATOM     46  C   UNL A   1      40.825  25.931  27.623  1.00  0.00     0.049 A 
ATOM     47  H   UNL A   1      42.441  26.090  28.945  1.00  0.00     0.167 HD
ATOM     48  C   UNL A   1      45.025  26.273  32.599  1.00  0.00     0.031 A 
ATOM     49  C   UNL A   1      40.847  24.629  27.237  1.00  0.00     0.031 A 
ATOM     50  C   UNL A   1      45.944  26.299  31.492  1.00  0.00     0.049 A 
ATOM     51  C   UNL A   1      42.161  24.074  27.636  1.00  0.00     0.074 A 
ATOM     52  C   UNL A   1      46.791  27.229  30.930  1.00  0.00     0.029 A 
ATOM     53  N   UNL A   1      45.809  25.299  30.561  1.00  0.00    -0.354 N 
ATOM     54  N   UNL A   1      43.288  24.447  27.103  1.00  0.00    -0.248 NA
ATOM     55  C   UNL A   1      42.262  23.446  28.944  1.00  0.00     0.031 C 
ATOM     56  C   UNL A   1      46.727  26.983  29.530  1.00  0.00     0.029 A 
ATOM     57  C   UNL A   1      45.923  25.861  29.321  1.00  0.00     0.049 A 
ATOM     58  H   UNL A   1      45.657  24.345  30.753  1.00  0.00     0.167 HD
ATOM     59  C   UNL A   1      44.173  24.513  28.167  1.00  0.00     0.074 A 
ATOM     60  C   UNL A   1      43.511  23.800  29.258  1.00  0.00     0.031 C 
ATOM     61  C   UNL A   1      45.227  25.380  28.151  1.00  0.00     0.031 A 
BRANCH  48  62
ATOM     62  C   UNL A   1      44.976  25.097  33.544  1.00  0.00    -0.014 A 
ATOM     63  C   UNL A   1      43.956  24.143  33.362  1.00  0.00     0.009 A 
ATOM     64  C   UNL A   1      45.666  25.057  34.770  1.00  0.00     0.009 A 
ATOM     65  C   UNL A   1      43.576  23.276  34.392  1.00  0.00     0.001 A 
ATOM     66  C   UNL A   1      45.316  24.165  35.787  1.00  0.00     0.001 A 
ATOM     67  C   UNL A   1      44.248  23.298  35.610  1.00  0.00     0.000 A 
ENDBRANCH  48  62
BRANCH  49  68
ATOM     68  C   UNL A   1      39.701  23.756  26.886  1.00  0.00    -0.014 A 
ATOM     69  C   UNL A   1      38.425  24.295  26.648  1.00  0.00     0.009 A 
ATOM     70  C   UNL A   1      39.924  22.421  26.501  1.00  0.00     0.009 A 
ATOM     71  C   UNL A   1      37.425  23.537  26.018  1.00  0.00     0.001 A 
ATOM     72  C   UNL A   1      38.926  21.664  25.874  1.00  0.00     0.001 A 
ATOM     73  C   UNL A   1      37.681  22.227  25.619  1.00  0.00     0.000 A 
ENDBRANCH  49  68
BRANCH  61  74
ATOM     74  C   UNL A   1      45.551  26.096  26.864  1.00  0.00    -0.014 A 
ATOM     75  C   UNL A   1      45.016  27.353  26.529  1.00  0.00     0.009 A 
ATOM     76  C   UNL A   1      46.595  25.583  26.080  1.00  0.00     0.009 A 
ATOM     77  C   UNL A   1      45.520  28.072  25.440  1.00  0.00     0.001 A 
ATOM     78  C   UNL A   1      47.110  26.310  25.007  1.00  0.00     0.001 A 
ATOM     79  C   UNL A   1      46.575  27.556  24.688  1.00  0.00     0.000 A 
ENDBRANCH  61  74
ENDBRANCH  35  36
ENDBRANCH  28  30
ENDBRANCH  27  28
ENDBRANCH  26  27
ENDBRANCH   1  26
TORSDOF 14
ENDMDL
MODEL 2
REMARK VINA RESULT:     -11.3      3.950      6.789
REMARK SMILES Cc1c(C(=O)OCCOC(=O)c2ccc(-c3c4nc(c(-c5ccccc5)c5ccc([nH]5)c(-c5ccccc5)c5nc(c(-c6ccccc6)c6ccc3[nH]6)C=C5)C=C4)cc2)sc2ncnc(NCc3cn4c(n3)SCC4)c12
REMARK SMILES IDX 7 1 6 2 4 3 5 4 3 5 1 6 2 7 76 8 60 9 61 10 65 11 62 12
REMARK SMILES IDX 64 13 63 14 66 15 67 17 68 18 69 19 72 20 70 21 71 22 75 23
REMARK SMILES IDX 73 24 74 25 8 26 9 27 10 28 11 29 12 30 13 31 59 32 14 33
REMARK SMILES IDX 58 34 15 35 16 36 17 37 52 38 18 39 57 40 51 41 53 42 19 43
REMARK SMILES IDX 56 44 50 45 49 46 20 48 42 49 27 50 41 51 28 52 31 53 40 54
REMARK SMILES IDX 54 55 29 56 30 57 39 59 55 60 32 61 21 62 22 63 26 64 23 65
REMARK SMILES IDX 25 66 24 67 43 68 44 69 48 70 45 71 47 72 46 73 33 74 34 75
REMARK SMILES IDX 38 76 35 77 37 78 36 79
REMARK H PARENT 66 16 53 47 31 58
REMARK Flexibility Score: inf
ROOT
ATOM      1  C   UNL A   1      33.207  29.723  26.583  1.00  0.00     0.275 C 
ENDROOT
BRANCH   1   2
ATOM      2  O   UNL A   1      33.114  29.701  25.151  1.00  0.00    -0.458 OA
BRANCH   2   3
ATOM      3  C   UNL A   1      31.951  29.191  24.651  1.00  0.00     0.348 C 
ATOM      4  O   UNL A   1      30.902  29.832  24.621  1.00  0.00    -0.245 OA
BRANCH   3   5
ATOM      5  C   UNL A   1      32.134  27.853  24.097  1.00  0.00     0.118 A 
ATOM      6  C   UNL A   1      30.891  26.580  25.887  1.00  0.00     0.047 C 
ATOM      7  C   UNL A   1      31.681  26.636  24.619  1.00  0.00    -0.012 A 
ATOM      8  C   UNL A   1      32.061  25.488  23.772  1.00  0.00     0.058 A 
ATOM      9  S   UNL A   1      32.988  27.640  22.643  1.00  0.00    -0.108 S 
ATOM     10  C   UNL A   1      32.812  25.957  22.696  1.00  0.00     0.129 A 
ATOM     11  C   UNL A   1      31.893  24.068  23.786  1.00  0.00     0.138 A 
ATOM     12  N   UNL A   1      33.405  25.243  21.725  1.00  0.00    -0.225 NA
ATOM     13  N   UNL A   1      32.523  23.337  22.830  1.00  0.00    -0.219 NA
ATOM     14  C   UNL A   1      33.223  23.940  21.871  1.00  0.00     0.225 A 
BRANCH  11  15
ATOM     15  N   UNL A   1      31.236  23.232  24.648  1.00  0.00    -0.364 N 
ATOM     16  H   UNL A   1      30.270  23.140  24.474  1.00  0.00     0.162 HD
BRANCH  15  17
ATOM     17  C   UNL A   1      31.719  22.468  25.758  1.00  0.00     0.172 C 
BRANCH  17  18
ATOM     18  C   UNL A   1      33.186  22.298  25.965  1.00  0.00     0.079 A 
ATOM     19  C   UNL A   1      34.052  23.267  26.458  1.00  0.00     0.113 A 
ATOM     20  N   UNL A   1      33.878  21.184  25.515  1.00  0.00    -0.226 NA
ATOM     21  N   UNL A   1      35.275  22.743  26.235  1.00  0.00    -0.325 N 
ATOM     22  C   UNL A   1      35.128  21.501  25.703  1.00  0.00     0.168 A 
ATOM     23  C   UNL A   1      36.578  23.360  26.111  1.00  0.00     0.135 C 
ATOM     24  S   UNL A   1      36.591  20.916  25.002  1.00  0.00    -0.086 SA
ATOM     25  C   UNL A   1      37.240  22.638  24.936  1.00  0.00     0.100 C 
ENDBRANCH  17  18
ENDBRANCH  15  17
ENDBRANCH  11  15
ENDBRANCH   3   5
ENDBRANCH   2   3
ENDBRANCH   1   2
BRANCH   1  26
ATOM     26  C   UNL A   1      33.323  31.150  27.104  1.00  0.00     0.275 C 
BRANCH  26  27
ATOM     27  O   UNL A   1      34.048  31.237  28.336  1.00  0.00    -0.458 OA
BRANCH  27  28
ATOM     28  C   UNL A   1      35.220  31.907  28.260  1.00  0.00     0.338 C 
ATOM     29  O   UNL A   1      35.442  32.926  27.629  1.00  0.00    -0.246 OA
BRANCH  28  30
ATOM     30  C   UNL A   1      36.295  31.109  28.870  1.00  0.00     0.060 A 
ATOM     31  C   UNL A   1      37.479  31.775  29.200  1.00  0.00     0.016 A 
ATOM     32  C   UNL A   1      36.220  29.708  28.879  1.00  0.00     0.016 A 
ATOM     33  C   UNL A   1      38.627  31.033  29.402  1.00  0.00     0.010 A 
ATOM     34  C   UNL A   1      37.369  28.969  29.080  1.00  0.00     0.010 A 
ATOM     35  C   UNL A   1      38.573  29.639  29.273  1.00  0.00    -0.014 A 
BRANCH  35  36
ATOM     36  C   UNL A   1      39.810  28.896  29.444  1.00  0.00     0.031 A 
ATOM     37  C   UNL A   1      40.203  28.730  30.867  1.00  0.00     0.074 A 
ATOM     38  C   UNL A   1      40.481  28.346  28.413  1.00  0.00     0.049 A 
ATOM     39  N   UNL A   1      41.232  29.230  31.468  1.00  0.00    -0.248 NA
ATOM     40  C   UNL A   1      39.251  28.057  31.767  1.00  0.00     0.031 C 
ATOM     41  C   UNL A   1      40.056  28.222  27.015  1.00  0.00     0.029 A 
ATOM     42  N   UNL A   1      41.668  27.679  28.424  1.00  0.00    -0.354 N 
ATOM     43  C   UNL A   1      41.167  28.772  32.780  1.00  0.00     0.074 A 
ATOM     44  C   UNL A   1      39.858  28.194  32.947  1.00  0.00     0.031 C 
ATOM     45  C   UNL A   1      40.846  27.322  26.384  1.00  0.00     0.029 A 
ATOM     46  C   UNL A   1      41.910  26.918  27.287  1.00  0.00     0.049 A 
ATOM     47  H   UNL A   1      42.301  27.732  29.176  1.00  0.00     0.167 HD
ATOM     48  C   UNL A   1      42.284  28.682  33.554  1.00  0.00     0.031 A 
ATOM     49  C   UNL A   1      42.877  25.977  27.132  1.00  0.00     0.031 A 
ATOM     50  C   UNL A   1      43.372  29.451  33.011  1.00  0.00     0.049 A 
ATOM     51  C   UNL A   1      43.907  26.228  28.166  1.00  0.00     0.074 A 
ATOM     52  C   UNL A   1      43.629  30.786  32.791  1.00  0.00     0.029 A 
ATOM     53  N   UNL A   1      44.297  28.761  32.265  1.00  0.00    -0.354 N 
ATOM     54  N   UNL A   1      44.670  27.283  28.177  1.00  0.00    -0.248 NA
ATOM     55  C   UNL A   1      43.768  25.541  29.440  1.00  0.00     0.031 C 
ATOM     56  C   UNL A   1      44.357  30.824  31.570  1.00  0.00     0.029 A 
ATOM     57  C   UNL A   1      44.587  29.509  31.160  1.00  0.00     0.049 A 
ATOM     58  H   UNL A   1      44.682  27.882  32.488  1.00  0.00     0.167 HD
ATOM     59  C   UNL A   1      44.746  27.647  29.512  1.00  0.00     0.074 A 
ATOM     60  C   UNL A   1      44.247  26.488  30.252  1.00  0.00     0.031 C 
ATOM     61  C   UNL A   1      44.933  28.948  29.875  1.00  0.00     0.031 A 
BRANCH  48  62
ATOM     62  C   UNL A   1      42.536  27.543  34.512  1.00  0.00    -0.014 A 
ATOM     63  C   UNL A   1      43.078  26.351  33.996  1.00  0.00     0.009 A 
ATOM     64  C   UNL A   1      41.975  27.476  35.801  1.00  0.00     0.009 A 
ATOM     65  C   UNL A   1      42.963  25.139  34.686  1.00  0.00     0.001 A 
ATOM     66  C   UNL A   1      41.895  26.275  36.511  1.00  0.00     0.001 A 
ATOM     67  C   UNL A   1      42.358  25.099  35.937  1.00  0.00     0.000 A 
ENDBRANCH  48  62
BRANCH  49  68
ATOM     68  C   UNL A   1      42.795  24.688  26.405  1.00  0.00    -0.014 A 
ATOM     69  C   UNL A   1      43.620  24.425  25.297  1.00  0.00     0.009 A 
ATOM     70  C   UNL A   1      42.108  23.599  26.974  1.00  0.00     0.009 A 
ATOM     71  C   UNL A   1      43.777  23.120  24.805  1.00  0.00     0.001 A 
ATOM     72  C   UNL A   1      42.263  22.298  26.481  1.00  0.00     0.001 A 
ATOM     73  C   UNL A   1      43.108  22.055  25.406  1.00  0.00     0.000 A 
ENDBRANCH  49  68
BRANCH  61  74
ATOM     74  C   UNL A   1      45.293  29.949  28.806  1.00  0.00    -0.014 A 
ATOM     75  C   UNL A   1      46.618  30.212  28.415  1.00  0.00     0.009 A 
ATOM     76  C   UNL A   1      44.249  30.471  28.026  1.00  0.00     0.009 A 
ATOM     77  C   UNL A   1      46.884  30.974  27.272  1.00  0.00     0.001 A 
ATOM     78  C   UNL A   1      44.516  31.213  26.875  1.00  0.00     0.001 A 
ATOM     79  C   UNL A   1      45.833  31.462  26.496  1.00  0.00     0.000 A 
ENDBRANCH  61  74
ENDBRANCH  35  36
ENDBRANCH  28  30
ENDBRANCH  27  28
ENDBRANCH  26  27
ENDBRANCH   1  26
TORSDOF 14
ENDMDL
MODEL 3
REMARK VINA RESULT:     -11.2      3.523      5.687
REMARK SMILES Cc1c(C(=O)OCCOC(=O)c2ccc(-c3c4nc(c(-c5ccccc5)c5ccc([nH]5)c(-c5ccccc5)c5nc(c(-c6ccccc6)c6ccc3[nH]6)C=C5)C=C4)cc2)sc2ncnc(NCc3cn4c(n3)SCC4)c12
REMARK SMILES IDX 7 1 6 2 4 3 5 4 3 5 1 6 2 7 76 8 60 9 61 10 65 11 62 12
REMARK SMILES IDX 64 13 63 14 66 15 67 17 68 18 69 19 72 20 70 21 71 22 75 23
REMARK SMILES IDX 73 24 74 25 8 26 9 27 10 28 11 29 12 30 13 31 59 32 14 33
REMARK SMILES IDX 58 34 15 35 16 36 17 37 52 38 18 39 57 40 51 41 53 42 19 43
REMARK SMILES IDX 56 44 50 45 49 46 20 48 42 49 27 50 41 51 28 52 31 53 40 54
REMARK SMILES IDX 54 55 29 56 30 57 39 59 55 60 32 61 21 62 22 63 26 64 23 65
REMARK SMILES IDX 25 66 24 67 43 68 44 69 48 70 45 71 47 72 46 73 33 74 34 75
REMARK SMILES IDX 38 76 35 77 37 78 36 79
REMARK H PARENT 66 16 53 47 31 58
REMARK Flexibility Score: inf
ROOT
ATOM      1  C   UNL A   1      33.818  31.351  27.675  1.00  0.00     0.275 C 
ENDROOT
BRANCH   1   2
ATOM      2  O   UNL A   1      33.454  30.527  26.558  1.00  0.00    -0.458 OA
BRANCH   2   3
ATOM      3  C   UNL A   1      32.122  30.505  26.261  1.00  0.00     0.348 C 
ATOM      4  O   UNL A   1      31.387  31.478  26.423  1.00  0.00    -0.245 OA
BRANCH   3   5
ATOM      5  C   UNL A   1      31.715  29.237  25.666  1.00  0.00     0.118 A 
ATOM      6  C   UNL A   1      31.787  27.844  27.769  1.00  0.00     0.047 C 
ATOM      7  C   UNL A   1      31.554  28.000  26.301  1.00  0.00    -0.012 A 
ATOM      8  C   UNL A   1      31.128  26.941  25.364  1.00  0.00     0.058 A 
ATOM      9  S   UNL A   1      31.372  29.144  24.003  1.00  0.00    -0.108 S 
ATOM     10  C   UNL A   1      31.048  27.485  24.083  1.00  0.00     0.129 A 
ATOM     11  C   UNL A   1      30.821  25.546  25.421  1.00  0.00     0.138 A 
ATOM     12  N   UNL A   1      30.758  26.856  22.933  1.00  0.00    -0.225 NA
ATOM     13  N   UNL A   1      30.566  24.896  24.256  1.00  0.00    -0.219 NA
ATOM     14  C   UNL A   1      30.542  25.561  23.103  1.00  0.00     0.225 A 
BRANCH  11  15
ATOM     15  N   UNL A   1      30.781  24.659  26.463  1.00  0.00    -0.364 N 
ATOM     16  H   UNL A   1      29.894  24.552  26.877  1.00  0.00     0.162 HD
BRANCH  15  17
ATOM     17  C   UNL A   1      31.814  23.859  27.048  1.00  0.00     0.172 C 
BRANCH  17  18
ATOM     18  C   UNL A   1      33.009  23.476  26.241  1.00  0.00     0.079 A 
ATOM     19  C   UNL A   1      33.169  22.282  25.548  1.00  0.00     0.113 A 
ATOM     20  N   UNL A   1      34.179  24.221  26.241  1.00  0.00    -0.226 NA
ATOM     21  N   UNL A   1      34.469  22.294  25.190  1.00  0.00    -0.325 N 
ATOM     22  C   UNL A   1      35.023  23.468  25.594  1.00  0.00     0.168 A 
ATOM     23  C   UNL A   1      35.381  21.226  24.837  1.00  0.00     0.135 C 
ATOM     24  S   UNL A   1      36.747  23.418  25.565  1.00  0.00    -0.086 SA
ATOM     25  C   UNL A   1      36.687  21.578  25.550  1.00  0.00     0.100 C 
ENDBRANCH  17  18
ENDBRANCH  15  17
ENDBRANCH  11  15
ENDBRANCH   3   5
ENDBRANCH   2   3
ENDBRANCH   1   2
BRANCH   1  26
ATOM     26  C   UNL A   1      35.331  31.404  27.847  1.00  0.00     0.275 C 
BRANCH  26  27
ATOM     27  O   UNL A   1      35.750  32.387  28.801  1.00  0.00    -0.458 OA
BRANCH  27  28
ATOM     28  C   UNL A   1      35.627  32.013  30.095  1.00  0.00     0.338 C 
ATOM     29  O   UNL A   1      34.822  32.435  30.906  1.00  0.00    -0.246 OA
BRANCH  28  30
ATOM     30  C   UNL A   1      36.765  31.165  30.483  1.00  0.00     0.060 A 
ATOM     31  C   UNL A   1      38.047  31.693  30.300  1.00  0.00     0.016 A 
ATOM     32  C   UNL A   1      36.571  29.808  30.778  1.00  0.00     0.016 A 
ATOM     33  C   UNL A   1      39.126  30.829  30.273  1.00  0.00     0.010 A 
ATOM     34  C   UNL A   1      37.650  28.946  30.750  1.00  0.00     0.010 A 
ATOM     35  C   UNL A   1      38.906  29.454  30.432  1.00  0.00    -0.014 A 
BRANCH  35  36
ATOM     36  C   UNL A   1      40.057  28.572  30.349  1.00  0.00     0.031 A 
ATOM     37  C   UNL A   1      40.769  28.413  31.644  1.00  0.00     0.074 A 
ATOM     38  C   UNL A   1      40.389  27.905  29.226  1.00  0.00     0.049 A 
ATOM     39  N   UNL A   1      41.963  28.805  31.945  1.00  0.00    -0.248 NA
ATOM     40  C   UNL A   1      40.001  27.896  32.789  1.00  0.00     0.031 C 
ATOM     41  C   UNL A   1      39.620  27.782  27.983  1.00  0.00     0.029 A 
ATOM     42  N   UNL A   1      41.461  27.098  28.996  1.00  0.00    -0.354 N 
ATOM     43  C   UNL A   1      42.174  28.408  33.261  1.00  0.00     0.074 A 
ATOM     44  C   UNL A   1      40.891  28.002  33.776  1.00  0.00     0.031 C 
ATOM     45  C   UNL A   1      40.127  26.768  27.242  1.00  0.00     0.029 A 
ATOM     46  C   UNL A   1      41.330  26.271  27.887  1.00  0.00     0.049 A 
ATOM     47  H   UNL A   1      42.262  27.101  29.568  1.00  0.00     0.167 HD
ATOM     48  C   UNL A   1      43.431  28.211  33.747  1.00  0.00     0.031 A 
ATOM     49  C   UNL A   1      42.119  25.213  27.567  1.00  0.00     0.031 A 
ATOM     50  C   UNL A   1      44.429  28.819  32.909  1.00  0.00     0.049 A 
ATOM     51  C   UNL A   1      43.393  25.375  28.304  1.00  0.00     0.074 A 
ATOM     52  C   UNL A   1      44.768  30.104  32.545  1.00  0.00     0.029 A 
ATOM     53  N   UNL A   1      45.059  27.993  32.010  1.00  0.00    -0.354 N 
ATOM     54  N   UNL A   1      44.246  26.327  28.060  1.00  0.00    -0.248 NA
ATOM     55  C   UNL A   1      43.499  24.758  29.617  1.00  0.00     0.031 C 
ATOM     56  C   UNL A   1      45.172  30.005  31.184  1.00  0.00     0.029 A 
ATOM     57  C   UNL A   1      45.148  28.658  30.820  1.00  0.00     0.049 A 
ATOM     58  H   UNL A   1      45.388  27.083  32.192  1.00  0.00     0.167 HD
ATOM     59  C   UNL A   1      44.689  26.729  29.310  1.00  0.00     0.074 A 
ATOM     60  C   UNL A   1      44.264  25.669  30.224  1.00  0.00     0.031 C 
ATOM     61  C   UNL A   1      45.103  28.011  29.529  1.00  0.00     0.031 A 
BRANCH  48  62
ATOM     62  C   UNL A   1      43.785  27.087  34.691  1.00  0.00    -0.014 A 
ATOM     63  C   UNL A   1      43.523  25.767  34.276  1.00  0.00     0.009 A 
ATOM     64  C   UNL A   1      44.051  27.278  36.060  1.00  0.00     0.009 A 
ATOM     65  C   UNL A   1      43.423  24.719  35.198  1.00  0.00     0.001 A 
ATOM     66  C   UNL A   1      43.992  26.227  36.978  1.00  0.00     0.001 A 
ATOM     67  C   UNL A   1      43.644  24.953  36.551  1.00  0.00     0.000 A 
ENDBRANCH  48  62
BRANCH  49  68
ATOM     68  C   UNL A   1      41.719  23.917  26.969  1.00  0.00    -0.014 A 
ATOM     69  C   UNL A   1      42.577  23.225  26.096  1.00  0.00     0.009 A 
ATOM     70  C   UNL A   1      40.610  23.216  27.480  1.00  0.00     0.009 A 
ATOM     71  C   UNL A   1      42.352  21.876  25.779  1.00  0.00     0.001 A 
ATOM     72  C   UNL A   1      40.384  21.872  27.161  1.00  0.00     0.001 A 
ATOM     73  C   UNL A   1      41.263  21.197  26.323  1.00  0.00     0.000 A 
ENDBRANCH  49  68
BRANCH  61  74
ATOM     74  C   UNL A   1      45.295  28.919  28.341  1.00  0.00    -0.014 A 
ATOM     75  C   UNL A   1      44.274  29.742  27.831  1.00  0.00     0.009 A 
ATOM     76  C   UNL A   1      46.604  29.108  27.872  1.00  0.00     0.009 A 
ATOM     77  C   UNL A   1      44.564  30.726  26.880  1.00  0.00     0.001 A 
ATOM     78  C   UNL A   1      46.894  30.103  26.939  1.00  0.00     0.001 A 
ATOM     79  C   UNL A   1      45.876  30.914  26.444  1.00  0.00     0.000 A 
ENDBRANCH  61  74
ENDBRANCH  35  36
ENDBRANCH  28  30
ENDBRANCH  27  28
ENDBRANCH  26  27
ENDBRANCH   1  26
TORSDOF 14
ENDMDL
