MODEL 1
REMARK VINA RESULT:     -10.7      0.000      0.000
REMARK SMILES CC[C@@H](NS(=O)(=O)c1cc(C)ccc1C)C(=O)OCCOC(=O)c1ccc(-c2c3nc(c(-c4ccccc4)c4ccc([nH]4)c(-c4ccccc4)c4nc(c(-c5ccccc5)c5ccc2[nH]5)C=C4)C=C3)cc1
REMARK SMILES IDX 19 1 18 2 16 3 17 4 3 5 2 6 1 7 4 8 5 10 6 11 7 12 8 13 9 14
REMARK SMILES IDX 14 15 10 16 13 17 15 18 11 19 12 20 20 21 21 22 22 23 23 24
REMARK SMILES IDX 24 25 25 26 71 27 26 28 70 29 27 30 28 31 29 32 64 33 30 34
REMARK SMILES IDX 69 35 63 36 65 37 31 38 68 39 62 40 61 41 32 43 54 44 39 45
REMARK SMILES IDX 53 46 40 47 43 48 52 49 66 50 41 51 42 52 51 54 67 55 44 56
REMARK SMILES IDX 33 57 34 58 38 59 35 60 37 61 36 62 55 63 56 64 60 65 57 66
REMARK SMILES IDX 59 67 58 68 45 69 46 70 50 71 47 72 49 73 48 74
REMARK H PARENT 4 9 65 42 43 53
REMARK Flexibility Score: inf
ROOT
ATOM      1  C   UNL A   1      32.423  30.065  25.871  1.00  0.00     0.274 C 
ENDROOT
BRANCH   1   2
ATOM      2  O   UNL A   1      31.334  29.119  25.937  1.00  0.00    -0.461 OA
BRANCH   2   3
ATOM      3  C   UNL A   1      31.679  27.831  26.182  1.00  0.00     0.324 C 
ATOM      4  O   UNL A   1      31.181  27.199  27.111  1.00  0.00    -0.250 OA
BRANCH   3   5
ATOM      5  C   UNL A   1      32.692  27.201  25.185  1.00  0.00     0.179 C 
BRANCH   5   6
ATOM      6  C   UNL A   1      33.439  26.198  26.091  1.00  0.00     0.028 C 
ATOM      7  C   UNL A   1      34.222  25.114  25.387  1.00  0.00     0.006 C 
ENDBRANCH   5   6
BRANCH   5   8
ATOM      8  N   UNL A   1      32.179  26.539  23.914  1.00  0.00    -0.197 NA
ATOM      9  H   UNL A   1      31.318  26.053  24.165  1.00  0.00     0.142 HD
BRANCH   8  10
ATOM     10  S   UNL A   1      31.819  27.481  22.499  1.00  0.00     0.241 S 
ATOM     11  O   UNL A   1      32.878  28.441  22.325  1.00  0.00    -0.207 OA
ATOM     12  O   UNL A   1      31.562  26.478  21.482  1.00  0.00    -0.207 OA
BRANCH  10  13
ATOM     13  C   UNL A   1      30.224  28.354  22.763  1.00  0.00     0.085 A 
ATOM     14  C   UNL A   1      30.146  29.726  22.393  1.00  0.00     0.025 A 
ATOM     15  C   UNL A   1      29.059  27.732  23.268  1.00  0.00    -0.031 A 
ATOM     16  C   UNL A   1      28.902  30.395  22.316  1.00  0.00    -0.050 A 
ATOM     17  C   UNL A   1      27.821  28.405  23.130  1.00  0.00     0.005 A 
ATOM     18  C   UNL A   1      28.955  26.367  23.880  1.00  0.00     0.046 C 
ATOM     19  C   UNL A   1      28.781  31.831  21.886  1.00  0.00     0.044 C 
ATOM     20  C   UNL A   1      27.738  29.701  22.635  1.00  0.00     0.004 A 
ENDBRANCH  10  13
ENDBRANCH   8  10
ENDBRANCH   5   8
ENDBRANCH   3   5
ENDBRANCH   2   3
ENDBRANCH   1   2
BRANCH   1  21
ATOM     21  C   UNL A   1      33.220  30.398  27.162  1.00  0.00     0.275 C 
BRANCH  21  22
ATOM     22  O   UNL A   1      34.664  30.323  27.140  1.00  0.00    -0.458 OA
BRANCH  22  23
ATOM     23  C   UNL A   1      35.521  31.209  27.714  1.00  0.00     0.338 C 
ATOM     24  O   UNL A   1      35.278  32.390  27.838  1.00  0.00    -0.246 OA
BRANCH  23  25
ATOM     25  C   UNL A   1      36.657  30.591  28.410  1.00  0.00     0.060 A 
ATOM     26  C   UNL A   1      36.685  29.214  28.353  1.00  0.00     0.016 A 
ATOM     27  C   UNL A   1      37.772  31.297  28.821  1.00  0.00     0.016 A 
ATOM     28  C   UNL A   1      37.860  28.525  28.591  1.00  0.00     0.010 A 
ATOM     29  C   UNL A   1      38.958  30.599  29.032  1.00  0.00     0.010 A 
ATOM     30  C   UNL A   1      38.996  29.195  28.989  1.00  0.00    -0.014 A 
BRANCH  30  31
ATOM     31  C   UNL A   1      40.114  28.364  29.463  1.00  0.00     0.031 A 
ATOM     32  C   UNL A   1      40.485  28.336  30.927  1.00  0.00     0.074 A 
ATOM     33  C   UNL A   1      40.824  27.664  28.553  1.00  0.00     0.049 A 
ATOM     34  N   UNL A   1      41.677  28.440  31.439  1.00  0.00    -0.248 NA
ATOM     35  C   UNL A   1      39.429  28.235  31.950  1.00  0.00     0.031 C 
ATOM     36  C   UNL A   1      40.554  27.553  27.115  1.00  0.00     0.029 A 
ATOM     37  N   UNL A   1      41.838  26.774  28.738  1.00  0.00    -0.354 N 
ATOM     38  C   UNL A   1      41.550  28.273  32.816  1.00  0.00     0.074 A 
ATOM     39  C   UNL A   1      40.135  28.223  33.085  1.00  0.00     0.031 C 
ATOM     40  C   UNL A   1      41.089  26.412  26.653  1.00  0.00     0.029 A 
ATOM     41  C   UNL A   1      41.910  25.850  27.704  1.00  0.00     0.049 A 
ATOM     42  H   UNL A   1      42.447  26.782  29.511  1.00  0.00     0.167 HD
ATOM     43  C   UNL A   1      42.611  27.992  33.625  1.00  0.00     0.031 A 
ATOM     44  C   UNL A   1      42.532  24.654  27.704  1.00  0.00     0.031 A 
ATOM     45  C   UNL A   1      43.870  28.368  33.049  1.00  0.00     0.049 A 
ATOM     46  C   UNL A   1      43.596  24.701  28.721  1.00  0.00     0.074 A 
ATOM     47  C   UNL A   1      44.526  29.543  32.762  1.00  0.00     0.029 A 
ATOM     48  N   UNL A   1      44.600  27.368  32.463  1.00  0.00    -0.354 N 
ATOM     49  N   UNL A   1      44.655  25.452  28.614  1.00  0.00    -0.248 NA
ATOM     50  C   UNL A   1      43.321  24.200  30.056  1.00  0.00     0.031 C 
ATOM     51  C   UNL A   1      45.390  29.232  31.672  1.00  0.00     0.029 A 
ATOM     52  C   UNL A   1      45.233  27.877  31.363  1.00  0.00     0.049 A 
ATOM     53  H   UNL A   1      44.660  26.438  32.781  1.00  0.00     0.167 HD
ATOM     54  C   UNL A   1      44.912  25.886  29.904  1.00  0.00     0.074 A 
ATOM     55  C   UNL A   1      44.172  24.956  30.755  1.00  0.00     0.031 C 
ATOM     56  C   UNL A   1      45.461  27.117  30.145  1.00  0.00     0.031 A 
BRANCH  43  57
ATOM     57  C   UNL A   1      42.549  26.977  34.748  1.00  0.00    -0.014 A 
ATOM     58  C   UNL A   1      42.641  25.603  34.444  1.00  0.00     0.009 A 
ATOM     59  C   UNL A   1      42.069  27.309  36.028  1.00  0.00     0.009 A 
ATOM     60  C   UNL A   1      42.195  24.623  35.344  1.00  0.00     0.001 A 
ATOM     61  C   UNL A   1      41.659  26.332  36.940  1.00  0.00     0.001 A 
ATOM     62  C   UNL A   1      41.693  24.990  36.588  1.00  0.00     0.000 A 
ENDBRANCH  43  57
BRANCH  44  63
ATOM     63  C   UNL A   1      42.022  23.428  27.064  1.00  0.00    -0.014 A 
ATOM     64  C   UNL A   1      42.813  22.693  26.177  1.00  0.00     0.009 A 
ATOM     65  C   UNL A   1      40.805  22.855  27.495  1.00  0.00     0.009 A 
ATOM     66  C   UNL A   1      42.412  21.420  25.753  1.00  0.00     0.001 A 
ATOM     67  C   UNL A   1      40.400  21.589  27.066  1.00  0.00     0.001 A 
ATOM     68  C   UNL A   1      41.213  20.866  26.204  1.00  0.00     0.000 A 
ENDBRANCH  44  63
BRANCH  56  69
ATOM     69  C   UNL A   1      46.106  27.869  28.993  1.00  0.00    -0.014 A 
ATOM     70  C   UNL A   1      47.343  27.515  28.428  1.00  0.00     0.009 A 
ATOM     71  C   UNL A   1      45.363  28.875  28.352  1.00  0.00     0.009 A 
ATOM     72  C   UNL A   1      47.825  28.152  27.278  1.00  0.00     0.001 A 
ATOM     73  C   UNL A   1      45.825  29.487  27.182  1.00  0.00     0.001 A 
ATOM     74  C   UNL A   1      47.058  29.129  26.648  1.00  0.00     0.000 A 
ENDBRANCH  56  69
ENDBRANCH  30  31
ENDBRANCH  23  25
ENDBRANCH  22  23
ENDBRANCH  21  22
ENDBRANCH   1  21
TORSDOF 15
ENDMDL
MODEL 2
REMARK VINA RESULT:     -10.6      4.004      7.065
REMARK SMILES CC[C@@H](NS(=O)(=O)c1cc(C)ccc1C)C(=O)OCCOC(=O)c1ccc(-c2c3nc(c(-c4ccccc4)c4ccc([nH]4)c(-c4ccccc4)c4nc(c(-c5ccccc5)c5ccc2[nH]5)C=C4)C=C3)cc1
REMARK SMILES IDX 19 1 18 2 16 3 17 4 3 5 2 6 1 7 4 8 5 10 6 11 7 12 8 13 9 14
REMARK SMILES IDX 14 15 10 16 13 17 15 18 11 19 12 20 20 21 21 22 22 23 23 24
REMARK SMILES IDX 24 25 25 26 71 27 26 28 70 29 27 30 28 31 29 32 64 33 30 34
REMARK SMILES IDX 69 35 63 36 65 37 31 38 68 39 62 40 61 41 32 43 54 44 39 45
REMARK SMILES IDX 53 46 40 47 43 48 52 49 66 50 41 51 42 52 51 54 67 55 44 56
REMARK SMILES IDX 33 57 34 58 38 59 35 60 37 61 36 62 55 63 56 64 60 65 57 66
REMARK SMILES IDX 59 67 58 68 45 69 46 70 50 71 47 72 49 73 48 74
REMARK H PARENT 4 9 65 42 43 53
REMARK Flexibility Score: inf
ROOT
ATOM      1  C   UNL A   1      33.301  35.047  29.010  1.00  0.00     0.274 C 
ENDROOT
BRANCH   1   2
ATOM      2  O   UNL A   1      32.455  34.917  30.174  1.00  0.00    -0.461 OA
BRANCH   2   3
ATOM      3  C   UNL A   1      32.710  35.774  31.193  1.00  0.00     0.324 C 
ATOM      4  O   UNL A   1      31.914  36.658  31.502  1.00  0.00    -0.250 OA
BRANCH   3   5
ATOM      5  C   UNL A   1      34.034  35.526  31.969  1.00  0.00     0.179 C 
BRANCH   5   6
ATOM      6  C   UNL A   1      33.903  36.527  33.138  1.00  0.00     0.028 C 
ATOM      7  C   UNL A   1      34.142  37.982  32.804  1.00  0.00     0.006 C 
ENDBRANCH   5   6
BRANCH   5   8
ATOM      8  N   UNL A   1      34.363  34.123  32.462  1.00  0.00    -0.197 NA
ATOM      9  H   UNL A   1      33.553  33.542  32.248  1.00  0.00     0.142 HD
BRANCH   8  10
ATOM     10  S   UNL A   1      35.755  33.272  31.867  1.00  0.00     0.241 S 
ATOM     11  O   UNL A   1      35.352  31.925  31.556  1.00  0.00    -0.207 OA
ATOM     12  O   UNL A   1      36.264  34.145  30.824  1.00  0.00    -0.207 OA
BRANCH  10  13
ATOM     13  C   UNL A   1      37.039  33.251  33.180  1.00  0.00     0.085 A 
ATOM     14  C   UNL A   1      36.626  33.492  34.521  1.00  0.00     0.025 A 
ATOM     15  C   UNL A   1      38.403  32.964  32.945  1.00  0.00    -0.031 A 
ATOM     16  C   UNL A   1      37.489  33.239  35.612  1.00  0.00    -0.050 A 
ATOM     17  C   UNL A   1      39.231  32.663  34.054  1.00  0.00     0.005 A 
ATOM     18  C   UNL A   1      39.089  32.856  31.615  1.00  0.00     0.046 C 
ATOM     19  C   UNL A   1      37.069  33.441  37.041  1.00  0.00     0.044 C 
ATOM     20  C   UNL A   1      38.776  32.768  35.363  1.00  0.00     0.004 A 
ENDBRANCH  10  13
ENDBRANCH   8  10
ENDBRANCH   5   8
ENDBRANCH   3   5
ENDBRANCH   2   3
ENDBRANCH   1   2
BRANCH   1  21
ATOM     21  C   UNL A   1      33.463  33.839  28.048  1.00  0.00     0.275 C 
BRANCH  21  22
ATOM     22  O   UNL A   1      34.413  32.799  28.373  1.00  0.00    -0.458 OA
BRANCH  22  23
ATOM     23  C   UNL A   1      34.480  31.567  27.803  1.00  0.00     0.338 C 
ATOM     24  O   UNL A   1      33.631  31.130  27.055  1.00  0.00    -0.246 OA
BRANCH  23  25
ATOM     25  C   UNL A   1      35.779  30.899  27.947  1.00  0.00     0.060 A 
ATOM     26  C   UNL A   1      36.805  31.724  28.357  1.00  0.00     0.016 A 
ATOM     27  C   UNL A   1      35.929  29.525  27.984  1.00  0.00     0.016 A 
ATOM     28  C   UNL A   1      37.951  31.192  28.920  1.00  0.00     0.010 A 
ATOM     29  C   UNL A   1      37.073  28.998  28.576  1.00  0.00     0.010 A 
ATOM     30  C   UNL A   1      38.130  29.827  28.986  1.00  0.00    -0.014 A 
BRANCH  30  31
ATOM     31  C   UNL A   1      39.475  29.362  29.360  1.00  0.00     0.031 A 
ATOM     32  C   UNL A   1      39.908  29.348  30.807  1.00  0.00     0.074 A 
ATOM     33  C   UNL A   1      40.323  28.990  28.378  1.00  0.00     0.049 A 
ATOM     34  N   UNL A   1      41.031  29.787  31.297  1.00  0.00    -0.248 NA
ATOM     35  C   UNL A   1      38.989  28.844  31.844  1.00  0.00     0.031 C 
ATOM     36  C   UNL A   1      40.030  28.903  26.943  1.00  0.00     0.029 A 
ATOM     37  N   UNL A   1      41.573  28.456  28.463  1.00  0.00    -0.354 N 
ATOM     38  C   UNL A   1      41.030  29.489  32.658  1.00  0.00     0.074 A 
ATOM     39  C   UNL A   1      39.718  28.974  32.956  1.00  0.00     0.031 C 
ATOM     40  C   UNL A   1      40.873  28.027  26.374  1.00  0.00     0.029 A 
ATOM     41  C   UNL A   1      41.880  27.680  27.354  1.00  0.00     0.049 A 
ATOM     42  H   UNL A   1      42.186  28.602  29.219  1.00  0.00     0.167 HD
ATOM     43  C   UNL A   1      42.166  29.502  33.415  1.00  0.00     0.031 A 
ATOM     44  C   UNL A   1      42.845  26.746  27.239  1.00  0.00     0.031 A 
ATOM     45  C   UNL A   1      43.213  30.297  32.842  1.00  0.00     0.049 A 
ATOM     46  C   UNL A   1      43.890  27.054  28.230  1.00  0.00     0.074 A 
ATOM     47  C   UNL A   1      43.451  31.638  32.640  1.00  0.00     0.029 A 
ATOM     48  N   UNL A   1      44.189  29.625  32.157  1.00  0.00    -0.354 N 
ATOM     49  N   UNL A   1      44.653  28.108  28.160  1.00  0.00    -0.248 NA
ATOM     50  C   UNL A   1      43.852  26.397  29.525  1.00  0.00     0.031 C 
ATOM     51  C   UNL A   1      44.314  31.696  31.506  1.00  0.00     0.029 A 
ATOM     52  C   UNL A   1      44.575  30.387  31.089  1.00  0.00     0.049 A 
ATOM     53  H   UNL A   1      44.554  28.742  32.394  1.00  0.00     0.167 HD
ATOM     54  C   UNL A   1      44.824  28.507  29.476  1.00  0.00     0.074 A 
ATOM     55  C   UNL A   1      44.457  27.332  30.263  1.00  0.00     0.031 C 
ATOM     56  C   UNL A   1      44.970  29.828  29.806  1.00  0.00     0.031 A 
BRANCH  43  57
ATOM     57  C   UNL A   1      42.481  28.441  34.450  1.00  0.00    -0.014 A 
ATOM     58  C   UNL A   1      43.103  28.818  35.658  1.00  0.00     0.009 A 
ATOM     59  C   UNL A   1      42.496  27.070  34.134  1.00  0.00     0.009 A 
ATOM     60  C   UNL A   1      43.774  27.882  36.459  1.00  0.00     0.001 A 
ATOM     61  C   UNL A   1      43.133  26.130  34.949  1.00  0.00     0.001 A 
ATOM     62  C   UNL A   1      43.799  26.539  36.096  1.00  0.00     0.000 A 
ENDBRANCH  43  57
BRANCH  44  63
ATOM     63  C   UNL A   1      42.715  25.471  26.510  1.00  0.00    -0.014 A 
ATOM     64  C   UNL A   1      43.548  25.167  25.430  1.00  0.00     0.009 A 
ATOM     65  C   UNL A   1      41.892  24.442  27.020  1.00  0.00     0.009 A 
ATOM     66  C   UNL A   1      43.573  23.874  24.892  1.00  0.00     0.001 A 
ATOM     67  C   UNL A   1      41.911  23.155  26.479  1.00  0.00     0.001 A 
ATOM     68  C   UNL A   1      42.763  22.869  25.422  1.00  0.00     0.000 A 
ENDBRANCH  44  63
BRANCH  56  69
ATOM     69  C   UNL A   1      45.288  30.826  28.706  1.00  0.00    -0.014 A 
ATOM     70  C   UNL A   1      46.595  31.136  28.290  1.00  0.00     0.009 A 
ATOM     71  C   UNL A   1      44.224  31.355  27.955  1.00  0.00     0.009 A 
ATOM     72  C   UNL A   1      46.827  31.955  27.178  1.00  0.00     0.001 A 
ATOM     73  C   UNL A   1      44.454  32.143  26.822  1.00  0.00     0.001 A 
ATOM     74  C   UNL A   1      45.756  32.446  26.437  1.00  0.00     0.000 A 
ENDBRANCH  56  69
ENDBRANCH  30  31
ENDBRANCH  23  25
ENDBRANCH  22  23
ENDBRANCH  21  22
ENDBRANCH   1  21
TORSDOF 15
ENDMDL
MODEL 3
REMARK VINA RESULT:     -10.4      4.173      6.563
REMARK SMILES CC[C@@H](NS(=O)(=O)c1cc(C)ccc1C)C(=O)OCCOC(=O)c1ccc(-c2c3nc(c(-c4ccccc4)c4ccc([nH]4)c(-c4ccccc4)c4nc(c(-c5ccccc5)c5ccc2[nH]5)C=C4)C=C3)cc1
REMARK SMILES IDX 19 1 18 2 16 3 17 4 3 5 2 6 1 7 4 8 5 10 6 11 7 12 8 13 9 14
REMARK SMILES IDX 14 15 10 16 13 17 15 18 11 19 12 20 20 21 21 22 22 23 23 24
REMARK SMILES IDX 24 25 25 26 71 27 26 28 70 29 27 30 28 31 29 32 64 33 30 34
REMARK SMILES IDX 69 35 63 36 65 37 31 38 68 39 62 40 61 41 32 43 54 44 39 45
REMARK SMILES IDX 53 46 40 47 43 48 52 49 66 50 41 51 42 52 51 54 67 55 44 56
REMARK SMILES IDX 33 57 34 58 38 59 35 60 37 61 36 62 55 63 56 64 60 65 57 66
REMARK SMILES IDX 59 67 58 68 45 69 46 70 50 71 47 72 49 73 48 74
REMARK H PARENT 4 9 65 42 43 53
REMARK Flexibility Score: inf
ROOT
ATOM      1  C   UNL A   1      33.575  33.939  27.961  1.00  0.00     0.274 C 
ENDROOT
BRANCH   1   2
ATOM      2  O   UNL A   1      33.132  34.055  29.331  1.00  0.00    -0.461 OA
BRANCH   2   3
ATOM      3  C   UNL A   1      33.129  35.307  29.850  1.00  0.00     0.324 C 
ATOM      4  O   UNL A   1      32.567  36.238  29.277  1.00  0.00    -0.250 OA
BRANCH   3   5
ATOM      5  C   UNL A   1      33.826  35.467  31.230  1.00  0.00     0.179 C 
BRANCH   5   6
ATOM      6  C   UNL A   1      32.828  36.377  31.980  1.00  0.00     0.028 C 
ATOM      7  C   UNL A   1      31.661  35.686  32.646  1.00  0.00     0.006 C 
ENDBRANCH   5   6
BRANCH   5   8
ATOM      8  N   UNL A   1      34.178  34.228  32.042  1.00  0.00    -0.197 NA
ATOM      9  H   UNL A   1      34.559  33.548  31.384  1.00  0.00     0.142 HD
BRANCH   8  10
ATOM     10  S   UNL A   1      35.299  34.317  33.366  1.00  0.00     0.241 S 
ATOM     11  O   UNL A   1      35.528  35.707  33.660  1.00  0.00    -0.207 OA
ATOM     12  O   UNL A   1      34.712  33.440  34.364  1.00  0.00    -0.207 OA
BRANCH  10  13
ATOM     13  C   UNL A   1      36.875  33.520  32.857  1.00  0.00     0.085 A 
ATOM     14  C   UNL A   1      38.057  34.312  32.872  1.00  0.00     0.025 A 
ATOM     15  C   UNL A   1      36.989  32.158  32.497  1.00  0.00    -0.031 A 
ATOM     16  C   UNL A   1      39.337  33.722  32.752  1.00  0.00    -0.050 A 
ATOM     17  C   UNL A   1      38.282  31.582  32.436  1.00  0.00     0.005 A 
ATOM     18  C   UNL A   1      35.871  31.192  32.241  1.00  0.00     0.046 C 
ATOM     19  C   UNL A   1      40.607  34.525  32.808  1.00  0.00     0.044 C 
ATOM     20  C   UNL A   1      39.435  32.342  32.591  1.00  0.00     0.004 A 
ENDBRANCH  10  13
ENDBRANCH   8  10
ENDBRANCH   5   8
ENDBRANCH   3   5
ENDBRANCH   2   3
ENDBRANCH   1   2
BRANCH   1  21
ATOM     21  C   UNL A   1      35.066  33.619  27.668  1.00  0.00     0.275 C 
BRANCH  21  22
ATOM     22  O   UNL A   1      35.758  32.654  28.492  1.00  0.00    -0.458 OA
BRANCH  22  23
ATOM     23  C   UNL A   1      35.889  31.326  28.234  1.00  0.00     0.338 C 
ATOM     24  O   UNL A   1      35.236  30.741  27.397  1.00  0.00    -0.246 OA
BRANCH  23  25
ATOM     25  C   UNL A   1      37.061  30.698  28.857  1.00  0.00     0.060 A 
ATOM     26  C   UNL A   1      36.933  29.344  29.085  1.00  0.00     0.016 A 
ATOM     27  C   UNL A   1      38.300  31.306  28.932  1.00  0.00     0.016 A 
ATOM     28  C   UNL A   1      38.052  28.555  29.275  1.00  0.00     0.010 A 
ATOM     29  C   UNL A   1      39.425  30.501  29.095  1.00  0.00     0.010 A 
ATOM     30  C   UNL A   1      39.306  29.123  29.341  1.00  0.00    -0.014 A 
BRANCH  30  31
ATOM     31  C   UNL A   1      40.397  28.248  29.796  1.00  0.00     0.031 A 
ATOM     32  C   UNL A   1      40.816  28.233  31.248  1.00  0.00     0.074 A 
ATOM     33  C   UNL A   1      41.042  27.495  28.880  1.00  0.00     0.049 A 
ATOM     34  N   UNL A   1      42.028  28.288  31.718  1.00  0.00    -0.248 NA
ATOM     35  C   UNL A   1      39.791  28.205  32.307  1.00  0.00     0.031 C 
ATOM     36  C   UNL A   1      40.718  27.367  27.454  1.00  0.00     0.029 A 
ATOM     37  N   UNL A   1      42.017  26.559  29.051  1.00  0.00    -0.354 N 
ATOM     38  C   UNL A   1      41.939  28.157  33.102  1.00  0.00     0.074 A 
ATOM     39  C   UNL A   1      40.534  28.182  33.418  1.00  0.00     0.031 C 
ATOM     40  C   UNL A   1      41.180  26.192  27.001  1.00  0.00     0.029 A 
ATOM     41  C   UNL A   1      42.008  25.612  28.037  1.00  0.00     0.049 A 
ATOM     42  H   UNL A   1      42.651  26.554  29.804  1.00  0.00     0.167 HD
ATOM     43  C   UNL A   1      43.013  27.840  33.882  1.00  0.00     0.031 A 
ATOM     44  C   UNL A   1      42.571  24.387  28.044  1.00  0.00     0.031 A 
ATOM     45  C   UNL A   1      44.268  28.141  33.257  1.00  0.00     0.049 A 
ATOM     46  C   UNL A   1      43.670  24.402  29.024  1.00  0.00     0.074 A 
ATOM     47  C   UNL A   1      44.970  29.277  32.922  1.00  0.00     0.029 A 
ATOM     48  N   UNL A   1      44.928  27.094  32.670  1.00  0.00    -0.354 N 
ATOM     49  N   UNL A   1      44.760  25.098  28.865  1.00  0.00    -0.248 NA
ATOM     50  C   UNL A   1      43.416  23.944  30.379  1.00  0.00     0.031 C 
ATOM     51  C   UNL A   1      45.781  28.900  31.812  1.00  0.00     0.029 A 
ATOM     52  C   UNL A   1      45.548  27.549  31.539  1.00  0.00     0.049 A 
ATOM     53  H   UNL A   1      44.954  26.170  33.007  1.00  0.00     0.167 HD
ATOM     54  C   UNL A   1      45.081  25.545  30.137  1.00  0.00     0.074 A 
ATOM     55  C   UNL A   1      44.326  24.671  31.031  1.00  0.00     0.031 C 
ATOM     56  C   UNL A   1      45.697  26.753  30.331  1.00  0.00     0.031 A 
BRANCH  43  57
ATOM     57  C   UNL A   1      42.939  26.854  35.029  1.00  0.00    -0.014 A 
ATOM     58  C   UNL A   1      43.033  25.472  34.760  1.00  0.00     0.009 A 
ATOM     59  C   UNL A   1      42.447  27.217  36.296  1.00  0.00     0.009 A 
ATOM     60  C   UNL A   1      42.579  24.515  35.680  1.00  0.00     0.001 A 
ATOM     61  C   UNL A   1      42.027  26.263  37.228  1.00  0.00     0.001 A 
ATOM     62  C   UNL A   1      42.064  24.913  36.909  1.00  0.00     0.000 A 
ENDBRANCH  43  57
BRANCH  44  63
ATOM     63  C   UNL A   1      41.980  23.174  27.449  1.00  0.00    -0.014 A 
ATOM     64  C   UNL A   1      40.638  22.847  27.658  1.00  0.00     0.009 A 
ATOM     65  C   UNL A   1      42.699  22.434  26.484  1.00  0.00     0.009 A 
ATOM     66  C   UNL A   1      40.030  21.829  26.912  1.00  0.00     0.001 A 
ATOM     67  C   UNL A   1      42.096  21.413  25.747  1.00  0.00     0.001 A 
ATOM     68  C   UNL A   1      40.755  21.121  25.953  1.00  0.00     0.000 A 
ENDBRANCH  44  63
BRANCH  56  69
ATOM     69  C   UNL A   1      46.339  27.447  29.142  1.00  0.00    -0.014 A 
ATOM     70  C   UNL A   1      45.789  28.576  28.510  1.00  0.00     0.009 A 
ATOM     71  C   UNL A   1      47.624  27.041  28.745  1.00  0.00     0.009 A 
ATOM     72  C   UNL A   1      46.491  29.262  27.510  1.00  0.00     0.001 A 
ATOM     73  C   UNL A   1      48.342  27.746  27.773  1.00  0.00     0.001 A 
ATOM     74  C   UNL A   1      47.773  28.854  27.153  1.00  0.00     0.000 A 
ENDBRANCH  56  69
ENDBRANCH  30  31
ENDBRANCH  23  25
ENDBRANCH  22  23
ENDBRANCH  21  22
ENDBRANCH   1  21
TORSDOF 15
ENDMDL
