MODEL 1
REMARK VINA RESULT:     -11.1      0.000      0.000
REMARK SMILES CC(C)N(c1cc2c(cc1Cl)C=C(C(=O)OCCOC(=O)c1ccc(-c3c4nc(c(-c5ccccc5)c5ccc([nH]5)c(-c5ccccc5)c5nc(c(-c6ccccc6)c6ccc3[nH]6)C=C5)C=C4)cc1)[C@@H](C(F)(F)F)O2)C(C)C
REMARK SMILES IDX 17 1 16 2 14 3 15 4 13 5 5 6 6 7 10 8 7 9 9 10 11 11 8 12
REMARK SMILES IDX 75 13 12 14 70 15 4 16 2 17 1 18 3 19 76 20 77 21 78 22
REMARK SMILES IDX 71 23 72 24 73 25 74 26 18 27 19 28 20 29 21 30 22 31 23 32
REMARK SMILES IDX 69 33 24 34 68 35 25 36 26 37 27 38 62 39 28 40 67 41 61 42
REMARK SMILES IDX 63 43 29 44 66 45 60 46 59 47 30 49 52 50 37 51 51 52 38 53
REMARK SMILES IDX 41 54 50 55 64 56 39 57 40 58 49 60 65 61 42 62 31 63 32 64
REMARK SMILES IDX 36 65 33 66 35 67 34 68 53 69 54 70 58 71 55 72 57 73 56 74
REMARK SMILES IDX 43 75 44 76 48 77 45 78 47 79 46 80
REMARK H PARENT 63 48 41 59
REMARK Flexibility Score: inf
ROOT
ATOM      1  C   UNL A   1      35.404  19.814  25.112  1.00  0.00     0.275 C 
ENDROOT
BRANCH   1   2
ATOM      2  O   UNL A   1      34.210  20.093  24.345  1.00  0.00    -0.459 OA
BRANCH   2   3
ATOM      3  C   UNL A   1      33.057  20.101  25.052  1.00  0.00     0.338 C 
ATOM      4  O   UNL A   1      32.544  19.148  25.617  1.00  0.00    -0.246 OA
BRANCH   3   5
ATOM      5  C   UNL A   1      32.494  21.463  25.120  1.00  0.00     0.087 C 
ATOM      6  C   UNL A   1      31.282  26.243  23.998  1.00  0.00     0.060 A 
ATOM      7  C   UNL A   1      31.287  25.463  25.183  1.00  0.00     0.074 A 
ATOM      8  C   UNL A   1      31.599  25.575  22.793  1.00  0.00     0.065 A 
ATOM      9  C   UNL A   1      31.638  24.109  25.182  1.00  0.00     0.130 A 
ATOM     10  C   UNL A   1      31.902  24.212  22.786  1.00  0.00     0.034 A 
ATOM     11  Cl  UNL A   1      31.768  26.367  21.261  1.00  0.00    -0.082 Cl
ATOM     12  C   UNL A   1      31.945  23.494  23.980  1.00  0.00     0.019 A 
ATOM     13  O   UNL A   1      31.654  23.453  26.384  1.00  0.00    -0.475 OA
ATOM     14  C   UNL A   1      32.367  22.115  23.961  1.00  0.00     0.027 C 
ATOM     15  C   UNL A   1      32.241  22.115  26.450  1.00  0.00     0.316 C 
BRANCH   6  16
ATOM     16  N   UNL A   1      31.006  27.622  24.080  1.00  0.00    -0.365 N 
BRANCH  16  17
ATOM     17  C   UNL A   1      29.640  28.072  23.724  1.00  0.00     0.076 C 
ATOM     18  C   UNL A   1      29.594  28.831  22.400  1.00  0.00     0.030 C 
ATOM     19  C   UNL A   1      28.599  26.954  23.741  1.00  0.00     0.030 C 
ENDBRANCH  16  17
BRANCH  16  20
ATOM     20  C   UNL A   1      32.110  28.479  24.568  1.00  0.00     0.076 C 
ATOM     21  C   UNL A   1      33.068  28.906  23.459  1.00  0.00     0.030 C 
ATOM     22  C   UNL A   1      31.628  29.671  25.385  1.00  0.00     0.030 C 
ENDBRANCH  16  20
ENDBRANCH   6  16
BRANCH  15  23
ATOM     23  C   UNL A   1      33.534  22.170  27.281  1.00  0.00     0.430 C 
ATOM     24  F   UNL A   1      33.891  20.946  27.731  1.00  0.00    -0.167 F 
ATOM     25  F   UNL A   1      34.576  22.630  26.545  1.00  0.00    -0.167 F 
ATOM     26  F   UNL A   1      33.414  22.982  28.357  1.00  0.00    -0.167 F 
ENDBRANCH  15  23
ENDBRANCH   3   5
ENDBRANCH   2   3
ENDBRANCH   1   2
BRANCH   1  27
ATOM     27  C   UNL A   1      36.605  20.599  24.584  1.00  0.00     0.275 C 
BRANCH  27  28
ATOM     28  O   UNL A   1      37.210  21.364  25.643  1.00  0.00    -0.458 OA
BRANCH  28  29
ATOM     29  C   UNL A   1      38.520  21.118  25.867  1.00  0.00     0.338 C 
ATOM     30  O   UNL A   1      39.155  20.123  25.567  1.00  0.00    -0.246 OA
BRANCH  29  31
ATOM     31  C   UNL A   1      39.143  22.303  26.476  1.00  0.00     0.060 A 
ATOM     32  C   UNL A   1      40.335  22.213  27.183  1.00  0.00     0.016 A 
ATOM     33  C   UNL A   1      38.599  23.549  26.192  1.00  0.00     0.016 A 
ATOM     34  C   UNL A   1      40.965  23.391  27.610  1.00  0.00     0.010 A 
ATOM     35  C   UNL A   1      39.305  24.714  26.473  1.00  0.00     0.010 A 
ATOM     36  C   UNL A   1      40.483  24.660  27.223  1.00  0.00    -0.014 A 
BRANCH  36  37
ATOM     37  C   UNL A   1      41.201  25.915  27.599  1.00  0.00     0.031 A 
ATOM     38  C   UNL A   1      42.546  26.261  27.000  1.00  0.00     0.074 A 
ATOM     39  C   UNL A   1      40.656  26.748  28.511  1.00  0.00     0.049 A 
ATOM     40  N   UNL A   1      43.275  27.337  27.180  1.00  0.00    -0.248 NA
ATOM     41  C   UNL A   1      43.179  25.264  26.120  1.00  0.00     0.031 C 
ATOM     42  C   UNL A   1      39.417  26.498  29.252  1.00  0.00     0.029 A 
ATOM     43  N   UNL A   1      41.058  27.986  28.951  1.00  0.00    -0.354 N 
ATOM     44  C   UNL A   1      44.450  27.126  26.467  1.00  0.00     0.074 A 
ATOM     45  C   UNL A   1      44.372  25.796  25.910  1.00  0.00     0.031 C 
ATOM     46  C   UNL A   1      39.109  27.585  29.974  1.00  0.00     0.029 A 
ATOM     47  C   UNL A   1      40.148  28.592  29.787  1.00  0.00     0.049 A 
ATOM     48  H   UNL A   1      41.913  28.400  28.693  1.00  0.00     0.167 HD
ATOM     49  C   UNL A   1      45.483  27.974  26.249  1.00  0.00     0.031 A 
ATOM     50  C   UNL A   1      40.130  29.830  30.321  1.00  0.00     0.031 A 
ATOM     51  C   UNL A   1      45.539  29.320  26.751  1.00  0.00     0.049 A 
ATOM     52  C   UNL A   1      41.248  30.783  30.013  1.00  0.00     0.074 A 
ATOM     53  C   UNL A   1      46.502  30.285  26.513  1.00  0.00     0.029 A 
ATOM     54  N   UNL A   1      44.590  29.894  27.579  1.00  0.00    -0.354 N 
ATOM     55  N   UNL A   1      42.307  30.595  29.264  1.00  0.00    -0.248 NA
ATOM     56  C   UNL A   1      41.165  32.124  30.612  1.00  0.00     0.031 C 
ATOM     57  C   UNL A   1      46.155  31.432  27.230  1.00  0.00     0.029 A 
ATOM     58  C   UNL A   1      44.948  31.198  27.869  1.00  0.00     0.049 A 
ATOM     59  H   UNL A   1      43.780  29.441  27.910  1.00  0.00     0.167 HD
ATOM     60  C   UNL A   1      43.007  31.794  29.289  1.00  0.00     0.074 A 
ATOM     61  C   UNL A   1      42.245  32.711  30.111  1.00  0.00     0.031 C 
ATOM     62  C   UNL A   1      44.181  32.102  28.686  1.00  0.00     0.031 A 
BRANCH  49  63
ATOM     63  C   UNL A   1      46.625  27.491  25.394  1.00  0.00    -0.014 A 
ATOM     64  C   UNL A   1      47.626  26.679  25.950  1.00  0.00     0.009 A 
ATOM     65  C   UNL A   1      46.749  27.898  24.056  1.00  0.00     0.009 A 
ATOM     66  C   UNL A   1      48.727  26.287  25.184  1.00  0.00     0.001 A 
ATOM     67  C   UNL A   1      47.832  27.476  23.283  1.00  0.00     0.001 A 
ATOM     68  C   UNL A   1      48.824  26.678  23.850  1.00  0.00     0.000 A 
ENDBRANCH  49  63
BRANCH  50  69
ATOM     69  C   UNL A   1      38.958  30.254  31.131  1.00  0.00    -0.014 A 
ATOM     70  C   UNL A   1      38.928  30.055  32.520  1.00  0.00     0.009 A 
ATOM     71  C   UNL A   1      37.829  30.801  30.500  1.00  0.00     0.009 A 
ATOM     72  C   UNL A   1      37.783  30.371  33.256  1.00  0.00     0.001 A 
ATOM     73  C   UNL A   1      36.695  31.141  31.243  1.00  0.00     0.001 A 
ATOM     74  C   UNL A   1      36.670  30.916  32.619  1.00  0.00     0.000 A 
ENDBRANCH  50  69
BRANCH  62  75
ATOM     75  C   UNL A   1      44.728  33.488  28.872  1.00  0.00    -0.014 A 
ATOM     76  C   UNL A   1      44.413  34.492  27.942  1.00  0.00     0.009 A 
ATOM     77  C   UNL A   1      45.648  33.769  29.893  1.00  0.00     0.009 A 
ATOM     78  C   UNL A   1      45.021  35.744  28.019  1.00  0.00     0.001 A 
ATOM     79  C   UNL A   1      46.234  35.032  29.983  1.00  0.00     0.001 A 
ATOM     80  C   UNL A   1      45.929  36.015  29.041  1.00  0.00     0.000 A 
ENDBRANCH  62  75
ENDBRANCH  36  37
ENDBRANCH  29  31
ENDBRANCH  28  29
ENDBRANCH  27  28
ENDBRANCH   1  27
TORSDOF 15
ENDMDL
MODEL 2
REMARK VINA RESULT:     -11.0      2.245      2.928
REMARK SMILES CC(C)N(c1cc2c(cc1Cl)C=C(C(=O)OCCOC(=O)c1ccc(-c3c4nc(c(-c5ccccc5)c5ccc([nH]5)c(-c5ccccc5)c5nc(c(-c6ccccc6)c6ccc3[nH]6)C=C5)C=C4)cc1)[C@@H](C(F)(F)F)O2)C(C)C
REMARK SMILES IDX 17 1 16 2 14 3 15 4 13 5 5 6 6 7 10 8 7 9 9 10 11 11 8 12
REMARK SMILES IDX 75 13 12 14 70 15 4 16 2 17 1 18 3 19 76 20 77 21 78 22
REMARK SMILES IDX 71 23 72 24 73 25 74 26 18 27 19 28 20 29 21 30 22 31 23 32
REMARK SMILES IDX 69 33 24 34 68 35 25 36 26 37 27 38 62 39 28 40 67 41 61 42
REMARK SMILES IDX 63 43 29 44 66 45 60 46 59 47 30 49 52 50 37 51 51 52 38 53
REMARK SMILES IDX 41 54 50 55 64 56 39 57 40 58 49 60 65 61 42 62 31 63 32 64
REMARK SMILES IDX 36 65 33 66 35 67 34 68 53 69 54 70 58 71 55 72 57 73 56 74
REMARK SMILES IDX 43 75 44 76 48 77 45 78 47 79 46 80
REMARK H PARENT 63 48 41 59
REMARK Flexibility Score: inf
ROOT
ATOM      1  C   UNL A   1      37.090  19.922  25.041  1.00  0.00     0.275 C 
ENDROOT
BRANCH   1   2
ATOM      2  O   UNL A   1      36.172  21.033  24.926  1.00  0.00    -0.459 OA
BRANCH   2   3
ATOM      3  C   UNL A   1      34.870  20.696  24.778  1.00  0.00     0.338 C 
ATOM      4  O   UNL A   1      34.421  19.566  24.660  1.00  0.00    -0.246 OA
BRANCH   3   5
ATOM      5  C   UNL A   1      34.009  21.891  24.842  1.00  0.00     0.087 C 
ATOM      6  C   UNL A   1      32.216  26.582  24.246  1.00  0.00     0.060 A 
ATOM      7  C   UNL A   1      31.926  25.504  25.120  1.00  0.00     0.074 A 
ATOM      8  C   UNL A   1      33.157  26.337  23.221  1.00  0.00     0.065 A 
ATOM      9  C   UNL A   1      32.571  24.267  25.017  1.00  0.00     0.130 A 
ATOM     10  C   UNL A   1      33.766  25.088  23.089  1.00  0.00     0.034 A 
ATOM     11  Cl  UNL A   1      33.740  27.551  22.130  1.00  0.00    -0.082 Cl
ATOM     12  C   UNL A   1      33.491  24.070  24.001  1.00  0.00     0.019 A 
ATOM     13  O   UNL A   1      32.254  23.302  25.936  1.00  0.00    -0.475 OA
ATOM     14  C   UNL A   1      34.213  22.825  23.909  1.00  0.00     0.027 C 
ATOM     15  C   UNL A   1      33.075  22.093  26.002  1.00  0.00     0.316 C 
BRANCH   6  16
ATOM     16  N   UNL A   1      31.595  27.829  24.459  1.00  0.00    -0.365 N 
BRANCH  16  17
ATOM     17  C   UNL A   1      32.108  28.674  25.563  1.00  0.00     0.076 C 
ATOM     18  C   UNL A   1      31.503  28.309  26.916  1.00  0.00     0.030 C 
ATOM     19  C   UNL A   1      33.633  28.716  25.648  1.00  0.00     0.030 C 
ENDBRANCH  16  17
BRANCH  16  20
ATOM     20  C   UNL A   1      30.514  28.187  23.513  1.00  0.00     0.076 C 
ATOM     21  C   UNL A   1      29.297  27.272  23.623  1.00  0.00     0.030 C 
ATOM     22  C   UNL A   1      30.120  29.658  23.582  1.00  0.00     0.030 C 
ENDBRANCH  16  20
ENDBRANCH   6  16
BRANCH  15  23
ATOM     23  C   UNL A   1      33.851  22.083  27.331  1.00  0.00     0.430 C 
ATOM     24  F   UNL A   1      34.268  20.837  27.655  1.00  0.00    -0.167 F 
ATOM     25  F   UNL A   1      34.962  22.857  27.262  1.00  0.00    -0.167 F 
ATOM     26  F   UNL A   1      33.105  22.544  28.361  1.00  0.00    -0.167 F 
ENDBRANCH  15  23
ENDBRANCH   3   5
ENDBRANCH   2   3
ENDBRANCH   1   2
BRANCH   1  27
ATOM     27  C   UNL A   1      38.543  20.395  25.055  1.00  0.00     0.275 C 
BRANCH  27  28
ATOM     28  O   UNL A   1      39.238  19.853  26.194  1.00  0.00    -0.458 OA
BRANCH  28  29
ATOM     29  C   UNL A   1      40.583  19.780  26.078  1.00  0.00     0.338 C 
ATOM     30  O   UNL A   1      41.241  18.898  25.556  1.00  0.00    -0.246 OA
BRANCH  29  31
ATOM     31  C   UNL A   1      41.187  21.009  26.616  1.00  0.00     0.060 A 
ATOM     32  C   UNL A   1      41.600  22.039  25.781  1.00  0.00     0.016 A 
ATOM     33  C   UNL A   1      41.189  21.190  27.993  1.00  0.00     0.016 A 
ATOM     34  C   UNL A   1      42.025  23.248  26.351  1.00  0.00     0.010 A 
ATOM     35  C   UNL A   1      41.455  22.438  28.546  1.00  0.00     0.010 A 
ATOM     36  C   UNL A   1      41.917  23.481  27.739  1.00  0.00    -0.014 A 
BRANCH  36  37
ATOM     37  C   UNL A   1      42.283  24.799  28.339  1.00  0.00     0.031 A 
ATOM     38  C   UNL A   1      43.714  25.127  28.705  1.00  0.00     0.074 A 
ATOM     39  C   UNL A   1      41.319  25.710  28.589  1.00  0.00     0.049 A 
ATOM     40  N   UNL A   1      44.207  26.244  29.184  1.00  0.00    -0.248 NA
ATOM     41  C   UNL A   1      44.718  24.060  28.554  1.00  0.00     0.031 C 
ATOM     42  C   UNL A   1      39.883  25.499  28.390  1.00  0.00     0.029 A 
ATOM     43  N   UNL A   1      41.401  27.006  29.039  1.00  0.00    -0.354 N 
ATOM     44  C   UNL A   1      45.556  25.999  29.416  1.00  0.00     0.074 A 
ATOM     45  C   UNL A   1      45.793  24.611  29.096  1.00  0.00     0.031 C 
ATOM     46  C   UNL A   1      39.233  26.650  28.617  1.00  0.00     0.029 A 
ATOM     47  C   UNL A   1      40.195  27.669  29.024  1.00  0.00     0.049 A 
ATOM     48  H   UNL A   1      42.240  27.420  29.342  1.00  0.00     0.167 HD
ATOM     49  C   UNL A   1      46.525  26.856  29.814  1.00  0.00     0.031 A 
ATOM     50  C   UNL A   1      39.895  28.958  29.276  1.00  0.00     0.031 A 
ATOM     51  C   UNL A   1      46.307  28.252  30.077  1.00  0.00     0.049 A 
ATOM     52  C   UNL A   1      40.992  29.913  29.648  1.00  0.00     0.074 A 
ATOM     53  C   UNL A   1      47.242  29.220  30.401  1.00  0.00     0.029 A 
ATOM     54  N   UNL A   1      45.075  28.880  30.034  1.00  0.00    -0.354 N 
ATOM     55  N   UNL A   1      42.276  29.681  29.776  1.00  0.00    -0.248 NA
ATOM     56  C   UNL A   1      40.604  31.310  29.896  1.00  0.00     0.031 C 
ATOM     57  C   UNL A   1      46.567  30.429  30.593  1.00  0.00     0.029 A 
ATOM     58  C   UNL A   1      45.221  30.222  30.335  1.00  0.00     0.049 A 
ATOM     59  H   UNL A   1      44.221  28.437  29.821  1.00  0.00     0.167 HD
ATOM     60  C   UNL A   1      42.850  30.902  30.105  1.00  0.00     0.074 A 
ATOM     61  C   UNL A   1      41.780  31.877  30.137  1.00  0.00     0.031 C 
ATOM     62  C   UNL A   1      44.151  31.184  30.361  1.00  0.00     0.031 A 
BRANCH  49  63
ATOM     63  C   UNL A   1      47.927  26.322  29.949  1.00  0.00    -0.014 A 
ATOM     64  C   UNL A   1      48.756  26.227  28.820  1.00  0.00     0.009 A 
ATOM     65  C   UNL A   1      48.404  25.845  31.180  1.00  0.00     0.009 A 
ATOM     66  C   UNL A   1      50.031  25.665  28.922  1.00  0.00     0.001 A 
ATOM     67  C   UNL A   1      49.691  25.316  31.287  1.00  0.00     0.001 A 
ATOM     68  C   UNL A   1      50.501  25.219  30.156  1.00  0.00     0.000 A 
ENDBRANCH  49  63
BRANCH  50  69
ATOM     69  C   UNL A   1      38.495  29.426  29.094  1.00  0.00    -0.014 A 
ATOM     70  C   UNL A   1      37.586  29.421  30.163  1.00  0.00     0.009 A 
ATOM     71  C   UNL A   1      38.045  29.818  27.824  1.00  0.00     0.009 A 
ATOM     72  C   UNL A   1      36.249  29.774  29.958  1.00  0.00     0.001 A 
ATOM     73  C   UNL A   1      36.715  30.197  27.627  1.00  0.00     0.001 A 
ATOM     74  C   UNL A   1      35.816  30.164  28.692  1.00  0.00     0.000 A 
ENDBRANCH  50  69
BRANCH  62  75
ATOM     75  C   UNL A   1      44.512  32.603  30.693  1.00  0.00    -0.014 A 
ATOM     76  C   UNL A   1      44.914  33.477  29.670  1.00  0.00     0.009 A 
ATOM     77  C   UNL A   1      44.575  33.038  32.026  1.00  0.00     0.009 A 
ATOM     78  C   UNL A   1      45.386  34.753  29.975  1.00  0.00     0.001 A 
ATOM     79  C   UNL A   1      45.023  34.326  32.325  1.00  0.00     0.001 A 
ATOM     80  C   UNL A   1      45.438  35.178  31.301  1.00  0.00     0.000 A 
ENDBRANCH  62  75
ENDBRANCH  36  37
ENDBRANCH  29  31
ENDBRANCH  28  29
ENDBRANCH  27  28
ENDBRANCH   1  27
TORSDOF 15
ENDMDL
MODEL 3
REMARK VINA RESULT:     -10.8      2.456      5.929
REMARK SMILES CC(C)N(c1cc2c(cc1Cl)C=C(C(=O)OCCOC(=O)c1ccc(-c3c4nc(c(-c5ccccc5)c5ccc([nH]5)c(-c5ccccc5)c5nc(c(-c6ccccc6)c6ccc3[nH]6)C=C5)C=C4)cc1)[C@@H](C(F)(F)F)O2)C(C)C
REMARK SMILES IDX 17 1 16 2 14 3 15 4 13 5 5 6 6 7 10 8 7 9 9 10 11 11 8 12
REMARK SMILES IDX 75 13 12 14 70 15 4 16 2 17 1 18 3 19 76 20 77 21 78 22
REMARK SMILES IDX 71 23 72 24 73 25 74 26 18 27 19 28 20 29 21 30 22 31 23 32
REMARK SMILES IDX 69 33 24 34 68 35 25 36 26 37 27 38 62 39 28 40 67 41 61 42
REMARK SMILES IDX 63 43 29 44 66 45 60 46 59 47 30 49 52 50 37 51 51 52 38 53
REMARK SMILES IDX 41 54 50 55 64 56 39 57 40 58 49 60 65 61 42 62 31 63 32 64
REMARK SMILES IDX 36 65 33 66 35 67 34 68 53 69 54 70 58 71 55 72 57 73 56 74
REMARK SMILES IDX 43 75 44 76 48 77 45 78 47 79 46 80
REMARK H PARENT 63 48 41 59
REMARK Flexibility Score: inf
ROOT
ATOM      1  C   UNL A   1      37.718  21.471  25.449  1.00  0.00     0.275 C 
ENDROOT
BRANCH   1   2
ATOM      2  O   UNL A   1      36.736  21.648  24.402  1.00  0.00    -0.459 OA
BRANCH   2   3
ATOM      3  C   UNL A   1      35.507  21.150  24.669  1.00  0.00     0.338 C 
ATOM      4  O   UNL A   1      35.238  19.993  24.951  1.00  0.00    -0.246 OA
BRANCH   3   5
ATOM      5  C   UNL A   1      34.492  22.220  24.643  1.00  0.00     0.087 C 
ATOM      6  C   UNL A   1      32.175  26.655  23.911  1.00  0.00     0.060 A 
ATOM      7  C   UNL A   1      31.923  25.516  24.717  1.00  0.00     0.074 A 
ATOM      8  C   UNL A   1      33.266  26.575  23.015  1.00  0.00     0.065 A 
ATOM      9  C   UNL A   1      32.737  24.378  24.675  1.00  0.00     0.130 A 
ATOM     10  C   UNL A   1      34.049  25.422  22.939  1.00  0.00     0.034 A 
ATOM     11  Cl  UNL A   1      33.815  27.896  22.036  1.00  0.00    -0.082 Cl
ATOM     12  C   UNL A   1      33.798  24.343  23.785  1.00  0.00     0.019 A 
ATOM     13  O   UNL A   1      32.437  23.347  25.523  1.00  0.00    -0.475 OA
ATOM     14  C   UNL A   1      34.687  23.207  23.765  1.00  0.00     0.027 C 
ATOM     15  C   UNL A   1      33.398  22.254  25.673  1.00  0.00     0.316 C 
BRANCH   6  16
ATOM     16  N   UNL A   1      31.370  27.801  24.065  1.00  0.00    -0.365 N 
BRANCH  16  17
ATOM     17  C   UNL A   1      30.296  28.026  23.070  1.00  0.00     0.076 C 
ATOM     18  C   UNL A   1      28.960  27.424  23.497  1.00  0.00     0.030 C 
ATOM     19  C   UNL A   1      30.124  29.490  22.670  1.00  0.00     0.030 C 
ENDBRANCH  16  17
BRANCH  16  20
ATOM     20  C   UNL A   1      31.656  28.643  25.249  1.00  0.00     0.076 C 
ATOM     21  C   UNL A   1      31.506  27.888  26.568  1.00  0.00     0.030 C 
ATOM     22  C   UNL A   1      32.996  29.364  25.163  1.00  0.00     0.030 C 
ENDBRANCH  16  20
ENDBRANCH   6  16
BRANCH  15  23
ATOM     23  C   UNL A   1      33.990  22.294  27.092  1.00  0.00     0.430 C 
ATOM     24  F   UNL A   1      35.142  23.002  27.132  1.00  0.00    -0.167 F 
ATOM     25  F   UNL A   1      33.140  22.888  27.966  1.00  0.00    -0.167 F 
ATOM     26  F   UNL A   1      34.255  21.056  27.570  1.00  0.00    -0.167 F 
ENDBRANCH  15  23
ENDBRANCH   3   5
ENDBRANCH   2   3
ENDBRANCH   1   2
BRANCH   1  27
ATOM     27  C   UNL A   1      38.684  20.332  25.124  1.00  0.00     0.275 C 
BRANCH  27  28
ATOM     28  O   UNL A   1      39.397  19.926  26.306  1.00  0.00    -0.458 OA
BRANCH  28  29
ATOM     29  C   UNL A   1      40.740  19.838  26.178  1.00  0.00     0.338 C 
ATOM     30  O   UNL A   1      41.386  18.928  25.689  1.00  0.00    -0.246 OA
BRANCH  29  31
ATOM     31  C   UNL A   1      41.360  21.085  26.650  1.00  0.00     0.060 A 
ATOM     32  C   UNL A   1      41.847  22.036  25.762  1.00  0.00     0.016 A 
ATOM     33  C   UNL A   1      41.301  21.372  28.008  1.00  0.00     0.016 A 
ATOM     34  C   UNL A   1      42.285  23.271  26.259  1.00  0.00     0.010 A 
ATOM     35  C   UNL A   1      41.583  22.651  28.478  1.00  0.00     0.010 A 
ATOM     36  C   UNL A   1      42.118  23.614  27.619  1.00  0.00    -0.014 A 
BRANCH  36  37
ATOM     37  C   UNL A   1      42.500  24.963  28.135  1.00  0.00     0.031 A 
ATOM     38  C   UNL A   1      41.465  26.042  28.359  1.00  0.00     0.074 A 
ATOM     39  C   UNL A   1      43.798  25.239  28.384  1.00  0.00     0.049 A 
ATOM     40  N   UNL A   1      41.624  27.247  28.852  1.00  0.00    -0.248 NA
ATOM     41  C   UNL A   1      40.081  25.757  27.943  1.00  0.00     0.031 C 
ATOM     42  C   UNL A   1      44.921  24.338  28.118  1.00  0.00     0.029 A 
ATOM     43  N   UNL A   1      44.391  26.347  28.942  1.00  0.00    -0.354 N 
ATOM     44  C   UNL A   1      40.378  27.861  28.774  1.00  0.00     0.074 A 
ATOM     45  C   UNL A   1      39.490  26.928  28.121  1.00  0.00     0.031 C 
ATOM     46  C   UNL A   1      46.048  24.883  28.601  1.00  0.00     0.029 A 
ATOM     47  C   UNL A   1      45.739  26.191  29.169  1.00  0.00     0.049 A 
ATOM     48  H   UNL A   1      43.899  27.171  29.157  1.00  0.00     0.167 HD
ATOM     49  C   UNL A   1      39.989  29.070  29.242  1.00  0.00     0.031 A 
ATOM     50  C   UNL A   1      46.626  26.991  29.793  1.00  0.00     0.031 A 
ATOM     51  C   UNL A   1      40.853  29.978  29.945  1.00  0.00     0.049 A 
ATOM     52  C   UNL A   1      46.163  28.298  30.370  1.00  0.00     0.074 A 
ATOM     53  C   UNL A   1      40.530  31.188  30.533  1.00  0.00     0.029 A 
ATOM     54  N   UNL A   1      42.204  29.770  30.165  1.00  0.00    -0.354 N 
ATOM     55  N   UNL A   1      44.961  28.821  30.362  1.00  0.00    -0.248 NA
ATOM     56  C   UNL A   1      47.174  29.121  31.052  1.00  0.00     0.031 C 
ATOM     57  C   UNL A   1      41.697  31.732  31.077  1.00  0.00     0.029 A 
ATOM     58  C   UNL A   1      42.732  30.834  30.873  1.00  0.00     0.049 A 
ATOM     59  H   UNL A   1      42.712  28.982  29.863  1.00  0.00     0.167 HD
ATOM     60  C   UNL A   1      45.067  30.024  31.048  1.00  0.00     0.074 A 
ATOM     61  C   UNL A   1      46.445  30.146  31.477  1.00  0.00     0.031 C 
ATOM     62  C   UNL A   1      44.104  30.945  31.296  1.00  0.00     0.031 A 
BRANCH  49  63
ATOM     63  C   UNL A   1      38.550  29.470  29.050  1.00  0.00    -0.014 A 
ATOM     64  C   UNL A   1      37.657  29.431  30.133  1.00  0.00     0.009 A 
ATOM     65  C   UNL A   1      38.058  29.817  27.782  1.00  0.00     0.009 A 
ATOM     66  C   UNL A   1      36.305  29.730  29.950  1.00  0.00     0.001 A 
ATOM     67  C   UNL A   1      36.714  30.149  27.607  1.00  0.00     0.001 A 
ATOM     68  C   UNL A   1      35.836  30.097  28.689  1.00  0.00     0.000 A 
ENDBRANCH  49  63
BRANCH  50  69
ATOM     69  C   UNL A   1      48.025  26.522  29.976  1.00  0.00    -0.014 A 
ATOM     70  C   UNL A   1      48.996  26.742  28.987  1.00  0.00     0.009 A 
ATOM     71  C   UNL A   1      48.375  25.786  31.119  1.00  0.00     0.009 A 
ATOM     72  C   UNL A   1      50.282  26.214  29.128  1.00  0.00     0.001 A 
ATOM     73  C   UNL A   1      49.670  25.282  31.270  1.00  0.00     0.001 A 
ATOM     74  C   UNL A   1      50.619  25.488  30.269  1.00  0.00     0.000 A 
ENDBRANCH  50  69
BRANCH  62  75
ATOM     75  C   UNL A   1      44.485  32.172  32.073  1.00  0.00    -0.014 A 
ATOM     76  C   UNL A   1      44.324  32.191  33.467  1.00  0.00     0.009 A 
ATOM     77  C   UNL A   1      44.885  33.346  31.416  1.00  0.00     0.009 A 
ATOM     78  C   UNL A   1      44.539  33.365  34.189  1.00  0.00     0.001 A 
ATOM     79  C   UNL A   1      45.125  34.512  32.145  1.00  0.00     0.001 A 
ATOM     80  C   UNL A   1      44.941  34.524  33.527  1.00  0.00     0.000 A 
ENDBRANCH  62  75
ENDBRANCH  36  37
ENDBRANCH  29  31
ENDBRANCH  28  29
ENDBRANCH  27  28
ENDBRANCH   1  27
TORSDOF 15
ENDMDL
