MODEL 1
REMARK VINA RESULT:     -11.6      0.000      0.000
REMARK SMILES O=C(OCCOC(=O)c1ccc(-c2c3nc(c(-c4ccccc4)c4ccc([nH]4)c(-c4ccccc4)c4nc(c(-c5ccccc5)c5ccc2[nH]5)C=C4)C=C3)cc1)C1=Cc2cc(S(F)(F)(F)(F)F)cc(Br)c2O[C@H]1C(F)(F)F
REMARK SMILES IDX 5 1 4 2 3 3 2 4 1 5 57 6 58 7 73 8 59 9 72 10 60 11 71 12
REMARK SMILES IDX 61 13 69 14 68 15 70 16 74 17 75 18 76 19 77 20 62 21 63 22
REMARK SMILES IDX 64 23 65 24 66 25 67 26 6 27 7 28 8 29 9 30 10 31 56 32
REMARK SMILES IDX 11 33 55 34 12 35 13 36 14 37 49 38 15 39 54 40 48 41 50 42
REMARK SMILES IDX 16 43 53 44 47 45 46 46 17 48 39 49 24 50 38 51 25 52 28 53
REMARK SMILES IDX 37 54 51 55 26 56 27 57 36 59 52 60 29 61 18 62 19 63 23 64
REMARK SMILES IDX 20 65 22 66 21 67 40 68 41 69 45 70 42 71 44 72 43 73 30 74
REMARK SMILES IDX 31 75 35 76 32 77 34 78 33 79
REMARK H PARENT 50 47 28 58
REMARK Flexibility Score: inf
ROOT
ATOM      1  C   UNL A   1      32.351  29.676  27.251  1.00  0.00     0.275 C 
ENDROOT
BRANCH   1   2
ATOM      2  C   UNL A   1      31.761  28.288  27.065  1.00  0.00     0.275 C 
BRANCH   2   3
ATOM      3  O   UNL A   1      32.424  27.631  25.994  1.00  0.00    -0.459 OA
BRANCH   3   4
ATOM      4  C   UNL A   1      31.670  27.076  24.927  1.00  0.00     0.338 C 
ATOM      5  O   UNL A   1      30.460  26.736  25.113  1.00  0.00    -0.246 OA
BRANCH   4   6
ATOM      6  C   UNL A   1      32.312  26.889  23.561  1.00  0.00     0.087 C 
ATOM      7  C   UNL A   1      33.282  25.950  23.389  1.00  0.00     0.027 C 
ATOM      8  C   UNL A   1      31.869  27.749  22.389  1.00  0.00     0.316 C 
ATOM      9  C   UNL A   1      33.724  25.089  24.561  1.00  0.00     0.020 A 
ATOM     10  O   UNL A   1      31.435  25.075  25.199  1.00  0.00    -0.474 OA
ATOM     11  C   UNL A   1      35.051  24.743  24.756  1.00  0.00     0.036 A 
ATOM     12  C   UNL A   1      32.760  24.578  25.319  1.00  0.00     0.142 A 
ATOM     13  C   UNL A   1      35.232  23.617  25.595  1.00  0.00     0.109 A 
ATOM     14  C   UNL A   1      33.033  23.575  26.216  1.00  0.00     0.062 A 
ATOM     15  C   UNL A   1      34.314  23.141  26.417  1.00  0.00     0.044 A 
ATOM     16  Br  UNL A   1      31.566  22.753  27.222  1.00  0.00    -0.047 Br
BRANCH   8  17
ATOM     17  C   UNL A   1      30.783  28.708  22.846  1.00  0.00     0.430 C 
ATOM     18  F   UNL A   1      31.169  29.317  23.964  1.00  0.00    -0.167 F 
ATOM     19  F   UNL A   1      30.567  29.617  21.899  1.00  0.00    -0.167 F 
ATOM     20  F   UNL A   1      29.662  28.030  23.075  1.00  0.00    -0.167 F 
ENDBRANCH   8  17
BRANCH  13  21
ATOM     21  S   UNL A   1      36.832  22.774  25.539  1.00  0.00     0.310 S 
ATOM     22  F   UNL A   1      37.334  23.667  24.328  1.00  0.00    -0.094 F 
ATOM     23  F   UNL A   1      36.235  21.782  24.469  1.00  0.00    -0.094 F 
ATOM     24  F   UNL A   1      38.205  22.045  25.489  1.00  0.00    -0.094 F 
ATOM     25  F   UNL A   1      37.453  23.860  26.502  1.00  0.00    -0.094 F 
ATOM     26  F   UNL A   1      35.479  23.591  25.513  1.00  0.00    -0.094 F 
ENDBRANCH  13  21
ENDBRANCH   4   6
ENDBRANCH   3   4
ENDBRANCH   2   3
ENDBRANCH   1   2
BRANCH   1  27
ATOM     27  O   UNL A   1      33.768  29.600  27.184  1.00  0.00    -0.458 OA
BRANCH  27  28
ATOM     28  C   UNL A   1      34.563  30.463  27.984  1.00  0.00     0.338 C 
ATOM     29  O   UNL A   1      34.097  31.580  28.370  1.00  0.00    -0.246 OA
BRANCH  28  30
ATOM     30  C   UNL A   1      35.973  30.050  28.378  1.00  0.00     0.060 A 
ATOM     31  C   UNL A   1      36.298  29.535  29.622  1.00  0.00     0.016 A 
ATOM     32  C   UNL A   1      36.859  30.079  27.390  1.00  0.00     0.016 A 
ATOM     33  C   UNL A   1      37.687  29.335  29.813  1.00  0.00     0.010 A 
ATOM     34  C   UNL A   1      38.171  29.740  27.617  1.00  0.00     0.010 A 
ATOM     35  C   UNL A   1      38.576  29.279  28.839  1.00  0.00    -0.014 A 
BRANCH  35  36
ATOM     36  C   UNL A   1      39.976  28.731  29.065  1.00  0.00     0.031 A 
ATOM     37  C   UNL A   1      40.921  29.653  29.520  1.00  0.00     0.074 A 
ATOM     38  C   UNL A   1      40.281  27.438  28.677  1.00  0.00     0.049 A 
ATOM     39  N   UNL A   1      42.229  29.458  29.695  1.00  0.00    -0.248 NA
ATOM     40  C   UNL A   1      40.605  31.039  29.899  1.00  0.00     0.031 C 
ATOM     41  C   UNL A   1      39.332  26.500  28.224  1.00  0.00     0.029 A 
ATOM     42  N   UNL A   1      41.516  26.830  28.657  1.00  0.00    -0.354 N 
ATOM     43  C   UNL A   1      42.801  30.568  30.164  1.00  0.00     0.074 A 
ATOM     44  C   UNL A   1      41.767  31.602  30.296  1.00  0.00     0.031 C 
ATOM     45  C   UNL A   1      39.988  25.348  27.924  1.00  0.00     0.029 A 
ATOM     46  C   UNL A   1      41.357  25.547  28.184  1.00  0.00     0.049 A 
ATOM     47  H   UNL A   1      42.367  27.243  28.931  1.00  0.00     0.167 HD
ATOM     48  C   UNL A   1      44.146  30.758  30.489  1.00  0.00     0.031 A 
ATOM     49  C   UNL A   1      42.339  24.589  27.984  1.00  0.00     0.031 A 
ATOM     50  C   UNL A   1      45.120  29.785  30.329  1.00  0.00     0.049 A 
ATOM     51  C   UNL A   1      43.693  24.797  28.253  1.00  0.00     0.074 A 
ATOM     52  C   UNL A   1      46.478  29.958  30.659  1.00  0.00     0.029 A 
ATOM     53  N   UNL A   1      44.965  28.509  29.834  1.00  0.00    -0.354 N 
ATOM     54  N   UNL A   1      44.259  25.894  28.761  1.00  0.00    -0.248 NA
ATOM     55  C   UNL A   1      44.745  23.801  28.014  1.00  0.00     0.031 C 
ATOM     56  C   UNL A   1      47.134  28.805  30.358  1.00  0.00     0.029 A 
ATOM     57  C   UNL A   1      46.197  27.895  29.834  1.00  0.00     0.049 A 
ATOM     58  H   UNL A   1      44.119  28.106  29.532  1.00  0.00     0.167 HD
ATOM     59  C   UNL A   1      45.574  25.711  28.895  1.00  0.00     0.074 A 
ATOM     60  C   UNL A   1      45.907  24.365  28.410  1.00  0.00     0.031 C 
ATOM     61  C   UNL A   1      46.509  26.614  29.406  1.00  0.00     0.031 A 
BRANCH  48  62
ATOM     62  C   UNL A   1      44.566  32.107  31.049  1.00  0.00    -0.014 A 
ATOM     63  C   UNL A   1      44.437  32.382  32.401  1.00  0.00     0.009 A 
ATOM     64  C   UNL A   1      44.893  33.057  30.181  1.00  0.00     0.009 A 
ATOM     65  C   UNL A   1      44.392  33.764  32.702  1.00  0.00     0.001 A 
ATOM     66  C   UNL A   1      44.962  34.371  30.575  1.00  0.00     0.001 A 
ATOM     67  C   UNL A   1      44.788  34.723  31.885  1.00  0.00     0.000 A 
ENDBRANCH  48  62
BRANCH  49  68
ATOM     68  C   UNL A   1      41.917  23.233  27.439  1.00  0.00    -0.014 A 
ATOM     69  C   UNL A   1      42.035  22.881  26.105  1.00  0.00     0.009 A 
ATOM     70  C   UNL A   1      41.563  22.342  28.358  1.00  0.00     0.009 A 
ATOM     71  C   UNL A   1      41.473  21.620  25.793  1.00  0.00     0.001 A 
ATOM     72  C   UNL A   1      41.154  21.083  27.990  1.00  0.00     0.001 A 
ATOM     73  C   UNL A   1      41.188  20.686  26.682  1.00  0.00     0.000 A 
ENDBRANCH  49  68
BRANCH  61  74
ATOM     74  C   UNL A   1      47.958  26.163  29.498  1.00  0.00    -0.014 A 
ATOM     75  C   UNL A   1      48.822  26.210  28.416  1.00  0.00     0.009 A 
ATOM     76  C   UNL A   1      48.379  25.788  30.701  1.00  0.00     0.009 A 
ATOM     77  C   UNL A   1      50.059  25.560  28.642  1.00  0.00     0.001 A 
ATOM     78  C   UNL A   1      49.648  25.289  30.873  1.00  0.00     0.001 A 
ATOM     79  C   UNL A   1      50.536  25.251  29.834  1.00  0.00     0.000 A 
ENDBRANCH  61  74
ENDBRANCH  35  36
ENDBRANCH  28  30
ENDBRANCH  27  28
ENDBRANCH   1  27
TORSDOF 13
ENDMDL
MODEL 2
REMARK VINA RESULT:     -11.5      3.196      7.853
REMARK SMILES O=C(OCCOC(=O)c1ccc(-c2c3nc(c(-c4ccccc4)c4ccc([nH]4)c(-c4ccccc4)c4nc(c(-c5ccccc5)c5ccc2[nH]5)C=C4)C=C3)cc1)C1=Cc2cc(S(F)(F)(F)(F)F)cc(Br)c2O[C@H]1C(F)(F)F
REMARK SMILES IDX 5 1 4 2 3 3 2 4 1 5 57 6 58 7 73 8 59 9 72 10 60 11 71 12
REMARK SMILES IDX 61 13 69 14 68 15 70 16 74 17 75 18 76 19 77 20 62 21 63 22
REMARK SMILES IDX 64 23 65 24 66 25 67 26 6 27 7 28 8 29 9 30 10 31 56 32
REMARK SMILES IDX 11 33 55 34 12 35 13 36 14 37 49 38 15 39 54 40 48 41 50 42
REMARK SMILES IDX 16 43 53 44 47 45 46 46 17 48 39 49 24 50 38 51 25 52 28 53
REMARK SMILES IDX 37 54 51 55 26 56 27 57 36 59 52 60 29 61 18 62 19 63 23 64
REMARK SMILES IDX 20 65 22 66 21 67 40 68 41 69 45 70 42 71 44 72 43 73 30 74
REMARK SMILES IDX 31 75 35 76 32 77 34 78 33 79
REMARK H PARENT 50 47 28 58
REMARK Flexibility Score: inf
ROOT
ATOM      1  C   UNL A   1      37.194  22.164  24.560  1.00  0.00     0.275 C 
ENDROOT
BRANCH   1   2
ATOM      2  C   UNL A   1      36.342  22.941  23.570  1.00  0.00     0.275 C 
BRANCH   2   3
ATOM      3  O   UNL A   1      35.241  23.526  24.249  1.00  0.00    -0.459 OA
BRANCH   3   4
ATOM      4  C   UNL A   1      33.916  23.260  23.815  1.00  0.00     0.338 C 
ATOM      5  O   UNL A   1      33.673  23.098  22.578  1.00  0.00    -0.246 OA
BRANCH   4   6
ATOM      6  C   UNL A   1      32.788  23.169  24.830  1.00  0.00     0.087 C 
ATOM      7  C   UNL A   1      32.368  24.287  25.483  1.00  0.00     0.027 C 
ATOM      8  C   UNL A   1      32.129  21.829  25.116  1.00  0.00     0.316 C 
ATOM      9  C   UNL A   1      33.027  25.627  25.197  1.00  0.00     0.020 A 
ATOM     10  O   UNL A   1      33.120  24.910  22.933  1.00  0.00    -0.474 OA
ATOM     11  C   UNL A   1      33.279  26.548  26.199  1.00  0.00     0.036 A 
ATOM     12  C   UNL A   1      33.234  25.925  23.919  1.00  0.00     0.142 A 
ATOM     13  C   UNL A   1      33.475  27.869  25.729  1.00  0.00     0.109 A 
ATOM     14  C   UNL A   1      33.556  27.206  23.543  1.00  0.00     0.062 A 
ATOM     15  C   UNL A   1      33.761  28.183  24.478  1.00  0.00     0.044 A 
ATOM     16  Br  UNL A   1      33.723  27.641  21.639  1.00  0.00    -0.047 Br
BRANCH   8  17
ATOM     17  C   UNL A   1      32.778  20.753  24.262  1.00  0.00     0.430 C 
ATOM     18  F   UNL A   1      34.094  20.767  24.454  1.00  0.00    -0.167 F 
ATOM     19  F   UNL A   1      32.293  19.562  24.605  1.00  0.00    -0.167 F 
ATOM     20  F   UNL A   1      32.514  20.986  22.980  1.00  0.00    -0.167 F 
ENDBRANCH   8  17
BRANCH  13  21
ATOM     21  S   UNL A   1      33.322  29.219  26.923  1.00  0.00     0.310 S 
ATOM     22  F   UNL A   1      32.686  28.265  28.019  1.00  0.00    -0.094 F 
ATOM     23  F   UNL A   1      31.858  29.476  26.397  1.00  0.00    -0.094 F 
ATOM     24  F   UNL A   1      33.188  30.382  27.946  1.00  0.00    -0.094 F 
ATOM     25  F   UNL A   1      34.733  28.857  27.532  1.00  0.00    -0.094 F 
ATOM     26  F   UNL A   1      33.428  27.964  25.967  1.00  0.00    -0.094 F 
ENDBRANCH  13  21
ENDBRANCH   4   6
ENDBRANCH   3   4
ENDBRANCH   2   3
ENDBRANCH   1   2
BRANCH   1  27
ATOM     27  O   UNL A   1      37.515  22.998  25.664  1.00  0.00    -0.458 OA
BRANCH  27  28
ATOM     28  C   UNL A   1      38.843  23.033  26.164  1.00  0.00     0.338 C 
ATOM     29  O   UNL A   1      39.577  21.999  26.093  1.00  0.00    -0.246 OA
BRANCH  28  30
ATOM     30  C   UNL A   1      39.387  24.310  26.786  1.00  0.00     0.060 A 
ATOM     31  C   UNL A   1      40.107  25.258  26.078  1.00  0.00     0.016 A 
ATOM     32  C   UNL A   1      38.998  24.532  28.036  1.00  0.00     0.016 A 
ATOM     33  C   UNL A   1      40.621  26.304  26.881  1.00  0.00     0.010 A 
ATOM     34  C   UNL A   1      39.430  25.645  28.715  1.00  0.00     0.010 A 
ATOM     35  C   UNL A   1      40.194  26.595  28.096  1.00  0.00    -0.014 A 
BRANCH  35  36
ATOM     36  C   UNL A   1      40.533  27.915  28.769  1.00  0.00     0.031 A 
ATOM     37  C   UNL A   1      41.759  27.957  29.435  1.00  0.00     0.074 A 
ATOM     38  C   UNL A   1      39.587  28.923  28.825  1.00  0.00     0.049 A 
ATOM     39  N   UNL A   1      42.243  28.947  30.187  1.00  0.00    -0.248 NA
ATOM     40  C   UNL A   1      42.751  26.872  29.407  1.00  0.00     0.031 C 
ATOM     41  C   UNL A   1      38.351  28.891  28.150  1.00  0.00     0.029 A 
ATOM     42  N   UNL A   1      39.656  30.110  29.520  1.00  0.00    -0.354 N 
ATOM     43  C   UNL A   1      43.457  28.631  30.641  1.00  0.00     0.074 A 
ATOM     44  C   UNL A   1      43.799  27.289  30.150  1.00  0.00     0.031 C 
ATOM     45  C   UNL A   1      37.680  30.036  28.442  1.00  0.00     0.029 A 
ATOM     46  C   UNL A   1      38.485  30.803  29.305  1.00  0.00     0.049 A 
ATOM     47  H   UNL A   1      40.411  30.410  30.076  1.00  0.00     0.167 HD
ATOM     48  C   UNL A   1      44.294  29.409  31.443  1.00  0.00     0.031 A 
ATOM     49  C   UNL A   1      38.122  32.036  29.825  1.00  0.00     0.031 A 
ATOM     50  C   UNL A   1      43.947  30.661  31.927  1.00  0.00     0.049 A 
ATOM     51  C   UNL A   1      38.934  32.789  30.676  1.00  0.00     0.074 A 
ATOM     52  C   UNL A   1      44.781  31.461  32.731  1.00  0.00     0.029 A 
ATOM     53  N   UNL A   1      42.767  31.344  31.733  1.00  0.00    -0.354 N 
ATOM     54  N   UNL A   1      40.164  32.490  31.097  1.00  0.00    -0.248 NA
ATOM     55  C   UNL A   1      38.546  34.081  31.258  1.00  0.00     0.031 C 
ATOM     56  C   UNL A   1      44.109  32.607  33.024  1.00  0.00     0.029 A 
ATOM     57  C   UNL A   1      42.845  32.540  32.410  1.00  0.00     0.049 A 
ATOM     58  H   UNL A   1      41.999  31.030  31.201  1.00  0.00     0.167 HD
ATOM     59  C   UNL A   1      40.630  33.463  31.882  1.00  0.00     0.074 A 
ATOM     60  C   UNL A   1      39.593  34.497  32.004  1.00  0.00     0.031 C 
ATOM     61  C   UNL A   1      41.880  33.531  32.501  1.00  0.00     0.031 A 
BRANCH  48  62
ATOM     62  C   UNL A   1      45.660  28.853  31.806  1.00  0.00    -0.014 A 
ATOM     63  C   UNL A   1      45.852  28.170  32.997  1.00  0.00     0.009 A 
ATOM     64  C   UNL A   1      46.686  29.192  31.034  1.00  0.00     0.009 A 
ATOM     65  C   UNL A   1      47.199  28.142  33.430  1.00  0.00     0.001 A 
ATOM     66  C   UNL A   1      47.977  29.011  31.466  1.00  0.00     0.001 A 
ATOM     67  C   UNL A   1      48.240  28.396  32.659  1.00  0.00     0.000 A 
ENDBRANCH  48  62
BRANCH  49  68
ATOM     68  C   UNL A   1      36.761  32.599  29.449  1.00  0.00    -0.014 A 
ATOM     69  C   UNL A   1      36.511  33.243  28.249  1.00  0.00     0.009 A 
ATOM     70  C   UNL A   1      35.776  32.300  30.288  1.00  0.00     0.009 A 
ATOM     71  C   UNL A   1      35.211  33.794  28.153  1.00  0.00     0.001 A 
ATOM     72  C   UNL A   1      34.501  32.759  30.062  1.00  0.00     0.001 A 
ATOM     73  C   UNL A   1      34.194  33.453  28.924  1.00  0.00     0.000 A 
ENDBRANCH  49  68
BRANCH  61  74
ATOM     74  C   UNL A   1      42.202  34.768  33.324  1.00  0.00    -0.014 A 
ATOM     75  C   UNL A   1      41.815  34.902  34.647  1.00  0.00     0.009 A 
ATOM     76  C   UNL A   1      42.946  35.691  32.726  1.00  0.00     0.009 A 
ATOM     77  C   UNL A   1      42.024  36.198  35.177  1.00  0.00     0.001 A 
ATOM     78  C   UNL A   1      43.225  36.881  33.356  1.00  0.00     0.001 A 
ATOM     79  C   UNL A   1      42.823  37.104  34.644  1.00  0.00     0.000 A 
ENDBRANCH  61  74
ENDBRANCH  35  36
ENDBRANCH  28  30
ENDBRANCH  27  28
ENDBRANCH   1  27
TORSDOF 13
ENDMDL
MODEL 3
REMARK VINA RESULT:     -11.2      2.044      5.900
REMARK SMILES O=C(OCCOC(=O)c1ccc(-c2c3nc(c(-c4ccccc4)c4ccc([nH]4)c(-c4ccccc4)c4nc(c(-c5ccccc5)c5ccc2[nH]5)C=C4)C=C3)cc1)C1=Cc2cc(S(F)(F)(F)(F)F)cc(Br)c2O[C@H]1C(F)(F)F
REMARK SMILES IDX 5 1 4 2 3 3 2 4 1 5 57 6 58 7 73 8 59 9 72 10 60 11 71 12
REMARK SMILES IDX 61 13 69 14 68 15 70 16 74 17 75 18 76 19 77 20 62 21 63 22
REMARK SMILES IDX 64 23 65 24 66 25 67 26 6 27 7 28 8 29 9 30 10 31 56 32
REMARK SMILES IDX 11 33 55 34 12 35 13 36 14 37 49 38 15 39 54 40 48 41 50 42
REMARK SMILES IDX 16 43 53 44 47 45 46 46 17 48 39 49 24 50 38 51 25 52 28 53
REMARK SMILES IDX 37 54 51 55 26 56 27 57 36 59 52 60 29 61 18 62 19 63 23 64
REMARK SMILES IDX 20 65 22 66 21 67 40 68 41 69 45 70 42 71 44 72 43 73 30 74
REMARK SMILES IDX 31 75 35 76 32 77 34 78 33 79
REMARK H PARENT 50 47 28 58
REMARK Flexibility Score: inf
ROOT
ATOM      1  C   UNL A   1      32.174  29.904  27.226  1.00  0.00     0.275 C 
ENDROOT
BRANCH   1   2
ATOM      2  C   UNL A   1      31.870  28.415  27.216  1.00  0.00     0.275 C 
BRANCH   2   3
ATOM      3  O   UNL A   1      32.567  27.797  26.144  1.00  0.00    -0.459 OA
BRANCH   3   4
ATOM      4  C   UNL A   1      31.844  27.194  25.082  1.00  0.00     0.338 C 
ATOM      5  O   UNL A   1      30.653  26.793  25.270  1.00  0.00    -0.246 OA
BRANCH   4   6
ATOM      6  C   UNL A   1      32.495  27.028  23.718  1.00  0.00     0.087 C 
ATOM      7  C   UNL A   1      33.472  26.098  23.539  1.00  0.00     0.027 C 
ATOM      8  C   UNL A   1      32.056  27.902  22.554  1.00  0.00     0.316 C 
ATOM      9  C   UNL A   1      33.912  25.224  24.703  1.00  0.00     0.020 A 
ATOM     10  O   UNL A   1      31.619  25.188  25.326  1.00  0.00    -0.474 OA
ATOM     11  C   UNL A   1      35.239  24.883  24.902  1.00  0.00     0.036 A 
ATOM     12  C   UNL A   1      32.946  24.698  25.447  1.00  0.00     0.142 A 
ATOM     13  C   UNL A   1      35.422  23.747  25.727  1.00  0.00     0.109 A 
ATOM     14  C   UNL A   1      33.219  23.684  26.333  1.00  0.00     0.062 A 
ATOM     15  C   UNL A   1      34.501  23.254  26.536  1.00  0.00     0.044 A 
ATOM     16  Br  UNL A   1      31.750  22.840  27.318  1.00  0.00    -0.047 Br
BRANCH   8  17
ATOM     17  C   UNL A   1      30.961  28.849  23.017  1.00  0.00     0.430 C 
ATOM     18  F   UNL A   1      30.656  29.691  22.034  1.00  0.00    -0.167 F 
ATOM     19  F   UNL A   1      29.880  28.148  23.351  1.00  0.00    -0.167 F 
ATOM     20  F   UNL A   1      31.388  29.535  24.073  1.00  0.00    -0.167 F 
ENDBRANCH   8  17
BRANCH  13  21
ATOM     21  S   UNL A   1      37.027  22.914  25.670  1.00  0.00     0.310 S 
ATOM     22  F   UNL A   1      37.472  23.719  24.377  1.00  0.00    -0.094 F 
ATOM     23  F   UNL A   1      36.399  21.841  24.701  1.00  0.00    -0.094 F 
ATOM     24  F   UNL A   1      38.404  22.194  25.620  1.00  0.00    -0.094 F 
ATOM     25  F   UNL A   1      37.673  24.073  26.525  1.00  0.00    -0.094 F 
ATOM     26  F   UNL A   1      35.665  23.716  25.637  1.00  0.00    -0.094 F 
ENDBRANCH  13  21
ENDBRANCH   4   6
ENDBRANCH   3   4
ENDBRANCH   2   3
ENDBRANCH   1   2
BRANCH   1  27
ATOM     27  O   UNL A   1      33.544  30.109  26.915  1.00  0.00    -0.458 OA
BRANCH  27  28
ATOM     28  C   UNL A   1      34.320  31.013  27.688  1.00  0.00     0.338 C 
ATOM     29  O   UNL A   1      33.944  32.220  27.821  1.00  0.00    -0.246 OA
BRANCH  28  30
ATOM     30  C   UNL A   1      35.601  30.538  28.355  1.00  0.00     0.060 A 
ATOM     31  C   UNL A   1      35.641  29.524  29.297  1.00  0.00     0.016 A 
ATOM     32  C   UNL A   1      36.716  31.065  27.863  1.00  0.00     0.016 A 
ATOM     33  C   UNL A   1      36.918  29.330  29.876  1.00  0.00     0.010 A 
ATOM     34  C   UNL A   1      37.940  30.727  28.386  1.00  0.00     0.010 A 
ATOM     35  C   UNL A   1      38.049  29.775  29.361  1.00  0.00    -0.014 A 
BRANCH  35  36
ATOM     36  C   UNL A   1      39.400  29.258  29.829  1.00  0.00     0.031 A 
ATOM     37  C   UNL A   1      39.902  28.159  29.131  1.00  0.00     0.074 A 
ATOM     38  C   UNL A   1      39.977  29.776  30.976  1.00  0.00     0.049 A 
ATOM     39  N   UNL A   1      41.002  27.456  29.404  1.00  0.00    -0.248 NA
ATOM     40  C   UNL A   1      39.272  27.585  27.933  1.00  0.00     0.031 C 
ATOM     41  C   UNL A   1      39.480  30.890  31.682  1.00  0.00     0.029 A 
ATOM     42  N   UNL A   1      41.102  29.331  31.632  1.00  0.00    -0.354 N 
ATOM     43  C   UNL A   1      41.168  26.489  28.498  1.00  0.00     0.074 A 
ATOM     44  C   UNL A   1      40.054  26.555  27.543  1.00  0.00     0.031 C 
ATOM     45  C   UNL A   1      40.287  31.105  32.753  1.00  0.00     0.029 A 
ATOM     46  C   UNL A   1      41.302  30.130  32.735  1.00  0.00     0.049 A 
ATOM     47  H   UNL A   1      41.666  28.570  31.359  1.00  0.00     0.167 HD
ATOM     48  C   UNL A   1      42.205  25.557  28.431  1.00  0.00     0.031 A 
ATOM     49  C   UNL A   1      42.307  30.028  33.685  1.00  0.00     0.031 A 
ATOM     50  C   UNL A   1      43.234  25.484  29.357  1.00  0.00     0.049 A 
ATOM     51  C   UNL A   1      43.312  29.059  33.651  1.00  0.00     0.074 A 
ATOM     52  C   UNL A   1      44.291  24.555  29.300  1.00  0.00     0.029 A 
ATOM     53  N   UNL A   1      43.421  26.267  30.475  1.00  0.00    -0.354 N 
ATOM     54  N   UNL A   1      43.499  28.118  32.724  1.00  0.00    -0.248 NA
ATOM     55  C   UNL A   1      44.362  28.922  34.669  1.00  0.00     0.031 C 
ATOM     56  C   UNL A   1      45.099  24.770  30.373  1.00  0.00     0.029 A 
ATOM     57  C   UNL A   1      44.559  25.835  31.118  1.00  0.00     0.049 A 
ATOM     58  H   UNL A   1      42.840  27.009  30.763  1.00  0.00     0.167 HD
ATOM     59  C   UNL A   1      44.577  27.389  33.021  1.00  0.00     0.074 A 
ATOM     60  C   UNL A   1      45.143  27.891  34.281  1.00  0.00     0.031 C 
ATOM     61  C   UNL A   1      45.112  26.327  32.290  1.00  0.00     0.031 A 
BRANCH  48  62
ATOM     62  C   UNL A   1      42.207  24.567  27.279  1.00  0.00    -0.014 A 
ATOM     63  C   UNL A   1      41.628  23.315  27.421  1.00  0.00     0.009 A 
ATOM     64  C   UNL A   1      42.924  24.876  26.205  1.00  0.00     0.009 A 
ATOM     65  C   UNL A   1      42.108  22.354  26.500  1.00  0.00     0.001 A 
ATOM     66  C   UNL A   1      43.242  23.915  25.276  1.00  0.00     0.001 A 
ATOM     67  C   UNL A   1      42.753  22.643  25.384  1.00  0.00     0.000 A 
ENDBRANCH  48  62
BRANCH  49  68
ATOM     68  C   UNL A   1      42.315  31.029  34.830  1.00  0.00    -0.014 A 
ATOM     69  C   UNL A   1      41.716  30.787  36.055  1.00  0.00     0.009 A 
ATOM     70  C   UNL A   1      43.070  32.104  34.633  1.00  0.00     0.009 A 
ATOM     71  C   UNL A   1      41.738  31.896  36.933  1.00  0.00     0.001 A 
ATOM     72  C   UNL A   1      43.152  33.085  35.591  1.00  0.00     0.001 A 
ATOM     73  C   UNL A   1      42.538  32.939  36.803  1.00  0.00     0.000 A 
ENDBRANCH  49  68
BRANCH  61  74
ATOM     74  C   UNL A   1      46.380  25.669  32.812  1.00  0.00    -0.014 A 
ATOM     75  C   UNL A   1      46.355  24.610  33.703  1.00  0.00     0.009 A 
ATOM     76  C   UNL A   1      47.522  26.119  32.307  1.00  0.00     0.009 A 
ATOM     77  C   UNL A   1      47.625  24.272  34.228  1.00  0.00     0.001 A 
ATOM     78  C   UNL A   1      48.726  25.646  32.771  1.00  0.00     0.001 A 
ATOM     79  C   UNL A   1      48.777  24.639  33.695  1.00  0.00     0.000 A 
ENDBRANCH  61  74
ENDBRANCH  35  36
ENDBRANCH  28  30
ENDBRANCH  27  28
ENDBRANCH   1  27
TORSDOF 13
ENDMDL
