MODEL 1
REMARK VINA RESULT:     -11.5      0.000      0.000
REMARK SMILES CC[C@H]1CC[C@](C[C@@H]2CCCc3ccccc32)(C(=O)OCCOC(=O)c2ccc(-c3c4nc(c(-c5ccccc5)c5ccc([nH]5)c(-c5ccccc5)c5nc(c(-c6ccccc6)c6ccc3[nH]6)C=C5)C=C4)cc2)C1
REMARK SMILES IDX 21 1 20 2 18 3 19 4 6 5 3 6 4 7 74 8 5 9 2 10 1 11 7 12 8 13
REMARK SMILES IDX 9 14 17 15 10 16 12 17 16 18 11 19 13 20 15 21 14 22 22 23
REMARK SMILES IDX 23 24 24 25 25 26 26 27 27 28 73 29 28 30 72 31 29 32 30 33
REMARK SMILES IDX 31 34 66 35 32 36 71 37 65 38 67 39 33 40 70 41 64 42 63 43
REMARK SMILES IDX 34 45 56 46 41 47 55 48 42 49 45 50 54 51 68 52 43 53 44 54
REMARK SMILES IDX 53 56 69 57 46 58 35 59 36 60 40 61 37 62 39 63 38 64 57 65
REMARK SMILES IDX 58 66 62 67 59 68 61 69 60 70 47 71 48 72 52 73 49 74 51 75
REMARK SMILES IDX 50 76
REMARK H PARENT 67 44 45 55
REMARK Flexibility Score: inf
ROOT
ATOM      1  C   UNL A   1      32.732  29.428  24.824  1.00  0.00     0.274 C 
ENDROOT
BRANCH   1   2
ATOM      2  O   UNL A   1      32.824  28.031  25.186  1.00  0.00    -0.462 OA
BRANCH   2   3
ATOM      3  C   UNL A   1      33.380  27.257  24.212  1.00  0.00     0.312 C 
ATOM      4  O   UNL A   1      34.028  27.734  23.284  1.00  0.00    -0.252 OA
BRANCH   3   5
ATOM      5  C   UNL A   1      33.151  25.719  24.385  1.00  0.00     0.069 C 
ATOM      6  C   UNL A   1      31.450  25.012  26.065  1.00  0.00    -0.010 C 
ATOM      7  C   UNL A   1      32.808  24.468  26.492  1.00  0.00     0.005 C 
ATOM      8  C   UNL A   1      31.630  25.426  24.584  1.00  0.00     0.022 C 
ATOM      9  C   UNL A   1      33.821  25.273  25.697  1.00  0.00     0.019 C 
BRANCH   6  10
ATOM     10  C   UNL A   1      30.286  24.088  26.494  1.00  0.00     0.000 C 
ATOM     11  C   UNL A   1      30.505  22.586  26.568  1.00  0.00     0.004 C 
ENDBRANCH   6  10
BRANCH   5  12
ATOM     12  C   UNL A   1      33.833  25.140  23.080  1.00  0.00     0.027 C 
BRANCH  12  13
ATOM     13  C   UNL A   1      34.074  23.683  22.601  1.00  0.00     0.020 C 
ATOM     14  C   UNL A   1      32.869  22.937  22.041  1.00  0.00     0.009 C 
ATOM     15  C   UNL A   1      34.910  22.794  23.499  1.00  0.00    -0.042 A 
ATOM     16  C   UNL A   1      32.082  22.257  23.136  1.00  0.00     0.005 C 
ATOM     17  C   UNL A   1      34.328  21.746  24.230  1.00  0.00    -0.045 A 
ATOM     18  C   UNL A   1      36.309  22.939  23.525  1.00  0.00     0.004 A 
ATOM     19  C   UNL A   1      32.888  21.352  24.055  1.00  0.00     0.036 C 
ATOM     20  C   UNL A   1      35.129  20.946  25.060  1.00  0.00     0.004 A 
ATOM     21  C   UNL A   1      37.104  22.086  24.294  1.00  0.00     0.000 A 
ATOM     22  C   UNL A   1      36.511  21.112  25.089  1.00  0.00     0.000 A 
ENDBRANCH  12  13
ENDBRANCH   5  12
ENDBRANCH   3   5
ENDBRANCH   2   3
ENDBRANCH   1   2
BRANCH   1  23
ATOM     23  C   UNL A   1      31.780  30.212  25.727  1.00  0.00     0.275 C 
BRANCH  23  24
ATOM     24  O   UNL A   1      32.300  30.337  27.062  1.00  0.00    -0.458 OA
BRANCH  24  25
ATOM     25  C   UNL A   1      33.063  31.429  27.277  1.00  0.00     0.338 C 
ATOM     26  O   UNL A   1      32.697  32.599  27.250  1.00  0.00    -0.246 OA
BRANCH  25  27
ATOM     27  C   UNL A   1      34.459  31.073  27.587  1.00  0.00     0.060 A 
ATOM     28  C   UNL A   1      34.839  29.741  27.739  1.00  0.00     0.016 A 
ATOM     29  C   UNL A   1      35.339  32.093  27.955  1.00  0.00     0.016 A 
ATOM     30  C   UNL A   1      36.016  29.431  28.422  1.00  0.00     0.010 A 
ATOM     31  C   UNL A   1      36.573  31.775  28.525  1.00  0.00     0.010 A 
ATOM     32  C   UNL A   1      36.895  30.442  28.836  1.00  0.00    -0.014 A 
BRANCH  32  33
ATOM     33  C   UNL A   1      38.105  30.134  29.652  1.00  0.00     0.031 A 
ATOM     34  C   UNL A   1      39.220  29.297  29.070  1.00  0.00     0.074 A 
ATOM     35  C   UNL A   1      38.220  30.588  30.915  1.00  0.00     0.049 A 
ATOM     36  N   UNL A   1      40.248  28.749  29.672  1.00  0.00    -0.248 NA
ATOM     37  C   UNL A   1      39.160  29.024  27.625  1.00  0.00     0.031 C 
ATOM     38  C   UNL A   1      37.256  31.444  31.607  1.00  0.00     0.029 A 
ATOM     39  N   UNL A   1      39.212  30.386  31.844  1.00  0.00    -0.354 N 
ATOM     40  C   UNL A   1      40.912  28.013  28.697  1.00  0.00     0.074 A 
ATOM     41  C   UNL A   1      40.172  28.183  27.464  1.00  0.00     0.031 C 
ATOM     42  C   UNL A   1      37.716  31.719  32.836  1.00  0.00     0.029 A 
ATOM     43  C   UNL A   1      38.964  30.994  33.050  1.00  0.00     0.049 A 
ATOM     44  H   UNL A   1      40.022  29.857  31.664  1.00  0.00     0.167 HD
ATOM     45  C   UNL A   1      42.033  27.258  28.813  1.00  0.00     0.031 A 
ATOM     46  C   UNL A   1      39.636  30.945  34.215  1.00  0.00     0.031 A 
ATOM     47  C   UNL A   1      42.807  27.129  30.021  1.00  0.00     0.049 A 
ATOM     48  C   UNL A   1      40.871  30.100  34.325  1.00  0.00     0.074 A 
ATOM     49  C   UNL A   1      43.968  26.403  30.230  1.00  0.00     0.029 A 
ATOM     50  N   UNL A   1      42.508  27.758  31.219  1.00  0.00    -0.354 N 
ATOM     51  N   UNL A   1      41.451  29.361  33.413  1.00  0.00    -0.248 NA
ATOM     52  C   UNL A   1      41.536  30.077  35.636  1.00  0.00     0.031 C 
ATOM     53  C   UNL A   1      44.354  26.567  31.565  1.00  0.00     0.029 A 
ATOM     54  C   UNL A   1      43.459  27.433  32.172  1.00  0.00     0.049 A 
ATOM     55  H   UNL A   1      41.735  28.348  31.370  1.00  0.00     0.167 HD
ATOM     56  C   UNL A   1      42.555  28.793  34.033  1.00  0.00     0.074 A 
ATOM     57  C   UNL A   1      42.577  29.292  35.393  1.00  0.00     0.031 C 
ATOM     58  C   UNL A   1      43.467  27.930  33.523  1.00  0.00     0.031 A 
BRANCH  45  59
ATOM     59  C   UNL A   1      42.467  26.473  27.607  1.00  0.00    -0.014 A 
ATOM     60  C   UNL A   1      43.364  27.001  26.665  1.00  0.00     0.009 A 
ATOM     61  C   UNL A   1      41.986  25.166  27.426  1.00  0.00     0.009 A 
ATOM     62  C   UNL A   1      43.738  26.248  25.548  1.00  0.00     0.001 A 
ATOM     63  C   UNL A   1      42.383  24.407  26.324  1.00  0.00     0.001 A 
ATOM     64  C   UNL A   1      43.251  24.952  25.380  1.00  0.00     0.000 A 
ENDBRANCH  45  59
BRANCH  46  65
ATOM     65  C   UNL A   1      39.124  31.696  35.388  1.00  0.00    -0.014 A 
ATOM     66  C   UNL A   1      38.256  31.083  36.303  1.00  0.00     0.009 A 
ATOM     67  C   UNL A   1      39.513  33.027  35.606  1.00  0.00     0.009 A 
ATOM     68  C   UNL A   1      37.779  31.791  37.407  1.00  0.00     0.001 A 
ATOM     69  C   UNL A   1      39.058  33.724  36.726  1.00  0.00     0.001 A 
ATOM     70  C   UNL A   1      38.186  33.108  37.622  1.00  0.00     0.000 A 
ENDBRANCH  46  65
BRANCH  58  71
ATOM     71  C   UNL A   1      44.582  27.504  34.434  1.00  0.00    -0.014 A 
ATOM     72  C   UNL A   1      45.776  28.238  34.518  1.00  0.00     0.009 A 
ATOM     73  C   UNL A   1      44.433  26.352  35.222  1.00  0.00     0.009 A 
ATOM     74  C   UNL A   1      46.814  27.802  35.345  1.00  0.00     0.001 A 
ATOM     75  C   UNL A   1      45.463  25.933  36.066  1.00  0.00     0.001 A 
ATOM     76  C   UNL A   1      46.656  26.653  36.119  1.00  0.00     0.000 A 
ENDBRANCH  58  71
ENDBRANCH  32  33
ENDBRANCH  25  27
ENDBRANCH  24  25
ENDBRANCH  23  24
ENDBRANCH   1  23
TORSDOF 14
ENDMDL
MODEL 2
REMARK VINA RESULT:     -11.4      3.735      8.656
REMARK SMILES CC[C@H]1CC[C@](C[C@@H]2CCCc3ccccc32)(C(=O)OCCOC(=O)c2ccc(-c3c4nc(c(-c5ccccc5)c5ccc([nH]5)c(-c5ccccc5)c5nc(c(-c6ccccc6)c6ccc3[nH]6)C=C5)C=C4)cc2)C1
REMARK SMILES IDX 21 1 20 2 18 3 19 4 6 5 3 6 4 7 74 8 5 9 2 10 1 11 7 12 8 13
REMARK SMILES IDX 9 14 17 15 10 16 12 17 16 18 11 19 13 20 15 21 14 22 22 23
REMARK SMILES IDX 23 24 24 25 25 26 26 27 27 28 73 29 28 30 72 31 29 32 30 33
REMARK SMILES IDX 31 34 66 35 32 36 71 37 65 38 67 39 33 40 70 41 64 42 63 43
REMARK SMILES IDX 34 45 56 46 41 47 55 48 42 49 45 50 54 51 68 52 43 53 44 54
REMARK SMILES IDX 53 56 69 57 46 58 35 59 36 60 40 61 37 62 39 63 38 64 57 65
REMARK SMILES IDX 58 66 62 67 59 68 61 69 60 70 47 71 48 72 52 73 49 74 51 75
REMARK SMILES IDX 50 76
REMARK H PARENT 67 44 45 55
REMARK Flexibility Score: inf
ROOT
ATOM      1  C   UNL A   1      35.045  21.630  25.025  1.00  0.00     0.274 C 
ENDROOT
BRANCH   1   2
ATOM      2  O   UNL A   1      35.035  22.904  25.710  1.00  0.00    -0.462 OA
BRANCH   2   3
ATOM      3  C   UNL A   1      33.814  23.235  26.215  1.00  0.00     0.312 C 
ATOM      4  O   UNL A   1      33.348  22.692  27.213  1.00  0.00    -0.252 OA
BRANCH   3   5
ATOM      5  C   UNL A   1      33.070  24.373  25.442  1.00  0.00     0.069 C 
ATOM      6  C   UNL A   1      33.452  24.505  22.982  1.00  0.00    -0.010 C 
ATOM      7  C   UNL A   1      33.955  25.793  23.620  1.00  0.00     0.005 C 
ATOM      8  C   UNL A   1      32.565  23.840  24.064  1.00  0.00     0.022 C 
ATOM      9  C   UNL A   1      34.090  25.473  25.099  1.00  0.00     0.019 C 
BRANCH   6  10
ATOM     10  C   UNL A   1      32.917  24.730  21.548  1.00  0.00     0.000 C 
ATOM     11  C   UNL A   1      32.120  25.985  21.229  1.00  0.00     0.004 C 
ENDBRANCH   6  10
BRANCH   5  12
ATOM     12  C   UNL A   1      31.971  24.815  26.492  1.00  0.00     0.027 C 
BRANCH  12  13
ATOM     13  C   UNL A   1      30.903  25.941  26.457  1.00  0.00     0.020 C 
ATOM     14  C   UNL A   1      29.651  25.674  25.629  1.00  0.00     0.009 C 
ATOM     15  C   UNL A   1      31.406  27.358  26.264  1.00  0.00    -0.042 A 
ATOM     16  C   UNL A   1      29.850  26.063  24.184  1.00  0.00     0.005 C 
ATOM     17  C   UNL A   1      31.199  28.044  25.057  1.00  0.00    -0.045 A 
ATOM     18  C   UNL A   1      31.991  28.048  27.341  1.00  0.00     0.004 A 
ATOM     19  C   UNL A   1      30.349  27.481  23.951  1.00  0.00     0.036 C 
ATOM     20  C   UNL A   1      31.685  29.353  24.907  1.00  0.00     0.004 A 
ATOM     21  C   UNL A   1      32.400  29.376  27.203  1.00  0.00     0.000 A 
ATOM     22  C   UNL A   1      32.278  30.018  25.976  1.00  0.00     0.000 A 
ENDBRANCH  12  13
ENDBRANCH   5  12
ENDBRANCH   3   5
ENDBRANCH   2   3
ENDBRANCH   1   2
BRANCH   1  23
ATOM     23  C   UNL A   1      36.304  20.812  25.314  1.00  0.00     0.275 C 
BRANCH  23  24
ATOM     24  O   UNL A   1      37.490  21.492  24.869  1.00  0.00    -0.458 OA
BRANCH  24  25
ATOM     25  C   UNL A   1      38.598  21.245  25.599  1.00  0.00     0.338 C 
ATOM     26  O   UNL A   1      39.223  20.191  25.653  1.00  0.00    -0.246 OA
BRANCH  25  27
ATOM     27  C   UNL A   1      39.032  22.429  26.359  1.00  0.00     0.060 A 
ATOM     28  C   UNL A   1      38.489  23.685  26.096  1.00  0.00     0.016 A 
ATOM     29  C   UNL A   1      40.158  22.318  27.178  1.00  0.00     0.016 A 
ATOM     30  C   UNL A   1      39.171  24.834  26.500  1.00  0.00     0.010 A 
ATOM     31  C   UNL A   1      40.766  23.468  27.685  1.00  0.00     0.010 A 
ATOM     32  C   UNL A   1      40.326  24.743  27.291  1.00  0.00    -0.014 A 
BRANCH  32  33
ATOM     33  C   UNL A   1      41.121  25.954  27.646  1.00  0.00     0.031 A 
ATOM     34  C   UNL A   1      40.550  26.987  28.589  1.00  0.00     0.074 A 
ATOM     35  C   UNL A   1      42.351  26.149  27.133  1.00  0.00     0.049 A 
ATOM     36  N   UNL A   1      40.984  28.194  28.862  1.00  0.00    -0.248 NA
ATOM     37  C   UNL A   1      39.315  26.622  29.303  1.00  0.00     0.031 C 
ATOM     38  C   UNL A   1      43.062  25.228  26.246  1.00  0.00     0.029 A 
ATOM     39  N   UNL A   1      43.222  27.200  27.288  1.00  0.00    -0.354 N 
ATOM     40  C   UNL A   1      40.043  28.753  29.719  1.00  0.00     0.074 A 
ATOM     41  C   UNL A   1      39.013  27.755  29.922  1.00  0.00     0.031 C 
ATOM     42  C   UNL A   1      44.270  25.736  25.961  1.00  0.00     0.029 A 
ATOM     43  C   UNL A   1      44.387  27.055  26.575  1.00  0.00     0.049 A 
ATOM     44  H   UNL A   1      43.030  27.982  27.855  1.00  0.00     0.167 HD
ATOM     45  C   UNL A   1      40.030  29.985  30.284  1.00  0.00     0.031 A 
ATOM     46  C   UNL A   1      45.419  27.899  26.395  1.00  0.00     0.031 A 
ATOM     47  C   UNL A   1      41.077  30.963  30.133  1.00  0.00     0.049 A 
ATOM     48  C   UNL A   1      45.383  29.261  27.024  1.00  0.00     0.074 A 
ATOM     49  C   UNL A   1      41.162  32.231  30.683  1.00  0.00     0.029 A 
ATOM     50  N   UNL A   1      42.233  30.772  29.393  1.00  0.00    -0.354 N 
ATOM     51  N   UNL A   1      44.459  29.798  27.780  1.00  0.00    -0.248 NA
ATOM     52  C   UNL A   1      46.535  30.136  26.762  1.00  0.00     0.031 C 
ATOM     53  C   UNL A   1      42.355  32.819  30.249  1.00  0.00     0.029 A 
ATOM     54  C   UNL A   1      43.034  31.899  29.468  1.00  0.00     0.049 A 
ATOM     55  H   UNL A   1      42.452  29.955  28.889  1.00  0.00     0.167 HD
ATOM     56  C   UNL A   1      44.919  31.070  28.095  1.00  0.00     0.074 A 
ATOM     57  C   UNL A   1      46.217  31.214  27.466  1.00  0.00     0.031 C 
ATOM     58  C   UNL A   1      44.319  32.033  28.834  1.00  0.00     0.031 A 
BRANCH  45  59
ATOM     59  C   UNL A   1      38.817  30.366  31.087  1.00  0.00    -0.014 A 
ATOM     60  C   UNL A   1      38.785  30.237  32.484  1.00  0.00     0.009 A 
ATOM     61  C   UNL A   1      37.692  30.890  30.428  1.00  0.00     0.009 A 
ATOM     62  C   UNL A   1      37.637  30.590  33.199  1.00  0.00     0.001 A 
ATOM     63  C   UNL A   1      36.557  31.267  31.148  1.00  0.00     0.001 A 
ATOM     64  C   UNL A   1      36.527  31.107  32.533  1.00  0.00     0.000 A 
ENDBRANCH  45  59
BRANCH  46  65
ATOM     65  C   UNL A   1      46.562  27.487  25.543  1.00  0.00    -0.014 A 
ATOM     66  C   UNL A   1      47.573  26.664  26.057  1.00  0.00     0.009 A 
ATOM     67  C   UNL A   1      46.637  27.903  24.204  1.00  0.00     0.009 A 
ATOM     68  C   UNL A   1      48.645  26.275  25.252  1.00  0.00     0.001 A 
ATOM     69  C   UNL A   1      47.694  27.490  23.393  1.00  0.00     0.001 A 
ATOM     70  C   UNL A   1      48.701  26.682  23.919  1.00  0.00     0.000 A 
ENDBRANCH  46  65
BRANCH  58  71
ATOM     71  C   UNL A   1      45.080  33.313  29.028  1.00  0.00    -0.014 A 
ATOM     72  C   UNL A   1      45.974  33.474  30.098  1.00  0.00     0.009 A 
ATOM     73  C   UNL A   1      44.901  34.371  28.124  1.00  0.00     0.009 A 
ATOM     74  C   UNL A   1      46.644  34.685  30.281  1.00  0.00     0.001 A 
ATOM     75  C   UNL A   1      45.591  35.573  28.295  1.00  0.00     0.001 A 
ATOM     76  C   UNL A   1      46.454  35.732  29.379  1.00  0.00     0.000 A 
ENDBRANCH  58  71
ENDBRANCH  32  33
ENDBRANCH  25  27
ENDBRANCH  24  25
ENDBRANCH  23  24
ENDBRANCH   1  23
TORSDOF 14
ENDMDL
MODEL 3
REMARK VINA RESULT:     -11.3      3.529      6.586
REMARK SMILES CC[C@H]1CC[C@](C[C@@H]2CCCc3ccccc32)(C(=O)OCCOC(=O)c2ccc(-c3c4nc(c(-c5ccccc5)c5ccc([nH]5)c(-c5ccccc5)c5nc(c(-c6ccccc6)c6ccc3[nH]6)C=C5)C=C4)cc2)C1
REMARK SMILES IDX 21 1 20 2 18 3 19 4 6 5 3 6 4 7 74 8 5 9 2 10 1 11 7 12 8 13
REMARK SMILES IDX 9 14 17 15 10 16 12 17 16 18 11 19 13 20 15 21 14 22 22 23
REMARK SMILES IDX 23 24 24 25 25 26 26 27 27 28 73 29 28 30 72 31 29 32 30 33
REMARK SMILES IDX 31 34 66 35 32 36 71 37 65 38 67 39 33 40 70 41 64 42 63 43
REMARK SMILES IDX 34 45 56 46 41 47 55 48 42 49 45 50 54 51 68 52 43 53 44 54
REMARK SMILES IDX 53 56 69 57 46 58 35 59 36 60 40 61 37 62 39 63 38 64 57 65
REMARK SMILES IDX 58 66 62 67 59 68 61 69 60 70 47 71 48 72 52 73 49 74 51 75
REMARK SMILES IDX 50 76
REMARK H PARENT 67 44 45 55
REMARK Flexibility Score: inf
ROOT
ATOM      1  C   UNL A   1      33.712  29.170  25.902  1.00  0.00     0.274 C 
ENDROOT
BRANCH   1   2
ATOM      2  O   UNL A   1      33.187  27.823  25.847  1.00  0.00    -0.462 OA
BRANCH   2   3
ATOM      3  C   UNL A   1      33.492  27.172  24.690  1.00  0.00     0.312 C 
ATOM      4  O   UNL A   1      34.042  27.734  23.746  1.00  0.00    -0.252 OA
BRANCH   3   5
ATOM      5  C   UNL A   1      33.110  25.655  24.670  1.00  0.00     0.069 C 
ATOM      6  C   UNL A   1      31.294  24.927  26.216  1.00  0.00    -0.010 C 
ATOM      7  C   UNL A   1      32.578  24.204  26.602  1.00  0.00     0.005 C 
ATOM      8  C   UNL A   1      31.562  25.493  24.799  1.00  0.00     0.022 C 
ATOM      9  C   UNL A   1      33.690  24.992  25.933  1.00  0.00     0.019 C 
BRANCH   6  10
ATOM     10  C   UNL A   1      30.033  24.079  26.504  1.00  0.00     0.000 C 
ATOM     11  C   UNL A   1      30.164  22.578  26.703  1.00  0.00     0.004 C 
ENDBRANCH   6  10
BRANCH   5  12
ATOM     12  C   UNL A   1      33.776  25.170  23.320  1.00  0.00     0.027 C 
BRANCH  12  13
ATOM     13  C   UNL A   1      34.031  23.750  22.746  1.00  0.00     0.020 C 
ATOM     14  C   UNL A   1      32.828  23.023  22.155  1.00  0.00     0.009 C 
ATOM     15  C   UNL A   1      34.891  22.818  23.576  1.00  0.00    -0.042 A 
ATOM     16  C   UNL A   1      32.065  22.264  23.213  1.00  0.00     0.005 C 
ATOM     17  C   UNL A   1      34.332  21.717  24.246  1.00  0.00    -0.045 A 
ATOM     18  C   UNL A   1      36.288  22.981  23.594  1.00  0.00     0.004 A 
ATOM     19  C   UNL A   1      32.895  21.315  24.063  1.00  0.00     0.036 C 
ATOM     20  C   UNL A   1      35.154  20.878  25.014  1.00  0.00     0.004 A 
ATOM     21  C   UNL A   1      37.104  22.093  24.298  1.00  0.00     0.000 A 
ATOM     22  C   UNL A   1      36.535  21.062  25.036  1.00  0.00     0.000 A 
ENDBRANCH  12  13
ENDBRANCH   5  12
ENDBRANCH   3   5
ENDBRANCH   2   3
ENDBRANCH   1   2
BRANCH   1  23
ATOM     23  C   UNL A   1      33.483  29.841  27.257  1.00  0.00     0.275 C 
BRANCH  23  24
ATOM     24  O   UNL A   1      34.227  31.066  27.372  1.00  0.00    -0.458 OA
BRANCH  24  25
ATOM     25  C   UNL A   1      34.974  31.177  28.490  1.00  0.00     0.338 C 
ATOM     26  O   UNL A   1      34.782  31.943  29.429  1.00  0.00    -0.246 OA
BRANCH  25  27
ATOM     27  C   UNL A   1      36.099  30.228  28.498  1.00  0.00     0.060 A 
ATOM     28  C   UNL A   1      36.493  29.597  29.676  1.00  0.00     0.016 A 
ATOM     29  C   UNL A   1      36.910  30.148  27.363  1.00  0.00     0.016 A 
ATOM     30  C   UNL A   1      37.772  29.045  29.773  1.00  0.00     0.010 A 
ATOM     31  C   UNL A   1      38.137  29.484  27.430  1.00  0.00     0.010 A 
ATOM     32  C   UNL A   1      38.617  28.990  28.655  1.00  0.00    -0.014 A 
BRANCH  32  33
ATOM     33  C   UNL A   1      40.020  28.496  28.766  1.00  0.00     0.031 A 
ATOM     34  C   UNL A   1      41.124  29.433  29.198  1.00  0.00     0.074 A 
ATOM     35  C   UNL A   1      40.325  27.215  28.480  1.00  0.00     0.049 A 
ATOM     36  N   UNL A   1      42.423  29.260  29.160  1.00  0.00    -0.248 NA
ATOM     37  C   UNL A   1      40.712  30.745  29.722  1.00  0.00     0.031 C 
ATOM     38  C   UNL A   1      39.372  26.175  28.094  1.00  0.00     0.029 A 
ATOM     39  N   UNL A   1      41.540  26.573  28.471  1.00  0.00    -0.354 N 
ATOM     40  C   UNL A   1      42.979  30.461  29.585  1.00  0.00     0.074 A 
ATOM     41  C   UNL A   1      41.879  31.355  29.877  1.00  0.00     0.031 C 
ATOM     42  C   UNL A   1      40.030  25.019  27.917  1.00  0.00     0.029 A 
ATOM     43  C   UNL A   1      41.459  25.254  28.095  1.00  0.00     0.049 A 
ATOM     44  H   UNL A   1      42.387  27.014  28.712  1.00  0.00     0.167 HD
ATOM     45  C   UNL A   1      44.287  30.795  29.718  1.00  0.00     0.031 A 
ATOM     46  C   UNL A   1      42.423  24.342  27.874  1.00  0.00     0.031 A 
ATOM     47  C   UNL A   1      45.386  29.894  29.486  1.00  0.00     0.049 A 
ATOM     48  C   UNL A   1      43.864  24.733  28.021  1.00  0.00     0.074 A 
ATOM     49  C   UNL A   1      46.744  30.136  29.613  1.00  0.00     0.029 A 
ATOM     50  N   UNL A   1      45.253  28.571  29.096  1.00  0.00    -0.354 N 
ATOM     51  N   UNL A   1      44.376  25.888  28.363  1.00  0.00    -0.248 NA
ATOM     52  C   UNL A   1      44.860  23.689  27.738  1.00  0.00     0.031 C 
ATOM     53  C   UNL A   1      47.433  28.968  29.270  1.00  0.00     0.029 A 
ATOM     54  C   UNL A   1      46.502  27.986  28.975  1.00  0.00     0.049 A 
ATOM     55  H   UNL A   1      44.396  28.115  28.931  1.00  0.00     0.167 HD
ATOM     56  C   UNL A   1      45.753  25.711  28.349  1.00  0.00     0.074 A 
ATOM     57  C   UNL A   1      45.995  24.329  27.987  1.00  0.00     0.031 C 
ATOM     58  C   UNL A   1      46.730  26.613  28.608  1.00  0.00     0.031 A 
BRANCH  45  59
ATOM     59  C   UNL A   1      44.603  32.216  30.095  1.00  0.00    -0.014 A 
ATOM     60  C   UNL A   1      44.764  33.219  29.127  1.00  0.00     0.009 A 
ATOM     61  C   UNL A   1      44.718  32.559  31.453  1.00  0.00     0.009 A 
ATOM     62  C   UNL A   1      45.069  34.528  29.511  1.00  0.00     0.001 A 
ATOM     63  C   UNL A   1      44.996  33.873  31.834  1.00  0.00     0.001 A 
ATOM     64  C   UNL A   1      45.182  34.854  30.862  1.00  0.00     0.000 A 
ENDBRANCH  45  59
BRANCH  46  65
ATOM     65  C   UNL A   1      42.049  22.971  27.447  1.00  0.00    -0.014 A 
ATOM     66  C   UNL A   1      42.041  22.625  26.088  1.00  0.00     0.009 A 
ATOM     67  C   UNL A   1      41.712  21.996  28.400  1.00  0.00     0.009 A 
ATOM     68  C   UNL A   1      41.692  21.333  25.690  1.00  0.00     0.001 A 
ATOM     69  C   UNL A   1      41.392  20.698  28.001  1.00  0.00     0.001 A 
ATOM     70  C   UNL A   1      41.375  20.369  26.647  1.00  0.00     0.000 A 
ENDBRANCH  46  65
BRANCH  58  71
ATOM     71  C   UNL A   1      48.147  26.118  28.541  1.00  0.00    -0.014 A 
ATOM     72  C   UNL A   1      48.800  25.624  29.681  1.00  0.00     0.009 A 
ATOM     73  C   UNL A   1      48.834  26.144  27.318  1.00  0.00     0.009 A 
ATOM     74  C   UNL A   1      50.129  25.203  29.603  1.00  0.00     0.001 A 
ATOM     75  C   UNL A   1      50.155  25.699  27.239  1.00  0.00     0.001 A 
ATOM     76  C   UNL A   1      50.804  25.239  28.384  1.00  0.00     0.000 A 
ENDBRANCH  58  71
ENDBRANCH  32  33
ENDBRANCH  25  27
ENDBRANCH  24  25
ENDBRANCH  23  24
ENDBRANCH   1  23
TORSDOF 14
ENDMDL
