MODEL 1
REMARK VINA RESULT:     -10.5      0.000      0.000
REMARK SMILES CC1(C)CCSC[C@]1(Nc1ccccc1Br)C(=O)OCCOC(=O)c1ccc(-c2c3nc(c(-c4ccccc4)c4ccc([nH]4)c(-c4ccccc4)c4nc(c(-c5ccccc5)c5ccc2[nH]5)C=C4)C=C3)cc1
REMARK SMILES IDX 20 1 19 2 17 3 18 4 8 5 1 6 2 7 3 8 4 9 5 10 7 11 6 12 9 13
REMARK SMILES IDX 10 15 11 16 15 17 12 18 14 19 16 20 13 21 21 22 22 23 23 24
REMARK SMILES IDX 24 25 25 26 26 27 72 28 27 29 71 30 28 31 29 32 30 33 65 34
REMARK SMILES IDX 31 35 70 36 64 37 66 38 32 39 69 40 63 41 62 42 33 44 55 45
REMARK SMILES IDX 40 46 54 47 41 48 44 49 53 50 67 51 42 52 43 53 52 55 68 56
REMARK SMILES IDX 45 57 34 58 35 59 39 60 36 61 38 62 37 63 56 64 57 65 61 66
REMARK SMILES IDX 58 67 60 68 59 69 46 70 47 71 51 72 48 73 50 74 49 75
REMARK H PARENT 9 14 66 43 44 54
REMARK Flexibility Score: inf
ROOT
ATOM      1  C   UNL A   1      32.775  27.435  26.540  1.00  0.00     0.274 C 
ENDROOT
BRANCH   1   2
ATOM      2  O   UNL A   1      33.329  26.201  26.036  1.00  0.00    -0.460 OA
BRANCH   2   3
ATOM      3  C   UNL A   1      32.496  25.127  26.035  1.00  0.00     0.333 C 
ATOM      4  O   UNL A   1      31.623  24.973  26.885  1.00  0.00    -0.249 OA
BRANCH   3   5
ATOM      5  C   UNL A   1      32.853  24.043  24.943  1.00  0.00     0.150 C 
ATOM      6  C   UNL A   1      33.035  21.551  24.213  1.00  0.00     0.014 C 
ATOM      7  C   UNL A   1      32.622  22.523  25.360  1.00  0.00     0.000 C 
ATOM      8  C   UNL A   1      31.148  22.164  25.661  1.00  0.00     0.014 C 
ATOM      9  C   UNL A   1      33.450  22.181  26.627  1.00  0.00     0.020 C 
ATOM     10  C   UNL A   1      34.954  22.129  26.423  1.00  0.00     0.070 C 
ATOM     11  C   UNL A   1      34.366  24.250  24.597  1.00  0.00     0.110 C 
ATOM     12  S   UNL A   1      35.671  23.627  25.724  1.00  0.00    -0.159 SA
BRANCH   5  13
ATOM     13  N   UNL A   1      32.073  24.334  23.687  1.00  0.00    -0.368 N 
ATOM     14  H   UNL A   1      32.157  23.712  22.929  1.00  0.00     0.161 HD
BRANCH  13  15
ATOM     15  C   UNL A   1      31.238  25.437  23.546  1.00  0.00     0.049 A 
ATOM     16  C   UNL A   1      29.891  25.297  23.904  1.00  0.00     0.027 A 
ATOM     17  C   UNL A   1      31.633  26.676  23.005  1.00  0.00     0.041 A 
ATOM     18  C   UNL A   1      29.004  26.377  23.863  1.00  0.00     0.002 A 
ATOM     19  C   UNL A   1      30.756  27.771  22.995  1.00  0.00     0.018 A 
ATOM     20  Br  UNL A   1      33.333  26.949  22.198  1.00  0.00    -0.049 Br
ATOM     21  C   UNL A   1      29.447  27.624  23.440  1.00  0.00     0.001 A 
ENDBRANCH  13  15
ENDBRANCH   5  13
ENDBRANCH   3   5
ENDBRANCH   2   3
ENDBRANCH   1   2
BRANCH   1  22
ATOM     22  C   UNL A   1      33.818  28.551  26.547  1.00  0.00     0.275 C 
BRANCH  22  23
ATOM     23  O   UNL A   1      34.058  28.981  27.896  1.00  0.00    -0.458 OA
BRANCH  23  24
ATOM     24  C   UNL A   1      34.712  30.156  28.045  1.00  0.00     0.338 C 
ATOM     25  O   UNL A   1      34.224  31.273  28.022  1.00  0.00    -0.246 OA
BRANCH  24  26
ATOM     26  C   UNL A   1      36.154  29.911  28.271  1.00  0.00     0.060 A 
ATOM     27  C   UNL A   1      37.079  30.128  27.254  1.00  0.00     0.016 A 
ATOM     28  C   UNL A   1      36.578  29.334  29.467  1.00  0.00     0.016 A 
ATOM     29  C   UNL A   1      38.386  29.663  27.373  1.00  0.00     0.010 A 
ATOM     30  C   UNL A   1      37.921  28.968  29.629  1.00  0.00     0.010 A 
ATOM     31  C   UNL A   1      38.833  29.085  28.565  1.00  0.00    -0.014 A 
BRANCH  31  32
ATOM     32  C   UNL A   1      40.219  28.551  28.673  1.00  0.00     0.031 A 
ATOM     33  C   UNL A   1      41.338  29.450  29.131  1.00  0.00     0.074 A 
ATOM     34  C   UNL A   1      40.493  27.260  28.394  1.00  0.00     0.049 A 
ATOM     35  N   UNL A   1      42.632  29.276  29.034  1.00  0.00    -0.248 NA
ATOM     36  C   UNL A   1      40.949  30.721  29.764  1.00  0.00     0.031 C 
ATOM     37  C   UNL A   1      39.513  26.235  28.029  1.00  0.00     0.029 A 
ATOM     38  N   UNL A   1      41.690  26.585  28.387  1.00  0.00    -0.354 N 
ATOM     39  C   UNL A   1      43.207  30.447  29.512  1.00  0.00     0.074 A 
ATOM     40  C   UNL A   1      42.124  31.316  29.920  1.00  0.00     0.031 C 
ATOM     41  C   UNL A   1      40.137  25.057  27.888  1.00  0.00     0.029 A 
ATOM     42  C   UNL A   1      41.572  25.263  28.038  1.00  0.00     0.049 A 
ATOM     43  H   UNL A   1      42.550  27.010  28.611  1.00  0.00     0.167 HD
ATOM     44  C   UNL A   1      44.520  30.772  29.586  1.00  0.00     0.031 A 
ATOM     45  C   UNL A   1      42.510  24.327  27.804  1.00  0.00     0.031 A 
ATOM     46  C   UNL A   1      45.595  29.878  29.246  1.00  0.00     0.049 A 
ATOM     47  C   UNL A   1      43.959  24.711  27.867  1.00  0.00     0.074 A 
ATOM     48  C   UNL A   1      46.959  30.116  29.269  1.00  0.00     0.029 A 
ATOM     49  N   UNL A   1      45.425  28.560  28.853  1.00  0.00    -0.354 N 
ATOM     50  N   UNL A   1      44.492  25.866  28.183  1.00  0.00    -0.248 NA
ATOM     51  C   UNL A   1      44.932  23.673  27.505  1.00  0.00     0.031 C 
ATOM     52  C   UNL A   1      47.613  28.945  28.867  1.00  0.00     0.029 A 
ATOM     53  C   UNL A   1      46.658  27.971  28.631  1.00  0.00     0.049 A 
ATOM     54  H   UNL A   1      44.556  28.110  28.749  1.00  0.00     0.167 HD
ATOM     55  C   UNL A   1      45.862  25.695  28.053  1.00  0.00     0.074 A 
ATOM     56  C   UNL A   1      46.080  24.319  27.656  1.00  0.00     0.031 C 
ATOM     57  C   UNL A   1      46.852  26.603  28.231  1.00  0.00     0.031 A 
BRANCH  44  58
ATOM     58  C   UNL A   1      44.865  32.175  29.995  1.00  0.00    -0.014 A 
ATOM     59  C   UNL A   1      44.885  33.232  29.074  1.00  0.00     0.009 A 
ATOM     60  C   UNL A   1      45.144  32.443  31.345  1.00  0.00     0.009 A 
ATOM     61  C   UNL A   1      45.206  34.527  29.493  1.00  0.00     0.001 A 
ATOM     62  C   UNL A   1      45.440  33.741  31.765  1.00  0.00     0.001 A 
ATOM     63  C   UNL A   1      45.478  34.780  30.837  1.00  0.00     0.000 A 
ENDBRANCH  44  58
BRANCH  45  64
ATOM     64  C   UNL A   1      42.100  22.955  27.406  1.00  0.00    -0.014 A 
ATOM     65  C   UNL A   1      42.117  22.570  26.058  1.00  0.00     0.009 A 
ATOM     66  C   UNL A   1      41.712  22.019  28.378  1.00  0.00     0.009 A 
ATOM     67  C   UNL A   1      41.747  21.273  25.691  1.00  0.00     0.001 A 
ATOM     68  C   UNL A   1      41.371  20.716  28.011  1.00  0.00     0.001 A 
ATOM     69  C   UNL A   1      41.384  20.346  26.668  1.00  0.00     0.000 A 
ENDBRANCH  45  64
BRANCH  57  70
ATOM     70  C   UNL A   1      48.256  26.123  28.013  1.00  0.00    -0.014 A 
ATOM     71  C   UNL A   1      49.020  25.628  29.079  1.00  0.00     0.009 A 
ATOM     72  C   UNL A   1      48.809  26.150  26.724  1.00  0.00     0.009 A 
ATOM     73  C   UNL A   1      50.329  25.194  28.862  1.00  0.00     0.001 A 
ATOM     74  C   UNL A   1      50.111  25.697  26.508  1.00  0.00     0.001 A 
ATOM     75  C   UNL A   1      50.872  25.227  27.578  1.00  0.00     0.000 A 
ENDBRANCH  57  70
ENDBRANCH  31  32
ENDBRANCH  24  26
ENDBRANCH  23  24
ENDBRANCH  22  23
ENDBRANCH   1  22
TORSDOF 13
ENDMDL
MODEL 2
REMARK VINA RESULT:     -10.3      2.403      6.367
REMARK SMILES CC1(C)CCSC[C@]1(Nc1ccccc1Br)C(=O)OCCOC(=O)c1ccc(-c2c3nc(c(-c4ccccc4)c4ccc([nH]4)c(-c4ccccc4)c4nc(c(-c5ccccc5)c5ccc2[nH]5)C=C4)C=C3)cc1
REMARK SMILES IDX 20 1 19 2 17 3 18 4 8 5 1 6 2 7 3 8 4 9 5 10 7 11 6 12 9 13
REMARK SMILES IDX 10 15 11 16 15 17 12 18 14 19 16 20 13 21 21 22 22 23 23 24
REMARK SMILES IDX 24 25 25 26 26 27 72 28 27 29 71 30 28 31 29 32 30 33 65 34
REMARK SMILES IDX 31 35 70 36 64 37 66 38 32 39 69 40 63 41 62 42 33 44 55 45
REMARK SMILES IDX 40 46 54 47 41 48 44 49 53 50 67 51 42 52 43 53 52 55 68 56
REMARK SMILES IDX 45 57 34 58 35 59 39 60 36 61 38 62 37 63 56 64 57 65 61 66
REMARK SMILES IDX 58 67 60 68 59 69 46 70 47 71 51 72 48 73 50 74 49 75
REMARK H PARENT 9 14 66 43 44 54
REMARK Flexibility Score: inf
ROOT
ATOM      1  C   UNL A   1      35.395  21.805  26.264  1.00  0.00     0.274 C 
ENDROOT
BRANCH   1   2
ATOM      2  O   UNL A   1      34.890  23.073  25.794  1.00  0.00    -0.460 OA
BRANCH   2   3
ATOM      3  C   UNL A   1      33.712  23.485  26.333  1.00  0.00     0.333 C 
ATOM      4  O   UNL A   1      33.438  23.316  27.518  1.00  0.00    -0.249 OA
BRANCH   3   5
ATOM      5  C   UNL A   1      32.690  24.055  25.273  1.00  0.00     0.150 C 
ATOM      6  C   UNL A   1      30.655  23.707  23.688  1.00  0.00     0.014 C 
ATOM      7  C   UNL A   1      31.583  23.038  24.746  1.00  0.00     0.000 C 
ATOM      8  C   UNL A   1      30.618  22.525  25.841  1.00  0.00     0.014 C 
ATOM      9  C   UNL A   1      32.257  21.795  24.105  1.00  0.00     0.020 C 
ATOM     10  C   UNL A   1      32.967  22.052  22.788  1.00  0.00     0.070 C 
ATOM     11  C   UNL A   1      33.546  24.548  24.058  1.00  0.00     0.110 C 
ATOM     12  S   UNL A   1      34.219  23.347  22.847  1.00  0.00    -0.159 SA
BRANCH   5  13
ATOM     13  N   UNL A   1      32.009  25.269  25.850  1.00  0.00    -0.368 N 
ATOM     14  H   UNL A   1      31.266  25.133  26.481  1.00  0.00     0.161 HD
BRANCH  13  15
ATOM     15  C   UNL A   1      32.377  26.572  25.536  1.00  0.00     0.049 A 
ATOM     16  C   UNL A   1      33.530  27.096  26.136  1.00  0.00     0.027 A 
ATOM     17  C   UNL A   1      31.639  27.435  24.703  1.00  0.00     0.041 A 
ATOM     18  C   UNL A   1      34.010  28.369  25.816  1.00  0.00     0.002 A 
ATOM     19  C   UNL A   1      32.134  28.699  24.353  1.00  0.00     0.018 A 
ATOM     20  Br  UNL A   1      29.909  26.996  24.046  1.00  0.00    -0.049 Br
ATOM     21  C   UNL A   1      33.329  29.159  24.898  1.00  0.00     0.001 A 
ENDBRANCH  13  15
ENDBRANCH   5  13
ENDBRANCH   3   5
ENDBRANCH   2   3
ENDBRANCH   1   2
BRANCH   1  22
ATOM     22  C   UNL A   1      36.026  21.002  25.128  1.00  0.00     0.275 C 
BRANCH  22  23
ATOM     23  O   UNL A   1      37.284  21.590  24.760  1.00  0.00    -0.458 OA
BRANCH  23  24
ATOM     24  C   UNL A   1      38.365  21.184  25.465  1.00  0.00     0.338 C 
ATOM     25  O   UNL A   1      38.792  20.047  25.559  1.00  0.00    -0.246 OA
BRANCH  24  26
ATOM     26  C   UNL A   1      39.010  22.345  26.119  1.00  0.00     0.060 A 
ATOM     27  C   UNL A   1      38.471  23.621  25.993  1.00  0.00     0.016 A 
ATOM     28  C   UNL A   1      40.239  22.183  26.759  1.00  0.00     0.016 A 
ATOM     29  C   UNL A   1      39.199  24.741  26.384  1.00  0.00     0.010 A 
ATOM     30  C   UNL A   1      40.921  23.304  27.253  1.00  0.00     0.010 A 
ATOM     31  C   UNL A   1      40.431  24.603  27.030  1.00  0.00    -0.014 A 
BRANCH  31  32
ATOM     32  C   UNL A   1      41.227  25.804  27.409  1.00  0.00     0.031 A 
ATOM     33  C   UNL A   1      40.671  26.791  28.401  1.00  0.00     0.074 A 
ATOM     34  C   UNL A   1      42.456  26.015  26.897  1.00  0.00     0.049 A 
ATOM     35  N   UNL A   1      41.061  28.015  28.659  1.00  0.00    -0.248 NA
ATOM     36  C   UNL A   1      39.514  26.350  29.197  1.00  0.00     0.031 C 
ATOM     37  C   UNL A   1      43.178  25.112  25.998  1.00  0.00     0.029 A 
ATOM     38  N   UNL A   1      43.327  27.063  27.075  1.00  0.00    -0.354 N 
ATOM     39  C   UNL A   1      40.147  28.517  29.577  1.00  0.00     0.074 A 
ATOM     40  C   UNL A   1      39.197  27.460  29.851  1.00  0.00     0.031 C 
ATOM     41  C   UNL A   1      44.395  25.616  25.749  1.00  0.00     0.029 A 
ATOM     42  C   UNL A   1      44.499  26.928  26.374  1.00  0.00     0.049 A 
ATOM     43  H   UNL A   1      43.129  27.837  27.652  1.00  0.00     0.167 HD
ATOM     44  C   UNL A   1      40.098  29.754  30.126  1.00  0.00     0.031 A 
ATOM     45  C   UNL A   1      45.522  27.784  26.197  1.00  0.00     0.031 A 
ATOM     46  C   UNL A   1      41.085  30.777  29.906  1.00  0.00     0.049 A 
ATOM     47  C   UNL A   1      45.440  29.157  26.793  1.00  0.00     0.074 A 
ATOM     48  C   UNL A   1      41.118  32.069  30.401  1.00  0.00     0.029 A 
ATOM     49  N   UNL A   1      42.233  30.609  29.149  1.00  0.00    -0.354 N 
ATOM     50  N   UNL A   1      44.500  29.673  27.547  1.00  0.00    -0.248 NA
ATOM     51  C   UNL A   1      46.542  30.078  26.484  1.00  0.00     0.031 C 
ATOM     52  C   UNL A   1      42.278  32.691  29.924  1.00  0.00     0.029 A 
ATOM     53  C   UNL A   1      42.982  31.773  29.163  1.00  0.00     0.049 A 
ATOM     54  H   UNL A   1      42.480  29.783  28.672  1.00  0.00     0.167 HD
ATOM     55  C   UNL A   1      44.893  30.979  27.797  1.00  0.00     0.074 A 
ATOM     56  C   UNL A   1      46.170  31.169  27.139  1.00  0.00     0.031 C 
ATOM     57  C   UNL A   1      44.246  31.942  28.497  1.00  0.00     0.031 A 
BRANCH  44  58
ATOM     58  C   UNL A   1      38.904  30.089  30.973  1.00  0.00    -0.014 A 
ATOM     59  C   UNL A   1      38.911  29.920  32.365  1.00  0.00     0.009 A 
ATOM     60  C   UNL A   1      37.758  30.620  30.358  1.00  0.00     0.009 A 
ATOM     61  C   UNL A   1      37.783  30.250  33.122  1.00  0.00     0.001 A 
ATOM     62  C   UNL A   1      36.642  30.970  31.119  1.00  0.00     0.001 A 
ATOM     63  C   UNL A   1      36.652  30.778  32.499  1.00  0.00     0.000 A 
ENDBRANCH  44  58
BRANCH  45  64
ATOM     64  C   UNL A   1      46.677  27.388  25.349  1.00  0.00    -0.014 A 
ATOM     65  C   UNL A   1      47.662  26.523  25.846  1.00  0.00     0.009 A 
ATOM     66  C   UNL A   1      46.784  27.857  24.030  1.00  0.00     0.009 A 
ATOM     67  C   UNL A   1      48.737  26.141  25.038  1.00  0.00     0.001 A 
ATOM     68  C   UNL A   1      47.842  27.450  23.216  1.00  0.00     0.001 A 
ATOM     69  C   UNL A   1      48.820  26.597  23.722  1.00  0.00     0.000 A 
ENDBRANCH  45  64
BRANCH  57  70
ATOM     70  C   UNL A   1      44.923  33.276  28.596  1.00  0.00    -0.014 A 
ATOM     71  C   UNL A   1      44.656  34.289  27.663  1.00  0.00     0.009 A 
ATOM     72  C   UNL A   1      45.823  33.526  29.643  1.00  0.00     0.009 A 
ATOM     73  C   UNL A   1      45.301  35.524  27.763  1.00  0.00     0.001 A 
ATOM     74  C   UNL A   1      46.451  34.767  29.750  1.00  0.00     0.001 A 
ATOM     75  C   UNL A   1      46.195  35.761  28.806  1.00  0.00     0.000 A 
ENDBRANCH  57  70
ENDBRANCH  31  32
ENDBRANCH  24  26
ENDBRANCH  23  24
ENDBRANCH  22  23
ENDBRANCH   1  22
TORSDOF 13
ENDMDL
MODEL 3
REMARK VINA RESULT:     -10.3      3.666      6.675
REMARK SMILES CC1(C)CCSC[C@]1(Nc1ccccc1Br)C(=O)OCCOC(=O)c1ccc(-c2c3nc(c(-c4ccccc4)c4ccc([nH]4)c(-c4ccccc4)c4nc(c(-c5ccccc5)c5ccc2[nH]5)C=C4)C=C3)cc1
REMARK SMILES IDX 20 1 19 2 17 3 18 4 8 5 1 6 2 7 3 8 4 9 5 10 7 11 6 12 9 13
REMARK SMILES IDX 10 15 11 16 15 17 12 18 14 19 16 20 13 21 21 22 22 23 23 24
REMARK SMILES IDX 24 25 25 26 26 27 72 28 27 29 71 30 28 31 29 32 30 33 65 34
REMARK SMILES IDX 31 35 70 36 64 37 66 38 32 39 69 40 63 41 62 42 33 44 55 45
REMARK SMILES IDX 40 46 54 47 41 48 44 49 53 50 67 51 42 52 43 53 52 55 68 56
REMARK SMILES IDX 45 57 34 58 35 59 39 60 36 61 38 62 37 63 56 64 57 65 61 66
REMARK SMILES IDX 58 67 60 68 59 69 46 70 47 71 51 72 48 73 50 74 49 75
REMARK H PARENT 9 14 66 43 44 54
REMARK Flexibility Score: inf
ROOT
ATOM      1  C   UNL A   1      32.266  27.932  26.835  1.00  0.00     0.274 C 
ENDROOT
BRANCH   1   2
ATOM      2  O   UNL A   1      32.645  26.846  25.963  1.00  0.00    -0.460 OA
BRANCH   2   3
ATOM      3  C   UNL A   1      31.927  25.698  26.088  1.00  0.00     0.333 C 
ATOM      4  O   UNL A   1      31.110  25.530  26.990  1.00  0.00    -0.249 OA
BRANCH   3   5
ATOM      5  C   UNL A   1      32.349  24.567  25.070  1.00  0.00     0.150 C 
ATOM      6  C   UNL A   1      32.642  22.046  24.493  1.00  0.00     0.014 C 
ATOM      7  C   UNL A   1      32.168  23.067  25.572  1.00  0.00     0.000 C 
ATOM      8  C   UNL A   1      30.703  22.667  25.867  1.00  0.00     0.014 C 
ATOM      9  C   UNL A   1      32.983  22.833  26.873  1.00  0.00     0.020 C 
ATOM     10  C   UNL A   1      34.491  22.829  26.699  1.00  0.00     0.070 C 
ATOM     11  C   UNL A   1      33.859  24.814  24.739  1.00  0.00     0.110 C 
ATOM     12  S   UNL A   1      35.164  24.311  25.925  1.00  0.00    -0.159 SA
BRANCH   5  13
ATOM     13  N   UNL A   1      31.584  24.753  23.785  1.00  0.00    -0.368 N 
ATOM     14  H   UNL A   1      31.584  24.018  23.130  1.00  0.00     0.161 HD
BRANCH  13  15
ATOM     15  C   UNL A   1      30.876  25.909  23.478  1.00  0.00     0.049 A 
ATOM     16  C   UNL A   1      29.517  25.962  23.817  1.00  0.00     0.027 A 
ATOM     17  C   UNL A   1      31.409  27.016  22.790  1.00  0.00     0.041 A 
ATOM     18  C   UNL A   1      28.754  27.114  23.612  1.00  0.00     0.002 A 
ATOM     19  C   UNL A   1      30.657  28.186  22.613  1.00  0.00     0.018 A 
ATOM     20  Br  UNL A   1      33.138  26.996  21.998  1.00  0.00    -0.049 Br
ATOM     21  C   UNL A   1      29.334  28.240  23.039  1.00  0.00     0.001 A 
ENDBRANCH  13  15
ENDBRANCH   5  13
ENDBRANCH   3   5
ENDBRANCH   2   3
ENDBRANCH   1   2
BRANCH   1  22
ATOM     22  C   UNL A   1      31.899  29.182  26.039  1.00  0.00     0.275 C 
BRANCH  22  23
ATOM     23  O   UNL A   1      33.065  30.002  25.861  1.00  0.00    -0.458 OA
BRANCH  23  24
ATOM     24  C   UNL A   1      33.325  30.897  26.841  1.00  0.00     0.338 C 
ATOM     25  O   UNL A   1      32.572  31.757  27.266  1.00  0.00    -0.246 OA
BRANCH  24  26
ATOM     26  C   UNL A   1      34.688  30.683  27.377  1.00  0.00     0.060 A 
ATOM     27  C   UNL A   1      35.203  29.398  27.515  1.00  0.00     0.016 A 
ATOM     28  C   UNL A   1      35.415  31.766  27.871  1.00  0.00     0.016 A 
ATOM     29  C   UNL A   1      36.367  29.175  28.246  1.00  0.00     0.010 A 
ATOM     30  C   UNL A   1      36.644  31.550  28.510  1.00  0.00     0.010 A 
ATOM     31  C   UNL A   1      37.113  30.245  28.746  1.00  0.00    -0.014 A 
BRANCH  31  32
ATOM     32  C   UNL A   1      38.334  30.001  29.564  1.00  0.00     0.031 A 
ATOM     33  C   UNL A   1      39.502  29.259  28.967  1.00  0.00     0.074 A 
ATOM     34  C   UNL A   1      38.428  30.456  30.829  1.00  0.00     0.049 A 
ATOM     35  N   UNL A   1      40.526  28.707  29.568  1.00  0.00    -0.248 NA
ATOM     36  C   UNL A   1      39.510  29.103  27.503  1.00  0.00     0.031 C 
ATOM     37  C   UNL A   1      37.429  31.269  31.525  1.00  0.00     0.029 A 
ATOM     38  N   UNL A   1      39.430  30.304  31.758  1.00  0.00    -0.354 N 
ATOM     39  C   UNL A   1      41.249  28.067  28.569  1.00  0.00     0.074 A 
ATOM     40  C   UNL A   1      40.562  28.316  27.320  1.00  0.00     0.031 C 
ATOM     41  C   UNL A   1      37.890  31.590  32.743  1.00  0.00     0.029 A 
ATOM     42  C   UNL A   1      39.161  30.911  32.959  1.00  0.00     0.049 A 
ATOM     43  H   UNL A   1      40.262  29.808  31.578  1.00  0.00     0.167 HD
ATOM     44  C   UNL A   1      42.375  27.323  28.689  1.00  0.00     0.031 A 
ATOM     45  C   UNL A   1      39.826  30.882  34.129  1.00  0.00     0.031 A 
ATOM     46  C   UNL A   1      43.094  27.136  29.921  1.00  0.00     0.049 A 
ATOM     47  C   UNL A   1      41.057  30.034  34.249  1.00  0.00     0.074 A 
ATOM     48  C   UNL A   1      44.235  26.388  30.153  1.00  0.00     0.029 A 
ATOM     49  N   UNL A   1      42.757  27.736  31.124  1.00  0.00    -0.354 N 
ATOM     50  N   UNL A   1      41.656  29.315  33.332  1.00  0.00    -0.248 NA
ATOM     51  C   UNL A   1      41.683  29.965  35.577  1.00  0.00     0.031 C 
ATOM     52  C   UNL A   1      44.575  26.516  31.505  1.00  0.00     0.029 A 
ATOM     53  C   UNL A   1      43.667  27.374  32.103  1.00  0.00     0.049 A 
ATOM     54  H   UNL A   1      41.985  28.330  31.263  1.00  0.00     0.167 HD
ATOM     55  C   UNL A   1      42.724  28.704  33.970  1.00  0.00     0.074 A 
ATOM     56  C   UNL A   1      42.709  29.157  35.347  1.00  0.00     0.031 C 
ATOM     57  C   UNL A   1      43.630  27.831  33.466  1.00  0.00     0.031 A 
BRANCH  44  58
ATOM     58  C   UNL A   1      42.865  26.604  27.465  1.00  0.00    -0.014 A 
ATOM     59  C   UNL A   1      43.819  27.169  26.606  1.00  0.00     0.009 A 
ATOM     60  C   UNL A   1      42.380  25.315  27.190  1.00  0.00     0.009 A 
ATOM     61  C   UNL A   1      44.256  26.467  25.479  1.00  0.00     0.001 A 
ATOM     62  C   UNL A   1      42.836  24.607  26.077  1.00  0.00     0.001 A 
ATOM     63  C   UNL A   1      43.767  25.186  25.218  1.00  0.00     0.000 A 
ENDBRANCH  44  58
BRANCH  45  64
ATOM     64  C   UNL A   1      39.288  31.618  35.302  1.00  0.00    -0.014 A 
ATOM     65  C   UNL A   1      39.653  32.951  35.534  1.00  0.00     0.009 A 
ATOM     66  C   UNL A   1      38.389  30.995  36.182  1.00  0.00     0.009 A 
ATOM     67  C   UNL A   1      39.132  33.645  36.629  1.00  0.00     0.001 A 
ATOM     68  C   UNL A   1      37.846  31.699  37.258  1.00  0.00     0.001 A 
ATOM     69  C   UNL A   1      38.222  33.021  37.484  1.00  0.00     0.000 A 
ENDBRANCH  45  64
BRANCH  57  70
ATOM     70  C   UNL A   1      44.682  27.329  34.409  1.00  0.00    -0.014 A 
ATOM     71  C   UNL A   1      45.862  28.057  34.623  1.00  0.00     0.009 A 
ATOM     72  C   UNL A   1      44.481  26.127  35.102  1.00  0.00     0.009 A 
ATOM     73  C   UNL A   1      46.838  27.573  35.496  1.00  0.00     0.001 A 
ATOM     74  C   UNL A   1      45.450  25.656  35.989  1.00  0.00     0.001 A 
ATOM     75  C   UNL A   1      46.629  26.375  36.179  1.00  0.00     0.000 A 
ENDBRANCH  57  70
ENDBRANCH  31  32
ENDBRANCH  24  26
ENDBRANCH  23  24
ENDBRANCH  22  23
ENDBRANCH   1  22
TORSDOF 13
ENDMDL
