MODEL 1
REMARK VINA RESULT:     -11.0      0.000      0.000
REMARK SMILES O=C(Cc1ccn(-c2ccccc2F)c1)OCCOC(=O)c1ccc(-c2c3nc(c(-c4ccccc4)c4ccc([nH]4)c(-c4ccccc4)c4nc(c(-c5ccccc5)c5ccc2[nH]5)C=C4)C=C3)cc1
REMARK SMILES IDX 17 1 16 2 2 3 1 4 3 5 4 6 5 7 15 8 6 9 7 10 8 11 9 12 13 13
REMARK SMILES IDX 10 14 12 15 14 16 11 17 18 18 19 19 20 20 21 21 22 22 23 23
REMARK SMILES IDX 69 24 24 25 68 26 25 27 26 28 27 29 62 30 28 31 67 32 61 33
REMARK SMILES IDX 63 34 29 35 66 36 60 37 59 38 30 40 52 41 37 42 51 43 38 44
REMARK SMILES IDX 41 45 50 46 64 47 39 48 40 49 49 51 65 52 42 53 31 54 32 55
REMARK SMILES IDX 36 56 33 57 35 58 34 59 53 60 54 61 58 62 55 63 57 64 56 65
REMARK SMILES IDX 43 66 44 67 48 68 45 69 47 70 46 71
REMARK H PARENT 63 39 41 50
REMARK Flexibility Score: inf
ROOT
ATOM      1  C   UNL A   1      39.179  21.432  26.095  1.00  0.00     0.274 C 
ENDROOT
BRANCH   1   2
ATOM      2  O   UNL A   1      37.837  21.815  25.726  1.00  0.00    -0.462 OA
BRANCH   2   3
ATOM      3  C   UNL A   1      37.289  23.054  25.747  1.00  0.00     0.310 C 
ATOM      4  O   UNL A   1      38.002  24.034  25.515  1.00  0.00    -0.252 OA
BRANCH   3   5
ATOM      5  C   UNL A   1      35.820  23.249  26.066  1.00  0.00     0.159 C 
BRANCH   5   6
ATOM      6  C   UNL A   1      34.924  22.234  25.445  1.00  0.00    -0.019 A 
ATOM      7  C   UNL A   1      34.046  22.444  24.354  1.00  0.00     0.024 A 
ATOM      8  C   UNL A   1      34.800  20.902  25.806  1.00  0.00     0.095 A 
ATOM      9  C   UNL A   1      33.535  21.218  24.001  1.00  0.00     0.091 A 
ATOM     10  N   UNL A   1      34.007  20.263  24.877  1.00  0.00    -0.321 N 
BRANCH  10  11
ATOM     11  C   UNL A   1      33.769  18.874  24.785  1.00  0.00     0.081 A 
ATOM     12  C   UNL A   1      32.466  18.389  24.961  1.00  0.00     0.030 A 
ATOM     13  C   UNL A   1      34.810  17.983  24.522  1.00  0.00     0.147 A 
ATOM     14  C   UNL A   1      32.218  17.018  24.875  1.00  0.00     0.002 A 
ATOM     15  C   UNL A   1      34.567  16.612  24.478  1.00  0.00     0.041 A 
ATOM     16  F   UNL A   1      36.074  18.407  24.377  1.00  0.00    -0.205 F 
ATOM     17  C   UNL A   1      33.269  16.129  24.650  1.00  0.00     0.003 A 
ENDBRANCH  10  11
ENDBRANCH   5   6
ENDBRANCH   3   5
ENDBRANCH   2   3
ENDBRANCH   1   2
BRANCH   1  18
ATOM     18  C   UNL A   1      39.594  20.074  25.552  1.00  0.00     0.275 C 
BRANCH  18  19
ATOM     19  O   UNL A   1      40.404  19.347  26.472  1.00  0.00    -0.458 OA
BRANCH  19  20
ATOM     20  C   UNL A   1      41.707  19.282  26.108  1.00  0.00     0.338 C 
ATOM     21  O   UNL A   1      42.294  18.333  25.634  1.00  0.00    -0.246 OA
BRANCH  20  22
ATOM     22  C   UNL A   1      42.387  20.520  26.489  1.00  0.00     0.060 A 
ATOM     23  C   UNL A   1      42.306  20.901  27.831  1.00  0.00     0.016 A 
ATOM     24  C   UNL A   1      42.847  21.391  25.492  1.00  0.00     0.016 A 
ATOM     25  C   UNL A   1      42.563  22.215  28.156  1.00  0.00     0.010 A 
ATOM     26  C   UNL A   1      43.053  22.716  25.810  1.00  0.00     0.010 A 
ATOM     27  C   UNL A   1      42.876  23.121  27.133  1.00  0.00    -0.014 A 
BRANCH  27  28
ATOM     28  C   UNL A   1      43.187  24.498  27.528  1.00  0.00     0.031 A 
ATOM     29  C   UNL A   1      41.870  25.292  27.622  1.00  0.00     0.074 A 
ATOM     30  C   UNL A   1      44.527  24.800  27.584  1.00  0.00     0.049 A 
ATOM     31  N   UNL A   1      41.637  26.522  27.307  1.00  0.00    -0.248 NA
ATOM     32  C   UNL A   1      40.600  24.613  28.033  1.00  0.00     0.031 C 
ATOM     33  C   UNL A   1      45.632  23.802  27.561  1.00  0.00     0.029 A 
ATOM     34  N   UNL A   1      45.254  25.970  27.666  1.00  0.00    -0.354 N 
ATOM     35  C   UNL A   1      40.297  26.817  27.641  1.00  0.00     0.074 A 
ATOM     36  C   UNL A   1      39.678  25.577  27.980  1.00  0.00     0.031 C 
ATOM     37  C   UNL A   1      46.845  24.405  27.519  1.00  0.00     0.029 A 
ATOM     38  C   UNL A   1      46.667  25.843  27.502  1.00  0.00     0.049 A 
ATOM     39  H   UNL A   1      44.824  26.841  27.828  1.00  0.00     0.167 HD
ATOM     40  C   UNL A   1      39.852  28.103  27.761  1.00  0.00     0.031 A 
ATOM     41  C   UNL A   1      47.604  26.829  27.299  1.00  0.00     0.031 A 
ATOM     42  C   UNL A   1      40.886  28.995  27.359  1.00  0.00     0.049 A 
ATOM     43  C   UNL A   1      46.848  28.080  27.423  1.00  0.00     0.074 A 
ATOM     44  C   UNL A   1      41.435  29.258  26.131  1.00  0.00     0.029 A 
ATOM     45  N   UNL A   1      41.767  29.362  28.348  1.00  0.00    -0.354 N 
ATOM     46  N   UNL A   1      46.419  28.579  28.540  1.00  0.00    -0.248 NA
ATOM     47  C   UNL A   1      46.429  28.770  26.197  1.00  0.00     0.031 C 
ATOM     48  C   UNL A   1      42.816  29.251  26.413  1.00  0.00     0.029 A 
ATOM     49  C   UNL A   1      43.019  29.325  27.795  1.00  0.00     0.049 A 
ATOM     50  H   UNL A   1      41.540  29.604  29.275  1.00  0.00     0.167 HD
ATOM     51  C   UNL A   1      45.372  29.354  28.116  1.00  0.00     0.074 A 
ATOM     52  C   UNL A   1      45.644  29.699  26.735  1.00  0.00     0.031 C 
ATOM     53  C   UNL A   1      44.147  29.193  28.679  1.00  0.00     0.031 A 
BRANCH  40  54
ATOM     54  C   UNL A   1      38.680  28.700  28.485  1.00  0.00    -0.014 A 
ATOM     55  C   UNL A   1      38.042  29.798  27.857  1.00  0.00     0.009 A 
ATOM     56  C   UNL A   1      38.427  28.501  29.844  1.00  0.00     0.009 A 
ATOM     57  C   UNL A   1      37.323  30.747  28.582  1.00  0.00     0.001 A 
ATOM     58  C   UNL A   1      37.662  29.431  30.565  1.00  0.00     0.001 A 
ATOM     59  C   UNL A   1      37.153  30.572  29.946  1.00  0.00     0.000 A 
ENDBRANCH  40  54
BRANCH  41  60
ATOM     60  C   UNL A   1      49.060  27.012  26.909  1.00  0.00    -0.014 A 
ATOM     61  C   UNL A   1      49.895  28.082  27.236  1.00  0.00     0.009 A 
ATOM     62  C   UNL A   1      49.688  25.979  26.147  1.00  0.00     0.009 A 
ATOM     63  C   UNL A   1      51.274  28.061  26.903  1.00  0.00     0.001 A 
ATOM     64  C   UNL A   1      51.055  25.927  25.858  1.00  0.00     0.001 A 
ATOM     65  C   UNL A   1      51.860  26.972  26.253  1.00  0.00     0.000 A 
ENDBRANCH  41  60
BRANCH  53  66
ATOM     66  C   UNL A   1      44.135  28.534  30.054  1.00  0.00    -0.014 A 
ATOM     67  C   UNL A   1      44.608  29.252  31.164  1.00  0.00     0.009 A 
ATOM     68  C   UNL A   1      43.790  27.185  30.271  1.00  0.00     0.009 A 
ATOM     69  C   UNL A   1      44.756  28.652  32.422  1.00  0.00     0.001 A 
ATOM     70  C   UNL A   1      43.945  26.576  31.530  1.00  0.00     0.001 A 
ATOM     71  C   UNL A   1      44.430  27.313  32.606  1.00  0.00     0.000 A 
ENDBRANCH  53  66
ENDBRANCH  27  28
ENDBRANCH  20  22
ENDBRANCH  19  20
ENDBRANCH  18  19
ENDBRANCH   1  18
TORSDOF 13
ENDMDL
MODEL 2
REMARK VINA RESULT:     -10.9      2.174      3.586
REMARK SMILES O=C(Cc1ccn(-c2ccccc2F)c1)OCCOC(=O)c1ccc(-c2c3nc(c(-c4ccccc4)c4ccc([nH]4)c(-c4ccccc4)c4nc(c(-c5ccccc5)c5ccc2[nH]5)C=C4)C=C3)cc1
REMARK SMILES IDX 17 1 16 2 2 3 1 4 3 5 4 6 5 7 15 8 6 9 7 10 8 11 9 12 13 13
REMARK SMILES IDX 10 14 12 15 14 16 11 17 18 18 19 19 20 20 21 21 22 22 23 23
REMARK SMILES IDX 69 24 24 25 68 26 25 27 26 28 27 29 62 30 28 31 67 32 61 33
REMARK SMILES IDX 63 34 29 35 66 36 60 37 59 38 30 40 52 41 37 42 51 43 38 44
REMARK SMILES IDX 41 45 50 46 64 47 39 48 40 49 49 51 65 52 42 53 31 54 32 55
REMARK SMILES IDX 36 56 33 57 35 58 34 59 53 60 54 61 58 62 55 63 57 64 56 65
REMARK SMILES IDX 43 66 44 67 48 68 45 69 47 70 46 71
REMARK H PARENT 63 39 41 50
REMARK Flexibility Score: inf
ROOT
ATOM      1  C   UNL A   1      39.014  21.028  25.985  1.00  0.00     0.274 C 
ENDROOT
BRANCH   1   2
ATOM      2  O   UNL A   1      38.095  21.590  25.025  1.00  0.00    -0.462 OA
BRANCH   2   3
ATOM      3  C   UNL A   1      37.286  22.666  25.177  1.00  0.00     0.310 C 
ATOM      4  O   UNL A   1      37.780  23.756  25.472  1.00  0.00    -0.252 OA
BRANCH   3   5
ATOM      5  C   UNL A   1      35.785  22.540  25.005  1.00  0.00     0.159 C 
BRANCH   5   6
ATOM      6  C   UNL A   1      35.083  23.840  24.820  1.00  0.00    -0.019 A 
ATOM      7  C   UNL A   1      34.534  24.333  23.611  1.00  0.00     0.024 A 
ATOM      8  C   UNL A   1      34.822  24.791  25.793  1.00  0.00     0.095 A 
ATOM      9  C   UNL A   1      33.842  25.481  23.916  1.00  0.00     0.091 A 
ATOM     10  N   UNL A   1      33.999  25.759  25.258  1.00  0.00    -0.321 N 
BRANCH  10  11
ATOM     11  C   UNL A   1      33.368  26.811  25.959  1.00  0.00     0.081 A 
ATOM     12  C   UNL A   1      34.092  27.977  26.242  1.00  0.00     0.030 A 
ATOM     13  C   UNL A   1      32.039  26.704  26.368  1.00  0.00     0.147 A 
ATOM     14  C   UNL A   1      33.481  29.022  26.936  1.00  0.00     0.002 A 
ATOM     15  C   UNL A   1      31.444  27.731  27.097  1.00  0.00     0.041 A 
ATOM     16  F   UNL A   1      31.323  25.593  26.141  1.00  0.00    -0.205 F 
ATOM     17  C   UNL A   1      32.164  28.894  27.377  1.00  0.00     0.003 A 
ENDBRANCH  10  11
ENDBRANCH   5   6
ENDBRANCH   3   5
ENDBRANCH   2   3
ENDBRANCH   1   2
BRANCH   1  18
ATOM     18  C   UNL A   1      39.644  19.721  25.531  1.00  0.00     0.275 C 
BRANCH  18  19
ATOM     19  O   UNL A   1      40.530  19.177  26.507  1.00  0.00    -0.458 OA
BRANCH  19  20
ATOM     20  C   UNL A   1      41.825  19.166  26.111  1.00  0.00     0.338 C 
ATOM     21  O   UNL A   1      42.433  18.248  25.605  1.00  0.00    -0.246 OA
BRANCH  20  22
ATOM     22  C   UNL A   1      42.469  20.420  26.501  1.00  0.00     0.060 A 
ATOM     23  C   UNL A   1      42.328  20.819  27.833  1.00  0.00     0.016 A 
ATOM     24  C   UNL A   1      42.956  21.284  25.511  1.00  0.00     0.016 A 
ATOM     25  C   UNL A   1      42.551  22.142  28.149  1.00  0.00     0.010 A 
ATOM     26  C   UNL A   1      43.129  22.616  25.817  1.00  0.00     0.010 A 
ATOM     27  C   UNL A   1      42.892  23.038  27.125  1.00  0.00    -0.014 A 
BRANCH  27  28
ATOM     28  C   UNL A   1      43.165  24.425  27.512  1.00  0.00     0.031 A 
ATOM     29  C   UNL A   1      41.826  25.182  27.607  1.00  0.00     0.074 A 
ATOM     30  C   UNL A   1      44.496  24.765  27.563  1.00  0.00     0.049 A 
ATOM     31  N   UNL A   1      41.558  26.403  27.286  1.00  0.00    -0.248 NA
ATOM     32  C   UNL A   1      40.578  24.469  28.025  1.00  0.00     0.031 C 
ATOM     33  C   UNL A   1      45.629  23.799  27.541  1.00  0.00     0.029 A 
ATOM     34  N   UNL A   1      45.190  25.956  27.636  1.00  0.00    -0.354 N 
ATOM     35  C   UNL A   1      40.211  26.662  27.623  1.00  0.00     0.074 A 
ATOM     36  C   UNL A   1      39.628  25.407  27.970  1.00  0.00     0.031 C 
ATOM     37  C   UNL A   1      46.824  24.435  27.491  1.00  0.00     0.029 A 
ATOM     38  C   UNL A   1      46.606  25.868  27.467  1.00  0.00     0.049 A 
ATOM     39  H   UNL A   1      44.736  26.815  27.794  1.00  0.00     0.167 HD
ATOM     40  C   UNL A   1      39.730  27.935  27.737  1.00  0.00     0.031 A 
ATOM     41  C   UNL A   1      47.513  26.879  27.256  1.00  0.00     0.031 A 
ATOM     42  C   UNL A   1      40.737  28.854  27.328  1.00  0.00     0.049 A 
ATOM     43  C   UNL A   1      46.723  28.108  27.377  1.00  0.00     0.074 A 
ATOM     44  C   UNL A   1      41.274  29.126  26.096  1.00  0.00     0.029 A 
ATOM     45  N   UNL A   1      41.610  29.251  28.312  1.00  0.00    -0.354 N 
ATOM     46  N   UNL A   1      46.284  28.601  28.493  1.00  0.00    -0.248 NA
ATOM     47  C   UNL A   1      46.280  28.780  26.148  1.00  0.00     0.031 C 
ATOM     48  C   UNL A   1      42.656  29.159  26.374  1.00  0.00     0.029 A 
ATOM     49  C   UNL A   1      42.862  29.247  27.755  1.00  0.00     0.049 A 
ATOM     50  H   UNL A   1      41.380  29.492  29.238  1.00  0.00     0.167 HD
ATOM     51  C   UNL A   1      45.214  29.343  28.068  1.00  0.00     0.074 A 
ATOM     52  C   UNL A   1      45.472  29.689  26.684  1.00  0.00     0.031 C 
ATOM     53  C   UNL A   1      43.995  29.151  28.636  1.00  0.00     0.031 A 
BRANCH  40  54
ATOM     54  C   UNL A   1      38.545  28.503  28.462  1.00  0.00    -0.014 A 
ATOM     55  C   UNL A   1      37.827  29.528  27.796  1.00  0.00     0.009 A 
ATOM     56  C   UNL A   1      38.338  28.364  29.836  1.00  0.00     0.009 A 
ATOM     57  C   UNL A   1      37.073  30.472  28.490  1.00  0.00     0.001 A 
ATOM     58  C   UNL A   1      37.539  29.287  30.529  1.00  0.00     0.001 A 
ATOM     59  C   UNL A   1      36.948  30.362  29.866  1.00  0.00     0.000 A 
ENDBRANCH  40  54
BRANCH  41  60
ATOM     60  C   UNL A   1      48.963  27.100  26.861  1.00  0.00    -0.014 A 
ATOM     61  C   UNL A   1      49.739  26.306  26.015  1.00  0.00     0.009 A 
ATOM     62  C   UNL A   1      49.631  28.256  27.372  1.00  0.00     0.009 A 
ATOM     63  C   UNL A   1      51.049  26.703  25.639  1.00  0.00     0.001 A 
ATOM     64  C   UNL A   1      50.901  28.679  26.968  1.00  0.00     0.001 A 
ATOM     65  C   UNL A   1      51.612  27.903  26.081  1.00  0.00     0.000 A 
ENDBRANCH  41  60
BRANCH  53  66
ATOM     66  C   UNL A   1      44.006  28.499  30.014  1.00  0.00    -0.014 A 
ATOM     67  C   UNL A   1      44.466  29.235  31.118  1.00  0.00     0.009 A 
ATOM     68  C   UNL A   1      43.697  27.144  30.239  1.00  0.00     0.009 A 
ATOM     69  C   UNL A   1      44.636  28.646  32.379  1.00  0.00     0.001 A 
ATOM     70  C   UNL A   1      43.872  26.545  31.501  1.00  0.00     0.001 A 
ATOM     71  C   UNL A   1      44.344  27.300  32.571  1.00  0.00     0.000 A 
ENDBRANCH  53  66
ENDBRANCH  27  28
ENDBRANCH  20  22
ENDBRANCH  19  20
ENDBRANCH  18  19
ENDBRANCH   1  18
TORSDOF 13
ENDMDL
MODEL 3
REMARK VINA RESULT:     -10.9      3.255      7.114
REMARK SMILES O=C(Cc1ccn(-c2ccccc2F)c1)OCCOC(=O)c1ccc(-c2c3nc(c(-c4ccccc4)c4ccc([nH]4)c(-c4ccccc4)c4nc(c(-c5ccccc5)c5ccc2[nH]5)C=C4)C=C3)cc1
REMARK SMILES IDX 17 1 16 2 2 3 1 4 3 5 4 6 5 7 15 8 6 9 7 10 8 11 9 12 13 13
REMARK SMILES IDX 10 14 12 15 14 16 11 17 18 18 19 19 20 20 21 21 22 22 23 23
REMARK SMILES IDX 69 24 24 25 68 26 25 27 26 28 27 29 62 30 28 31 67 32 61 33
REMARK SMILES IDX 63 34 29 35 66 36 60 37 59 38 30 40 52 41 37 42 51 43 38 44
REMARK SMILES IDX 41 45 50 46 64 47 39 48 40 49 49 51 65 52 42 53 31 54 32 55
REMARK SMILES IDX 36 56 33 57 35 58 34 59 53 60 54 61 58 62 55 63 57 64 56 65
REMARK SMILES IDX 43 66 44 67 48 68 45 69 47 70 46 71
REMARK H PARENT 63 39 41 50
REMARK Flexibility Score: inf
ROOT
ATOM      1  C   UNL A   1      33.799  28.199  26.147  1.00  0.00     0.274 C 
ENDROOT
BRANCH   1   2
ATOM      2  O   UNL A   1      32.511  27.856  26.700  1.00  0.00    -0.462 OA
BRANCH   2   3
ATOM      3  C   UNL A   1      31.705  26.823  26.355  1.00  0.00     0.310 C 
ATOM      4  O   UNL A   1      30.637  26.666  26.950  1.00  0.00    -0.252 OA
BRANCH   3   5
ATOM      5  C   UNL A   1      32.110  25.854  25.262  1.00  0.00     0.159 C 
BRANCH   5   6
ATOM      6  C   UNL A   1      32.903  24.690  25.744  1.00  0.00    -0.019 A 
ATOM      7  C   UNL A   1      32.466  23.692  26.649  1.00  0.00     0.024 A 
ATOM      8  C   UNL A   1      34.200  24.360  25.384  1.00  0.00     0.095 A 
ATOM      9  C   UNL A   1      33.443  22.726  26.694  1.00  0.00     0.091 A 
ATOM     10  N   UNL A   1      34.504  23.121  25.906  1.00  0.00    -0.321 N 
BRANCH  10  11
ATOM     11  C   UNL A   1      35.658  22.353  25.636  1.00  0.00     0.081 A 
ATOM     12  C   UNL A   1      35.513  21.029  25.197  1.00  0.00     0.030 A 
ATOM     13  C   UNL A   1      36.933  22.893  25.798  1.00  0.00     0.147 A 
ATOM     14  C   UNL A   1      36.646  20.259  24.929  1.00  0.00     0.002 A 
ATOM     15  C   UNL A   1      38.062  22.110  25.571  1.00  0.00     0.041 A 
ATOM     16  F   UNL A   1      37.112  24.146  26.244  1.00  0.00    -0.205 F 
ATOM     17  C   UNL A   1      37.919  20.793  25.131  1.00  0.00     0.003 A 
ENDBRANCH  10  11
ENDBRANCH   5   6
ENDBRANCH   3   5
ENDBRANCH   2   3
ENDBRANCH   1   2
BRANCH   1  18
ATOM     18  C   UNL A   1      34.520  29.293  26.919  1.00  0.00     0.275 C 
BRANCH  18  19
ATOM     19  O   UNL A   1      35.681  28.809  27.589  1.00  0.00    -0.458 OA
BRANCH  19  20
ATOM     20  C   UNL A   1      36.213  29.702  28.457  1.00  0.00     0.338 C 
ATOM     21  O   UNL A   1      35.671  30.669  28.947  1.00  0.00    -0.246 OA
BRANCH  20  22
ATOM     22  C   UNL A   1      37.636  29.415  28.648  1.00  0.00     0.060 A 
ATOM     23  C   UNL A   1      38.480  29.641  27.558  1.00  0.00     0.016 A 
ATOM     24  C   UNL A   1      38.051  28.698  29.778  1.00  0.00     0.016 A 
ATOM     25  C   UNL A   1      39.711  29.022  27.543  1.00  0.00     0.010 A 
ATOM     26  C   UNL A   1      39.260  28.039  29.740  1.00  0.00     0.010 A 
ATOM     27  C   UNL A   1      40.063  28.181  28.608  1.00  0.00    -0.014 A 
BRANCH  27  28
ATOM     28  C   UNL A   1      41.400  27.581  28.576  1.00  0.00     0.031 A 
ATOM     29  C   UNL A   1      41.263  26.095  28.187  1.00  0.00     0.074 A 
ATOM     30  C   UNL A   1      42.416  28.395  29.015  1.00  0.00     0.049 A 
ATOM     31  N   UNL A   1      41.936  25.079  28.610  1.00  0.00    -0.248 NA
ATOM     32  C   UNL A   1      40.165  25.647  27.273  1.00  0.00     0.031 C 
ATOM     33  C   UNL A   1      42.304  29.864  29.234  1.00  0.00     0.029 A 
ATOM     34  N   UNL A   1      43.733  28.193  29.376  1.00  0.00    -0.354 N 
ATOM     35  C   UNL A   1      41.496  23.935  27.908  1.00  0.00     0.074 A 
ATOM     36  C   UNL A   1      40.332  24.325  27.180  1.00  0.00     0.031 C 
ATOM     37  C   UNL A   1      43.437  30.374  29.774  1.00  0.00     0.029 A 
ATOM     38  C   UNL A   1      44.398  29.307  29.974  1.00  0.00     0.049 A 
ATOM     39  H   UNL A   1      44.187  27.331  29.231  1.00  0.00     0.167 HD
ATOM     40  C   UNL A   1      42.235  22.788  27.866  1.00  0.00     0.031 A 
ATOM     41  C   UNL A   1      45.602  29.339  30.637  1.00  0.00     0.031 A 
ATOM     42  C   UNL A   1      43.358  22.924  28.730  1.00  0.00     0.049 A 
ATOM     43  C   UNL A   1      46.138  27.982  30.482  1.00  0.00     0.074 A 
ATOM     44  C   UNL A   1      43.454  22.982  30.096  1.00  0.00     0.029 A 
ATOM     45  N   UNL A   1      44.475  23.491  28.164  1.00  0.00    -0.354 N 
ATOM     46  N   UNL A   1      46.640  27.505  29.387  1.00  0.00    -0.248 NA
ATOM     47  C   UNL A   1      45.993  27.041  31.599  1.00  0.00     0.031 C 
ATOM     48  C   UNL A   1      44.340  24.061  30.288  1.00  0.00     0.029 A 
ATOM     49  C   UNL A   1      44.982  24.369  29.084  1.00  0.00     0.049 A 
ATOM     50  H   UNL A   1      44.838  23.302  27.268  1.00  0.00     0.167 HD
ATOM     51  C   UNL A   1      46.469  26.157  29.567  1.00  0.00     0.074 A 
ATOM     52  C   UNL A   1      46.414  25.932  30.997  1.00  0.00     0.031 C 
ATOM     53  C   UNL A   1      45.833  25.429  28.612  1.00  0.00     0.031 A 
BRANCH  40  54
ATOM     54  C   UNL A   1      42.250  21.633  26.908  1.00  0.00    -0.014 A 
ATOM     55  C   UNL A   1      41.444  20.518  27.249  1.00  0.00     0.009 A 
ATOM     56  C   UNL A   1      43.244  21.436  25.946  1.00  0.00     0.009 A 
ATOM     57  C   UNL A   1      41.723  19.235  26.782  1.00  0.00     0.001 A 
ATOM     58  C   UNL A   1      43.494  20.151  25.439  1.00  0.00     0.001 A 
ATOM     59  C   UNL A   1      42.768  19.049  25.891  1.00  0.00     0.000 A 
ENDBRANCH  40  54
BRANCH  41  60
ATOM     60  C   UNL A   1      46.445  30.252  31.509  1.00  0.00    -0.014 A 
ATOM     61  C   UNL A   1      47.838  30.310  31.573  1.00  0.00     0.009 A 
ATOM     62  C   UNL A   1      45.771  31.189  32.352  1.00  0.00     0.009 A 
ATOM     63  C   UNL A   1      48.493  31.301  32.350  1.00  0.00     0.001 A 
ATOM     64  C   UNL A   1      46.407  32.199  33.082  1.00  0.00     0.001 A 
ATOM     65  C   UNL A   1      47.782  32.265  33.068  1.00  0.00     0.000 A 
ENDBRANCH  41  60
BRANCH  53  66
ATOM     66  C   UNL A   1      45.803  26.050  27.220  1.00  0.00    -0.014 A 
ATOM     67  C   UNL A   1      47.009  26.240  26.527  1.00  0.00     0.009 A 
ATOM     68  C   UNL A   1      44.638  26.569  26.622  1.00  0.00     0.009 A 
ATOM     69  C   UNL A   1      47.059  26.935  25.310  1.00  0.00     0.001 A 
ATOM     70  C   UNL A   1      44.684  27.274  25.405  1.00  0.00     0.001 A 
ATOM     71  C   UNL A   1      45.899  27.458  24.750  1.00  0.00     0.000 A 
ENDBRANCH  53  66
ENDBRANCH  27  28
ENDBRANCH  20  22
ENDBRANCH  19  20
ENDBRANCH  18  19
ENDBRANCH   1  18
TORSDOF 13
ENDMDL
