MODEL 1
REMARK VINA RESULT:      -8.7      0.000      0.000
REMARK SMILES COc1ccc(Cl)c(C[C@H]([NH3+])C(=O)OCCOC(=O)c2ccc(-c3c4nc(c(-c5ccccc5)c5ccc([nH]5)c(-c5ccccc5)c5nc(c(-c6ccccc6)c6ccc3[nH]6)C=C5)C=C4)cc2)c1F
REMARK SMILES IDX 15 1 14 2 12 3 13 4 10 5 9 6 8 7 3 8 4 9 68 10 5 11 69 12
REMARK SMILES IDX 6 13 7 14 2 15 1 16 11 17 16 21 17 22 18 23 19 24 20 25
REMARK SMILES IDX 21 26 67 27 22 28 66 29 23 30 24 31 25 32 60 33 26 34 65 35
REMARK SMILES IDX 59 36 61 37 27 38 64 39 58 40 57 41 28 43 50 44 35 45 49 46
REMARK SMILES IDX 36 47 39 48 48 49 62 50 37 51 38 52 47 54 63 55 40 56 29 57
REMARK SMILES IDX 30 58 34 59 31 60 33 61 32 62 51 63 52 64 56 65 53 66 55 67
REMARK SMILES IDX 54 68 41 69 42 70 46 71 43 72 45 73 44 74
REMARK H PARENT 11 18 11 19 11 20 61 42 39 53
REMARK Flexibility Score: inf
ROOT
ATOM      1  C   UNL A   1      41.526  20.055  26.421  1.00  0.00     0.274 C 
ENDROOT
BRANCH   1   2
ATOM      2  O   UNL A   1      42.399  21.023  27.033  1.00  0.00    -0.458 OA
BRANCH   2   3
ATOM      3  C   UNL A   1      43.093  21.822  26.175  1.00  0.00     0.365 C 
ATOM      4  O   UNL A   1      43.168  21.644  24.964  1.00  0.00    -0.245 OA
BRANCH   3   5
ATOM      5  C   UNL A   1      43.788  22.992  26.893  1.00  0.00     0.296 C 
BRANCH   5   6
ATOM      6  C   UNL A   1      44.837  23.711  26.021  1.00  0.00     0.117 C 
BRANCH   6   7
ATOM      7  C   UNL A   1      44.749  25.220  26.055  1.00  0.00     0.017 A 
ATOM      8  C   UNL A   1      43.669  27.265  25.268  1.00  0.00     0.154 A 
ATOM      9  C   UNL A   1      44.677  28.030  25.848  1.00  0.00     0.051 A 
ATOM     10  C   UNL A   1      43.726  25.870  25.347  1.00  0.00     0.169 A 
ATOM     11  C   UNL A   1      45.690  27.407  26.573  1.00  0.00     0.025 A 
ATOM     12  F   UNL A   1      42.806  25.126  24.714  1.00  0.00    -0.203 F 
ATOM     13  C   UNL A   1      45.715  26.016  26.693  1.00  0.00     0.047 A 
ATOM     14  Cl  UNL A   1      46.996  25.331  27.632  1.00  0.00    -0.084 Cl
BRANCH   8  15
ATOM     15  O   UNL A   1      42.699  27.963  24.599  1.00  0.00    -0.494 OA
ATOM     16  C   UNL A   1      41.995  28.874  25.441  1.00  0.00     0.278 C 
ENDBRANCH   8  15
ENDBRANCH   6   7
ENDBRANCH   5   6
BRANCH   5  17
ATOM     17  N   UNL A   1      44.383  22.562  28.185  1.00  0.00    -0.346 N 
ATOM     18  H   UNL A   1      43.644  22.244  28.811  1.00  0.00     0.345 HD
ATOM     19  H   UNL A   1      44.874  23.349  28.611  1.00  0.00     0.345 HD
ATOM     20  H   UNL A   1      45.041  21.801  28.020  1.00  0.00     0.345 HD
ENDBRANCH   5  17
ENDBRANCH   3   5
ENDBRANCH   2   3
ENDBRANCH   1   2
BRANCH   1  21
ATOM     21  C   UNL A   1      40.111  20.607  26.220  1.00  0.00     0.275 C 
BRANCH  21  22
ATOM     22  O   UNL A   1      39.875  21.803  26.985  1.00  0.00    -0.458 OA
BRANCH  22  23
ATOM     23  C   UNL A   1      39.058  22.709  26.399  1.00  0.00     0.338 C 
ATOM     24  O   UNL A   1      38.153  22.491  25.610  1.00  0.00    -0.246 OA
BRANCH  23  25
ATOM     25  C   UNL A   1      39.301  24.040  26.975  1.00  0.00     0.060 A 
ATOM     26  C   UNL A   1      39.979  24.976  26.189  1.00  0.00     0.016 A 
ATOM     27  C   UNL A   1      38.932  24.345  28.287  1.00  0.00     0.016 A 
ATOM     28  C   UNL A   1      40.297  26.226  26.708  1.00  0.00     0.010 A 
ATOM     29  C   UNL A   1      39.255  25.601  28.809  1.00  0.00     0.010 A 
ATOM     30  C   UNL A   1      39.948  26.541  28.026  1.00  0.00    -0.014 A 
BRANCH  30  31
ATOM     31  C   UNL A   1      40.367  27.836  28.605  1.00  0.00     0.031 A 
ATOM     32  C   UNL A   1      41.770  28.005  29.106  1.00  0.00     0.074 A 
ATOM     33  C   UNL A   1      39.490  28.853  28.676  1.00  0.00     0.049 A 
ATOM     34  N   UNL A   1      42.311  29.023  29.724  1.00  0.00    -0.248 NA
ATOM     35  C   UNL A   1      42.686  26.875  28.883  1.00  0.00     0.031 C 
ATOM     36  C   UNL A   1      38.113  28.819  28.182  1.00  0.00     0.029 A 
ATOM     37  N   UNL A   1      39.629  30.111  29.205  1.00  0.00    -0.354 N 
ATOM     38  C   UNL A   1      43.622  28.649  29.986  1.00  0.00     0.074 A 
ATOM     39  C   UNL A   1      43.791  27.306  29.475  1.00  0.00     0.031 C 
ATOM     40  C   UNL A   1      37.530  30.001  28.440  1.00  0.00     0.029 A 
ATOM     41  C   UNL A   1      38.475  30.853  29.156  1.00  0.00     0.049 A 
ATOM     42  H   UNL A   1      40.473  30.448  29.582  1.00  0.00     0.167 HD
ATOM     43  C   UNL A   1      44.596  29.363  30.599  1.00  0.00     0.031 A 
ATOM     44  C   UNL A   1      38.203  32.070  29.662  1.00  0.00     0.031 A 
ATOM     45  C   UNL A   1      44.420  30.697  31.110  1.00  0.00     0.049 A 
ATOM     46  C   UNL A   1      39.282  32.819  30.392  1.00  0.00     0.074 A 
ATOM     47  C   UNL A   1      45.348  31.513  31.733  1.00  0.00     0.029 A 
ATOM     48  N   UNL A   1      43.230  31.407  31.061  1.00  0.00    -0.354 N 
ATOM     49  N   UNL A   1      40.522  32.461  30.626  1.00  0.00    -0.248 NA
ATOM     50  C   UNL A   1      38.924  34.141  30.926  1.00  0.00     0.031 C 
ATOM     51  C   UNL A   1      44.704  32.698  32.108  1.00  0.00     0.029 A 
ATOM     52  C   UNL A   1      43.392  32.642  31.666  1.00  0.00     0.049 A 
ATOM     53  H   UNL A   1      42.394  31.083  30.655  1.00  0.00     0.167 HD
ATOM     54  C   UNL A   1      41.099  33.521  31.314  1.00  0.00     0.074 A 
ATOM     55  C   UNL A   1      40.077  34.540  31.446  1.00  0.00     0.031 C 
ATOM     56  C   UNL A   1      42.361  33.641  31.793  1.00  0.00     0.031 A 
BRANCH  43  57
ATOM     57  C   UNL A   1      45.926  28.689  30.791  1.00  0.00    -0.014 A 
ATOM     58  C   UNL A   1      46.211  27.946  31.947  1.00  0.00     0.009 A 
ATOM     59  C   UNL A   1      46.905  28.791  29.790  1.00  0.00     0.009 A 
ATOM     60  C   UNL A   1      47.465  27.352  32.114  1.00  0.00     0.001 A 
ATOM     61  C   UNL A   1      48.147  28.174  29.948  1.00  0.00     0.001 A 
ATOM     62  C   UNL A   1      48.430  27.464  31.112  1.00  0.00     0.000 A 
ENDBRANCH  43  57
BRANCH  44  63
ATOM     63  C   UNL A   1      36.837  32.636  29.523  1.00  0.00    -0.014 A 
ATOM     64  C   UNL A   1      35.889  32.486  30.547  1.00  0.00     0.009 A 
ATOM     65  C   UNL A   1      36.476  33.340  28.363  1.00  0.00     0.009 A 
ATOM     66  C   UNL A   1      34.604  33.015  30.402  1.00  0.00     0.001 A 
ATOM     67  C   UNL A   1      35.200  33.889  28.233  1.00  0.00     0.001 A 
ATOM     68  C   UNL A   1      34.263  33.720  29.249  1.00  0.00     0.000 A 
ENDBRANCH  44  63
BRANCH  56  69
ATOM     69  C   UNL A   1      42.716  34.931  32.475  1.00  0.00    -0.014 A 
ATOM     70  C   UNL A   1      42.384  35.160  33.819  1.00  0.00     0.009 A 
ATOM     71  C   UNL A   1      43.427  35.916  31.771  1.00  0.00     0.009 A 
ATOM     72  C   UNL A   1      42.733  36.363  34.436  1.00  0.00     0.001 A 
ATOM     73  C   UNL A   1      43.798  37.106  32.398  1.00  0.00     0.001 A 
ATOM     74  C   UNL A   1      43.443  37.332  33.726  1.00  0.00     0.000 A 
ENDBRANCH  56  69
ENDBRANCH  30  31
ENDBRANCH  23  25
ENDBRANCH  22  23
ENDBRANCH  21  22
ENDBRANCH   1  21
TORSDOF 15
ENDMDL
MODEL 2
REMARK VINA RESULT:      -8.5      4.765      9.112
REMARK SMILES COc1ccc(Cl)c(C[C@H]([NH3+])C(=O)OCCOC(=O)c2ccc(-c3c4nc(c(-c5ccccc5)c5ccc([nH]5)c(-c5ccccc5)c5nc(c(-c6ccccc6)c6ccc3[nH]6)C=C5)C=C4)cc2)c1F
REMARK SMILES IDX 15 1 14 2 12 3 13 4 10 5 9 6 8 7 3 8 4 9 68 10 5 11 69 12
REMARK SMILES IDX 6 13 7 14 2 15 1 16 11 17 16 21 17 22 18 23 19 24 20 25
REMARK SMILES IDX 21 26 67 27 22 28 66 29 23 30 24 31 25 32 60 33 26 34 65 35
REMARK SMILES IDX 59 36 61 37 27 38 64 39 58 40 57 41 28 43 50 44 35 45 49 46
REMARK SMILES IDX 36 47 39 48 48 49 62 50 37 51 38 52 47 54 63 55 40 56 29 57
REMARK SMILES IDX 30 58 34 59 31 60 33 61 32 62 51 63 52 64 56 65 53 66 55 67
REMARK SMILES IDX 54 68 41 69 42 70 46 71 43 72 45 73 44 74
REMARK H PARENT 11 18 11 19 11 20 61 42 39 53
REMARK Flexibility Score: inf
ROOT
ATOM      1  C   UNL A   1      35.720  20.665  24.918  1.00  0.00     0.274 C 
ENDROOT
BRANCH   1   2
ATOM      2  O   UNL A   1      35.048  21.777  24.296  1.00  0.00    -0.458 OA
BRANCH   2   3
ATOM      3  C   UNL A   1      34.047  22.348  25.024  1.00  0.00     0.365 C 
ATOM      4  O   UNL A   1      33.761  23.540  25.000  1.00  0.00    -0.245 OA
BRANCH   3   5
ATOM      5  C   UNL A   1      33.301  21.326  25.900  1.00  0.00     0.296 C 
BRANCH   5   6
ATOM      6  C   UNL A   1      32.066  20.712  25.209  1.00  0.00     0.117 C 
BRANCH   6   7
ATOM      7  C   UNL A   1      32.349  19.446  24.433  1.00  0.00     0.017 A 
ATOM      8  C   UNL A   1      33.083  17.116  24.440  1.00  0.00     0.154 A 
ATOM      9  C   UNL A   1      33.153  17.125  23.049  1.00  0.00     0.051 A 
ATOM     10  C   UNL A   1      32.714  18.279  25.123  1.00  0.00     0.169 A 
ATOM     11  C   UNL A   1      32.774  18.266  22.344  1.00  0.00     0.025 A 
ATOM     12  F   UNL A   1      32.732  18.300  26.465  1.00  0.00    -0.203 F 
ATOM     13  C   UNL A   1      32.357  19.410  23.029  1.00  0.00     0.047 A 
ATOM     14  Cl  UNL A   1      31.884  20.770  22.071  1.00  0.00    -0.084 Cl
BRANCH   8  15
ATOM     15  O   UNL A   1      33.446  15.944  25.047  1.00  0.00    -0.494 OA
ATOM     16  C   UNL A   1      34.855  15.840  25.248  1.00  0.00     0.278 C 
ENDBRANCH   8  15
ENDBRANCH   6   7
ENDBRANCH   5   6
BRANCH   5  17
ATOM     17  N   UNL A   1      32.934  21.902  27.219  1.00  0.00    -0.346 N 
ATOM     18  H   UNL A   1      31.937  21.768  27.384  1.00  0.00     0.345 HD
ATOM     19  H   UNL A   1      33.147  22.900  27.225  1.00  0.00     0.345 HD
ATOM     20  H   UNL A   1      33.467  21.437  27.954  1.00  0.00     0.345 HD
ENDBRANCH   5  17
ENDBRANCH   3   5
ENDBRANCH   2   3
ENDBRANCH   1   2
BRANCH   1  21
ATOM     21  C   UNL A   1      37.244  20.808  24.851  1.00  0.00     0.275 C 
BRANCH  21  22
ATOM     22  O   UNL A   1      37.773  21.562  25.957  1.00  0.00    -0.458 OA
BRANCH  22  23
ATOM     23  C   UNL A   1      39.077  21.334  26.237  1.00  0.00     0.338 C 
ATOM     24  O   UNL A   1      39.712  20.312  26.034  1.00  0.00    -0.246 OA
BRANCH  23  25
ATOM     25  C   UNL A   1      39.709  22.579  26.697  1.00  0.00     0.060 A 
ATOM     26  C   UNL A   1      39.257  23.782  26.145  1.00  0.00     0.016 A 
ATOM     27  C   UNL A   1      40.771  22.566  27.604  1.00  0.00     0.016 A 
ATOM     28  C   UNL A   1      39.866  24.982  26.492  1.00  0.00     0.010 A 
ATOM     29  C   UNL A   1      41.385  23.773  27.949  1.00  0.00     0.010 A 
ATOM     30  C   UNL A   1      40.943  24.984  27.386  1.00  0.00    -0.014 A 
BRANCH  30  31
ATOM     31  C   UNL A   1      41.646  26.250  27.683  1.00  0.00     0.031 A 
ATOM     32  C   UNL A   1      40.991  27.274  28.562  1.00  0.00     0.074 A 
ATOM     33  C   UNL A   1      42.868  26.475  27.169  1.00  0.00     0.049 A 
ATOM     34  N   UNL A   1      41.397  28.478  28.874  1.00  0.00    -0.248 NA
ATOM     35  C   UNL A   1      39.706  26.891  29.167  1.00  0.00     0.031 C 
ATOM     36  C   UNL A   1      43.623  25.535  26.338  1.00  0.00     0.029 A 
ATOM     37  N   UNL A   1      43.685  27.573  27.263  1.00  0.00    -0.354 N 
ATOM     38  C   UNL A   1      40.407  29.006  29.692  1.00  0.00     0.074 A 
ATOM     39  C   UNL A   1      39.375  28.000  29.815  1.00  0.00     0.031 C 
ATOM     40  C   UNL A   1      44.788  26.102  25.989  1.00  0.00     0.029 A 
ATOM     41  C   UNL A   1      44.842  27.456  26.534  1.00  0.00     0.049 A 
ATOM     42  H   UNL A   1      43.462  28.367  27.802  1.00  0.00     0.167 HD
ATOM     43  C   UNL A   1      40.365  30.223  30.286  1.00  0.00     0.031 A 
ATOM     44  C   UNL A   1      45.817  28.354  26.304  1.00  0.00     0.031 A 
ATOM     45  C   UNL A   1      41.393  31.222  30.155  1.00  0.00     0.049 A 
ATOM     46  C   UNL A   1      45.720  29.720  26.923  1.00  0.00     0.074 A 
ATOM     47  C   UNL A   1      41.453  32.479  30.729  1.00  0.00     0.029 A 
ATOM     48  N   UNL A   1      42.540  31.075  29.390  1.00  0.00    -0.354 N 
ATOM     49  N   UNL A   1      44.784  30.207  27.704  1.00  0.00    -0.248 NA
ATOM     50  C   UNL A   1      46.812  30.658  26.632  1.00  0.00     0.031 C 
ATOM     51  C   UNL A   1      42.612  33.113  30.269  1.00  0.00     0.029 A 
ATOM     52  C   UNL A   1      43.302  32.229  29.455  1.00  0.00     0.049 A 
ATOM     53  H   UNL A   1      42.778  30.269  28.877  1.00  0.00     0.167 HD
ATOM     54  C   UNL A   1      45.186  31.500  28.015  1.00  0.00     0.074 A 
ATOM     55  C   UNL A   1      46.456  31.714  27.350  1.00  0.00     0.031 C 
ATOM     56  C   UNL A   1      44.561  32.425  28.782  1.00  0.00     0.031 A 
BRANCH  43  57
ATOM     57  C   UNL A   1      39.139  30.553  31.091  1.00  0.00    -0.014 A 
ATOM     58  C   UNL A   1      39.060  30.257  32.461  1.00  0.00     0.009 A 
ATOM     59  C   UNL A   1      38.050  31.181  30.467  1.00  0.00     0.009 A 
ATOM     60  C   UNL A   1      37.898  30.548  33.180  1.00  0.00     0.001 A 
ATOM     61  C   UNL A   1      36.901  31.496  31.195  1.00  0.00     0.001 A 
ATOM     62  C   UNL A   1      36.822  31.171  32.547  1.00  0.00     0.000 A 
ENDBRANCH  43  57
BRANCH  44  63
ATOM     63  C   UNL A   1      46.953  27.996  25.415  1.00  0.00    -0.014 A 
ATOM     64  C   UNL A   1      46.815  28.040  24.020  1.00  0.00     0.009 A 
ATOM     65  C   UNL A   1      48.187  27.613  25.964  1.00  0.00     0.009 A 
ATOM     66  C   UNL A   1      47.887  27.692  23.193  1.00  0.00     0.001 A 
ATOM     67  C   UNL A   1      49.264  27.292  25.135  1.00  0.00     0.001 A 
ATOM     68  C   UNL A   1      49.110  27.324  23.751  1.00  0.00     0.000 A 
ENDBRANCH  44  63
BRANCH  56  69
ATOM     69  C   UNL A   1      45.258  33.744  28.970  1.00  0.00    -0.014 A 
ATOM     70  C   UNL A   1      46.166  33.945  30.019  1.00  0.00     0.009 A 
ATOM     71  C   UNL A   1      45.028  34.786  28.057  1.00  0.00     0.009 A 
ATOM     72  C   UNL A   1      46.809  35.174  30.168  1.00  0.00     0.001 A 
ATOM     73  C   UNL A   1      45.693  36.005  28.193  1.00  0.00     0.001 A 
ATOM     74  C   UNL A   1      46.576  36.201  29.253  1.00  0.00     0.000 A 
ENDBRANCH  56  69
ENDBRANCH  30  31
ENDBRANCH  23  25
ENDBRANCH  22  23
ENDBRANCH  21  22
ENDBRANCH   1  21
TORSDOF 15
ENDMDL
MODEL 3
REMARK VINA RESULT:      -8.5      4.456     10.176
REMARK SMILES COc1ccc(Cl)c(C[C@H]([NH3+])C(=O)OCCOC(=O)c2ccc(-c3c4nc(c(-c5ccccc5)c5ccc([nH]5)c(-c5ccccc5)c5nc(c(-c6ccccc6)c6ccc3[nH]6)C=C5)C=C4)cc2)c1F
REMARK SMILES IDX 15 1 14 2 12 3 13 4 10 5 9 6 8 7 3 8 4 9 68 10 5 11 69 12
REMARK SMILES IDX 6 13 7 14 2 15 1 16 11 17 16 21 17 22 18 23 19 24 20 25
REMARK SMILES IDX 21 26 67 27 22 28 66 29 23 30 24 31 25 32 60 33 26 34 65 35
REMARK SMILES IDX 59 36 61 37 27 38 64 39 58 40 57 41 28 43 50 44 35 45 49 46
REMARK SMILES IDX 36 47 39 48 48 49 62 50 37 51 38 52 47 54 63 55 40 56 29 57
REMARK SMILES IDX 30 58 34 59 31 60 33 61 32 62 51 63 52 64 56 65 53 66 55 67
REMARK SMILES IDX 54 68 41 69 42 70 46 71 43 72 45 73 44 74
REMARK H PARENT 11 18 11 19 11 20 61 42 39 53
REMARK Flexibility Score: inf
ROOT
ATOM      1  C   UNL A   1      33.381  33.862  28.066  1.00  0.00     0.274 C 
ENDROOT
BRANCH   1   2
ATOM      2  O   UNL A   1      34.268  34.270  29.124  1.00  0.00    -0.458 OA
BRANCH   2   3
ATOM      3  C   UNL A   1      33.673  34.586  30.309  1.00  0.00     0.365 C 
ATOM      4  O   UNL A   1      32.738  35.370  30.431  1.00  0.00    -0.245 OA
BRANCH   3   5
ATOM      5  C   UNL A   1      34.307  33.847  31.500  1.00  0.00     0.296 C 
BRANCH   5   6
ATOM      6  C   UNL A   1      35.694  34.394  31.893  1.00  0.00     0.117 C 
BRANCH   6   7
ATOM      7  C   UNL A   1      36.601  33.380  32.553  1.00  0.00     0.017 A 
ATOM      8  C   UNL A   1      37.376  32.296  34.601  1.00  0.00     0.154 A 
ATOM      9  C   UNL A   1      38.429  31.711  33.902  1.00  0.00     0.051 A 
ATOM     10  C   UNL A   1      36.491  33.148  33.933  1.00  0.00     0.169 A 
ATOM     11  C   UNL A   1      38.545  31.911  32.528  1.00  0.00     0.025 A 
ATOM     12  F   UNL A   1      35.529  33.784  34.620  1.00  0.00    -0.203 F 
ATOM     13  C   UNL A   1      37.628  32.721  31.855  1.00  0.00     0.047 A 
ATOM     14  Cl  UNL A   1      37.835  32.892  30.147  1.00  0.00    -0.084 Cl
BRANCH   8  15
ATOM     15  O   UNL A   1      37.325  32.023  35.941  1.00  0.00    -0.494 OA
ATOM     16  C   UNL A   1      38.226  30.987  36.328  1.00  0.00     0.278 C 
ENDBRANCH   8  15
ENDBRANCH   6   7
ENDBRANCH   5   6
BRANCH   5  17
ATOM     17  N   UNL A   1      34.366  32.381  31.264  1.00  0.00    -0.346 N 
ATOM     18  H   UNL A   1      33.658  32.118  30.578  1.00  0.00     0.345 HD
ATOM     19  H   UNL A   1      34.190  31.888  32.139  1.00  0.00     0.345 HD
ATOM     20  H   UNL A   1      35.290  32.130  30.912  1.00  0.00     0.345 HD
ENDBRANCH   5  17
ENDBRANCH   3   5
ENDBRANCH   2   3
ENDBRANCH   1   2
BRANCH   1  21
ATOM     21  C   UNL A   1      33.469  32.357  27.794  1.00  0.00     0.275 C 
BRANCH  21  22
ATOM     22  O   UNL A   1      34.595  31.746  28.449  1.00  0.00    -0.458 OA
BRANCH  22  23
ATOM     23  C   UNL A   1      34.811  30.448  28.132  1.00  0.00     0.338 C 
ATOM     24  O   UNL A   1      34.054  29.692  27.545  1.00  0.00    -0.246 OA
BRANCH  23  25
ATOM     25  C   UNL A   1      36.198  30.084  28.458  1.00  0.00     0.060 A 
ATOM     26  C   UNL A   1      37.154  30.186  27.443  1.00  0.00     0.016 A 
ATOM     27  C   UNL A   1      36.545  29.587  29.716  1.00  0.00     0.016 A 
ATOM     28  C   UNL A   1      38.465  29.788  27.675  1.00  0.00     0.010 A 
ATOM     29  C   UNL A   1      37.863  29.184  29.948  1.00  0.00     0.010 A 
ATOM     30  C   UNL A   1      38.825  29.273  28.925  1.00  0.00    -0.014 A 
BRANCH  30  31
ATOM     31  C   UNL A   1      40.197  28.767  29.142  1.00  0.00     0.031 A 
ATOM     32  C   UNL A   1      41.238  29.674  29.729  1.00  0.00     0.074 A 
ATOM     33  C   UNL A   1      40.503  27.499  28.818  1.00  0.00     0.049 A 
ATOM     34  N   UNL A   1      42.514  29.456  29.919  1.00  0.00    -0.248 NA
ATOM     35  C   UNL A   1      40.780  31.005  30.156  1.00  0.00     0.031 C 
ATOM     36  C   UNL A   1      39.565  26.512  28.282  1.00  0.00     0.029 A 
ATOM     37  N   UNL A   1      41.698  26.827  28.882  1.00  0.00    -0.354 N 
ATOM     38  C   UNL A   1      43.017  30.629  30.464  1.00  0.00     0.074 A 
ATOM     39  C   UNL A   1      41.914  31.561  30.560  1.00  0.00     0.031 C 
ATOM     40  C   UNL A   1      40.222  25.363  28.056  1.00  0.00     0.029 A 
ATOM     41  C   UNL A   1      41.632  25.548  28.389  1.00  0.00     0.049 A 
ATOM     42  H   UNL A   1      42.522  27.225  29.247  1.00  0.00     0.167 HD
ATOM     43  C   UNL A   1      44.286  30.903  30.849  1.00  0.00     0.031 A 
ATOM     44  C   UNL A   1      42.607  24.641  28.195  1.00  0.00     0.031 A 
ATOM     45  C   UNL A   1      45.381  29.974  30.746  1.00  0.00     0.049 A 
ATOM     46  C   UNL A   1      44.019  24.989  28.573  1.00  0.00     0.074 A 
ATOM     47  C   UNL A   1      46.700  30.147  31.123  1.00  0.00     0.029 A 
ATOM     48  N   UNL A   1      45.279  28.694  30.220  1.00  0.00    -0.354 N 
ATOM     49  N   UNL A   1      44.484  26.098  29.098  1.00  0.00    -0.248 NA
ATOM     50  C   UNL A   1      45.041  23.960  28.334  1.00  0.00     0.031 C 
ATOM     51  C   UNL A   1      47.409  28.991  30.777  1.00  0.00     0.029 A 
ATOM     52  C   UNL A   1      46.518  28.076  30.239  1.00  0.00     0.049 A 
ATOM     53  H   UNL A   1      44.448  28.285  29.885  1.00  0.00     0.167 HD
ATOM     54  C   UNL A   1      45.847  25.892  29.272  1.00  0.00     0.074 A 
ATOM     55  C   UNL A   1      46.129  24.547  28.811  1.00  0.00     0.031 C 
ATOM     56  C   UNL A   1      46.780  26.739  29.770  1.00  0.00     0.031 A 
BRANCH  43  57
ATOM     57  C   UNL A   1      44.563  32.285  31.372  1.00  0.00    -0.014 A 
ATOM     58  C   UNL A   1      44.932  33.333  30.514  1.00  0.00     0.009 A 
ATOM     59  C   UNL A   1      44.442  32.543  32.747  1.00  0.00     0.009 A 
ATOM     60  C   UNL A   1      45.211  34.602  31.029  1.00  0.00     0.001 A 
ATOM     61  C   UNL A   1      44.695  33.817  33.254  1.00  0.00     0.001 A 
ATOM     62  C   UNL A   1      45.089  34.843  32.398  1.00  0.00     0.000 A 
ENDBRANCH  43  57
BRANCH  44  63
ATOM     63  C   UNL A   1      42.280  23.329  27.580  1.00  0.00    -0.014 A 
ATOM     64  C   UNL A   1      42.425  23.126  26.200  1.00  0.00     0.009 A 
ATOM     65  C   UNL A   1      41.826  22.267  28.378  1.00  0.00     0.009 A 
ATOM     66  C   UNL A   1      42.105  21.891  25.630  1.00  0.00     0.001 A 
ATOM     67  C   UNL A   1      41.533  21.026  27.810  1.00  0.00     0.001 A 
ATOM     68  C   UNL A   1      41.666  20.841  26.436  1.00  0.00     0.000 A 
ENDBRANCH  44  63
BRANCH  56  69
ATOM     69  C   UNL A   1      48.188  26.225  29.871  1.00  0.00    -0.014 A 
ATOM     70  C   UNL A   1      49.068  26.289  28.780  1.00  0.00     0.009 A 
ATOM     71  C   UNL A   1      48.651  25.705  31.090  1.00  0.00     0.009 A 
ATOM     72  C   UNL A   1      50.375  25.815  28.900  1.00  0.00     0.001 A 
ATOM     73  C   UNL A   1      49.966  25.257  31.215  1.00  0.00     0.001 A 
ATOM     74  C   UNL A   1      50.824  25.303  30.118  1.00  0.00     0.000 A 
ENDBRANCH  56  69
ENDBRANCH  30  31
ENDBRANCH  23  25
ENDBRANCH  22  23
ENDBRANCH  21  22
ENDBRANCH   1  21
TORSDOF 15
ENDMDL
