MODEL 1
REMARK VINA RESULT:     -11.1      0.000      0.000
REMARK SMILES CC(C)c1ccc(O[C@H](C)C(=O)Nc2ccccc2C(=O)OCCOC(=O)c2ccc(-c3c4nc(c(-c5ccccc5)c5ccc([nH]5)c(-c5ccccc5)c5nc(c(-c6ccccc6)c6ccc3[nH]6)C=C5)C=C4)cc2)cc1
REMARK SMILES IDX 22 1 20 2 21 3 19 4 14 5 15 6 16 7 18 8 17 9 13 10 11 11
REMARK SMILES IDX 12 12 9 14 10 15 8 16 7 17 4 18 5 19 77 20 6 21 76 22 2 23
REMARK SMILES IDX 1 24 3 25 23 26 24 27 25 28 26 29 27 30 28 31 29 32 75 33
REMARK SMILES IDX 30 34 74 35 31 36 32 37 33 38 68 39 34 40 73 41 67 42 69 43
REMARK SMILES IDX 35 44 72 45 66 46 65 47 36 49 58 50 43 51 57 52 44 53 47 54
REMARK SMILES IDX 56 55 70 56 45 57 46 58 55 60 71 61 48 62 37 63 38 64 42 65
REMARK SMILES IDX 39 66 41 67 40 68 59 69 60 70 64 71 61 72 63 73 62 74 49 75
REMARK SMILES IDX 50 76 54 77 51 78 53 79 52 80
REMARK H PARENT 13 13 69 48 47 59
REMARK Flexibility Score: inf
ROOT
ATOM      1  O   UNL A   1      35.371  23.562  24.848  1.00  0.00    -0.458 OA
ENDROOT
BRANCH   1   2
ATOM      2  C   UNL A   1      34.623  24.439  24.148  1.00  0.00     0.340 C 
ATOM      3  O   UNL A   1      34.643  24.571  22.932  1.00  0.00    -0.246 OA
BRANCH   2   4
ATOM      4  C   UNL A   1      33.768  25.285  24.990  1.00  0.00     0.083 A 
ATOM      5  C   UNL A   1      32.772  24.744  25.815  1.00  0.00     0.055 A 
ATOM      6  C   UNL A   1      31.975  25.612  26.571  1.00  0.00     0.027 A 
ATOM      7  C   UNL A   1      32.249  26.984  26.599  1.00  0.00     0.002 A 
ATOM      8  C   UNL A   1      34.016  26.666  24.998  1.00  0.00     0.018 A 
ATOM      9  C   UNL A   1      33.276  27.510  25.822  1.00  0.00     0.001 A 
BRANCH   5  10
ATOM     10  N   UNL A   1      32.508  23.365  25.925  1.00  0.00    -0.322 N 
ATOM     11  C   UNL A   1      31.733  22.564  25.117  1.00  0.00     0.265 C 
ATOM     12  O   UNL A   1      31.232  21.554  25.624  1.00  0.00    -0.270 OA
ATOM     13  H   UNL A   1      32.937  22.911  26.686  1.00  0.00     0.170 HD
BRANCH  11  14
ATOM     14  C   UNL A   1      31.659  22.809  23.574  1.00  0.00     0.259 C 
ATOM     15  C   UNL A   1      32.077  21.544  22.822  1.00  0.00     0.064 C 
BRANCH  14  16
ATOM     16  O   UNL A   1      30.444  23.448  23.197  1.00  0.00    -0.481 OA
BRANCH  16  17
ATOM     17  C   UNL A   1      30.395  24.789  22.985  1.00  0.00     0.120 A 
ATOM     18  C   UNL A   1      30.779  27.580  23.018  1.00  0.00    -0.045 A 
ATOM     19  C   UNL A   1      29.793  26.983  23.808  1.00  0.00     0.008 A 
ATOM     20  C   UNL A   1      31.533  26.758  22.163  1.00  0.00     0.008 A 
ATOM     21  C   UNL A   1      29.615  25.603  23.796  1.00  0.00     0.047 A 
ATOM     22  C   UNL A   1      31.352  25.368  22.158  1.00  0.00     0.047 A 
BRANCH  18  23
ATOM     23  C   UNL A   1      31.041  29.074  23.074  1.00  0.00     0.013 C 
ATOM     24  C   UNL A   1      30.097  29.808  22.124  1.00  0.00     0.012 C 
ATOM     25  C   UNL A   1      30.936  29.660  24.490  1.00  0.00     0.012 C 
ENDBRANCH  18  23
ENDBRANCH  16  17
ENDBRANCH  14  16
ENDBRANCH  11  14
ENDBRANCH   5  10
ENDBRANCH   2   4
ENDBRANCH   1   2
BRANCH   1  26
ATOM     26  C   UNL A   1      35.379  22.231  24.289  1.00  0.00     0.275 C 
BRANCH  26  27
ATOM     27  C   UNL A   1      36.497  21.311  24.802  1.00  0.00     0.275 C 
BRANCH  27  28
ATOM     28  O   UNL A   1      37.814  21.888  24.708  1.00  0.00    -0.458 OA
BRANCH  28  29
ATOM     29  C   UNL A   1      38.684  21.450  25.646  1.00  0.00     0.338 C 
ATOM     30  O   UNL A   1      39.069  20.305  25.820  1.00  0.00    -0.246 OA
BRANCH  29  31
ATOM     31  C   UNL A   1      39.176  22.551  26.491  1.00  0.00     0.060 A 
ATOM     32  C   UNL A   1      38.625  23.825  26.342  1.00  0.00     0.016 A 
ATOM     33  C   UNL A   1      40.355  22.379  27.212  1.00  0.00     0.016 A 
ATOM     34  C   UNL A   1      39.301  24.946  26.806  1.00  0.00     0.010 A 
ATOM     35  C   UNL A   1      41.000  23.500  27.743  1.00  0.00     0.010 A 
ATOM     36  C   UNL A   1      40.506  24.794  27.494  1.00  0.00    -0.014 A 
BRANCH  36  37
ATOM     37  C   UNL A   1      41.317  25.979  27.862  1.00  0.00     0.031 A 
ATOM     38  C   UNL A   1      40.718  27.017  28.767  1.00  0.00     0.074 A 
ATOM     39  C   UNL A   1      42.569  26.129  27.394  1.00  0.00     0.049 A 
ATOM     40  N   UNL A   1      41.106  28.245  28.992  1.00  0.00    -0.248 NA
ATOM     41  C   UNL A   1      39.508  26.622  29.509  1.00  0.00     0.031 C 
ATOM     42  C   UNL A   1      43.305  25.145  26.599  1.00  0.00     0.029 A 
ATOM     43  N   UNL A   1      43.439  27.183  27.512  1.00  0.00    -0.354 N 
ATOM     44  C   UNL A   1      40.149  28.791  29.839  1.00  0.00     0.074 A 
ATOM     45  C   UNL A   1      39.172  27.759  30.103  1.00  0.00     0.031 C 
ATOM     46  C   UNL A   1      44.515  25.644  26.299  1.00  0.00     0.029 A 
ATOM     47  C   UNL A   1      44.599  27.010  26.800  1.00  0.00     0.049 A 
ATOM     48  H   UNL A   1      43.250  27.983  28.053  1.00  0.00     0.167 HD
ATOM     49  C   UNL A   1      40.089  30.051  30.332  1.00  0.00     0.031 A 
ATOM     50  C   UNL A   1      45.588  27.880  26.522  1.00  0.00     0.031 A 
ATOM     51  C   UNL A   1      41.090  31.054  30.079  1.00  0.00     0.049 A 
ATOM     52  C   UNL A   1      45.471  29.291  27.021  1.00  0.00     0.074 A 
ATOM     53  C   UNL A   1      41.129  32.367  30.512  1.00  0.00     0.029 A 
ATOM     54  N   UNL A   1      42.240  30.841  29.334  1.00  0.00    -0.354 N 
ATOM     55  N   UNL A   1      44.524  29.833  27.748  1.00  0.00    -0.248 NA
ATOM     56  C   UNL A   1      46.549  30.216  26.644  1.00  0.00     0.031 C 
ATOM     57  C   UNL A   1      42.284  32.960  29.993  1.00  0.00     0.029 A 
ATOM     58  C   UNL A   1      42.992  32.001  29.284  1.00  0.00     0.049 A 
ATOM     59  H   UNL A   1      42.485  29.991  28.903  1.00  0.00     0.167 HD
ATOM     60  C   UNL A   1      44.900  31.156  27.937  1.00  0.00     0.074 A 
ATOM     61  C   UNL A   1      46.168  31.330  27.255  1.00  0.00     0.031 C 
ATOM     62  C   UNL A   1      44.256  32.139  28.611  1.00  0.00     0.031 A 
BRANCH  49  63
ATOM     63  C   UNL A   1      38.874  30.429  31.131  1.00  0.00    -0.014 A 
ATOM     64  C   UNL A   1      38.836  30.309  32.528  1.00  0.00     0.009 A 
ATOM     65  C   UNL A   1      37.745  30.934  30.465  1.00  0.00     0.009 A 
ATOM     66  C   UNL A   1      37.681  30.653  33.236  1.00  0.00     0.001 A 
ATOM     67  C   UNL A   1      36.602  31.304  31.177  1.00  0.00     0.001 A 
ATOM     68  C   UNL A   1      36.568  31.153  32.561  1.00  0.00     0.000 A 
ENDBRANCH  49  63
BRANCH  50  69
ATOM     69  C   UNL A   1      46.733  27.453  25.675  1.00  0.00    -0.014 A 
ATOM     70  C   UNL A   1      47.760  26.662  26.209  1.00  0.00     0.009 A 
ATOM     71  C   UNL A   1      46.798  27.823  24.321  1.00  0.00     0.009 A 
ATOM     72  C   UNL A   1      48.835  26.264  25.410  1.00  0.00     0.001 A 
ATOM     73  C   UNL A   1      47.855  27.396  23.516  1.00  0.00     0.001 A 
ATOM     74  C   UNL A   1      48.878  26.624  24.063  1.00  0.00     0.000 A 
ENDBRANCH  50  69
BRANCH  62  75
ATOM     75  C   UNL A   1      44.942  33.472  28.695  1.00  0.00    -0.014 A 
ATOM     76  C   UNL A   1      45.861  33.757  29.715  1.00  0.00     0.009 A 
ATOM     77  C   UNL A   1      44.700  34.433  27.701  1.00  0.00     0.009 A 
ATOM     78  C   UNL A   1      46.510  34.993  29.749  1.00  0.00     0.001 A 
ATOM     79  C   UNL A   1      45.368  35.657  27.725  1.00  0.00     0.001 A 
ATOM     80  C   UNL A   1      46.267  35.938  28.753  1.00  0.00     0.000 A 
ENDBRANCH  62  75
ENDBRANCH  36  37
ENDBRANCH  29  31
ENDBRANCH  28  29
ENDBRANCH  27  28
ENDBRANCH  26  27
ENDBRANCH   1  26
TORSDOF 16
ENDMDL
MODEL 2
REMARK VINA RESULT:     -11.0      2.914      6.937
REMARK SMILES CC(C)c1ccc(O[C@H](C)C(=O)Nc2ccccc2C(=O)OCCOC(=O)c2ccc(-c3c4nc(c(-c5ccccc5)c5ccc([nH]5)c(-c5ccccc5)c5nc(c(-c6ccccc6)c6ccc3[nH]6)C=C5)C=C4)cc2)cc1
REMARK SMILES IDX 22 1 20 2 21 3 19 4 14 5 15 6 16 7 18 8 17 9 13 10 11 11
REMARK SMILES IDX 12 12 9 14 10 15 8 16 7 17 4 18 5 19 77 20 6 21 76 22 2 23
REMARK SMILES IDX 1 24 3 25 23 26 24 27 25 28 26 29 27 30 28 31 29 32 75 33
REMARK SMILES IDX 30 34 74 35 31 36 32 37 33 38 68 39 34 40 73 41 67 42 69 43
REMARK SMILES IDX 35 44 72 45 66 46 65 47 36 49 58 50 43 51 57 52 44 53 47 54
REMARK SMILES IDX 56 55 70 56 45 57 46 58 55 60 71 61 48 62 37 63 38 64 42 65
REMARK SMILES IDX 39 66 41 67 40 68 59 69 60 70 64 71 61 72 63 73 62 74 49 75
REMARK SMILES IDX 50 76 54 77 51 78 53 79 52 80
REMARK H PARENT 13 13 69 48 47 59
REMARK Flexibility Score: inf
ROOT
ATOM      1  O   UNL A   1      33.096  29.624  26.299  1.00  0.00    -0.458 OA
ENDROOT
BRANCH   1   2
ATOM      2  C   UNL A   1      32.297  29.506  25.218  1.00  0.00     0.340 C 
ATOM      3  O   UNL A   1      31.299  30.180  25.001  1.00  0.00    -0.246 OA
BRANCH   2   4
ATOM      4  C   UNL A   1      32.712  28.444  24.294  1.00  0.00     0.083 A 
ATOM      5  C   UNL A   1      32.254  28.392  22.970  1.00  0.00     0.055 A 
ATOM      6  C   UNL A   1      32.669  27.335  22.151  1.00  0.00     0.027 A 
ATOM      7  C   UNL A   1      33.621  26.416  22.607  1.00  0.00     0.002 A 
ATOM      8  C   UNL A   1      33.642  27.500  24.755  1.00  0.00     0.018 A 
ATOM      9  C   UNL A   1      34.116  26.504  23.904  1.00  0.00     0.001 A 
BRANCH   5  10
ATOM     10  N   UNL A   1      31.381  29.341  22.404  1.00  0.00    -0.322 N 
ATOM     11  C   UNL A   1      30.036  29.228  22.133  1.00  0.00     0.265 C 
ATOM     12  O   UNL A   1      29.574  29.928  21.224  1.00  0.00    -0.270 OA
ATOM     13  H   UNL A   1      31.789  30.205  22.169  1.00  0.00     0.170 HD
BRANCH  11  14
ATOM     14  C   UNL A   1      29.092  28.404  23.070  1.00  0.00     0.259 C 
ATOM     15  C   UNL A   1      27.695  29.025  23.084  1.00  0.00     0.064 C 
BRANCH  14  16
ATOM     16  O   UNL A   1      29.207  27.005  22.839  1.00  0.00    -0.481 OA
BRANCH  16  17
ATOM     17  C   UNL A   1      29.662  26.170  23.810  1.00  0.00     0.120 A 
ATOM     18  C   UNL A   1      31.196  24.747  25.697  1.00  0.00    -0.045 A 
ATOM     19  C   UNL A   1      30.997  24.243  24.409  1.00  0.00     0.008 A 
ATOM     20  C   UNL A   1      30.561  25.952  26.044  1.00  0.00     0.008 A 
ATOM     21  C   UNL A   1      30.248  24.955  23.477  1.00  0.00     0.047 A 
ATOM     22  C   UNL A   1      29.810  26.667  25.101  1.00  0.00     0.047 A 
BRANCH  18  23
ATOM     23  C   UNL A   1      32.073  24.024  26.703  1.00  0.00     0.013 C 
ATOM     24  C   UNL A   1      31.614  22.575  26.853  1.00  0.00     0.012 C 
ATOM     25  C   UNL A   1      33.569  24.078  26.360  1.00  0.00     0.012 C 
ENDBRANCH  18  23
ENDBRANCH  16  17
ENDBRANCH  14  16
ENDBRANCH  11  14
ENDBRANCH   5  10
ENDBRANCH   2   4
ENDBRANCH   1   2
BRANCH   1  26
ATOM     26  C   UNL A   1      32.595  30.542  27.293  1.00  0.00     0.275 C 
BRANCH  26  27
ATOM     27  C   UNL A   1      33.500  31.747  27.589  1.00  0.00     0.275 C 
BRANCH  27  28
ATOM     28  O   UNL A   1      34.907  31.433  27.579  1.00  0.00    -0.458 OA
BRANCH  28  29
ATOM     29  C   UNL A   1      35.424  31.149  28.796  1.00  0.00     0.338 C 
ATOM     30  O   UNL A   1      35.079  31.612  29.871  1.00  0.00    -0.246 OA
BRANCH  29  31
ATOM     31  C   UNL A   1      36.504  30.152  28.711  1.00  0.00     0.060 A 
ATOM     32  C   UNL A   1      36.942  29.521  29.875  1.00  0.00     0.016 A 
ATOM     33  C   UNL A   1      37.254  30.062  27.540  1.00  0.00     0.016 A 
ATOM     34  C   UNL A   1      38.182  28.895  29.916  1.00  0.00     0.010 A 
ATOM     35  C   UNL A   1      38.469  29.371  27.561  1.00  0.00     0.010 A 
ATOM     36  C   UNL A   1      38.966  28.833  28.763  1.00  0.00    -0.014 A 
BRANCH  36  37
ATOM     37  C   UNL A   1      40.350  28.308  28.822  1.00  0.00     0.031 A 
ATOM     38  C   UNL A   1      41.473  29.251  29.151  1.00  0.00     0.074 A 
ATOM     39  C   UNL A   1      40.606  27.009  28.584  1.00  0.00     0.049 A 
ATOM     40  N   UNL A   1      42.760  29.099  28.984  1.00  0.00    -0.248 NA
ATOM     41  C   UNL A   1      41.089  30.547  29.736  1.00  0.00     0.031 C 
ATOM     42  C   UNL A   1      39.599  25.970  28.362  1.00  0.00     0.029 A 
ATOM     43  N   UNL A   1      41.801  26.346  28.475  1.00  0.00    -0.354 N 
ATOM     44  C   UNL A   1      43.332  30.305  29.370  1.00  0.00     0.074 A 
ATOM     45  C   UNL A   1      42.257  31.171  29.797  1.00  0.00     0.031 C 
ATOM     46  C   UNL A   1      40.220  24.801  28.141  1.00  0.00     0.029 A 
ATOM     47  C   UNL A   1      41.659  25.029  28.115  1.00  0.00     0.049 A 
ATOM     48  H   UNL A   1      42.674  26.771  28.639  1.00  0.00     0.167 HD
ATOM     49  C   UNL A   1      44.641  30.656  29.347  1.00  0.00     0.031 A 
ATOM     50  C   UNL A   1      42.582  24.125  27.736  1.00  0.00     0.031 A 
ATOM     51  C   UNL A   1      45.697  29.765  28.945  1.00  0.00     0.049 A 
ATOM     52  C   UNL A   1      44.020  24.552  27.652  1.00  0.00     0.074 A 
ATOM     53  C   UNL A   1      47.056  30.012  28.867  1.00  0.00     0.029 A 
ATOM     54  N   UNL A   1      45.505  28.445  28.566  1.00  0.00    -0.354 N 
ATOM     55  N   UNL A   1      44.552  25.717  27.933  1.00  0.00    -0.248 NA
ATOM     56  C   UNL A   1      44.981  23.546  27.180  1.00  0.00     0.031 C 
ATOM     57  C   UNL A   1      47.681  28.852  28.402  1.00  0.00     0.029 A 
ATOM     58  C   UNL A   1      46.720  27.866  28.242  1.00  0.00     0.049 A 
ATOM     59  H   UNL A   1      44.635  27.987  28.531  1.00  0.00     0.167 HD
ATOM     60  C   UNL A   1      45.913  25.581  27.695  1.00  0.00     0.074 A 
ATOM     61  C   UNL A   1      46.124  24.215  27.256  1.00  0.00     0.031 C 
ATOM     62  C   UNL A   1      46.899  26.500  27.825  1.00  0.00     0.031 A 
BRANCH  49  63
ATOM     63  C   UNL A   1      44.987  32.074  29.701  1.00  0.00    -0.014 A 
ATOM     64  C   UNL A   1      44.997  33.098  28.741  1.00  0.00     0.009 A 
ATOM     65  C   UNL A   1      45.295  32.393  31.034  1.00  0.00     0.009 A 
ATOM     66  C   UNL A   1      45.342  34.403  29.104  1.00  0.00     0.001 A 
ATOM     67  C   UNL A   1      45.612  33.703  31.399  1.00  0.00     0.001 A 
ATOM     68  C   UNL A   1      45.646  34.705  30.431  1.00  0.00     0.000 A 
ENDBRANCH  49  63
BRANCH  50  69
ATOM     69  C   UNL A   1      42.160  22.756  27.342  1.00  0.00    -0.014 A 
ATOM     70  C   UNL A   1      41.704  22.495  26.043  1.00  0.00     0.009 A 
ATOM     71  C   UNL A   1      42.225  21.696  28.263  1.00  0.00     0.009 A 
ATOM     72  C   UNL A   1      41.307  21.206  25.677  1.00  0.00     0.001 A 
ATOM     73  C   UNL A   1      41.860  20.403  27.886  1.00  0.00     0.001 A 
ATOM     74  C   UNL A   1      41.393  20.160  26.596  1.00  0.00     0.000 A 
ENDBRANCH  50  69
BRANCH  62  75
ATOM     75  C   UNL A   1      48.301  26.042  27.548  1.00  0.00    -0.014 A 
ATOM     76  C   UNL A   1      48.892  26.219  26.288  1.00  0.00     0.009 A 
ATOM     77  C   UNL A   1      49.057  25.475  28.586  1.00  0.00     0.009 A 
ATOM     78  C   UNL A   1      50.210  25.813  26.068  1.00  0.00     0.001 A 
ATOM     79  C   UNL A   1      50.381  25.094  28.369  1.00  0.00     0.001 A 
ATOM     80  C   UNL A   1      50.954  25.258  27.109  1.00  0.00     0.000 A 
ENDBRANCH  62  75
ENDBRANCH  36  37
ENDBRANCH  29  31
ENDBRANCH  28  29
ENDBRANCH  27  28
ENDBRANCH  26  27
ENDBRANCH   1  26
TORSDOF 16
ENDMDL
MODEL 3
REMARK VINA RESULT:     -10.7      2.417      6.954
REMARK SMILES CC(C)c1ccc(O[C@H](C)C(=O)Nc2ccccc2C(=O)OCCOC(=O)c2ccc(-c3c4nc(c(-c5ccccc5)c5ccc([nH]5)c(-c5ccccc5)c5nc(c(-c6ccccc6)c6ccc3[nH]6)C=C5)C=C4)cc2)cc1
REMARK SMILES IDX 22 1 20 2 21 3 19 4 14 5 15 6 16 7 18 8 17 9 13 10 11 11
REMARK SMILES IDX 12 12 9 14 10 15 8 16 7 17 4 18 5 19 77 20 6 21 76 22 2 23
REMARK SMILES IDX 1 24 3 25 23 26 24 27 25 28 26 29 27 30 28 31 29 32 75 33
REMARK SMILES IDX 30 34 74 35 31 36 32 37 33 38 68 39 34 40 73 41 67 42 69 43
REMARK SMILES IDX 35 44 72 45 66 46 65 47 36 49 58 50 43 51 57 52 44 53 47 54
REMARK SMILES IDX 56 55 70 56 45 57 46 58 55 60 71 61 48 62 37 63 38 64 42 65
REMARK SMILES IDX 39 66 41 67 40 68 59 69 60 70 64 71 61 72 63 73 62 74 49 75
REMARK SMILES IDX 50 76 54 77 51 78 53 79 52 80
REMARK H PARENT 13 13 69 48 47 59
REMARK Flexibility Score: inf
ROOT
ATOM      1  O   UNL A   1      32.193  28.355  26.763  1.00  0.00    -0.458 OA
ENDROOT
BRANCH   1   2
ATOM      2  C   UNL A   1      32.349  28.006  25.469  1.00  0.00     0.340 C 
ATOM      3  O   UNL A   1      33.415  27.984  24.868  1.00  0.00    -0.246 OA
BRANCH   2   4
ATOM      4  C   UNL A   1      31.089  27.672  24.795  1.00  0.00     0.083 A 
ATOM      5  C   UNL A   1      30.302  26.582  25.193  1.00  0.00     0.055 A 
ATOM      6  C   UNL A   1      29.125  26.305  24.487  1.00  0.00     0.027 A 
ATOM      7  C   UNL A   1      28.678  27.172  23.482  1.00  0.00     0.002 A 
ATOM      8  C   UNL A   1      30.652  28.518  23.765  1.00  0.00     0.018 A 
ATOM      9  C   UNL A   1      29.435  28.284  23.129  1.00  0.00     0.001 A 
BRANCH   5  10
ATOM     10  N   UNL A   1      30.627  25.728  26.263  1.00  0.00    -0.322 N 
ATOM     11  C   UNL A   1      30.974  24.396  26.235  1.00  0.00     0.265 C 
ATOM     12  O   UNL A   1      30.740  23.723  27.245  1.00  0.00    -0.270 OA
ATOM     13  H   UNL A   1      30.604  26.141  27.157  1.00  0.00     0.170 HD
BRANCH  11  14
ATOM     14  C   UNL A   1      31.815  23.808  25.055  1.00  0.00     0.259 C 
ATOM     15  C   UNL A   1      30.890  23.372  23.918  1.00  0.00     0.064 C 
BRANCH  14  16
ATOM     16  O   UNL A   1      32.931  24.633  24.739  1.00  0.00    -0.481 OA
BRANCH  16  17
ATOM     17  C   UNL A   1      34.174  24.103  24.594  1.00  0.00     0.120 A 
ATOM     18  C   UNL A   1      36.538  22.581  24.778  1.00  0.00    -0.045 A 
ATOM     19  C   UNL A   1      36.386  23.760  25.513  1.00  0.00     0.008 A 
ATOM     20  C   UNL A   1      35.506  22.208  23.900  1.00  0.00     0.008 A 
ATOM     21  C   UNL A   1      35.212  24.502  25.427  1.00  0.00     0.047 A 
ATOM     22  C   UNL A   1      34.324  22.956  23.820  1.00  0.00     0.047 A 
BRANCH  18  23
ATOM     23  C   UNL A   1      37.778  21.717  24.917  1.00  0.00     0.013 C 
ATOM     24  C   UNL A   1      38.594  22.161  26.129  1.00  0.00     0.012 C 
ATOM     25  C   UNL A   1      37.470  20.215  25.001  1.00  0.00     0.012 C 
ENDBRANCH  18  23
ENDBRANCH  16  17
ENDBRANCH  14  16
ENDBRANCH  11  14
ENDBRANCH   5  10
ENDBRANCH   2   4
ENDBRANCH   1   2
BRANCH   1  26
ATOM     26  C   UNL A   1      32.748  29.647  27.087  1.00  0.00     0.275 C 
BRANCH  26  27
ATOM     27  C   UNL A   1      34.241  29.649  27.447  1.00  0.00     0.275 C 
BRANCH  27  28
ATOM     28  O   UNL A   1      34.752  30.950  27.801  1.00  0.00    -0.458 OA
BRANCH  28  29
ATOM     29  C   UNL A   1      35.588  30.951  28.863  1.00  0.00     0.338 C 
ATOM     30  O   UNL A   1      35.499  31.630  29.874  1.00  0.00    -0.246 OA
BRANCH  29  31
ATOM     31  C   UNL A   1      36.686  29.984  28.695  1.00  0.00     0.060 A 
ATOM     32  C   UNL A   1      37.153  29.281  29.806  1.00  0.00     0.016 A 
ATOM     33  C   UNL A   1      37.422  29.991  27.512  1.00  0.00     0.016 A 
ATOM     34  C   UNL A   1      38.405  28.679  29.787  1.00  0.00     0.010 A 
ATOM     35  C   UNL A   1      38.650  29.325  27.468  1.00  0.00     0.010 A 
ATOM     36  C   UNL A   1      39.173  28.714  28.622  1.00  0.00    -0.014 A 
BRANCH  36  37
ATOM     37  C   UNL A   1      40.568  28.214  28.627  1.00  0.00     0.031 A 
ATOM     38  C   UNL A   1      41.686  29.179  28.904  1.00  0.00     0.074 A 
ATOM     39  C   UNL A   1      40.837  26.918  28.386  1.00  0.00     0.049 A 
ATOM     40  N   UNL A   1      42.968  29.049  28.684  1.00  0.00    -0.248 NA
ATOM     41  C   UNL A   1      41.304  30.472  29.497  1.00  0.00     0.031 C 
ATOM     42  C   UNL A   1      39.840  25.860  28.213  1.00  0.00     0.029 A 
ATOM     43  N   UNL A   1      42.038  26.275  28.232  1.00  0.00    -0.354 N 
ATOM     44  C   UNL A   1      43.534  30.267  29.039  1.00  0.00     0.074 A 
ATOM     45  C   UNL A   1      42.463  31.117  29.505  1.00  0.00     0.031 C 
ATOM     46  C   UNL A   1      40.473  24.700  27.973  1.00  0.00     0.029 A 
ATOM     47  C   UNL A   1      41.906  24.954  27.886  1.00  0.00     0.049 A 
ATOM     48  H   UNL A   1      42.909  26.717  28.357  1.00  0.00     0.167 HD
ATOM     49  C   UNL A   1      44.834  30.640  28.959  1.00  0.00     0.031 A 
ATOM     50  C   UNL A   1      42.828  24.064  27.474  1.00  0.00     0.031 A 
ATOM     51  C   UNL A   1      45.888  29.766  28.518  1.00  0.00     0.049 A 
ATOM     52  C   UNL A   1      44.253  24.516  27.328  1.00  0.00     0.074 A 
ATOM     53  C   UNL A   1      47.238  30.037  28.383  1.00  0.00     0.029 A 
ATOM     54  N   UNL A   1      45.705  28.440  28.156  1.00  0.00    -0.354 N 
ATOM     55  N   UNL A   1      44.775  25.692  27.579  1.00  0.00    -0.248 NA
ATOM     56  C   UNL A   1      45.211  23.524  26.822  1.00  0.00     0.031 C 
ATOM     57  C   UNL A   1      47.865  28.884  27.899  1.00  0.00     0.029 A 
ATOM     58  C   UNL A   1      46.915  27.880  27.785  1.00  0.00     0.049 A 
ATOM     59  H   UNL A   1      44.842  27.967  28.160  1.00  0.00     0.167 HD
ATOM     60  C   UNL A   1      46.127  25.578  27.286  1.00  0.00     0.074 A 
ATOM     61  C   UNL A   1      46.344  24.213  26.847  1.00  0.00     0.031 C 
ATOM     62  C   UNL A   1      47.101  26.515  27.369  1.00  0.00     0.031 A 
BRANCH  49  63
ATOM     63  C   UNL A   1      45.169  32.067  29.290  1.00  0.00    -0.014 A 
ATOM     64  C   UNL A   1      45.250  33.060  28.301  1.00  0.00     0.009 A 
ATOM     65  C   UNL A   1      45.394  32.427  30.629  1.00  0.00     0.009 A 
ATOM     66  C   UNL A   1      45.582  34.373  28.644  1.00  0.00     0.001 A 
ATOM     67  C   UNL A   1      45.697  33.746  30.972  1.00  0.00     0.001 A 
ATOM     68  C   UNL A   1      45.803  34.715  29.978  1.00  0.00     0.000 A 
ENDBRANCH  49  63
BRANCH  50  69
ATOM     69  C   UNL A   1      42.415  22.685  27.107  1.00  0.00    -0.014 A 
ATOM     70  C   UNL A   1      42.388  22.281  25.764  1.00  0.00     0.009 A 
ATOM     71  C   UNL A   1      42.057  21.757  28.100  1.00  0.00     0.009 A 
ATOM     72  C   UNL A   1      41.998  20.983  25.423  1.00  0.00     0.001 A 
ATOM     73  C   UNL A   1      41.700  20.452  27.760  1.00  0.00     0.001 A 
ATOM     74  C   UNL A   1      41.662  20.068  26.421  1.00  0.00     0.000 A 
ENDBRANCH  50  69
BRANCH  62  75
ATOM     75  C   UNL A   1      48.499  26.080  27.036  1.00  0.00    -0.014 A 
ATOM     76  C   UNL A   1      49.064  26.338  25.779  1.00  0.00     0.009 A 
ATOM     77  C   UNL A   1      49.276  25.452  28.022  1.00  0.00     0.009 A 
ATOM     78  C   UNL A   1      50.379  25.951  25.508  1.00  0.00     0.001 A 
ATOM     79  C   UNL A   1      50.597  25.090  27.756  1.00  0.00     0.001 A 
ATOM     80  C   UNL A   1      51.144  25.334  26.497  1.00  0.00     0.000 A 
ENDBRANCH  62  75
ENDBRANCH  36  37
ENDBRANCH  29  31
ENDBRANCH  28  29
ENDBRANCH  27  28
ENDBRANCH  26  27
ENDBRANCH   1  26
TORSDOF 16
ENDMDL
