MODEL 1
REMARK VINA RESULT:     -10.2      0.000      0.000
REMARK SMILES CC[N@@H+](C[C@@H]1CCCO1)[C@@H](C)c1ccc(C(=O)OCCOC(=O)c2ccc(-c3c4nc(c(-c5ccccc5)c5ccc([nH]5)c(-c5ccccc5)c5nc(c(-c6ccccc6)c6ccc3[nH]6)C=C5)C=C4)cc2)o1
REMARK SMILES IDX 19 1 18 2 16 3 17 4 15 5 12 6 13 7 72 8 14 9 10 10 11 11
REMARK SMILES IDX 3 12 2 14 1 15 4 16 5 17 6 18 9 19 7 20 8 21 20 22 21 23
REMARK SMILES IDX 22 24 23 25 24 26 25 27 71 28 26 29 70 30 27 31 28 32 29 33
REMARK SMILES IDX 64 34 30 35 69 36 63 37 65 38 31 39 68 40 62 41 61 42 32 44
REMARK SMILES IDX 54 45 39 46 53 47 40 48 43 49 52 50 66 51 41 52 42 53 51 55
REMARK SMILES IDX 67 56 44 57 33 58 34 59 38 60 35 61 37 62 36 63 55 64 56 65
REMARK SMILES IDX 60 66 57 67 59 68 58 69 45 70 46 71 50 72 47 73 49 74 48 75
REMARK H PARENT 3 13 65 43 43 54
REMARK Flexibility Score: inf
ROOT
ATOM      1  C   UNL A   1      42.317  20.184  26.340  1.00  0.00     0.275 C 
ENDROOT
BRANCH   1   2
ATOM      2  O   UNL A   1      41.079  20.855  26.631  1.00  0.00    -0.456 OA
BRANCH   2   3
ATOM      3  C   UNL A   1      39.978  20.396  25.967  1.00  0.00     0.374 C 
ATOM      4  O   UNL A   1      39.799  19.225  25.648  1.00  0.00    -0.242 OA
BRANCH   3   5
ATOM      5  C   UNL A   1      39.014  21.461  25.825  1.00  0.00     0.212 A 
ATOM      6  C   UNL A   1      36.986  22.231  25.391  1.00  0.00     0.162 A 
ATOM      7  C   UNL A   1      37.671  23.252  26.018  1.00  0.00     0.053 A 
ATOM      8  O   UNL A   1      37.817  21.160  25.233  1.00  0.00    -0.448 OA
ATOM      9  C   UNL A   1      38.979  22.769  26.271  1.00  0.00     0.059 A 
BRANCH   6  10
ATOM     10  C   UNL A   1      35.560  22.080  24.923  1.00  0.00     0.248 C 
ATOM     11  C   UNL A   1      35.091  23.281  24.087  1.00  0.00     0.084 C 
BRANCH  10  12
ATOM     12  N   UNL A   1      34.640  21.655  26.009  1.00  0.00    -0.324 N 
ATOM     13  H   UNL A   1      35.203  20.978  26.525  1.00  0.00     0.348 HD
BRANCH  12  14
ATOM     14  C   UNL A   1      34.307  22.646  27.038  1.00  0.00     0.259 C 
ATOM     15  C   UNL A   1      32.965  22.500  27.745  1.00  0.00     0.071 C 
ENDBRANCH  12  14
BRANCH  12  16
ATOM     16  C   UNL A   1      33.427  20.978  25.476  1.00  0.00     0.295 C 
BRANCH  16  17
ATOM     17  C   UNL A   1      33.385  19.432  25.421  1.00  0.00     0.173 C 
ATOM     18  C   UNL A   1      34.369  18.760  24.477  1.00  0.00     0.040 C 
ATOM     19  O   UNL A   1      32.091  18.979  24.967  1.00  0.00    -0.372 OA
ATOM     20  C   UNL A   1      33.748  17.392  24.342  1.00  0.00     0.031 C 
ATOM     21  C   UNL A   1      32.267  17.709  24.317  1.00  0.00     0.161 C 
ENDBRANCH  16  17
ENDBRANCH  12  16
ENDBRANCH  10  12
ENDBRANCH   6  10
ENDBRANCH   3   5
ENDBRANCH   2   3
ENDBRANCH   1   2
BRANCH   1  22
ATOM     22  C   UNL A   1      43.316  21.170  25.725  1.00  0.00     0.275 C 
BRANCH  22  23
ATOM     23  O   UNL A   1      42.654  22.340  25.203  1.00  0.00    -0.458 OA
BRANCH  23  24
ATOM     24  C   UNL A   1      43.399  23.470  25.179  1.00  0.00     0.338 C 
ATOM     25  O   UNL A   1      44.311  23.738  24.416  1.00  0.00    -0.246 OA
BRANCH  24  26
ATOM     26  C   UNL A   1      42.884  24.424  26.176  1.00  0.00     0.060 A 
ATOM     27  C   UNL A   1      43.351  25.738  26.140  1.00  0.00     0.016 A 
ATOM     28  C   UNL A   1      42.023  24.010  27.191  1.00  0.00     0.016 A 
ATOM     29  C   UNL A   1      42.976  26.644  27.127  1.00  0.00     0.010 A 
ATOM     30  C   UNL A   1      41.628  24.928  28.173  1.00  0.00     0.010 A 
ATOM     31  C   UNL A   1      42.114  26.248  28.156  1.00  0.00    -0.014 A 
BRANCH  31  32
ATOM     32  C   UNL A   1      41.752  27.214  29.224  1.00  0.00     0.031 A 
ATOM     33  C   UNL A   1      42.572  27.290  30.482  1.00  0.00     0.074 A 
ATOM     34  C   UNL A   1      40.703  28.041  29.056  1.00  0.00     0.049 A 
ATOM     35  N   UNL A   1      42.378  28.017  31.553  1.00  0.00    -0.248 NA
ATOM     36  C   UNL A   1      43.766  26.433  30.543  1.00  0.00     0.031 C 
ATOM     37  C   UNL A   1      39.859  28.105  27.862  1.00  0.00     0.029 A 
ATOM     38  N   UNL A   1      40.170  28.989  29.893  1.00  0.00    -0.354 N 
ATOM     39  C   UNL A   1      43.411  27.690  32.424  1.00  0.00     0.074 A 
ATOM     40  C   UNL A   1      44.215  26.683  31.764  1.00  0.00     0.031 C 
ATOM     41  C   UNL A   1      38.922  29.050  28.039  1.00  0.00     0.029 A 
ATOM     42  C   UNL A   1      39.065  29.619  29.374  1.00  0.00     0.049 A 
ATOM     43  H   UNL A   1      40.545  29.200  30.779  1.00  0.00     0.167 HD
ATOM     44  C   UNL A   1      43.665  28.185  33.659  1.00  0.00     0.031 A 
ATOM     45  C   UNL A   1      38.240  30.530  29.925  1.00  0.00     0.031 A 
ATOM     46  C   UNL A   1      42.864  29.187  34.313  1.00  0.00     0.049 A 
ATOM     47  C   UNL A   1      38.501  31.008  31.326  1.00  0.00     0.074 A 
ATOM     48  C   UNL A   1      43.048  29.760  35.560  1.00  0.00     0.029 A 
ATOM     49  N   UNL A   1      41.727  29.766  33.772  1.00  0.00    -0.354 N 
ATOM     50  N   UNL A   1      39.478  30.689  32.140  1.00  0.00    -0.248 NA
ATOM     51  C   UNL A   1      37.544  31.973  31.885  1.00  0.00     0.031 C 
ATOM     52  C   UNL A   1      41.991  30.643  35.796  1.00  0.00     0.029 A 
ATOM     53  C   UNL A   1      41.183  30.669  34.671  1.00  0.00     0.049 A 
ATOM     54  H   UNL A   1      41.360  29.566  32.881  1.00  0.00     0.167 HD
ATOM     55  C   UNL A   1      39.270  31.433  33.293  1.00  0.00     0.074 A 
ATOM     56  C   UNL A   1      38.081  32.229  33.069  1.00  0.00     0.031 C 
ATOM     57  C   UNL A   1      40.000  31.455  34.435  1.00  0.00     0.031 A 
BRANCH  44  58
ATOM     58  C   UNL A   1      44.839  27.613  34.405  1.00  0.00    -0.014 A 
ATOM     59  C   UNL A   1      46.116  28.189  34.320  1.00  0.00     0.009 A 
ATOM     60  C   UNL A   1      44.654  26.496  35.236  1.00  0.00     0.009 A 
ATOM     61  C   UNL A   1      47.190  27.635  35.020  1.00  0.00     0.001 A 
ATOM     62  C   UNL A   1      45.723  25.962  35.957  1.00  0.00     0.001 A 
ATOM     63  C   UNL A   1      46.992  26.526  35.841  1.00  0.00     0.000 A 
ENDBRANCH  44  58
BRANCH  45  64
ATOM     64  C   UNL A   1      37.068  31.030  29.158  1.00  0.00    -0.014 A 
ATOM     65  C   UNL A   1      35.987  30.185  28.869  1.00  0.00     0.009 A 
ATOM     66  C   UNL A   1      37.029  32.360  28.708  1.00  0.00     0.009 A 
ATOM     67  C   UNL A   1      34.902  30.654  28.124  1.00  0.00     0.001 A 
ATOM     68  C   UNL A   1      35.930  32.835  27.990  1.00  0.00     0.001 A 
ATOM     69  C   UNL A   1      34.872  31.979  27.691  1.00  0.00     0.000 A 
ENDBRANCH  45  64
BRANCH  57  70
ATOM     70  C   UNL A   1      39.558  32.402  35.516  1.00  0.00    -0.014 A 
ATOM     71  C   UNL A   1      40.033  33.721  35.573  1.00  0.00     0.009 A 
ATOM     72  C   UNL A   1      38.620  31.974  36.469  1.00  0.00     0.009 A 
ATOM     73  C   UNL A   1      39.599  34.583  36.584  1.00  0.00     0.001 A 
ATOM     74  C   UNL A   1      38.166  32.847  37.459  1.00  0.00     0.001 A 
ATOM     75  C   UNL A   1      38.663  34.148  37.521  1.00  0.00     0.000 A 
ENDBRANCH  57  70
ENDBRANCH  31  32
ENDBRANCH  24  26
ENDBRANCH  23  24
ENDBRANCH  22  23
ENDBRANCH   1  22
TORSDOF 16
ENDMDL
MODEL 2
REMARK VINA RESULT:     -10.0      4.199      8.029
REMARK SMILES CC[N@@H+](C[C@@H]1CCCO1)[C@@H](C)c1ccc(C(=O)OCCOC(=O)c2ccc(-c3c4nc(c(-c5ccccc5)c5ccc([nH]5)c(-c5ccccc5)c5nc(c(-c6ccccc6)c6ccc3[nH]6)C=C5)C=C4)cc2)o1
REMARK SMILES IDX 19 1 18 2 16 3 17 4 15 5 12 6 13 7 72 8 14 9 10 10 11 11
REMARK SMILES IDX 3 12 2 14 1 15 4 16 5 17 6 18 9 19 7 20 8 21 20 22 21 23
REMARK SMILES IDX 22 24 23 25 24 26 25 27 71 28 26 29 70 30 27 31 28 32 29 33
REMARK SMILES IDX 64 34 30 35 69 36 63 37 65 38 31 39 68 40 62 41 61 42 32 44
REMARK SMILES IDX 54 45 39 46 53 47 40 48 43 49 52 50 66 51 41 52 42 53 51 55
REMARK SMILES IDX 67 56 44 57 33 58 34 59 38 60 35 61 37 62 36 63 55 64 56 65
REMARK SMILES IDX 60 66 57 67 59 68 58 69 45 70 46 71 50 72 47 73 49 74 48 75
REMARK H PARENT 3 13 65 43 43 54
REMARK Flexibility Score: inf
ROOT
ATOM      1  C   UNL A   1      35.968  21.598  24.671  1.00  0.00     0.275 C 
ENDROOT
BRANCH   1   2
ATOM      2  O   UNL A   1      35.644  22.485  23.586  1.00  0.00    -0.456 OA
BRANCH   2   3
ATOM      3  C   UNL A   1      34.353  22.924  23.535  1.00  0.00     0.374 C 
ATOM      4  O   UNL A   1      33.395  22.224  23.226  1.00  0.00    -0.242 OA
BRANCH   3   5
ATOM      5  C   UNL A   1      34.278  24.279  24.029  1.00  0.00     0.212 A 
ATOM      6  C   UNL A   1      33.644  26.393  23.878  1.00  0.00     0.162 A 
ATOM      7  C   UNL A   1      34.024  26.187  25.189  1.00  0.00     0.053 A 
ATOM      8  O   UNL A   1      33.843  25.247  23.164  1.00  0.00    -0.448 OA
ATOM      9  C   UNL A   1      34.457  24.840  25.279  1.00  0.00     0.059 A 
BRANCH   6  10
ATOM     10  C   UNL A   1      33.041  27.570  23.151  1.00  0.00     0.248 C 
ATOM     11  C   UNL A   1      34.066  28.687  22.901  1.00  0.00     0.084 C 
BRANCH  10  12
ATOM     12  N   UNL A   1      31.746  28.004  23.734  1.00  0.00    -0.324 N 
ATOM     13  H   UNL A   1      31.532  27.251  24.387  1.00  0.00     0.348 HD
BRANCH  12  14
ATOM     14  C   UNL A   1      31.761  29.187  24.603  1.00  0.00     0.259 C 
ATOM     15  C   UNL A   1      31.763  28.952  26.108  1.00  0.00     0.071 C 
ENDBRANCH  12  14
BRANCH  12  16
ATOM     16  C   UNL A   1      30.673  28.082  22.708  1.00  0.00     0.295 C 
BRANCH  16  17
ATOM     17  C   UNL A   1      29.704  29.289  22.715  1.00  0.00     0.173 C 
ATOM     18  C   UNL A   1      28.235  28.977  22.955  1.00  0.00     0.040 C 
ATOM     19  O   UNL A   1      29.720  29.956  21.434  1.00  0.00    -0.372 OA
ATOM     20  C   UNL A   1      27.588  30.242  22.447  1.00  0.00     0.031 C 
ATOM     21  C   UNL A   1      28.440  30.580  21.241  1.00  0.00     0.161 C 
ENDBRANCH  16  17
ENDBRANCH  12  16
ENDBRANCH  10  12
ENDBRANCH   6  10
ENDBRANCH   3   5
ENDBRANCH   2   3
ENDBRANCH   1   2
BRANCH   1  22
ATOM     22  C   UNL A   1      37.477  21.620  24.933  1.00  0.00     0.275 C 
BRANCH  22  23
ATOM     23  O   UNL A   1      37.889  22.848  25.567  1.00  0.00    -0.458 OA
BRANCH  23  24
ATOM     24  C   UNL A   1      39.090  22.810  26.191  1.00  0.00     0.338 C 
ATOM     25  O   UNL A   1      39.889  21.890  26.198  1.00  0.00    -0.246 OA
BRANCH  24  26
ATOM     26  C   UNL A   1      39.367  24.116  26.812  1.00  0.00     0.060 A 
ATOM     27  C   UNL A   1      40.080  25.062  26.076  1.00  0.00     0.016 A 
ATOM     28  C   UNL A   1      39.011  24.375  28.135  1.00  0.00     0.016 A 
ATOM     29  C   UNL A   1      40.459  26.267  26.660  1.00  0.00     0.010 A 
ATOM     30  C   UNL A   1      39.374  25.596  28.717  1.00  0.00     0.010 A 
ATOM     31  C   UNL A   1      40.113  26.546  27.988  1.00  0.00    -0.014 A 
BRANCH  31  32
ATOM     32  C   UNL A   1      40.556  27.818  28.612  1.00  0.00     0.031 A 
ATOM     33  C   UNL A   1      39.580  28.946  28.800  1.00  0.00     0.074 A 
ATOM     34  C   UNL A   1      41.828  27.953  29.032  1.00  0.00     0.049 A 
ATOM     35  N   UNL A   1      39.791  30.153  29.262  1.00  0.00    -0.248 NA
ATOM     36  C   UNL A   1      38.185  28.682  28.417  1.00  0.00     0.031 C 
ATOM     37  C   UNL A   1      42.859  26.917  28.956  1.00  0.00     0.029 A 
ATOM     38  N   UNL A   1      42.469  29.020  29.611  1.00  0.00    -0.354 N 
ATOM     39  C   UNL A   1      38.562  30.799  29.203  1.00  0.00     0.074 A 
ATOM     40  C   UNL A   1      37.617  29.857  28.642  1.00  0.00     0.031 C 
ATOM     41  C   UNL A   1      43.999  27.396  29.479  1.00  0.00     0.029 A 
ATOM     42  C   UNL A   1      43.796  28.785  29.876  1.00  0.00     0.049 A 
ATOM     43  H   UNL A   1      42.020  29.872  29.818  1.00  0.00     0.167 HD
ATOM     44  C   UNL A   1      38.250  32.061  29.584  1.00  0.00     0.031 A 
ATOM     45  C   UNL A   1      44.750  29.605  30.356  1.00  0.00     0.031 A 
ATOM     46  C   UNL A   1      39.191  32.996  30.143  1.00  0.00     0.049 A 
ATOM     47  C   UNL A   1      44.394  31.025  30.701  1.00  0.00     0.074 A 
ATOM     48  C   UNL A   1      38.968  34.295  30.570  1.00  0.00     0.029 A 
ATOM     49  N   UNL A   1      40.536  32.733  30.354  1.00  0.00    -0.354 N 
ATOM     50  N   UNL A   1      43.230  31.624  30.640  1.00  0.00    -0.248 NA
ATOM     51  C   UNL A   1      45.487  31.881  31.183  1.00  0.00     0.031 C 
ATOM     52  C   UNL A   1      40.189  34.835  30.985  1.00  0.00     0.029 A 
ATOM     53  C   UNL A   1      41.160  33.854  30.878  1.00  0.00     0.049 A 
ATOM     54  H   UNL A   1      40.982  31.878  30.159  1.00  0.00     0.167 HD
ATOM     55  C   UNL A   1      43.443  32.916  31.100  1.00  0.00     0.074 A 
ATOM     56  C   UNL A   1      44.846  33.010  31.450  1.00  0.00     0.031 C 
ATOM     57  C   UNL A   1      42.557  33.933  31.223  1.00  0.00     0.031 A 
BRANCH  44  58
ATOM     58  C   UNL A   1      36.834  32.520  29.366  1.00  0.00    -0.014 A 
ATOM     59  C   UNL A   1      36.422  33.075  28.144  1.00  0.00     0.009 A 
ATOM     60  C   UNL A   1      35.890  32.363  30.392  1.00  0.00     0.009 A 
ATOM     61  C   UNL A   1      35.101  33.496  27.969  1.00  0.00     0.001 A 
ATOM     62  C   UNL A   1      34.565  32.758  30.205  1.00  0.00     0.001 A 
ATOM     63  C   UNL A   1      34.173  33.334  28.997  1.00  0.00     0.000 A 
ENDBRANCH  44  58
BRANCH  45  64
ATOM     64  C   UNL A   1      46.145  29.112  30.511  1.00  0.00    -0.014 A 
ATOM     65  C   UNL A   1      47.062  29.214  29.456  1.00  0.00     0.009 A 
ATOM     66  C   UNL A   1      46.561  28.531  31.720  1.00  0.00     0.009 A 
ATOM     67  C   UNL A   1      48.363  28.723  29.600  1.00  0.00     0.001 A 
ATOM     68  C   UNL A   1      47.870  28.070  31.871  1.00  0.00     0.001 A 
ATOM     69  C   UNL A   1      48.767  28.158  30.808  1.00  0.00     0.000 A 
ENDBRANCH  45  64
BRANCH  57  70
ATOM     70  C   UNL A   1      43.066  35.225  31.798  1.00  0.00    -0.014 A 
ATOM     71  C   UNL A   1      43.627  36.219  30.982  1.00  0.00     0.009 A 
ATOM     72  C   UNL A   1      42.945  35.464  33.176  1.00  0.00     0.009 A 
ATOM     73  C   UNL A   1      44.086  37.415  31.541  1.00  0.00     0.001 A 
ATOM     74  C   UNL A   1      43.377  36.671  33.727  1.00  0.00     0.001 A 
ATOM     75  C   UNL A   1      43.955  37.642  32.911  1.00  0.00     0.000 A 
ENDBRANCH  57  70
ENDBRANCH  31  32
ENDBRANCH  24  26
ENDBRANCH  23  24
ENDBRANCH  22  23
ENDBRANCH   1  22
TORSDOF 16
ENDMDL
MODEL 3
REMARK VINA RESULT:     -10.0      4.420      6.292
REMARK SMILES CC[N@@H+](C[C@@H]1CCCO1)[C@@H](C)c1ccc(C(=O)OCCOC(=O)c2ccc(-c3c4nc(c(-c5ccccc5)c5ccc([nH]5)c(-c5ccccc5)c5nc(c(-c6ccccc6)c6ccc3[nH]6)C=C5)C=C4)cc2)o1
REMARK SMILES IDX 19 1 18 2 16 3 17 4 15 5 12 6 13 7 72 8 14 9 10 10 11 11
REMARK SMILES IDX 3 12 2 14 1 15 4 16 5 17 6 18 9 19 7 20 8 21 20 22 21 23
REMARK SMILES IDX 22 24 23 25 24 26 25 27 71 28 26 29 70 30 27 31 28 32 29 33
REMARK SMILES IDX 64 34 30 35 69 36 63 37 65 38 31 39 68 40 62 41 61 42 32 44
REMARK SMILES IDX 54 45 39 46 53 47 40 48 43 49 52 50 66 51 41 52 42 53 51 55
REMARK SMILES IDX 67 56 44 57 33 58 34 59 38 60 35 61 37 62 36 63 55 64 56 65
REMARK SMILES IDX 60 66 57 67 59 68 58 69 45 70 46 71 50 72 47 73 49 74 48 75
REMARK H PARENT 3 13 65 43 43 54
REMARK Flexibility Score: inf
ROOT
ATOM      1  C   UNL A   1      41.353  19.475  27.103  1.00  0.00     0.275 C 
ENDROOT
BRANCH   1   2
ATOM      2  O   UNL A   1      40.817  20.559  26.323  1.00  0.00    -0.456 OA
BRANCH   2   3
ATOM      3  C   UNL A   1      40.509  21.696  27.011  1.00  0.00     0.374 C 
ATOM      4  O   UNL A   1      41.178  22.153  27.932  1.00  0.00    -0.242 OA
BRANCH   3   5
ATOM      5  C   UNL A   1      39.368  22.340  26.403  1.00  0.00     0.212 A 
ATOM      6  C   UNL A   1      37.421  22.308  25.354  1.00  0.00     0.162 A 
ATOM      7  C   UNL A   1      37.582  23.586  25.849  1.00  0.00     0.053 A 
ATOM      8  O   UNL A   1      38.527  21.566  25.651  1.00  0.00    -0.448 OA
ATOM      9  C   UNL A   1      38.842  23.615  26.497  1.00  0.00     0.059 A 
BRANCH   6  10
ATOM     10  C   UNL A   1      36.292  21.615  24.631  1.00  0.00     0.248 C 
ATOM     11  C   UNL A   1      35.624  22.524  23.588  1.00  0.00     0.084 C 
BRANCH  10  12
ATOM     12  N   UNL A   1      35.367  20.907  25.553  1.00  0.00    -0.324 N 
ATOM     13  H   UNL A   1      35.967  20.191  25.964  1.00  0.00     0.348 HD
BRANCH  12  14
ATOM     14  C   UNL A   1      34.894  21.644  26.731  1.00  0.00     0.259 C 
ATOM     15  C   UNL A   1      33.637  22.490  26.572  1.00  0.00     0.071 C 
ENDBRANCH  12  14
BRANCH  12  16
ATOM     16  C   UNL A   1      34.250  20.250  24.823  1.00  0.00     0.295 C 
BRANCH  16  17
ATOM     17  C   UNL A   1      34.054  18.721  24.957  1.00  0.00     0.173 C 
ATOM     18  C   UNL A   1      33.891  17.944  23.660  1.00  0.00     0.040 C 
ATOM     19  O   UNL A   1      32.849  18.431  25.699  1.00  0.00    -0.372 OA
ATOM     20  C   UNL A   1      33.283  16.661  24.170  1.00  0.00     0.031 C 
ATOM     21  C   UNL A   1      32.354  17.153  25.263  1.00  0.00     0.161 C 
ENDBRANCH  16  17
ENDBRANCH  12  16
ENDBRANCH  10  12
ENDBRANCH   6  10
ENDBRANCH   3   5
ENDBRANCH   2   3
ENDBRANCH   1   2
BRANCH   1  22
ATOM     22  C   UNL A   1      42.471  18.773  26.325  1.00  0.00     0.275 C 
BRANCH  22  23
ATOM     23  O   UNL A   1      42.696  19.392  25.042  1.00  0.00    -0.458 OA
BRANCH  23  24
ATOM     24  C   UNL A   1      43.990  19.652  24.738  1.00  0.00     0.338 C 
ATOM     25  O   UNL A   1      44.786  18.905  24.198  1.00  0.00    -0.246 OA
BRANCH  24  26
ATOM     26  C   UNL A   1      44.304  21.052  25.070  1.00  0.00     0.060 A 
ATOM     27  C   UNL A   1      44.595  21.369  26.397  1.00  0.00     0.016 A 
ATOM     28  C   UNL A   1      44.223  22.058  24.108  1.00  0.00     0.016 A 
ATOM     29  C   UNL A   1      44.791  22.693  26.777  1.00  0.00     0.010 A 
ATOM     30  C   UNL A   1      44.440  23.389  24.485  1.00  0.00     0.010 A 
ATOM     31  C   UNL A   1      44.712  23.718  25.826  1.00  0.00    -0.014 A 
BRANCH  31  32
ATOM     32  C   UNL A   1      44.884  25.130  26.250  1.00  0.00     0.031 A 
ATOM     33  C   UNL A   1      46.237  25.781  26.174  1.00  0.00     0.074 A 
ATOM     34  C   UNL A   1      43.822  25.837  26.680  1.00  0.00     0.049 A 
ATOM     35  N   UNL A   1      46.602  26.978  26.560  1.00  0.00    -0.248 NA
ATOM     36  C   UNL A   1      47.323  24.979  25.590  1.00  0.00     0.031 C 
ATOM     37  C   UNL A   1      42.447  25.340  26.752  1.00  0.00     0.029 A 
ATOM     38  N   UNL A   1      43.734  27.128  27.137  1.00  0.00    -0.354 N 
ATOM     39  C   UNL A   1      47.961  27.065  26.286  1.00  0.00     0.074 A 
ATOM     40  C   UNL A   1      48.360  25.793  25.723  1.00  0.00     0.031 C 
ATOM     41  C   UNL A   1      41.652  26.318  27.213  1.00  0.00     0.029 A 
ATOM     42  C   UNL A   1      42.466  27.489  27.521  1.00  0.00     0.049 A 
ATOM     43  H   UNL A   1      44.507  27.738  27.183  1.00  0.00     0.167 HD
ATOM     44  C   UNL A   1      48.800  28.110  26.486  1.00  0.00     0.031 A 
ATOM     45  C   UNL A   1      42.014  28.625  28.085  1.00  0.00     0.031 A 
ATOM     46  C   UNL A   1      48.401  29.376  27.045  1.00  0.00     0.049 A 
ATOM     47  C   UNL A   1      42.979  29.743  28.364  1.00  0.00     0.074 A 
ATOM     48  C   UNL A   1      49.176  30.500  27.275  1.00  0.00     0.029 A 
ATOM     49  N   UNL A   1      47.116  29.685  27.462  1.00  0.00    -0.354 N 
ATOM     50  N   UNL A   1      44.262  29.812  28.103  1.00  0.00    -0.248 NA
ATOM     51  C   UNL A   1      42.432  30.941  29.017  1.00  0.00     0.031 C 
ATOM     52  C   UNL A   1      48.372  31.468  27.884  1.00  0.00     0.029 A 
ATOM     53  C   UNL A   1      47.082  30.972  27.974  1.00  0.00     0.049 A 
ATOM     54  H   UNL A   1      46.342  29.080  27.403  1.00  0.00     0.167 HD
ATOM     55  C   UNL A   1      44.670  31.068  28.533  1.00  0.00     0.074 A 
ATOM     56  C   UNL A   1      43.495  31.733  29.059  1.00  0.00     0.031 C 
ATOM     57  C   UNL A   1      45.906  31.621  28.494  1.00  0.00     0.031 A 
BRANCH  44  58
ATOM     58  C   UNL A   1      50.249  27.912  26.134  1.00  0.00    -0.014 A 
ATOM     59  C   UNL A   1      50.738  28.187  24.848  1.00  0.00     0.009 A 
ATOM     60  C   UNL A   1      51.146  27.473  27.121  1.00  0.00     0.009 A 
ATOM     61  C   UNL A   1      52.088  27.990  24.547  1.00  0.00     0.001 A 
ATOM     62  C   UNL A   1      52.500  27.305  26.826  1.00  0.00     0.001 A 
ATOM     63  C   UNL A   1      52.968  27.554  25.537  1.00  0.00     0.000 A 
ENDBRANCH  44  58
BRANCH  45  64
ATOM     64  C   UNL A   1      40.578  28.752  28.452  1.00  0.00    -0.014 A 
ATOM     65  C   UNL A   1      39.648  29.269  27.539  1.00  0.00     0.009 A 
ATOM     66  C   UNL A   1      40.134  28.360  29.725  1.00  0.00     0.009 A 
ATOM     67  C   UNL A   1      38.306  29.412  27.901  1.00  0.00     0.001 A 
ATOM     68  C   UNL A   1      38.787  28.475  30.074  1.00  0.00     0.001 A 
ATOM     69  C   UNL A   1      37.876  29.010  29.165  1.00  0.00     0.000 A 
ENDBRANCH  45  64
BRANCH  57  70
ATOM     70  C   UNL A   1      46.046  33.031  28.996  1.00  0.00    -0.014 A 
ATOM     71  C   UNL A   1      46.377  33.303  30.332  1.00  0.00     0.009 A 
ATOM     72  C   UNL A   1      45.881  34.103  28.104  1.00  0.00     0.009 A 
ATOM     73  C   UNL A   1      46.509  34.623  30.772  1.00  0.00     0.001 A 
ATOM     74  C   UNL A   1      46.042  35.419  28.539  1.00  0.00     0.001 A 
ATOM     75  C   UNL A   1      46.347  35.679  29.874  1.00  0.00     0.000 A 
ENDBRANCH  57  70
ENDBRANCH  31  32
ENDBRANCH  24  26
ENDBRANCH  23  24
ENDBRANCH  22  23
ENDBRANCH   1  22
TORSDOF 16
ENDMDL
