MODEL 1
REMARK VINA RESULT:      -9.3      0.000      0.000
REMARK SMILES O=C(OCCOC(=O)c1ccc(O)c(Br)n1)c1ccc(-c2c3nc(c(-c4ccccc4)c4ccc([nH]4)c(-c4ccccc4)c4nc(c(-c5ccccc5)c5ccc2[nH]5)C=C4)C=C3)cc1
REMARK SMILES IDX 4 1 3 2 2 3 1 4 17 5 18 6 64 7 19 8 63 9 20 10 21 11 22 12
REMARK SMILES IDX 57 13 23 14 62 15 56 16 58 17 24 18 61 19 55 20 54 21 25 23
REMARK SMILES IDX 47 24 32 25 46 26 33 27 36 28 45 29 59 30 34 31 35 32 44 34
REMARK SMILES IDX 60 35 37 36 26 37 27 38 31 39 28 40 30 41 29 42 48 43 49 44
REMARK SMILES IDX 53 45 50 46 52 47 51 48 38 49 39 50 43 51 40 52 42 53 41 54
REMARK SMILES IDX 5 55 6 56 7 57 8 58 9 59 10 60 16 61 11 62 14 63 12 64 15 65
REMARK SMILES IDX 13 66
REMARK H PARENT 58 22 36 33 13 67
REMARK Flexibility Score: inf
ROOT
ATOM      1  C   UNL A   1      33.198  36.196  30.641  1.00  0.00     0.275 C 
ENDROOT
BRANCH   1   2
ATOM      2  O   UNL A   1      32.535  35.379  29.661  1.00  0.00    -0.458 OA
BRANCH   2   3
ATOM      3  C   UNL A   1      33.124  34.534  28.781  1.00  0.00     0.338 C 
ATOM      4  O   UNL A   1      32.518  34.183  27.771  1.00  0.00    -0.246 OA
BRANCH   3   5
ATOM      5  C   UNL A   1      34.373  33.797  29.137  1.00  0.00     0.060 A 
ATOM      6  C   UNL A   1      34.454  32.674  29.963  1.00  0.00     0.016 A 
ATOM      7  C   UNL A   1      35.566  34.308  28.593  1.00  0.00     0.016 A 
ATOM      8  C   UNL A   1      35.672  32.024  30.170  1.00  0.00     0.010 A 
ATOM      9  C   UNL A   1      36.785  33.657  28.788  1.00  0.00     0.010 A 
ATOM     10  C   UNL A   1      36.841  32.508  29.582  1.00  0.00    -0.014 A 
BRANCH  10  11
ATOM     11  C   UNL A   1      38.139  31.905  29.938  1.00  0.00     0.031 A 
ATOM     12  C   UNL A   1      39.062  32.682  30.820  1.00  0.00     0.074 A 
ATOM     13  C   UNL A   1      38.467  30.666  29.536  1.00  0.00     0.049 A 
ATOM     14  N   UNL A   1      40.187  32.298  31.361  1.00  0.00    -0.248 NA
ATOM     15  C   UNL A   1      38.649  34.049  31.179  1.00  0.00     0.031 C 
ATOM     16  C   UNL A   1      37.612  29.775  28.756  1.00  0.00     0.029 A 
ATOM     17  N   UNL A   1      39.618  29.944  29.728  1.00  0.00    -0.354 N 
ATOM     18  C   UNL A   1      40.571  33.343  32.183  1.00  0.00     0.074 A 
ATOM     19  C   UNL A   1      39.622  34.416  31.998  1.00  0.00     0.031 C 
ATOM     20  C   UNL A   1      38.295  28.651  28.480  1.00  0.00     0.029 A 
ATOM     21  C   UNL A   1      39.628  28.745  29.062  1.00  0.00     0.049 A 
ATOM     22  H   UNL A   1      40.364  30.257  30.288  1.00  0.00     0.167 HD
ATOM     23  C   UNL A   1      41.593  33.375  33.066  1.00  0.00     0.031 A 
ATOM     24  C   UNL A   1      40.601  27.823  28.930  1.00  0.00     0.031 A 
ATOM     25  C   UNL A   1      42.549  32.320  33.221  1.00  0.00     0.049 A 
ATOM     26  C   UNL A   1      41.852  27.974  29.743  1.00  0.00     0.074 A 
ATOM     27  C   UNL A   1      43.597  32.234  34.116  1.00  0.00     0.029 A 
ATOM     28  N   UNL A   1      42.586  31.178  32.437  1.00  0.00    -0.354 N 
ATOM     29  N   UNL A   1      42.158  28.925  30.592  1.00  0.00    -0.248 NA
ATOM     30  C   UNL A   1      42.859  26.909  29.637  1.00  0.00     0.031 C 
ATOM     31  C   UNL A   1      44.306  31.063  33.834  1.00  0.00     0.029 A 
ATOM     32  C   UNL A   1      43.671  30.401  32.793  1.00  0.00     0.049 A 
ATOM     33  H   UNL A   1      41.936  30.955  31.731  1.00  0.00     0.167 HD
ATOM     34  C   UNL A   1      43.358  28.544  31.171  1.00  0.00     0.074 A 
ATOM     35  C   UNL A   1      43.748  27.296  30.546  1.00  0.00     0.031 C 
ATOM     36  C   UNL A   1      44.046  29.161  32.162  1.00  0.00     0.031 A 
BRANCH  23  37
ATOM     37  C   UNL A   1      41.692  34.590  33.935  1.00  0.00    -0.014 A 
ATOM     38  C   UNL A   1      41.053  34.622  35.186  1.00  0.00     0.009 A 
ATOM     39  C   UNL A   1      42.416  35.709  33.504  1.00  0.00     0.009 A 
ATOM     40  C   UNL A   1      41.113  35.769  35.977  1.00  0.00     0.001 A 
ATOM     41  C   UNL A   1      42.489  36.848  34.307  1.00  0.00     0.001 A 
ATOM     42  C   UNL A   1      41.832  36.880  35.538  1.00  0.00     0.000 A 
ENDBRANCH  23  37
BRANCH  24  43
ATOM     43  C   UNL A   1      40.397  26.684  28.002  1.00  0.00    -0.014 A 
ATOM     44  C   UNL A   1      40.939  26.695  26.710  1.00  0.00     0.009 A 
ATOM     45  C   UNL A   1      39.720  25.536  28.447  1.00  0.00     0.009 A 
ATOM     46  C   UNL A   1      40.813  25.574  25.884  1.00  0.00     0.001 A 
ATOM     47  C   UNL A   1      39.603  24.415  27.622  1.00  0.00     0.001 A 
ATOM     48  C   UNL A   1      40.152  24.434  26.342  1.00  0.00     0.000 A 
ENDBRANCH  24  43
BRANCH  36  49
ATOM     49  C   UNL A   1      45.285  28.499  32.682  1.00  0.00    -0.014 A 
ATOM     50  C   UNL A   1      46.551  28.889  32.228  1.00  0.00     0.009 A 
ATOM     51  C   UNL A   1      45.183  27.604  33.760  1.00  0.00     0.009 A 
ATOM     52  C   UNL A   1      47.698  28.406  32.859  1.00  0.00     0.001 A 
ATOM     53  C   UNL A   1      46.331  27.140  34.400  1.00  0.00     0.001 A 
ATOM     54  C   UNL A   1      47.586  27.544  33.951  1.00  0.00     0.000 A 
ENDBRANCH  36  49
ENDBRANCH  10  11
ENDBRANCH   3   5
ENDBRANCH   2   3
ENDBRANCH   1   2
BRANCH   1  55
ATOM     55  C   UNL A   1      33.134  35.629  32.064  1.00  0.00     0.275 C 
BRANCH  55  56
ATOM     56  O   UNL A   1      34.357  35.011  32.492  1.00  0.00    -0.457 OA
BRANCH  56  57
ATOM     57  C   UNL A   1      34.198  33.830  33.156  1.00  0.00     0.357 C 
ATOM     58  O   UNL A   1      33.186  33.167  33.239  1.00  0.00    -0.244 OA
BRANCH  57  59
ATOM     59  C   UNL A   1      35.523  33.375  33.646  1.00  0.00     0.150 A 
ATOM     60  C   UNL A   1      36.265  34.257  34.422  1.00  0.00     0.040 A 
ATOM     61  N   UNL A   1      35.923  32.119  33.323  1.00  0.00    -0.230 NA
ATOM     62  C   UNL A   1      37.431  33.787  35.018  1.00  0.00     0.051 A 
ATOM     63  C   UNL A   1      37.109  31.728  33.843  1.00  0.00     0.148 A 
ATOM     64  C   UNL A   1      37.843  32.490  34.753  1.00  0.00     0.148 A 
ATOM     65  Br  UNL A   1      37.842  30.098  33.197  1.00  0.00    -0.025 Br
BRANCH  64  66
ATOM     66  O   UNL A   1      38.942  32.034  35.423  1.00  0.00    -0.505 OA
ATOM     67  H   UNL A   1      39.718  31.807  34.950  1.00  0.00     0.293 HD
ENDBRANCH  64  66
ENDBRANCH  57  59
ENDBRANCH  56  57
ENDBRANCH  55  56
ENDBRANCH   1  55
TORSDOF 12
ENDMDL
MODEL 2
REMARK VINA RESULT:      -9.2      5.648     11.036
REMARK SMILES O=C(OCCOC(=O)c1ccc(O)c(Br)n1)c1ccc(-c2c3nc(c(-c4ccccc4)c4ccc([nH]4)c(-c4ccccc4)c4nc(c(-c5ccccc5)c5ccc2[nH]5)C=C4)C=C3)cc1
REMARK SMILES IDX 4 1 3 2 2 3 1 4 17 5 18 6 64 7 19 8 63 9 20 10 21 11 22 12
REMARK SMILES IDX 57 13 23 14 62 15 56 16 58 17 24 18 61 19 55 20 54 21 25 23
REMARK SMILES IDX 47 24 32 25 46 26 33 27 36 28 45 29 59 30 34 31 35 32 44 34
REMARK SMILES IDX 60 35 37 36 26 37 27 38 31 39 28 40 30 41 29 42 48 43 49 44
REMARK SMILES IDX 53 45 50 46 52 47 51 48 38 49 39 50 43 51 40 52 42 53 41 54
REMARK SMILES IDX 5 55 6 56 7 57 8 58 9 59 10 60 16 61 11 62 14 63 12 64 15 65
REMARK SMILES IDX 13 66
REMARK H PARENT 58 22 36 33 13 67
REMARK Flexibility Score: inf
ROOT
ATOM      1  C   UNL A   1      45.657  22.387  25.702  1.00  0.00     0.275 C 
ENDROOT
BRANCH   1   2
ATOM      2  O   UNL A   1      44.776  23.396  25.180  1.00  0.00    -0.458 OA
BRANCH   2   3
ATOM      3  C   UNL A   1      44.954  24.738  25.245  1.00  0.00     0.338 C 
ATOM      4  O   UNL A   1      45.858  25.267  24.603  1.00  0.00    -0.246 OA
BRANCH   3   5
ATOM      5  C   UNL A   1      44.266  25.558  26.287  1.00  0.00     0.060 A 
ATOM      6  C   UNL A   1      44.602  26.862  26.655  1.00  0.00     0.016 A 
ATOM      7  C   UNL A   1      43.196  24.934  26.956  1.00  0.00     0.016 A 
ATOM      8  C   UNL A   1      43.842  27.559  27.597  1.00  0.00     0.010 A 
ATOM      9  C   UNL A   1      42.427  25.629  27.891  1.00  0.00     0.010 A 
ATOM     10  C   UNL A   1      42.750  26.949  28.215  1.00  0.00    -0.014 A 
BRANCH  10  11
ATOM     11  C   UNL A   1      42.058  27.640  29.319  1.00  0.00     0.031 A 
ATOM     12  C   UNL A   1      42.632  27.531  30.694  1.00  0.00     0.074 A 
ATOM     13  C   UNL A   1      40.973  28.401  29.094  1.00  0.00     0.049 A 
ATOM     14  N   UNL A   1      42.267  28.156  31.781  1.00  0.00    -0.248 NA
ATOM     15  C   UNL A   1      43.794  26.642  30.863  1.00  0.00     0.031 C 
ATOM     16  C   UNL A   1      40.378  28.662  27.787  1.00  0.00     0.029 A 
ATOM     17  N   UNL A   1      40.174  29.092  29.971  1.00  0.00    -0.354 N 
ATOM     18  C   UNL A   1      43.200  27.798  32.738  1.00  0.00     0.074 A 
ATOM     19  C   UNL A   1      44.087  26.826  32.140  1.00  0.00     0.031 C 
ATOM     20  C   UNL A   1      39.269  29.403  27.955  1.00  0.00     0.029 A 
ATOM     21  C   UNL A   1      39.079  29.666  29.376  1.00  0.00     0.049 A 
ATOM     22  H   UNL A   1      40.368  29.168  30.932  1.00  0.00     0.167 HD
ATOM     23  C   UNL A   1      43.342  28.289  33.988  1.00  0.00     0.031 A 
ATOM     24  C   UNL A   1      38.037  30.327  29.912  1.00  0.00     0.031 A 
ATOM     25  C   UNL A   1      42.440  29.228  34.584  1.00  0.00     0.049 A 
ATOM     26  C   UNL A   1      38.078  30.681  31.369  1.00  0.00     0.074 A 
ATOM     27  C   UNL A   1      42.515  29.821  35.829  1.00  0.00     0.029 A 
ATOM     28  N   UNL A   1      41.278  29.686  33.983  1.00  0.00    -0.354 N 
ATOM     29  N   UNL A   1      39.020  30.413  32.241  1.00  0.00    -0.248 NA
ATOM     30  C   UNL A   1      36.963  31.473  31.904  1.00  0.00     0.031 C 
ATOM     31  C   UNL A   1      41.366  30.597  36.004  1.00  0.00     0.029 A 
ATOM     32  C   UNL A   1      40.599  30.518  34.850  1.00  0.00     0.049 A 
ATOM     33  H   UNL A   1      40.981  29.451  33.074  1.00  0.00     0.167 HD
ATOM     34  C   UNL A   1      38.647  31.059  33.410  1.00  0.00     0.074 A 
ATOM     35  C   UNL A   1      37.371  31.695  33.149  1.00  0.00     0.031 C 
ATOM     36  C   UNL A   1      39.330  31.144  34.577  1.00  0.00     0.031 A 
BRANCH  23  37
ATOM     37  C   UNL A   1      44.535  27.822  34.762  1.00  0.00    -0.014 A 
ATOM     38  C   UNL A   1      44.517  26.575  35.409  1.00  0.00     0.009 A 
ATOM     39  C   UNL A   1      45.676  28.629  34.855  1.00  0.00     0.009 A 
ATOM     40  C   UNL A   1      45.615  26.158  36.162  1.00  0.00     0.001 A 
ATOM     41  C   UNL A   1      46.778  28.199  35.595  1.00  0.00     0.001 A 
ATOM     42  C   UNL A   1      46.744  26.969  36.253  1.00  0.00     0.000 A 
ENDBRANCH  23  37
BRANCH  24  43
ATOM     43  C   UNL A   1      36.892  30.698  29.044  1.00  0.00    -0.014 A 
ATOM     44  C   UNL A   1      35.925  29.754  28.675  1.00  0.00     0.009 A 
ATOM     45  C   UNL A   1      36.723  32.036  28.649  1.00  0.00     0.009 A 
ATOM     46  C   UNL A   1      34.807  30.144  27.933  1.00  0.00     0.001 A 
ATOM     47  C   UNL A   1      35.600  32.423  27.914  1.00  0.00     0.001 A 
ATOM     48  C   UNL A   1      34.641  31.478  27.559  1.00  0.00     0.000 A 
ENDBRANCH  24  43
BRANCH  36  49
ATOM     49  C   UNL A   1      38.750  31.981  35.676  1.00  0.00    -0.014 A 
ATOM     50  C   UNL A   1      38.035  31.390  36.725  1.00  0.00     0.009 A 
ATOM     51  C   UNL A   1      39.079  33.344  35.746  1.00  0.00     0.009 A 
ATOM     52  C   UNL A   1      37.672  32.150  37.838  1.00  0.00     0.001 A 
ATOM     53  C   UNL A   1      38.732  34.095  36.867  1.00  0.00     0.001 A 
ATOM     54  C   UNL A   1      38.033  33.496  37.914  1.00  0.00     0.000 A 
ENDBRANCH  36  49
ENDBRANCH  10  11
ENDBRANCH   3   5
ENDBRANCH   2   3
ENDBRANCH   1   2
BRANCH   1  55
ATOM     55  C   UNL A   1      46.108  21.359  24.658  1.00  0.00     0.275 C 
BRANCH  55  56
ATOM     56  O   UNL A   1      45.020  20.721  23.972  1.00  0.00    -0.457 OA
BRANCH  56  57
ATOM     57  C   UNL A   1      44.781  19.433  24.353  1.00  0.00     0.357 C 
ATOM     58  O   UNL A   1      45.429  18.451  24.059  1.00  0.00    -0.244 OA
BRANCH  57  59
ATOM     59  C   UNL A   1      43.673  19.423  25.341  1.00  0.00     0.150 A 
ATOM     60  C   UNL A   1      43.552  18.312  26.167  1.00  0.00     0.040 A 
ATOM     61  N   UNL A   1      42.858  20.506  25.392  1.00  0.00    -0.230 NA
ATOM     62  C   UNL A   1      42.621  18.359  27.199  1.00  0.00     0.051 A 
ATOM     63  C   UNL A   1      41.902  20.477  26.349  1.00  0.00     0.148 A 
ATOM     64  C   UNL A   1      41.805  19.475  27.315  1.00  0.00     0.148 A 
ATOM     65  Br  UNL A   1      40.566  21.828  26.279  1.00  0.00    -0.025 Br
BRANCH  64  66
ATOM     66  O   UNL A   1      40.966  19.527  28.391  1.00  0.00    -0.505 OA
ATOM     67  H   UNL A   1      40.248  20.128  28.396  1.00  0.00     0.293 HD
ENDBRANCH  64  66
ENDBRANCH  57  59
ENDBRANCH  56  57
ENDBRANCH  55  56
ENDBRANCH   1  55
TORSDOF 12
ENDMDL
MODEL 3
REMARK VINA RESULT:      -9.1      2.132      3.313
REMARK SMILES O=C(OCCOC(=O)c1ccc(O)c(Br)n1)c1ccc(-c2c3nc(c(-c4ccccc4)c4ccc([nH]4)c(-c4ccccc4)c4nc(c(-c5ccccc5)c5ccc2[nH]5)C=C4)C=C3)cc1
REMARK SMILES IDX 4 1 3 2 2 3 1 4 17 5 18 6 64 7 19 8 63 9 20 10 21 11 22 12
REMARK SMILES IDX 57 13 23 14 62 15 56 16 58 17 24 18 61 19 55 20 54 21 25 23
REMARK SMILES IDX 47 24 32 25 46 26 33 27 36 28 45 29 59 30 34 31 35 32 44 34
REMARK SMILES IDX 60 35 37 36 26 37 27 38 31 39 28 40 30 41 29 42 48 43 49 44
REMARK SMILES IDX 53 45 50 46 52 47 51 48 38 49 39 50 43 51 40 52 42 53 41 54
REMARK SMILES IDX 5 55 6 56 7 57 8 58 9 59 10 60 16 61 11 62 14 63 12 64 15 65
REMARK SMILES IDX 13 66
REMARK H PARENT 58 22 36 33 13 67
REMARK Flexibility Score: inf
ROOT
ATOM      1  C   UNL A   1      34.288  33.946  28.090  1.00  0.00     0.275 C 
ENDROOT
BRANCH   1   2
ATOM      2  O   UNL A   1      34.018  32.634  28.612  1.00  0.00    -0.458 OA
BRANCH   2   3
ATOM      3  C   UNL A   1      34.432  31.454  28.089  1.00  0.00     0.338 C 
ATOM      4  O   UNL A   1      33.676  30.804  27.371  1.00  0.00    -0.246 OA
BRANCH   3   5
ATOM      5  C   UNL A   1      35.674  30.785  28.581  1.00  0.00     0.060 A 
ATOM      6  C   UNL A   1      35.738  29.816  29.584  1.00  0.00     0.016 A 
ATOM      7  C   UNL A   1      36.876  31.196  27.977  1.00  0.00     0.016 A 
ATOM      8  C   UNL A   1      36.950  29.208  29.916  1.00  0.00     0.010 A 
ATOM      9  C   UNL A   1      38.090  30.585  28.297  1.00  0.00     0.010 A 
ATOM     10  C   UNL A   1      38.129  29.585  29.271  1.00  0.00    -0.014 A 
BRANCH  10  11
ATOM     11  C   UNL A   1      39.420  29.048  29.743  1.00  0.00     0.031 A 
ATOM     12  C   UNL A   1      40.099  29.736  30.883  1.00  0.00     0.074 A 
ATOM     13  C   UNL A   1      39.951  27.936  29.208  1.00  0.00     0.049 A 
ATOM     14  N   UNL A   1      41.166  29.365  31.539  1.00  0.00    -0.248 NA
ATOM     15  C   UNL A   1      39.477  30.973  31.383  1.00  0.00     0.031 C 
ATOM     16  C   UNL A   1      39.337  27.125  28.160  1.00  0.00     0.029 A 
ATOM     17  N   UNL A   1      41.137  27.299  29.475  1.00  0.00    -0.354 N 
ATOM     18  C   UNL A   1      41.293  30.276  32.573  1.00  0.00     0.074 A 
ATOM     19  C   UNL A   1      40.263  31.275  32.403  1.00  0.00     0.031 C 
ATOM     20  C   UNL A   1      40.183  26.135  27.827  1.00  0.00     0.029 A 
ATOM     21  C   UNL A   1      41.391  26.244  28.636  1.00  0.00     0.049 A 
ATOM     22  H   UNL A   1      41.746  27.573  30.197  1.00  0.00     0.167 HD
ATOM     23  C   UNL A   1      42.156  30.243  33.611  1.00  0.00     0.031 A 
ATOM     24  C   UNL A   1      42.474  25.453  28.525  1.00  0.00     0.031 A 
ATOM     25  C   UNL A   1      43.196  29.268  33.755  1.00  0.00     0.049 A 
ATOM     26  C   UNL A   1      43.560  25.569  29.553  1.00  0.00     0.074 A 
ATOM     27  C   UNL A   1      44.098  29.119  34.789  1.00  0.00     0.029 A 
ATOM     28  N   UNL A   1      43.487  28.293  32.814  1.00  0.00    -0.354 N 
ATOM     29  N   UNL A   1      43.617  26.377  30.584  1.00  0.00    -0.248 NA
ATOM     30  C   UNL A   1      44.690  24.636  29.450  1.00  0.00     0.031 C 
ATOM     31  C   UNL A   1      44.975  28.086  34.447  1.00  0.00     0.029 A 
ATOM     32  C   UNL A   1      44.590  27.566  33.220  1.00  0.00     0.049 A 
ATOM     33  H   UNL A   1      42.985  28.141  31.981  1.00  0.00     0.167 HD
ATOM     34  C   UNL A   1      44.751  26.008  31.291  1.00  0.00     0.074 A 
ATOM     35  C   UNL A   1      45.377  24.932  30.548  1.00  0.00     0.031 C 
ATOM     36  C   UNL A   1      45.201  26.498  32.471  1.00  0.00     0.031 A 
BRANCH  23  37
ATOM     37  C   UNL A   1      41.976  31.287  34.668  1.00  0.00    -0.014 A 
ATOM     38  C   UNL A   1      41.089  31.071  35.735  1.00  0.00     0.009 A 
ATOM     39  C   UNL A   1      42.687  32.492  34.598  1.00  0.00     0.009 A 
ATOM     40  C   UNL A   1      40.892  32.060  36.698  1.00  0.00     0.001 A 
ATOM     41  C   UNL A   1      42.501  33.472  35.574  1.00  0.00     0.001 A 
ATOM     42  C   UNL A   1      41.599  33.259  36.618  1.00  0.00     0.000 A 
ENDBRANCH  23  37
BRANCH  24  43
ATOM     43  C   UNL A   1      42.551  24.484  27.403  1.00  0.00    -0.014 A 
ATOM     44  C   UNL A   1      43.148  24.831  26.185  1.00  0.00     0.009 A 
ATOM     45  C   UNL A   1      42.094  23.168  27.588  1.00  0.00     0.009 A 
ATOM     46  C   UNL A   1      43.292  23.876  25.174  1.00  0.00     0.001 A 
ATOM     47  C   UNL A   1      42.247  22.215  26.579  1.00  0.00     0.001 A 
ATOM     48  C   UNL A   1      42.848  22.569  25.373  1.00  0.00     0.000 A 
ENDBRANCH  24  43
BRANCH  36  49
ATOM     49  C   UNL A   1      46.416  25.868  33.081  1.00  0.00    -0.014 A 
ATOM     50  C   UNL A   1      46.301  24.752  33.918  1.00  0.00     0.009 A 
ATOM     51  C   UNL A   1      47.689  26.295  32.668  1.00  0.00     0.009 A 
ATOM     52  C   UNL A   1      47.445  24.059  34.319  1.00  0.00     0.001 A 
ATOM     53  C   UNL A   1      48.827  25.589  33.055  1.00  0.00     0.001 A 
ATOM     54  C   UNL A   1      48.703  24.470  33.876  1.00  0.00     0.000 A 
ENDBRANCH  36  49
ENDBRANCH  10  11
ENDBRANCH   3   5
ENDBRANCH   2   3
ENDBRANCH   1   2
BRANCH   1  55
ATOM     55  C   UNL A   1      33.269  35.006  28.523  1.00  0.00     0.275 C 
BRANCH  55  56
ATOM     56  O   UNL A   1      32.732  34.784  29.836  1.00  0.00    -0.457 OA
BRANCH  56  57
ATOM     57  C   UNL A   1      32.964  35.793  30.725  1.00  0.00     0.357 C 
ATOM     58  O   UNL A   1      32.505  36.915  30.695  1.00  0.00    -0.244 OA
BRANCH  57  59
ATOM     59  C   UNL A   1      33.756  35.258  31.860  1.00  0.00     0.150 A 
ATOM     60  C   UNL A   1      33.914  36.068  32.979  1.00  0.00     0.040 A 
ATOM     61  N   UNL A   1      34.261  34.004  31.747  1.00  0.00    -0.230 NA
ATOM     62  C   UNL A   1      34.516  35.520  34.107  1.00  0.00     0.051 A 
ATOM     63  C   UNL A   1      34.923  33.537  32.831  1.00  0.00     0.148 A 
ATOM     64  C   UNL A   1      34.997  34.221  34.045  1.00  0.00     0.148 A 
ATOM     65  Br  UNL A   1      35.886  31.912  32.623  1.00  0.00    -0.025 Br
BRANCH  64  66
ATOM     66  O   UNL A   1      35.501  33.686  35.196  1.00  0.00    -0.505 OA
ATOM     67  H   UNL A   1      35.074  32.956  35.599  1.00  0.00     0.293 HD
ENDBRANCH  64  66
ENDBRANCH  57  59
ENDBRANCH  56  57
ENDBRANCH  55  56
ENDBRANCH   1  55
TORSDOF 12
ENDMDL
