MODEL 1
REMARK VINA RESULT:     -13.5      0.000      0.000
REMARK SMILES O=C(CNC(=O)[C@@H](CC1=c2ccccc2=NC1)N1C(=O)N=C2C=CC=C[C@H]2C1=O)OCCOC(=O)c1ccc(-c2c3nc(c(-c4ccccc4)c4ccc([nH]4)c(-c4ccccc4)c4nc(c(-c5ccccc5)c5ccc2[nH]5)C=C4)C=C3)cc1
REMARK SMILES IDX 31 1 30 2 2 3 1 4 3 5 4 6 5 7 6 9 7 10 8 11 9 12 10 13 17 14
REMARK SMILES IDX 11 15 15 16 16 17 12 18 14 19 13 20 18 21 19 22 28 23 21 24
REMARK SMILES IDX 20 25 27 26 29 27 22 28 26 29 23 30 25 31 24 32 32 33 33 34
REMARK SMILES IDX 34 35 35 36 36 37 37 38 83 39 38 40 82 41 39 42 40 43 41 44
REMARK SMILES IDX 76 45 42 46 81 47 75 48 77 49 43 50 80 51 74 52 73 53 44 55
REMARK SMILES IDX 66 56 51 57 65 58 52 59 55 60 64 61 78 62 53 63 54 64 63 66
REMARK SMILES IDX 79 67 56 68 45 69 46 70 50 71 47 72 49 73 48 74 67 75 68 76
REMARK SMILES IDX 72 77 69 78 71 79 70 80 57 81 58 82 62 83 59 84 61 85 60 86
REMARK H PARENT 4 8 77 54 55 65
REMARK Flexibility Score: inf
ROOT
ATOM      1  C   UNL A   1      32.117  29.700  27.257  1.00  0.00     0.274 C 
ENDROOT
BRANCH   1   2
ATOM      2  O   UNL A   1      33.113  28.654  27.431  1.00  0.00    -0.461 OA
BRANCH   2   3
ATOM      3  C   UNL A   1      33.580  27.860  26.415  1.00  0.00     0.325 C 
ATOM      4  O   UNL A   1      34.062  28.374  25.403  1.00  0.00    -0.250 OA
BRANCH   3   5
ATOM      5  C   UNL A   1      33.019  26.412  26.314  1.00  0.00     0.238 C 
BRANCH   5   6
ATOM      6  N   UNL A   1      31.624  26.023  26.528  1.00  0.00    -0.343 N 
ATOM      7  C   UNL A   1      30.942  24.895  26.181  1.00  0.00     0.244 C 
ATOM      8  H   UNL A   1      31.085  26.692  27.008  1.00  0.00     0.164 HD
ATOM      9  O   UNL A   1      30.245  24.397  27.074  1.00  0.00    -0.273 OA
BRANCH   7  10
ATOM     10  C   UNL A   1      30.992  24.289  24.733  1.00  0.00     0.188 C 
BRANCH  10  11
ATOM     11  C   UNL A   1      30.279  25.540  23.782  1.00  0.00     0.069 C 
BRANCH  11  12
ATOM     12  C   UNL A   1      30.164  27.214  23.441  1.00  0.00    -0.037 C 
ATOM     13  C   UNL A   1      29.309  28.254  23.188  1.00  0.00     0.001 A 
ATOM     14  C   UNL A   1      31.568  27.811  23.277  1.00  0.00     0.174 C 
ATOM     15  C   UNL A   1      27.918  28.654  23.238  1.00  0.00     0.010 A 
ATOM     16  C   UNL A   1      30.176  29.179  22.387  1.00  0.00     0.065 A 
ATOM     17  N   UNL A   1      31.453  28.978  22.400  1.00  0.00    -0.280 NA
ATOM     18  C   UNL A   1      27.387  29.603  22.451  1.00  0.00     0.001 A 
ATOM     19  C   UNL A   1      29.525  30.183  21.500  1.00  0.00     0.028 A 
ATOM     20  C   UNL A   1      28.192  30.315  21.503  1.00  0.00     0.002 A 
ENDBRANCH  11  12
ENDBRANCH  10  11
BRANCH  10  21
ATOM     21  N   UNL A   1      32.427  23.681  24.712  1.00  0.00    -0.249 N 
ATOM     22  C   UNL A   1      32.464  22.366  25.217  1.00  0.00     0.351 C 
ATOM     23  C   UNL A   1      33.305  23.556  23.676  1.00  0.00     0.244 C 
ATOM     24  N   UNL A   1      33.672  21.831  25.641  1.00  0.00    -0.197 NA
ATOM     25  O   UNL A   1      31.459  21.662  25.196  1.00  0.00    -0.246 OA
ATOM     26  C   UNL A   1      34.762  23.415  24.152  1.00  0.00     0.151 C 
ATOM     27  O   UNL A   1      32.989  23.355  22.506  1.00  0.00    -0.273 OA
ATOM     28  C   UNL A   1      34.772  22.261  25.122  1.00  0.00     0.062 C 
ATOM     29  C   UNL A   1      35.842  23.216  23.109  1.00  0.00    -0.007 C 
ATOM     30  C   UNL A   1      36.085  21.654  25.476  1.00  0.00     0.025 C 
ATOM     31  C   UNL A   1      36.946  22.495  23.359  1.00  0.00    -0.003 C 
ATOM     32  C   UNL A   1      37.106  21.812  24.621  1.00  0.00     0.002 C 
ENDBRANCH  10  21
ENDBRANCH   7  10
ENDBRANCH   5   6
ENDBRANCH   3   5
ENDBRANCH   2   3
ENDBRANCH   1   2
BRANCH   1  33
ATOM     33  C   UNL A   1      32.719  31.218  27.215  1.00  0.00     0.275 C 
BRANCH  33  34
ATOM     34  O   UNL A   1      34.198  31.420  27.509  1.00  0.00    -0.458 OA
BRANCH  34  35
ATOM     35  C   UNL A   1      34.939  31.229  28.674  1.00  0.00     0.338 C 
ATOM     36  O   UNL A   1      34.780  31.888  29.692  1.00  0.00    -0.246 OA
BRANCH  35  37
ATOM     37  C   UNL A   1      36.077  30.139  28.566  1.00  0.00     0.060 A 
ATOM     38  C   UNL A   1      36.529  29.553  29.738  1.00  0.00     0.016 A 
ATOM     39  C   UNL A   1      36.791  29.718  27.431  1.00  0.00     0.016 A 
ATOM     40  C   UNL A   1      37.803  28.937  29.792  1.00  0.00     0.010 A 
ATOM     41  C   UNL A   1      38.094  29.161  27.462  1.00  0.00     0.010 A 
ATOM     42  C   UNL A   1      38.663  28.840  28.675  1.00  0.00    -0.014 A 
BRANCH  42  43
ATOM     43  C   UNL A   1      39.989  28.166  28.808  1.00  0.00     0.031 A 
ATOM     44  C   UNL A   1      40.282  26.734  28.424  1.00  0.00     0.074 A 
ATOM     45  C   UNL A   1      41.003  28.969  29.178  1.00  0.00     0.049 A 
ATOM     46  N   UNL A   1      41.445  26.188  28.144  1.00  0.00    -0.248 NA
ATOM     47  C   UNL A   1      39.161  25.783  28.372  1.00  0.00     0.031 C 
ATOM     48  C   UNL A   1      40.819  30.335  29.664  1.00  0.00     0.029 A 
ATOM     49  N   UNL A   1      42.363  28.815  29.092  1.00  0.00    -0.354 N 
ATOM     50  C   UNL A   1      41.203  24.840  27.885  1.00  0.00     0.074 A 
ATOM     51  C   UNL A   1      39.777  24.644  28.061  1.00  0.00     0.031 C 
ATOM     52  C   UNL A   1      42.000  30.957  29.654  1.00  0.00     0.029 A 
ATOM     53  C   UNL A   1      43.032  30.009  29.245  1.00  0.00     0.049 A 
ATOM     54  H   UNL A   1      42.809  27.951  28.940  1.00  0.00     0.167 HD
ATOM     55  C   UNL A   1      42.091  23.871  27.538  1.00  0.00     0.031 A 
ATOM     56  C   UNL A   1      44.322  30.333  29.036  1.00  0.00     0.031 A 
ATOM     57  C   UNL A   1      43.513  24.093  27.377  1.00  0.00     0.049 A 
ATOM     58  C   UNL A   1      45.268  29.275  28.560  1.00  0.00     0.074 A 
ATOM     59  C   UNL A   1      44.487  23.191  26.975  1.00  0.00     0.029 A 
ATOM     60  N   UNL A   1      44.163  25.295  27.614  1.00  0.00    -0.354 N 
ATOM     61  N   UNL A   1      45.010  28.033  28.232  1.00  0.00    -0.248 NA
ATOM     62  C   UNL A   1      46.681  29.655  28.439  1.00  0.00     0.031 C 
ATOM     63  C   UNL A   1      45.729  23.829  27.032  1.00  0.00     0.029 A 
ATOM     64  C   UNL A   1      45.525  25.149  27.397  1.00  0.00     0.049 A 
ATOM     65  H   UNL A   1      43.723  26.129  27.895  1.00  0.00     0.167 HD
ATOM     66  C   UNL A   1      46.232  27.472  27.889  1.00  0.00     0.074 A 
ATOM     67  C   UNL A   1      47.222  28.525  28.001  1.00  0.00     0.031 C 
ATOM     68  C   UNL A   1      46.506  26.195  27.535  1.00  0.00     0.031 A 
BRANCH  55  69
ATOM     69  C   UNL A   1      41.596  22.462  27.290  1.00  0.00    -0.014 A 
ATOM     70  C   UNL A   1      42.182  21.379  27.974  1.00  0.00     0.009 A 
ATOM     71  C   UNL A   1      40.685  22.182  26.261  1.00  0.00     0.009 A 
ATOM     72  C   UNL A   1      41.879  20.058  27.625  1.00  0.00     0.001 A 
ATOM     73  C   UNL A   1      40.363  20.861  25.931  1.00  0.00     0.001 A 
ATOM     74  C   UNL A   1      40.968  19.800  26.605  1.00  0.00     0.000 A 
ENDBRANCH  55  69
BRANCH  56  75
ATOM     75  C   UNL A   1      44.742  31.745  29.241  1.00  0.00    -0.014 A 
ATOM     76  C   UNL A   1      44.727  32.647  28.163  1.00  0.00     0.009 A 
ATOM     77  C   UNL A   1      45.278  32.165  30.467  1.00  0.00     0.009 A 
ATOM     78  C   UNL A   1      45.292  33.916  28.289  1.00  0.00     0.001 A 
ATOM     79  C   UNL A   1      45.802  33.453  30.602  1.00  0.00     0.001 A 
ATOM     80  C   UNL A   1      45.827  34.319  29.509  1.00  0.00     0.000 A 
ENDBRANCH  56  75
BRANCH  68  81
ATOM     81  C   UNL A   1      47.944  25.837  27.277  1.00  0.00    -0.014 A 
ATOM     82  C   UNL A   1      48.728  25.286  28.301  1.00  0.00     0.009 A 
ATOM     83  C   UNL A   1      48.547  26.145  26.047  1.00  0.00     0.009 A 
ATOM     84  C   UNL A   1      50.093  25.064  28.107  1.00  0.00     0.001 A 
ATOM     85  C   UNL A   1      49.907  25.897  25.846  1.00  0.00     0.001 A 
ATOM     86  C   UNL A   1      50.680  25.368  26.879  1.00  0.00     0.000 A 
ENDBRANCH  68  81
ENDBRANCH  42  43
ENDBRANCH  35  37
ENDBRANCH  34  35
ENDBRANCH  33  34
ENDBRANCH   1  33
TORSDOF 16
ENDMDL
MODEL 2
REMARK VINA RESULT:     -13.4      4.502      9.539
REMARK SMILES O=C(CNC(=O)[C@@H](CC1=c2ccccc2=NC1)N1C(=O)N=C2C=CC=C[C@H]2C1=O)OCCOC(=O)c1ccc(-c2c3nc(c(-c4ccccc4)c4ccc([nH]4)c(-c4ccccc4)c4nc(c(-c5ccccc5)c5ccc2[nH]5)C=C4)C=C3)cc1
REMARK SMILES IDX 31 1 30 2 2 3 1 4 3 5 4 6 5 7 6 9 7 10 8 11 9 12 10 13 17 14
REMARK SMILES IDX 11 15 15 16 16 17 12 18 14 19 13 20 18 21 19 22 28 23 21 24
REMARK SMILES IDX 20 25 27 26 29 27 22 28 26 29 23 30 25 31 24 32 32 33 33 34
REMARK SMILES IDX 34 35 35 36 36 37 37 38 83 39 38 40 82 41 39 42 40 43 41 44
REMARK SMILES IDX 76 45 42 46 81 47 75 48 77 49 43 50 80 51 74 52 73 53 44 55
REMARK SMILES IDX 66 56 51 57 65 58 52 59 55 60 64 61 78 62 53 63 54 64 63 66
REMARK SMILES IDX 79 67 56 68 45 69 46 70 50 71 47 72 49 73 48 74 67 75 68 76
REMARK SMILES IDX 72 77 69 78 71 79 70 80 57 81 58 82 62 83 59 84 61 85 60 86
REMARK H PARENT 4 8 77 54 55 65
REMARK Flexibility Score: inf
ROOT
ATOM      1  C   UNL A   1      40.530  21.142  27.037  1.00  0.00     0.274 C 
ENDROOT
BRANCH   1   2
ATOM      2  O   UNL A   1      39.477  22.019  26.551  1.00  0.00    -0.461 OA
BRANCH   2   3
ATOM      3  C   UNL A   1      38.378  21.588  25.853  1.00  0.00     0.325 C 
ATOM      4  O   UNL A   1      38.436  20.546  25.195  1.00  0.00    -0.250 OA
BRANCH   3   5
ATOM      5  C   UNL A   1      37.303  22.646  25.471  1.00  0.00     0.238 C 
BRANCH   5   6
ATOM      6  N   UNL A   1      36.306  23.213  26.381  1.00  0.00    -0.343 N 
ATOM      7  C   UNL A   1      34.949  23.094  26.415  1.00  0.00     0.244 C 
ATOM      8  H   UNL A   1      36.682  23.778  27.094  1.00  0.00     0.164 HD
ATOM      9  O   UNL A   1      34.463  22.849  27.526  1.00  0.00    -0.273 OA
BRANCH   7  10
ATOM     10  C   UNL A   1      34.050  23.301  25.144  1.00  0.00     0.188 C 
BRANCH  10  11
ATOM     11  C   UNL A   1      33.016  21.919  25.191  1.00  0.00     0.069 C 
BRANCH  11  12
ATOM     12  C   UNL A   1      32.627  20.378  24.554  1.00  0.00    -0.037 C 
ATOM     13  C   UNL A   1      32.618  19.031  24.795  1.00  0.00     0.001 A 
ATOM     14  C   UNL A   1      32.159  20.519  23.099  1.00  0.00     0.174 C 
ATOM     15  C   UNL A   1      32.756  18.036  25.839  1.00  0.00     0.010 A 
ATOM     16  C   UNL A   1      32.700  18.467  23.408  1.00  0.00     0.065 A 
ATOM     17  N   UNL A   1      32.451  19.258  22.416  1.00  0.00    -0.280 NA
ATOM     18  C   UNL A   1      33.169  16.777  25.619  1.00  0.00     0.001 A 
ATOM     19  C   UNL A   1      33.206  17.078  23.227  1.00  0.00     0.028 A 
ATOM     20  C   UNL A   1      33.485  16.321  24.297  1.00  0.00     0.002 A 
ENDBRANCH  11  12
ENDBRANCH  10  11
BRANCH  10  21
ATOM     21  N   UNL A   1      33.727  24.822  25.248  1.00  0.00    -0.249 N 
ATOM     22  C   UNL A   1      33.472  25.407  23.992  1.00  0.00     0.351 C 
ATOM     23  C   UNL A   1      32.786  25.464  25.998  1.00  0.00     0.244 C 
ATOM     24  N   UNL A   1      33.566  26.784  23.848  1.00  0.00    -0.197 NA
ATOM     25  O   UNL A   1      33.078  24.721  23.054  1.00  0.00    -0.246 OA
ATOM     26  C   UNL A   1      33.131  26.945  26.236  1.00  0.00     0.151 C 
ATOM     27  O   UNL A   1      31.680  25.008  26.279  1.00  0.00    -0.273 OA
ATOM     28  C   UNL A   1      33.357  27.543  24.871  1.00  0.00     0.062 C 
ATOM     29  C   UNL A   1      32.147  27.796  27.010  1.00  0.00    -0.007 C 
ATOM     30  C   UNL A   1      33.354  29.027  24.746  1.00  0.00     0.025 C 
ATOM     31  C   UNL A   1      31.994  29.106  26.764  1.00  0.00    -0.003 C 
ATOM     32  C   UNL A   1      32.716  29.739  25.686  1.00  0.00     0.002 C 
ENDBRANCH  10  21
ENDBRANCH   7  10
ENDBRANCH   5   6
ENDBRANCH   3   5
ENDBRANCH   2   3
ENDBRANCH   1   2
BRANCH   1  33
ATOM     33  C   UNL A   1      41.830  21.023  26.055  1.00  0.00     0.275 C 
BRANCH  33  34
ATOM     34  O   UNL A   1      42.311  22.274  25.336  1.00  0.00    -0.458 OA
BRANCH  34  35
ATOM     35  C   UNL A   1      43.118  23.328  25.762  1.00  0.00     0.338 C 
ATOM     36  O   UNL A   1      44.338  23.324  25.670  1.00  0.00    -0.246 OA
BRANCH  35  37
ATOM     37  C   UNL A   1      42.347  24.516  26.459  1.00  0.00     0.060 A 
ATOM     38  C   UNL A   1      42.815  25.804  26.254  1.00  0.00     0.016 A 
ATOM     39  C   UNL A   1      41.270  24.460  27.362  1.00  0.00     0.016 A 
ATOM     40  C   UNL A   1      42.493  26.843  27.163  1.00  0.00     0.010 A 
ATOM     41  C   UNL A   1      40.974  25.459  28.322  1.00  0.00     0.010 A 
ATOM     42  C   UNL A   1      41.660  26.654  28.288  1.00  0.00    -0.014 A 
BRANCH  42  43
ATOM     43  C   UNL A   1      41.357  27.801  29.196  1.00  0.00     0.031 A 
ATOM     44  C   UNL A   1      40.161  28.717  29.076  1.00  0.00     0.074 A 
ATOM     45  C   UNL A   1      42.166  27.910  30.266  1.00  0.00     0.049 A 
ATOM     46  N   UNL A   1      39.618  29.471  30.006  1.00  0.00    -0.248 NA
ATOM     47  C   UNL A   1      39.506  28.838  27.765  1.00  0.00     0.031 C 
ATOM     48  C   UNL A   1      43.402  27.146  30.430  1.00  0.00     0.029 A 
ATOM     49  N   UNL A   1      42.023  28.589  31.448  1.00  0.00    -0.354 N 
ATOM     50  C   UNL A   1      38.564  30.153  29.401  1.00  0.00     0.074 A 
ATOM     51  C   UNL A   1      38.555  29.738  28.013  1.00  0.00     0.031 C 
ATOM     52  C   UNL A   1      43.803  27.247  31.698  1.00  0.00     0.029 A 
ATOM     53  C   UNL A   1      42.904  28.149  32.411  1.00  0.00     0.049 A 
ATOM     54  H   UNL A   1      41.367  29.309  31.592  1.00  0.00     0.167 HD
ATOM     55  C   UNL A   1      37.696  31.039  29.960  1.00  0.00     0.031 A 
ATOM     56  C   UNL A   1      42.965  28.396  33.733  1.00  0.00     0.031 A 
ATOM     57  C   UNL A   1      37.733  31.444  31.350  1.00  0.00     0.049 A 
ATOM     58  C   UNL A   1      41.943  29.298  34.351  1.00  0.00     0.074 A 
ATOM     59  C   UNL A   1      36.866  32.291  32.024  1.00  0.00     0.029 A 
ATOM     60  N   UNL A   1      38.683  31.036  32.274  1.00  0.00    -0.354 N 
ATOM     61  N   UNL A   1      40.901  29.862  33.790  1.00  0.00    -0.248 NA
ATOM     62  C   UNL A   1      42.109  29.610  35.776  1.00  0.00     0.031 C 
ATOM     63  C   UNL A   1      37.331  32.445  33.333  1.00  0.00     0.029 A 
ATOM     64  C   UNL A   1      38.443  31.638  33.499  1.00  0.00     0.049 A 
ATOM     65  H   UNL A   1      39.421  30.412  32.086  1.00  0.00     0.167 HD
ATOM     66  C   UNL A   1      40.300  30.618  34.786  1.00  0.00     0.074 A 
ATOM     67  C   UNL A   1      41.065  30.399  35.997  1.00  0.00     0.031 C 
ATOM     68  C   UNL A   1      39.224  31.434  34.693  1.00  0.00     0.031 A 
BRANCH  55  69
ATOM     69  C   UNL A   1      36.608  31.656  29.107  1.00  0.00    -0.014 A 
ATOM     70  C   UNL A   1      36.730  32.987  28.664  1.00  0.00     0.009 A 
ATOM     71  C   UNL A   1      35.392  30.992  28.890  1.00  0.00     0.009 A 
ATOM     72  C   UNL A   1      35.660  33.639  28.040  1.00  0.00     0.001 A 
ATOM     73  C   UNL A   1      34.331  31.637  28.243  1.00  0.00     0.001 A 
ATOM     74  C   UNL A   1      34.462  32.963  27.829  1.00  0.00     0.000 A 
ENDBRANCH  55  69
BRANCH  56  75
ATOM     75  C   UNL A   1      44.020  27.719  34.534  1.00  0.00    -0.014 A 
ATOM     76  C   UNL A   1      45.294  28.301  34.653  1.00  0.00     0.009 A 
ATOM     77  C   UNL A   1      43.806  26.442  35.072  1.00  0.00     0.009 A 
ATOM     78  C   UNL A   1      46.346  27.596  35.239  1.00  0.00     0.001 A 
ATOM     79  C   UNL A   1      44.851  25.758  35.698  1.00  0.00     0.001 A 
ATOM     80  C   UNL A   1      46.123  26.326  35.763  1.00  0.00     0.000 A 
ENDBRANCH  56  75
BRANCH  68  81
ATOM     81  C   UNL A   1      38.820  32.195  35.926  1.00  0.00    -0.014 A 
ATOM     82  C   UNL A   1      39.365  33.461  36.184  1.00  0.00     0.009 A 
ATOM     83  C   UNL A   1      37.977  31.608  36.884  1.00  0.00     0.009 A 
ATOM     84  C   UNL A   1      39.089  34.121  37.383  1.00  0.00     0.001 A 
ATOM     85  C   UNL A   1      37.682  32.281  38.071  1.00  0.00     0.001 A 
ATOM     86  C   UNL A   1      38.246  33.531  38.324  1.00  0.00     0.000 A 
ENDBRANCH  68  81
ENDBRANCH  42  43
ENDBRANCH  35  37
ENDBRANCH  34  35
ENDBRANCH  33  34
ENDBRANCH   1  33
TORSDOF 16
ENDMDL
MODEL 3
REMARK VINA RESULT:     -13.1      4.030      7.932
REMARK SMILES O=C(CNC(=O)[C@@H](CC1=c2ccccc2=NC1)N1C(=O)N=C2C=CC=C[C@H]2C1=O)OCCOC(=O)c1ccc(-c2c3nc(c(-c4ccccc4)c4ccc([nH]4)c(-c4ccccc4)c4nc(c(-c5ccccc5)c5ccc2[nH]5)C=C4)C=C3)cc1
REMARK SMILES IDX 31 1 30 2 2 3 1 4 3 5 4 6 5 7 6 9 7 10 8 11 9 12 10 13 17 14
REMARK SMILES IDX 11 15 15 16 16 17 12 18 14 19 13 20 18 21 19 22 28 23 21 24
REMARK SMILES IDX 20 25 27 26 29 27 22 28 26 29 23 30 25 31 24 32 32 33 33 34
REMARK SMILES IDX 34 35 35 36 36 37 37 38 83 39 38 40 82 41 39 42 40 43 41 44
REMARK SMILES IDX 76 45 42 46 81 47 75 48 77 49 43 50 80 51 74 52 73 53 44 55
REMARK SMILES IDX 66 56 51 57 65 58 52 59 55 60 64 61 78 62 53 63 54 64 63 66
REMARK SMILES IDX 79 67 56 68 45 69 46 70 50 71 47 72 49 73 48 74 67 75 68 76
REMARK SMILES IDX 72 77 69 78 71 79 70 80 57 81 58 82 62 83 59 84 61 85 60 86
REMARK H PARENT 4 8 77 54 55 65
REMARK Flexibility Score: inf
ROOT
ATOM      1  C   UNL A   1      32.327  26.600  25.938  1.00  0.00     0.274 C 
ENDROOT
BRANCH   1   2
ATOM      2  O   UNL A   1      31.481  25.445  25.682  1.00  0.00    -0.461 OA
BRANCH   2   3
ATOM      3  C   UNL A   1      31.053  25.067  24.435  1.00  0.00     0.325 C 
ATOM      4  O   UNL A   1      30.294  24.103  24.310  1.00  0.00    -0.250 OA
BRANCH   3   5
ATOM      5  C   UNL A   1      31.922  25.487  23.214  1.00  0.00     0.238 C 
BRANCH   5   6
ATOM      6  N   UNL A   1      33.244  24.952  22.886  1.00  0.00    -0.343 N 
ATOM      7  C   UNL A   1      33.747  23.687  22.965  1.00  0.00     0.244 C 
ATOM      8  H   UNL A   1      33.882  25.622  22.549  1.00  0.00     0.164 HD
ATOM      9  O   UNL A   1      34.368  23.297  21.968  1.00  0.00    -0.273 OA
BRANCH   7  10
ATOM     10  C   UNL A   1      33.596  22.795  24.248  1.00  0.00     0.188 C 
BRANCH  10  11
ATOM     11  C   UNL A   1      32.661  21.465  23.668  1.00  0.00     0.069 C 
BRANCH  11  12
ATOM     12  C   UNL A   1      32.456  19.767  23.578  1.00  0.00    -0.037 C 
ATOM     13  C   UNL A   1      32.523  18.588  24.272  1.00  0.00     0.001 A 
ATOM     14  C   UNL A   1      32.136  19.356  22.135  1.00  0.00     0.174 C 
ATOM     15  C   UNL A   1      32.622  18.026  25.603  1.00  0.00     0.010 A 
ATOM     16  C   UNL A   1      32.792  17.600  23.176  1.00  0.00     0.065 A 
ATOM     17  N   UNL A   1      32.592  17.977  21.956  1.00  0.00    -0.280 NA
ATOM     18  C   UNL A   1      33.148  16.819  25.865  1.00  0.00     0.001 A 
ATOM     19  C   UNL A   1      33.417  16.294  23.527  1.00  0.00     0.028 A 
ATOM     20  C   UNL A   1      33.635  15.979  24.811  1.00  0.00     0.002 A 
ENDBRANCH  11  12
ENDBRANCH  10  11
BRANCH  10  21
ATOM     21  N   UNL A   1      35.042  22.852  24.826  1.00  0.00    -0.249 N 
ATOM     22  C   UNL A   1      35.110  23.562  26.042  1.00  0.00     0.351 C 
ATOM     23  C   UNL A   1      35.910  21.837  25.101  1.00  0.00     0.244 C 
ATOM     24  N   UNL A   1      36.333  24.050  26.479  1.00  0.00    -0.197 NA
ATOM     25  O   UNL A   1      34.120  23.669  26.757  1.00  0.00    -0.246 OA
ATOM     26  C   UNL A   1      37.376  22.309  25.138  1.00  0.00     0.151 C 
ATOM     27  O   UNL A   1      35.585  20.720  25.495  1.00  0.00    -0.273 OA
ATOM     28  C   UNL A   1      37.419  23.452  26.120  1.00  0.00     0.062 C 
ATOM     29  C   UNL A   1      38.447  21.297  25.485  1.00  0.00    -0.007 C 
ATOM     30  C   UNL A   1      38.748  23.881  26.638  1.00  0.00     0.025 C 
ATOM     31  C   UNL A   1      39.568  21.645  26.136  1.00  0.00    -0.003 C 
ATOM     32  C   UNL A   1      39.756  22.998  26.602  1.00  0.00     0.002 C 
ENDBRANCH  10  21
ENDBRANCH   7  10
ENDBRANCH   5   6
ENDBRANCH   3   5
ENDBRANCH   2   3
ENDBRANCH   1   2
BRANCH   1  33
ATOM     33  C   UNL A   1      31.540  28.030  25.980  1.00  0.00     0.275 C 
BRANCH  33  34
ATOM     34  O   UNL A   1      31.915  29.033  27.060  1.00  0.00    -0.458 OA
BRANCH  34  35
ATOM     35  C   UNL A   1      32.401  30.337  26.977  1.00  0.00     0.338 C 
ATOM     36  O   UNL A   1      31.736  31.282  26.576  1.00  0.00    -0.246 OA
BRANCH  35  37
ATOM     37  C   UNL A   1      33.923  30.506  27.365  1.00  0.00     0.060 A 
ATOM     38  C   UNL A   1      34.663  29.359  27.606  1.00  0.00     0.016 A 
ATOM     39  C   UNL A   1      34.649  31.687  27.597  1.00  0.00     0.016 A 
ATOM     40  C   UNL A   1      35.851  29.415  28.376  1.00  0.00     0.010 A 
ATOM     41  C   UNL A   1      35.801  31.773  28.419  1.00  0.00     0.010 A 
ATOM     42  C   UNL A   1      36.375  30.617  28.901  1.00  0.00    -0.014 A 
BRANCH  42  43
ATOM     43  C   UNL A   1      37.640  30.598  29.696  1.00  0.00     0.031 A 
ATOM     44  C   UNL A   1      37.758  30.963  31.158  1.00  0.00     0.074 A 
ATOM     45  C   UNL A   1      38.708  30.087  29.056  1.00  0.00     0.049 A 
ATOM     46  N   UNL A   1      38.699  30.618  32.008  1.00  0.00    -0.248 NA
ATOM     47  C   UNL A   1      36.728  31.835  31.743  1.00  0.00     0.031 C 
ATOM     48  C   UNL A   1      38.732  29.797  27.624  1.00  0.00     0.029 A 
ATOM     49  N   UNL A   1      39.906  29.612  29.524  1.00  0.00    -0.354 N 
ATOM     50  C   UNL A   1      38.383  31.227  33.222  1.00  0.00     0.074 A 
ATOM     51  C   UNL A   1      37.167  31.981  32.992  1.00  0.00     0.031 C 
ATOM     52  C   UNL A   1      39.793  29.031  27.359  1.00  0.00     0.029 A 
ATOM     53  C   UNL A   1      40.565  28.850  28.584  1.00  0.00     0.049 A 
ATOM     54  H   UNL A   1      40.254  29.794  30.426  1.00  0.00     0.167 HD
ATOM     55  C   UNL A   1      39.051  31.157  34.405  1.00  0.00     0.031 A 
ATOM     56  C   UNL A   1      41.643  28.051  28.693  1.00  0.00     0.031 A 
ATOM     57  C   UNL A   1      40.270  30.402  34.604  1.00  0.00     0.049 A 
ATOM     58  C   UNL A   1      42.311  27.909  30.025  1.00  0.00     0.074 A 
ATOM     59  C   UNL A   1      40.992  30.223  35.775  1.00  0.00     0.029 A 
ATOM     60  N   UNL A   1      40.948  29.706  33.613  1.00  0.00    -0.354 N 
ATOM     61  N   UNL A   1      41.950  28.413  31.180  1.00  0.00    -0.248 NA
ATOM     62  C   UNL A   1      43.537  27.103  30.070  1.00  0.00     0.031 C 
ATOM     63  C   UNL A   1      42.136  29.477  35.477  1.00  0.00     0.029 A 
ATOM     64  C   UNL A   1      42.093  29.127  34.138  1.00  0.00     0.049 A 
ATOM     65  H   UNL A   1      40.660  29.637  32.675  1.00  0.00     0.167 HD
ATOM     66  C   UNL A   1      42.919  28.008  32.087  1.00  0.00     0.074 A 
ATOM     67  C   UNL A   1      43.854  27.175  31.357  1.00  0.00     0.031 C 
ATOM     68  C   UNL A   1      43.030  28.320  33.399  1.00  0.00     0.031 A 
BRANCH  55  69
ATOM     69  C   UNL A   1      38.512  31.897  35.610  1.00  0.00    -0.014 A 
ATOM     70  C   UNL A   1      38.747  33.278  35.751  1.00  0.00     0.009 A 
ATOM     71  C   UNL A   1      37.932  31.209  36.685  1.00  0.00     0.009 A 
ATOM     72  C   UNL A   1      38.429  33.945  36.939  1.00  0.00     0.001 A 
ATOM     73  C   UNL A   1      37.590  31.882  37.864  1.00  0.00     0.001 A 
ATOM     74  C   UNL A   1      37.848  33.246  37.994  1.00  0.00     0.000 A 
ENDBRANCH  55  69
BRANCH  56  75
ATOM     75  C   UNL A   1      42.097  27.303  27.490  1.00  0.00    -0.014 A 
ATOM     76  C   UNL A   1      42.623  27.997  26.387  1.00  0.00     0.009 A 
ATOM     77  C   UNL A   1      41.892  25.920  27.385  1.00  0.00     0.009 A 
ATOM     78  C   UNL A   1      42.878  27.336  25.186  1.00  0.00     0.001 A 
ATOM     79  C   UNL A   1      42.190  25.253  26.193  1.00  0.00     0.001 A 
ATOM     80  C   UNL A   1      42.664  25.964  25.090  1.00  0.00     0.000 A 
ENDBRANCH  56  75
BRANCH  68  81
ATOM     81  C   UNL A   1      44.228  27.793  34.141  1.00  0.00    -0.014 A 
ATOM     82  C   UNL A   1      44.133  26.605  34.881  1.00  0.00     0.009 A 
ATOM     83  C   UNL A   1      45.421  28.531  34.189  1.00  0.00     0.009 A 
ATOM     84  C   UNL A   1      45.202  26.173  35.668  1.00  0.00     0.001 A 
ATOM     85  C   UNL A   1      46.498  28.083  34.957  1.00  0.00     0.001 A 
ATOM     86  C   UNL A   1      46.383  26.912  35.704  1.00  0.00     0.000 A 
ENDBRANCH  68  81
ENDBRANCH  42  43
ENDBRANCH  35  37
ENDBRANCH  34  35
ENDBRANCH  33  34
ENDBRANCH   1  33
TORSDOF 16
ENDMDL
