MODEL 1
REMARK VINA RESULT:      -9.7      0.000      0.000
REMARK SMILES CC[C@H](C(=O)OCCOC(=O)c1ccc(-c2c3nc(c(-c4ccccc4)c4ccc([nH]4)c(-c4ccccc4)c4nc(c(-c5ccccc5)c5ccc2[nH]5)C=C4)C=C3)cc1)N(C)c1cc(C)ccc1[N+](=O)[O-]
REMARK SMILES IDX 7 1 6 2 4 3 5 4 3 5 2 6 1 7 60 8 61 9 62 10 63 11 68 12
REMARK SMILES IDX 64 13 67 14 65 15 66 16 69 17 70 18 71 19 8 20 9 21 10 22
REMARK SMILES IDX 11 23 12 24 13 25 59 26 14 27 58 28 15 29 16 30 17 31 52 32
REMARK SMILES IDX 18 33 57 34 51 35 53 36 19 37 56 38 50 39 49 40 20 42 42 43
REMARK SMILES IDX 27 44 41 45 28 46 31 47 40 48 54 49 29 50 30 51 39 53 55 54
REMARK SMILES IDX 32 55 21 56 22 57 26 58 23 59 25 60 24 61 43 62 44 63 48 64
REMARK SMILES IDX 45 65 47 66 46 67 33 68 34 69 38 70 35 71 37 72 36 73
REMARK H PARENT 53 41 31 52
REMARK Flexibility Score: inf
ROOT
ATOM      1  C   UNL A   1      37.769  20.683  25.124  1.00  0.00     0.274 C 
ENDROOT
BRANCH   1   2
ATOM      2  O   UNL A   1      37.216  21.081  23.854  1.00  0.00    -0.461 OA
BRANCH   2   3
ATOM      3  C   UNL A   1      36.659  22.318  23.820  1.00  0.00     0.328 C 
ATOM      4  O   UNL A   1      36.559  22.988  22.793  1.00  0.00    -0.250 OA
BRANCH   3   5
ATOM      5  C   UNL A   1      36.111  22.802  25.175  1.00  0.00     0.192 C 
BRANCH   5   6
ATOM      6  C   UNL A   1      36.621  24.076  25.865  1.00  0.00     0.034 C 
ATOM      7  C   UNL A   1      38.082  24.064  26.287  1.00  0.00     0.007 C 
ENDBRANCH   5   6
BRANCH   5   8
ATOM      8  N   UNL A   1      34.601  22.818  25.186  1.00  0.00    -0.356 N 
ATOM      9  C   UNL A   1      34.009  23.808  26.104  1.00  0.00     0.145 C 
BRANCH   8  10
ATOM     10  C   UNL A   1      33.720  22.006  24.457  1.00  0.00     0.116 A 
ATOM     11  C   UNL A   1      33.522  20.673  24.919  1.00  0.00     0.036 A 
ATOM     12  C   UNL A   1      33.000  22.281  23.269  1.00  0.00     0.292 A 
ATOM     13  C   UNL A   1      32.754  19.694  24.251  1.00  0.00    -0.049 A 
ATOM     14  C   UNL A   1      32.264  21.297  22.559  1.00  0.00     0.088 A 
ATOM     15  C   UNL A   1      32.578  18.334  24.858  1.00  0.00     0.044 C 
ATOM     16  C   UNL A   1      32.153  20.007  23.043  1.00  0.00     0.010 A 
BRANCH  12  17
ATOM     17  N   UNL A   1      32.867  23.581  22.650  1.00  0.00     0.064 N 
ATOM     18  O   UNL A   1      32.209  24.442  23.254  1.00  0.00    -0.258 OA
ATOM     19  O   UNL A   1      33.537  23.794  21.629  1.00  0.00    -0.258 OA
ENDBRANCH  12  17
ENDBRANCH   8  10
ENDBRANCH   5   8
ENDBRANCH   3   5
ENDBRANCH   2   3
ENDBRANCH   1   2
BRANCH   1  20
ATOM     20  C   UNL A   1      38.823  19.575  25.019  1.00  0.00     0.275 C 
BRANCH  20  21
ATOM     21  O   UNL A   1      39.570  19.404  26.236  1.00  0.00    -0.458 OA
BRANCH  21  22
ATOM     22  C   UNL A   1      40.900  19.635  26.122  1.00  0.00     0.338 C 
ATOM     23  O   UNL A   1      41.721  18.945  25.545  1.00  0.00    -0.246 OA
BRANCH  22  24
ATOM     24  C   UNL A   1      41.224  20.972  26.658  1.00  0.00     0.060 A 
ATOM     25  C   UNL A   1      41.512  21.979  25.728  1.00  0.00     0.016 A 
ATOM     26  C   UNL A   1      41.289  21.232  28.025  1.00  0.00     0.016 A 
ATOM     27  C   UNL A   1      41.872  23.253  26.155  1.00  0.00     0.010 A 
ATOM     28  C   UNL A   1      41.674  22.504  28.456  1.00  0.00     0.010 A 
ATOM     29  C   UNL A   1      41.982  23.512  27.523  1.00  0.00    -0.014 A 
BRANCH  29  30
ATOM     30  C   UNL A   1      42.561  24.794  27.979  1.00  0.00     0.031 A 
ATOM     31  C   UNL A   1      41.630  25.900  28.380  1.00  0.00     0.074 A 
ATOM     32  C   UNL A   1      43.893  24.964  28.048  1.00  0.00     0.049 A 
ATOM     33  N   UNL A   1      41.900  27.140  28.692  1.00  0.00    -0.248 NA
ATOM     34  C   UNL A   1      40.198  25.559  28.436  1.00  0.00     0.031 C 
ATOM     35  C   UNL A   1      44.893  23.935  27.764  1.00  0.00     0.029 A 
ATOM     36  N   UNL A   1      44.630  26.074  28.369  1.00  0.00    -0.354 N 
ATOM     37  C   UNL A   1      40.673  27.735  28.954  1.00  0.00     0.074 A 
ATOM     38  C   UNL A   1      39.656  26.726  28.753  1.00  0.00     0.031 C 
ATOM     39  C   UNL A   1      46.118  24.471  27.905  1.00  0.00     0.029 A 
ATOM     40  C   UNL A   1      45.984  25.887  28.238  1.00  0.00     0.049 A 
ATOM     41  H   UNL A   1      44.227  26.923  28.664  1.00  0.00     0.167 HD
ATOM     42  C   UNL A   1      40.418  29.012  29.323  1.00  0.00     0.031 A 
ATOM     43  C   UNL A   1      46.994  26.773  28.332  1.00  0.00     0.031 A 
ATOM     44  C   UNL A   1      41.435  30.013  29.505  1.00  0.00     0.049 A 
ATOM     45  C   UNL A   1      46.678  28.213  28.642  1.00  0.00     0.074 A 
ATOM     46  C   UNL A   1      41.285  31.337  29.874  1.00  0.00     0.029 A 
ATOM     47  N   UNL A   1      42.792  29.797  29.320  1.00  0.00    -0.354 N 
ATOM     48  N   UNL A   1      45.516  28.773  28.884  1.00  0.00    -0.248 NA
ATOM     49  C   UNL A   1      47.814  29.145  28.689  1.00  0.00     0.031 C 
ATOM     50  C   UNL A   1      42.548  31.938  29.854  1.00  0.00     0.029 A 
ATOM     51  C   UNL A   1      43.490  30.971  29.540  1.00  0.00     0.049 A 
ATOM     52  H   UNL A   1      43.199  28.936  29.069  1.00  0.00     0.167 HD
ATOM     53  C   UNL A   1      45.784  30.112  29.142  1.00  0.00     0.074 A 
ATOM     54  C   UNL A   1      47.219  30.277  29.039  1.00  0.00     0.031 C 
ATOM     55  C   UNL A   1      44.920  31.114  29.441  1.00  0.00     0.031 A 
BRANCH  42  56
ATOM     56  C   UNL A   1      38.979  29.408  29.496  1.00  0.00    -0.014 A 
ATOM     57  C   UNL A   1      38.232  29.949  28.437  1.00  0.00     0.009 A 
ATOM     58  C   UNL A   1      38.354  29.217  30.739  1.00  0.00     0.009 A 
ATOM     59  C   UNL A   1      36.901  30.325  28.632  1.00  0.00     0.001 A 
ATOM     60  C   UNL A   1      37.015  29.565  30.922  1.00  0.00     0.001 A 
ATOM     61  C   UNL A   1      36.293  30.128  29.871  1.00  0.00     0.000 A 
ENDBRANCH  42  56
BRANCH  43  62
ATOM     62  C   UNL A   1      48.396  26.339  28.088  1.00  0.00    -0.014 A 
ATOM     63  C   UNL A   1      49.193  25.864  29.141  1.00  0.00     0.009 A 
ATOM     64  C   UNL A   1      48.952  26.420  26.802  1.00  0.00     0.009 A 
ATOM     65  C   UNL A   1      50.524  25.504  28.915  1.00  0.00     0.001 A 
ATOM     66  C   UNL A   1      50.273  26.028  26.572  1.00  0.00     0.001 A 
ATOM     67  C   UNL A   1      51.061  25.581  27.630  1.00  0.00     0.000 A 
ENDBRANCH  43  62
BRANCH  55  68
ATOM     68  C   UNL A   1      45.504  32.468  29.729  1.00  0.00    -0.014 A 
ATOM     69  C   UNL A   1      45.930  32.824  31.019  1.00  0.00     0.009 A 
ATOM     70  C   UNL A   1      45.689  33.378  28.676  1.00  0.00     0.009 A 
ATOM     71  C   UNL A   1      46.503  34.076  31.250  1.00  0.00     0.001 A 
ATOM     72  C   UNL A   1      46.290  34.616  28.905  1.00  0.00     0.001 A 
ATOM     73  C   UNL A   1      46.689  34.967  30.194  1.00  0.00     0.000 A 
ENDBRANCH  55  68
ENDBRANCH  29  30
ENDBRANCH  22  24
ENDBRANCH  21  22
ENDBRANCH  20  21
ENDBRANCH   1  20
TORSDOF 15
ENDMDL
MODEL 2
REMARK VINA RESULT:      -9.6      2.966      7.248
REMARK SMILES CC[C@H](C(=O)OCCOC(=O)c1ccc(-c2c3nc(c(-c4ccccc4)c4ccc([nH]4)c(-c4ccccc4)c4nc(c(-c5ccccc5)c5ccc2[nH]5)C=C4)C=C3)cc1)N(C)c1cc(C)ccc1[N+](=O)[O-]
REMARK SMILES IDX 7 1 6 2 4 3 5 4 3 5 2 6 1 7 60 8 61 9 62 10 63 11 68 12
REMARK SMILES IDX 64 13 67 14 65 15 66 16 69 17 70 18 71 19 8 20 9 21 10 22
REMARK SMILES IDX 11 23 12 24 13 25 59 26 14 27 58 28 15 29 16 30 17 31 52 32
REMARK SMILES IDX 18 33 57 34 51 35 53 36 19 37 56 38 50 39 49 40 20 42 42 43
REMARK SMILES IDX 27 44 41 45 28 46 31 47 40 48 54 49 29 50 30 51 39 53 55 54
REMARK SMILES IDX 32 55 21 56 22 57 26 58 23 59 25 60 24 61 43 62 44 63 48 64
REMARK SMILES IDX 45 65 47 66 46 67 33 68 34 69 38 70 35 71 37 72 36 73
REMARK H PARENT 53 41 31 52
REMARK Flexibility Score: inf
ROOT
ATOM      1  C   UNL A   1      33.894  28.419  25.180  1.00  0.00     0.274 C 
ENDROOT
BRANCH   1   2
ATOM      2  O   UNL A   1      33.489  28.714  23.829  1.00  0.00    -0.461 OA
BRANCH   2   3
ATOM      3  C   UNL A   1      32.958  27.674  23.137  1.00  0.00     0.328 C 
ATOM      4  O   UNL A   1      33.429  27.251  22.082  1.00  0.00    -0.250 OA
BRANCH   3   5
ATOM      5  C   UNL A   1      31.735  27.025  23.811  1.00  0.00     0.192 C 
BRANCH   5   6
ATOM      6  C   UNL A   1      30.295  27.309  23.357  1.00  0.00     0.034 C 
ATOM      7  C   UNL A   1      30.066  28.650  22.676  1.00  0.00     0.007 C 
ENDBRANCH   5   6
BRANCH   5   8
ATOM      8  N   UNL A   1      31.910  25.532  23.953  1.00  0.00    -0.356 N 
ATOM      9  C   UNL A   1      31.237  24.737  22.911  1.00  0.00     0.145 C 
BRANCH   8  10
ATOM     10  C   UNL A   1      32.605  24.832  24.951  1.00  0.00     0.116 A 
ATOM     11  C   UNL A   1      34.014  24.697  24.796  1.00  0.00     0.036 A 
ATOM     12  C   UNL A   1      32.120  24.175  26.108  1.00  0.00     0.292 A 
ATOM     13  C   UNL A   1      34.849  23.940  25.648  1.00  0.00    -0.049 A 
ATOM     14  C   UNL A   1      32.935  23.371  26.946  1.00  0.00     0.088 A 
ATOM     15  C   UNL A   1      36.331  23.907  25.413  1.00  0.00     0.044 C 
ATOM     16  C   UNL A   1      34.291  23.245  26.708  1.00  0.00     0.010 A 
BRANCH  12  17
ATOM     17  N   UNL A   1      30.771  24.267  26.622  1.00  0.00     0.064 N 
ATOM     18  O   UNL A   1      30.340  23.310  27.283  1.00  0.00    -0.258 OA
ATOM     19  O   UNL A   1      30.187  25.351  26.488  1.00  0.00    -0.258 OA
ENDBRANCH  12  17
ENDBRANCH   8  10
ENDBRANCH   5   8
ENDBRANCH   3   5
ENDBRANCH   2   3
ENDBRANCH   1   2
BRANCH   1  20
ATOM     20  C   UNL A   1      33.349  29.406  26.218  1.00  0.00     0.275 C 
BRANCH  20  21
ATOM     21  O   UNL A   1      33.974  29.259  27.505  1.00  0.00    -0.458 OA
BRANCH  21  22
ATOM     22  C   UNL A   1      34.589  30.375  27.967  1.00  0.00     0.338 C 
ATOM     23  O   UNL A   1      34.083  31.465  28.166  1.00  0.00    -0.246 OA
BRANCH  22  24
ATOM     24  C   UNL A   1      35.967  30.052  28.381  1.00  0.00     0.060 A 
ATOM     25  C   UNL A   1      36.961  30.109  27.396  1.00  0.00     0.016 A 
ATOM     26  C   UNL A   1      36.284  29.661  29.681  1.00  0.00     0.016 A 
ATOM     27  C   UNL A   1      38.276  29.773  27.697  1.00  0.00     0.010 A 
ATOM     28  C   UNL A   1      37.600  29.300  29.980  1.00  0.00     0.010 A 
ATOM     29  C   UNL A   1      38.595  29.339  28.985  1.00  0.00    -0.014 A 
BRANCH  29  30
ATOM     30  C   UNL A   1      39.939  28.785  29.257  1.00  0.00     0.031 A 
ATOM     31  C   UNL A   1      40.958  29.666  29.917  1.00  0.00     0.074 A 
ATOM     32  C   UNL A   1      40.240  27.515  28.934  1.00  0.00     0.049 A 
ATOM     33  N   UNL A   1      42.227  29.444  30.141  1.00  0.00    -0.248 NA
ATOM     34  C   UNL A   1      40.481  30.978  30.387  1.00  0.00     0.031 C 
ATOM     35  C   UNL A   1      39.307  26.542  28.367  1.00  0.00     0.029 A 
ATOM     36  N   UNL A   1      41.425  26.833  29.031  1.00  0.00    -0.354 N 
ATOM     37  C   UNL A   1      42.705  30.596  30.753  1.00  0.00     0.074 A 
ATOM     38  C   UNL A   1      41.596  31.519  30.853  1.00  0.00     0.031 C 
ATOM     39  C   UNL A   1      39.964  25.390  28.146  1.00  0.00     0.029 A 
ATOM     40  C   UNL A   1      41.369  25.564  28.509  1.00  0.00     0.049 A 
ATOM     41  H   UNL A   1      42.238  27.216  29.434  1.00  0.00     0.167 HD
ATOM     42  C   UNL A   1      43.960  30.860  31.185  1.00  0.00     0.031 A 
ATOM     43  C   UNL A   1      42.351  24.665  28.308  1.00  0.00     0.031 A 
ATOM     44  C   UNL A   1      45.060  29.941  31.066  1.00  0.00     0.049 A 
ATOM     45  C   UNL A   1      43.761  25.022  28.702  1.00  0.00     0.074 A 
ATOM     46  C   UNL A   1      46.372  30.110  31.468  1.00  0.00     0.029 A 
ATOM     47  N   UNL A   1      44.973  28.681  30.491  1.00  0.00    -0.354 N 
ATOM     48  N   UNL A   1      44.210  26.113  29.275  1.00  0.00    -0.248 NA
ATOM     49  C   UNL A   1      44.801  24.022  28.419  1.00  0.00     0.031 C 
ATOM     50  C   UNL A   1      47.094  28.975  31.082  1.00  0.00     0.029 A 
ATOM     51  C   UNL A   1      46.215  28.073  30.504  1.00  0.00     0.049 A 
ATOM     52  H   UNL A   1      44.150  28.280  30.130  1.00  0.00     0.167 HD
ATOM     53  C   UNL A   1      45.575  25.919  29.449  1.00  0.00     0.074 A 
ATOM     54  C   UNL A   1      45.878  24.601  28.932  1.00  0.00     0.031 C 
ATOM     55  C   UNL A   1      46.495  26.755  29.991  1.00  0.00     0.031 A 
BRANCH  42  56
ATOM     56  C   UNL A   1      44.217  32.219  31.772  1.00  0.00    -0.014 A 
ATOM     57  C   UNL A   1      44.599  33.307  30.971  1.00  0.00     0.009 A 
ATOM     58  C   UNL A   1      44.055  32.417  33.153  1.00  0.00     0.009 A 
ATOM     59  C   UNL A   1      44.850  34.554  31.547  1.00  0.00     0.001 A 
ATOM     60  C   UNL A   1      44.276  33.673  33.721  1.00  0.00     0.001 A 
ATOM     61  C   UNL A   1      44.683  34.737  32.919  1.00  0.00     0.000 A 
ENDBRANCH  42  56
BRANCH  43  62
ATOM     62  C   UNL A   1      42.051  23.359  27.664  1.00  0.00    -0.014 A 
ATOM     63  C   UNL A   1      42.161  23.202  26.274  1.00  0.00     0.009 A 
ATOM     64  C   UNL A   1      41.629  22.265  28.436  1.00  0.00     0.009 A 
ATOM     65  C   UNL A   1      41.830  21.986  25.670  1.00  0.00     0.001 A 
ATOM     66  C   UNL A   1      41.331  21.041  27.834  1.00  0.00     0.001 A 
ATOM     67  C   UNL A   1      41.421  20.905  26.451  1.00  0.00     0.000 A 
ENDBRANCH  43  62
BRANCH  55  68
ATOM     68  C   UNL A   1      47.907  26.253  30.102  1.00  0.00    -0.014 A 
ATOM     69  C   UNL A   1      48.796  26.317  29.017  1.00  0.00     0.009 A 
ATOM     70  C   UNL A   1      48.371  25.766  31.334  1.00  0.00     0.009 A 
ATOM     71  C   UNL A   1      50.113  25.877  29.160  1.00  0.00     0.001 A 
ATOM     72  C   UNL A   1      49.697  25.356  31.482  1.00  0.00     0.001 A 
ATOM     73  C   UNL A   1      50.564  25.404  30.392  1.00  0.00     0.000 A 
ENDBRANCH  55  68
ENDBRANCH  29  30
ENDBRANCH  22  24
ENDBRANCH  21  22
ENDBRANCH  20  21
ENDBRANCH   1  20
TORSDOF 15
ENDMDL
MODEL 3
REMARK VINA RESULT:      -9.5      2.352      3.244
REMARK SMILES CC[C@H](C(=O)OCCOC(=O)c1ccc(-c2c3nc(c(-c4ccccc4)c4ccc([nH]4)c(-c4ccccc4)c4nc(c(-c5ccccc5)c5ccc2[nH]5)C=C4)C=C3)cc1)N(C)c1cc(C)ccc1[N+](=O)[O-]
REMARK SMILES IDX 7 1 6 2 4 3 5 4 3 5 2 6 1 7 60 8 61 9 62 10 63 11 68 12
REMARK SMILES IDX 64 13 67 14 65 15 66 16 69 17 70 18 71 19 8 20 9 21 10 22
REMARK SMILES IDX 11 23 12 24 13 25 59 26 14 27 58 28 15 29 16 30 17 31 52 32
REMARK SMILES IDX 18 33 57 34 51 35 53 36 19 37 56 38 50 39 49 40 20 42 42 43
REMARK SMILES IDX 27 44 41 45 28 46 31 47 40 48 54 49 29 50 30 51 39 53 55 54
REMARK SMILES IDX 32 55 21 56 22 57 26 58 23 59 25 60 24 61 43 62 44 63 48 64
REMARK SMILES IDX 45 65 47 66 46 67 33 68 34 69 38 70 35 71 37 72 36 73
REMARK H PARENT 53 41 31 52
REMARK Flexibility Score: inf
ROOT
ATOM      1  C   UNL A   1      35.821  20.107  25.336  1.00  0.00     0.274 C 
ENDROOT
BRANCH   1   2
ATOM      2  O   UNL A   1      34.797  20.566  24.432  1.00  0.00    -0.461 OA
BRANCH   2   3
ATOM      3  C   UNL A   1      33.754  21.215  25.009  1.00  0.00     0.328 C 
ATOM      4  O   UNL A   1      32.880  20.647  25.661  1.00  0.00    -0.250 OA
BRANCH   3   5
ATOM      5  C   UNL A   1      33.780  22.743  24.823  1.00  0.00     0.192 C 
BRANCH   5   6
ATOM      6  C   UNL A   1      35.035  23.497  24.357  1.00  0.00     0.034 C 
ATOM      7  C   UNL A   1      35.702  24.383  25.398  1.00  0.00     0.007 C 
ENDBRANCH   5   6
BRANCH   5   8
ATOM      8  N   UNL A   1      32.601  23.221  24.010  1.00  0.00    -0.356 N 
ATOM      9  C   UNL A   1      32.450  22.554  22.705  1.00  0.00     0.145 C 
BRANCH   8  10
ATOM     10  C   UNL A   1      31.668  24.216  24.338  1.00  0.00     0.116 A 
ATOM     11  C   UNL A   1      31.477  25.270  23.401  1.00  0.00     0.036 A 
ATOM     12  C   UNL A   1      30.885  24.380  25.508  1.00  0.00     0.292 A 
ATOM     13  C   UNL A   1      30.657  26.401  23.616  1.00  0.00    -0.049 A 
ATOM     14  C   UNL A   1      30.096  25.531  25.761  1.00  0.00     0.088 A 
ATOM     15  C   UNL A   1      30.496  27.428  22.534  1.00  0.00     0.044 C 
ATOM     16  C   UNL A   1      29.994  26.542  24.823  1.00  0.00     0.010 A 
BRANCH  12  17
ATOM     17  N   UNL A   1      30.737  23.402  26.563  1.00  0.00     0.064 N 
ATOM     18  O   UNL A   1      30.094  22.372  26.308  1.00  0.00    -0.258 OA
ATOM     19  O   UNL A   1      31.381  23.591  27.605  1.00  0.00    -0.258 OA
ENDBRANCH  12  17
ENDBRANCH   8  10
ENDBRANCH   5   8
ENDBRANCH   3   5
ENDBRANCH   2   3
ENDBRANCH   1   2
BRANCH   1  20
ATOM     20  C   UNL A   1      37.245  20.291  24.801  1.00  0.00     0.275 C 
BRANCH  20  21
ATOM     21  O   UNL A   1      37.914  21.424  25.382  1.00  0.00    -0.458 OA
BRANCH  21  22
ATOM     22  C   UNL A   1      39.069  21.130  26.028  1.00  0.00     0.338 C 
ATOM     23  O   UNL A   1      39.644  20.057  26.057  1.00  0.00    -0.246 OA
BRANCH  22  24
ATOM     24  C   UNL A   1      39.664  22.364  26.576  1.00  0.00     0.060 A 
ATOM     25  C   UNL A   1      39.156  23.582  26.106  1.00  0.00     0.016 A 
ATOM     26  C   UNL A   1      40.718  22.344  27.488  1.00  0.00     0.016 A 
ATOM     27  C   UNL A   1      39.696  24.788  26.538  1.00  0.00     0.010 A 
ATOM     28  C   UNL A   1      41.278  23.554  27.905  1.00  0.00     0.010 A 
ATOM     29  C   UNL A   1      40.780  24.777  27.419  1.00  0.00    -0.014 A 
BRANCH  29  30
ATOM     30  C   UNL A   1      41.489  26.039  27.719  1.00  0.00     0.031 A 
ATOM     31  C   UNL A   1      40.807  27.057  28.586  1.00  0.00     0.074 A 
ATOM     32  C   UNL A   1      42.724  26.268  27.239  1.00  0.00     0.049 A 
ATOM     33  N   UNL A   1      41.175  28.276  28.881  1.00  0.00    -0.248 NA
ATOM     34  C   UNL A   1      39.535  26.643  29.202  1.00  0.00     0.031 C 
ATOM     35  C   UNL A   1      43.517  25.320  26.457  1.00  0.00     0.029 A 
ATOM     36  N   UNL A   1      43.520  27.380  27.334  1.00  0.00    -0.354 N 
ATOM     37  C   UNL A   1      40.170  28.783  29.694  1.00  0.00     0.074 A 
ATOM     38  C   UNL A   1      39.171  27.747  29.835  1.00  0.00     0.031 C 
ATOM     39  C   UNL A   1      44.683  25.901  26.126  1.00  0.00     0.029 A 
ATOM     40  C   UNL A   1      44.693  27.273  26.628  1.00  0.00     0.049 A 
ATOM     41  H   UNL A   1      43.274  28.177  27.857  1.00  0.00     0.167 HD
ATOM     42  C   UNL A   1      40.087  30.007  30.266  1.00  0.00     0.031 A 
ATOM     43  C   UNL A   1      45.642  28.196  26.381  1.00  0.00     0.031 A 
ATOM     44  C   UNL A   1      41.079  31.036  30.106  1.00  0.00     0.049 A 
ATOM     45  C   UNL A   1      45.478  29.584  26.942  1.00  0.00     0.074 A 
ATOM     46  C   UNL A   1      41.091  32.313  30.639  1.00  0.00     0.029 A 
ATOM     47  N   UNL A   1      42.232  30.905  29.347  1.00  0.00    -0.354 N 
ATOM     48  N   UNL A   1      44.523  30.061  27.705  1.00  0.00    -0.248 NA
ATOM     49  C   UNL A   1      46.520  30.564  26.603  1.00  0.00     0.031 C 
ATOM     50  C   UNL A   1      42.223  32.975  30.152  1.00  0.00     0.029 A 
ATOM     51  C   UNL A   1      42.950  32.088  29.374  1.00  0.00     0.049 A 
ATOM     52  H   UNL A   1      42.501  30.092  28.862  1.00  0.00     0.167 HD
ATOM     53  C   UNL A   1      44.866  31.383  27.964  1.00  0.00     0.074 A 
ATOM     54  C   UNL A   1      46.122  31.628  27.285  1.00  0.00     0.031 C 
ATOM     55  C   UNL A   1      44.203  32.310  28.699  1.00  0.00     0.031 A 
BRANCH  42  56
ATOM     56  C   UNL A   1      38.853  30.314  31.067  1.00  0.00    -0.014 A 
ATOM     57  C   UNL A   1      37.680  30.789  30.459  1.00  0.00     0.009 A 
ATOM     58  C   UNL A   1      38.861  30.104  32.455  1.00  0.00     0.009 A 
ATOM     59  C   UNL A   1      36.554  31.083  31.231  1.00  0.00     0.001 A 
ATOM     60  C   UNL A   1      37.724  30.369  33.220  1.00  0.00     0.001 A 
ATOM     61  C   UNL A   1      36.575  30.869  32.608  1.00  0.00     0.000 A 
ENDBRANCH  42  56
BRANCH  43  62
ATOM     62  C   UNL A   1      46.813  27.856  25.528  1.00  0.00    -0.014 A 
ATOM     63  C   UNL A   1      46.740  27.969  24.131  1.00  0.00     0.009 A 
ATOM     64  C   UNL A   1      48.005  27.394  26.107  1.00  0.00     0.009 A 
ATOM     65  C   UNL A   1      47.826  27.602  23.333  1.00  0.00     0.001 A 
ATOM     66  C   UNL A   1      49.101  27.058  25.309  1.00  0.00     0.001 A 
ATOM     67  C   UNL A   1      49.007  27.152  23.923  1.00  0.00     0.000 A 
ENDBRANCH  43  62
BRANCH  55  68
ATOM     68  C   UNL A   1      44.845  33.659  28.853  1.00  0.00    -0.014 A 
ATOM     69  C   UNL A   1      45.781  33.915  29.869  1.00  0.00     0.009 A 
ATOM     70  C   UNL A   1      44.555  34.673  27.926  1.00  0.00     0.009 A 
ATOM     71  C   UNL A   1      46.389  35.168  29.966  1.00  0.00     0.001 A 
ATOM     72  C   UNL A   1      45.188  35.913  28.007  1.00  0.00     0.001 A 
ATOM     73  C   UNL A   1      46.098  36.162  29.032  1.00  0.00     0.000 A 
ENDBRANCH  55  68
ENDBRANCH  29  30
ENDBRANCH  22  24
ENDBRANCH  21  22
ENDBRANCH  20  21
ENDBRANCH   1  20
TORSDOF 15
ENDMDL
