MODEL 1
REMARK VINA RESULT:     -10.1      0.000      0.000
REMARK SMILES C[C@H](C(=O)OCCOC(=O)c1ccc(-c2c3nc(c(-c4ccccc4)c4ccc([nH]4)c(-c4ccccc4)c4nc(c(-c5ccccc5)c5ccc2[nH]5)C=C4)C=C3)cc1)[C@H](C)[N@@H+]1CC[C@H]([NH+]2CCCCC2)C1
REMARK SMILES IDX 6 1 5 2 3 3 4 4 2 5 1 6 59 7 60 8 61 9 62 10 71 11 63 13
REMARK SMILES IDX 64 14 65 15 66 16 70 17 67 19 69 20 68 21 7 22 8 23 9 24
REMARK SMILES IDX 10 25 11 26 12 27 58 28 13 29 57 30 14 31 15 32 16 33 51 34
REMARK SMILES IDX 17 35 56 36 50 37 52 38 18 39 55 40 49 41 48 42 19 44 41 45
REMARK SMILES IDX 26 46 40 47 27 48 30 49 39 50 53 51 28 52 29 53 38 55 54 56
REMARK SMILES IDX 31 57 20 58 21 59 25 60 22 61 24 62 23 63 42 64 43 65 47 66
REMARK SMILES IDX 44 67 46 68 45 69 32 70 33 71 37 72 34 73 36 74 35 75
REMARK H PARENT 61 12 65 18 52 43 30 54
REMARK Flexibility Score: inf
ROOT
ATOM      1  C   UNL A   1      31.950  29.666  26.166  1.00  0.00     0.274 C 
ENDROOT
BRANCH   1   2
ATOM      2  O   UNL A   1      31.977  28.299  25.712  1.00  0.00    -0.462 OA
BRANCH   2   3
ATOM      3  C   UNL A   1      31.264  27.402  26.446  1.00  0.00     0.314 C 
ATOM      4  O   UNL A   1      31.118  27.453  27.663  1.00  0.00    -0.252 OA
BRANCH   3   5
ATOM      5  C   UNL A   1      30.628  26.316  25.593  1.00  0.00     0.154 C 
ATOM      6  C   UNL A   1      30.021  26.862  24.296  1.00  0.00     0.026 C 
BRANCH   5   7
ATOM      7  C   UNL A   1      31.594  25.137  25.330  1.00  0.00     0.195 C 
ATOM      8  C   UNL A   1      31.341  23.972  26.303  1.00  0.00     0.076 C 
BRANCH   7   9
ATOM      9  N   UNL A   1      32.989  25.597  25.198  1.00  0.00    -0.327 N 
ATOM     10  C   UNL A   1      33.483  25.630  23.819  1.00  0.00     0.269 C 
ATOM     11  C   UNL A   1      33.994  24.880  26.014  1.00  0.00     0.328 C 
ATOM     12  H   UNL A   1      32.903  26.545  25.565  1.00  0.00     0.348 HD
ATOM     13  C   UNL A   1      34.458  24.478  23.688  1.00  0.00     0.132 C 
ATOM     14  C   UNL A   1      35.122  24.437  25.061  1.00  0.00     0.245 C 
BRANCH  14  15
ATOM     15  N   UNL A   1      35.859  23.205  25.415  1.00  0.00    -0.328 N 
ATOM     16  C   UNL A   1      35.435  22.009  24.669  1.00  0.00     0.262 C 
ATOM     17  C   UNL A   1      37.311  23.422  25.294  1.00  0.00     0.262 C 
ATOM     18  H   UNL A   1      35.626  23.009  26.388  1.00  0.00     0.348 HD
ATOM     19  C   UNL A   1      36.196  20.757  25.115  1.00  0.00     0.062 C 
ATOM     20  C   UNL A   1      38.115  22.209  25.759  1.00  0.00     0.062 C 
ATOM     21  C   UNL A   1      37.700  20.956  25.000  1.00  0.00     0.012 C 
ENDBRANCH  14  15
ENDBRANCH   7   9
ENDBRANCH   5   7
ENDBRANCH   3   5
ENDBRANCH   2   3
ENDBRANCH   1   2
BRANCH   1  22
ATOM     22  C   UNL A   1      33.382  30.172  26.327  1.00  0.00     0.275 C 
BRANCH  22  23
ATOM     23  O   UNL A   1      33.867  29.773  27.621  1.00  0.00    -0.458 OA
BRANCH  23  24
ATOM     24  C   UNL A   1      34.713  30.629  28.236  1.00  0.00     0.338 C 
ATOM     25  O   UNL A   1      34.446  31.742  28.668  1.00  0.00    -0.246 OA
BRANCH  24  26
ATOM     26  C   UNL A   1      36.052  30.010  28.368  1.00  0.00     0.060 A 
ATOM     27  C   UNL A   1      36.447  29.391  29.555  1.00  0.00     0.016 A 
ATOM     28  C   UNL A   1      36.969  30.129  27.323  1.00  0.00     0.016 A 
ATOM     29  C   UNL A   1      37.762  28.968  29.736  1.00  0.00     0.010 A 
ATOM     30  C   UNL A   1      38.256  29.599  27.463  1.00  0.00     0.010 A 
ATOM     31  C   UNL A   1      38.676  29.028  28.680  1.00  0.00    -0.014 A 
BRANCH  31  32
ATOM     32  C   UNL A   1      40.061  28.500  28.825  1.00  0.00     0.031 A 
ATOM     33  C   UNL A   1      41.176  29.416  29.256  1.00  0.00     0.074 A 
ATOM     34  C   UNL A   1      40.344  27.213  28.538  1.00  0.00     0.049 A 
ATOM     35  N   UNL A   1      42.470  29.247  29.159  1.00  0.00    -0.248 NA
ATOM     36  C   UNL A   1      40.781  30.701  29.855  1.00  0.00     0.031 C 
ATOM     37  C   UNL A   1      39.372  26.182  28.167  1.00  0.00     0.029 A 
ATOM     38  N   UNL A   1      41.548  26.552  28.509  1.00  0.00    -0.354 N 
ATOM     39  C   UNL A   1      43.040  30.433  29.603  1.00  0.00     0.074 A 
ATOM     40  C   UNL A   1      41.953  31.307  29.992  1.00  0.00     0.031 C 
ATOM     41  C   UNL A   1      40.010  25.017  27.984  1.00  0.00     0.029 A 
ATOM     42  C   UNL A   1      41.443  25.239  28.117  1.00  0.00     0.049 A 
ATOM     43  H   UNL A   1      42.404  26.978  28.746  1.00  0.00     0.167 HD
ATOM     44  C   UNL A   1      44.352  30.768  29.666  1.00  0.00     0.031 A 
ATOM     45  C   UNL A   1      42.390  24.326  27.832  1.00  0.00     0.031 A 
ATOM     46  C   UNL A   1      45.432  29.878  29.334  1.00  0.00     0.049 A 
ATOM     47  C   UNL A   1      43.835  24.725  27.882  1.00  0.00     0.074 A 
ATOM     48  C   UNL A   1      46.795  30.121  29.377  1.00  0.00     0.029 A 
ATOM     49  N   UNL A   1      45.273  28.566  28.921  1.00  0.00    -0.354 N 
ATOM     50  N   UNL A   1      44.361  25.877  28.215  1.00  0.00    -0.248 NA
ATOM     51  C   UNL A   1      44.814  23.703  27.487  1.00  0.00     0.031 C 
ATOM     52  C   UNL A   1      47.460  28.962  28.962  1.00  0.00     0.029 A 
ATOM     53  C   UNL A   1      46.512  27.987  28.701  1.00  0.00     0.049 A 
ATOM     54  H   UNL A   1      44.408  28.111  28.802  1.00  0.00     0.167 HD
ATOM     55  C   UNL A   1      45.732  25.720  28.075  1.00  0.00     0.074 A 
ATOM     56  C   UNL A   1      45.958  24.354  27.648  1.00  0.00     0.031 C 
ATOM     57  C   UNL A   1      46.717  26.628  28.275  1.00  0.00     0.031 A 
BRANCH  44  58
ATOM     58  C   UNL A   1      44.689  32.178  30.058  1.00  0.00    -0.014 A 
ATOM     59  C   UNL A   1      44.959  32.529  31.389  1.00  0.00     0.009 A 
ATOM     60  C   UNL A   1      44.774  33.164  29.062  1.00  0.00     0.009 A 
ATOM     61  C   UNL A   1      45.279  33.850  31.717  1.00  0.00     0.001 A 
ATOM     62  C   UNL A   1      45.116  34.477  29.390  1.00  0.00     0.001 A 
ATOM     63  C   UNL A   1      45.362  34.820  30.718  1.00  0.00     0.000 A 
ENDBRANCH  44  58
BRANCH  45  64
ATOM     64  C   UNL A   1      41.994  22.960  27.401  1.00  0.00    -0.014 A 
ATOM     65  C   UNL A   1      42.041  22.602  26.046  1.00  0.00     0.009 A 
ATOM     66  C   UNL A   1      41.582  22.005  28.344  1.00  0.00     0.009 A 
ATOM     67  C   UNL A   1      41.673  21.317  25.643  1.00  0.00     0.001 A 
ATOM     68  C   UNL A   1      41.241  20.712  27.941  1.00  0.00     0.001 A 
ATOM     69  C   UNL A   1      41.281  20.372  26.591  1.00  0.00     0.000 A 
ENDBRANCH  45  64
BRANCH  57  70
ATOM     70  C   UNL A   1      48.125  26.159  28.064  1.00  0.00    -0.014 A 
ATOM     71  C   UNL A   1      48.740  26.253  26.806  1.00  0.00     0.009 A 
ATOM     72  C   UNL A   1      48.852  25.635  29.144  1.00  0.00     0.009 A 
ATOM     73  C   UNL A   1      50.048  25.803  26.628  1.00  0.00     0.001 A 
ATOM     74  C   UNL A   1      50.167  25.205  28.967  1.00  0.00     0.001 A 
ATOM     75  C   UNL A   1      50.761  25.282  27.708  1.00  0.00     0.000 A 
ENDBRANCH  57  70
ENDBRANCH  31  32
ENDBRANCH  24  26
ENDBRANCH  23  24
ENDBRANCH  22  23
ENDBRANCH   1  22
TORSDOF 14
ENDMDL
MODEL 2
REMARK VINA RESULT:      -9.7      1.763      3.961
REMARK SMILES C[C@H](C(=O)OCCOC(=O)c1ccc(-c2c3nc(c(-c4ccccc4)c4ccc([nH]4)c(-c4ccccc4)c4nc(c(-c5ccccc5)c5ccc2[nH]5)C=C4)C=C3)cc1)[C@H](C)[N@@H+]1CC[C@H]([NH+]2CCCCC2)C1
REMARK SMILES IDX 6 1 5 2 3 3 4 4 2 5 1 6 59 7 60 8 61 9 62 10 71 11 63 13
REMARK SMILES IDX 64 14 65 15 66 16 70 17 67 19 69 20 68 21 7 22 8 23 9 24
REMARK SMILES IDX 10 25 11 26 12 27 58 28 13 29 57 30 14 31 15 32 16 33 51 34
REMARK SMILES IDX 17 35 56 36 50 37 52 38 18 39 55 40 49 41 48 42 19 44 41 45
REMARK SMILES IDX 26 46 40 47 27 48 30 49 39 50 53 51 28 52 29 53 38 55 54 56
REMARK SMILES IDX 31 57 20 58 21 59 25 60 22 61 24 62 23 63 42 64 43 65 47 66
REMARK SMILES IDX 44 67 46 68 45 69 32 70 33 71 37 72 34 73 36 74 35 75
REMARK H PARENT 61 12 65 18 52 43 30 54
REMARK Flexibility Score: inf
ROOT
ATOM      1  C   UNL A   1      32.365  30.014  26.345  1.00  0.00     0.274 C 
ENDROOT
BRANCH   1   2
ATOM      2  O   UNL A   1      32.861  28.674  26.523  1.00  0.00    -0.462 OA
BRANCH   2   3
ATOM      3  C   UNL A   1      31.944  27.728  26.864  1.00  0.00     0.314 C 
ATOM      4  O   UNL A   1      31.243  27.764  27.871  1.00  0.00    -0.252 OA
BRANCH   3   5
ATOM      5  C   UNL A   1      31.845  26.607  25.842  1.00  0.00     0.154 C 
ATOM      6  C   UNL A   1      32.287  25.252  26.407  1.00  0.00     0.026 C 
BRANCH   5   7
ATOM      7  C   UNL A   1      30.447  26.533  25.187  1.00  0.00     0.195 C 
ATOM      8  C   UNL A   1      29.682  25.272  25.629  1.00  0.00     0.076 C 
BRANCH   7   9
ATOM      9  N   UNL A   1      30.512  26.792  23.737  1.00  0.00    -0.327 N 
ATOM     10  C   UNL A   1      31.846  27.147  23.249  1.00  0.00     0.269 C 
ATOM     11  C   UNL A   1      29.562  27.798  23.209  1.00  0.00     0.328 C 
ATOM     12  H   UNL A   1      30.235  25.878  23.377  1.00  0.00     0.348 HD
ATOM     13  C   UNL A   1      31.803  28.626  22.926  1.00  0.00     0.132 C 
ATOM     14  C   UNL A   1      30.386  28.817  22.397  1.00  0.00     0.245 C 
BRANCH  14  15
ATOM     15  N   UNL A   1      29.872  30.202  22.334  1.00  0.00    -0.328 N 
ATOM     16  C   UNL A   1      28.811  30.411  21.335  1.00  0.00     0.262 C 
ATOM     17  C   UNL A   1      29.443  30.652  23.670  1.00  0.00     0.262 C 
ATOM     18  H   UNL A   1      30.653  30.777  22.018  1.00  0.00     0.348 HD
ATOM     19  C   UNL A   1      28.356  31.872  21.280  1.00  0.00     0.062 C 
ATOM     20  C   UNL A   1      29.010  32.117  23.671  1.00  0.00     0.062 C 
ATOM     21  C   UNL A   1      27.908  32.362  22.650  1.00  0.00     0.012 C 
ENDBRANCH  14  15
ENDBRANCH   7   9
ENDBRANCH   5   7
ENDBRANCH   3   5
ENDBRANCH   2   3
ENDBRANCH   1   2
BRANCH   1  22
ATOM     22  C   UNL A   1      33.141  30.964  27.255  1.00  0.00     0.275 C 
BRANCH  22  23
ATOM     23  O   UNL A   1      34.246  30.246  27.832  1.00  0.00    -0.458 OA
BRANCH  23  24
ATOM     24  C   UNL A   1      35.065  30.953  28.641  1.00  0.00     0.338 C 
ATOM     25  O   UNL A   1      34.783  31.963  29.270  1.00  0.00    -0.246 OA
BRANCH  24  26
ATOM     26  C   UNL A   1      36.392  30.300  28.713  1.00  0.00     0.060 A 
ATOM     27  C   UNL A   1      36.884  29.794  29.918  1.00  0.00     0.016 A 
ATOM     28  C   UNL A   1      37.206  30.274  27.580  1.00  0.00     0.016 A 
ATOM     29  C   UNL A   1      38.198  29.342  30.019  1.00  0.00     0.010 A 
ATOM     30  C   UNL A   1      38.485  29.711  27.655  1.00  0.00     0.010 A 
ATOM     31  C   UNL A   1      39.006  29.256  28.881  1.00  0.00    -0.014 A 
BRANCH  31  32
ATOM     32  C   UNL A   1      40.383  28.693  28.952  1.00  0.00     0.031 A 
ATOM     33  C   UNL A   1      41.544  29.583  29.308  1.00  0.00     0.074 A 
ATOM     34  C   UNL A   1      40.615  27.396  28.662  1.00  0.00     0.049 A 
ATOM     35  N   UNL A   1      42.825  29.379  29.138  1.00  0.00    -0.248 NA
ATOM     36  C   UNL A   1      41.217  30.883  29.916  1.00  0.00     0.031 C 
ATOM     37  C   UNL A   1      39.597  26.388  28.358  1.00  0.00     0.029 A 
ATOM     38  N   UNL A   1      41.799  26.704  28.570  1.00  0.00    -0.354 N 
ATOM     39  C   UNL A   1      43.450  30.554  29.537  1.00  0.00     0.074 A 
ATOM     40  C   UNL A   1      42.410  31.459  29.978  1.00  0.00     0.031 C 
ATOM     41  C   UNL A   1      40.194  25.205  28.151  1.00  0.00     0.029 A 
ATOM     42  C   UNL A   1      41.637  25.391  28.198  1.00  0.00     0.049 A 
ATOM     43  H   UNL A   1      42.677  27.109  28.753  1.00  0.00     0.167 HD
ATOM     44  C   UNL A   1      44.772  30.855  29.520  1.00  0.00     0.031 A 
ATOM     45  C   UNL A   1      42.542  24.451  27.869  1.00  0.00     0.031 A 
ATOM     46  C   UNL A   1      45.808  29.934  29.136  1.00  0.00     0.049 A 
ATOM     47  C   UNL A   1      43.998  24.812  27.831  1.00  0.00     0.074 A 
ATOM     48  C   UNL A   1      47.177  30.142  29.098  1.00  0.00     0.029 A 
ATOM     49  N   UNL A   1      45.592  28.623  28.746  1.00  0.00    -0.354 N 
ATOM     50  N   UNL A   1      44.571  25.953  28.122  1.00  0.00    -0.248 NA
ATOM     51  C   UNL A   1      44.926  23.761  27.391  1.00  0.00     0.031 C 
ATOM     52  C   UNL A   1      47.786  28.961  28.657  1.00  0.00     0.029 A 
ATOM     53  C   UNL A   1      46.800  28.010  28.460  1.00  0.00     0.049 A 
ATOM     54  H   UNL A   1      44.709  28.190  28.682  1.00  0.00     0.167 HD
ATOM     55  C   UNL A   1      45.928  25.758  27.904  1.00  0.00     0.074 A 
ATOM     56  C   UNL A   1      46.093  24.384  27.479  1.00  0.00     0.031 C 
ATOM     57  C   UNL A   1      46.946  26.643  28.038  1.00  0.00     0.031 A 
BRANCH  44  58
ATOM     58  C   UNL A   1      45.167  32.259  29.878  1.00  0.00    -0.014 A 
ATOM     59  C   UNL A   1      45.437  32.635  31.202  1.00  0.00     0.009 A 
ATOM     60  C   UNL A   1      45.308  33.212  28.856  1.00  0.00     0.009 A 
ATOM     61  C   UNL A   1      45.811  33.949  31.497  1.00  0.00     0.001 A 
ATOM     62  C   UNL A   1      45.705  34.517  29.152  1.00  0.00     0.001 A 
ATOM     63  C   UNL A   1      45.950  34.886  30.473  1.00  0.00     0.000 A 
ENDBRANCH  44  58
BRANCH  45  64
ATOM     64  C   UNL A   1      42.088  23.092  27.476  1.00  0.00    -0.014 A 
ATOM     65  C   UNL A   1      41.903  22.769  26.123  1.00  0.00     0.009 A 
ATOM     66  C   UNL A   1      41.850  22.109  28.449  1.00  0.00     0.009 A 
ATOM     67  C   UNL A   1      41.479  21.491  25.755  1.00  0.00     0.001 A 
ATOM     68  C   UNL A   1      41.454  20.823  28.076  1.00  0.00     0.001 A 
ATOM     69  C   UNL A   1      41.262  20.518  26.730  1.00  0.00     0.000 A 
ENDBRANCH  45  64
BRANCH  57  70
ATOM     70  C   UNL A   1      48.327  26.135  27.751  1.00  0.00    -0.014 A 
ATOM     71  C   UNL A   1      48.887  26.242  26.469  1.00  0.00     0.009 A 
ATOM     72  C   UNL A   1      49.084  25.560  28.783  1.00  0.00     0.009 A 
ATOM     73  C   UNL A   1      50.170  25.756  26.219  1.00  0.00     0.001 A 
ATOM     74  C   UNL A   1      50.375  25.093  28.535  1.00  0.00     0.001 A 
ATOM     75  C   UNL A   1      50.914  25.185  27.253  1.00  0.00     0.000 A 
ENDBRANCH  57  70
ENDBRANCH  31  32
ENDBRANCH  24  26
ENDBRANCH  23  24
ENDBRANCH  22  23
ENDBRANCH   1  22
TORSDOF 14
ENDMDL
MODEL 3
REMARK VINA RESULT:      -9.6      3.859      8.726
REMARK SMILES C[C@H](C(=O)OCCOC(=O)c1ccc(-c2c3nc(c(-c4ccccc4)c4ccc([nH]4)c(-c4ccccc4)c4nc(c(-c5ccccc5)c5ccc2[nH]5)C=C4)C=C3)cc1)[C@H](C)[N@@H+]1CC[C@H]([NH+]2CCCCC2)C1
REMARK SMILES IDX 6 1 5 2 3 3 4 4 2 5 1 6 59 7 60 8 61 9 62 10 71 11 63 13
REMARK SMILES IDX 64 14 65 15 66 16 70 17 67 19 69 20 68 21 7 22 8 23 9 24
REMARK SMILES IDX 10 25 11 26 12 27 58 28 13 29 57 30 14 31 15 32 16 33 51 34
REMARK SMILES IDX 17 35 56 36 50 37 52 38 18 39 55 40 49 41 48 42 19 44 41 45
REMARK SMILES IDX 26 46 40 47 27 48 30 49 39 50 53 51 28 52 29 53 38 55 54 56
REMARK SMILES IDX 31 57 20 58 21 59 25 60 22 61 24 62 23 63 42 64 43 65 47 66
REMARK SMILES IDX 44 67 46 68 45 69 32 70 33 71 37 72 34 73 36 74 35 75
REMARK H PARENT 61 12 65 18 52 43 30 54
REMARK Flexibility Score: inf
ROOT
ATOM      1  C   UNL A   1      36.541  21.764  24.428  1.00  0.00     0.274 C 
ENDROOT
BRANCH   1   2
ATOM      2  O   UNL A   1      35.506  22.668  23.998  1.00  0.00    -0.462 OA
BRANCH   2   3
ATOM      3  C   UNL A   1      34.224  22.227  24.124  1.00  0.00     0.314 C 
ATOM      4  O   UNL A   1      33.834  21.450  24.989  1.00  0.00    -0.252 OA
BRANCH   3   5
ATOM      5  C   UNL A   1      33.291  22.823  23.083  1.00  0.00     0.154 C 
ATOM      6  C   UNL A   1      32.114  21.900  22.746  1.00  0.00     0.026 C 
BRANCH   5   7
ATOM      7  C   UNL A   1      32.820  24.246  23.464  1.00  0.00     0.195 C 
ATOM      8  C   UNL A   1      33.239  25.281  22.405  1.00  0.00     0.076 C 
BRANCH   7   9
ATOM      9  N   UNL A   1      33.143  24.567  24.867  1.00  0.00    -0.327 N 
ATOM     10  C   UNL A   1      31.993  24.525  25.773  1.00  0.00     0.269 C 
ATOM     11  C   UNL A   1      33.846  25.849  25.098  1.00  0.00     0.328 C 
ATOM     12  H   UNL A   1      33.791  23.809  25.082  1.00  0.00     0.348 HD
ATOM     13  C   UNL A   1      31.672  25.963  26.122  1.00  0.00     0.132 C 
ATOM     14  C   UNL A   1      33.049  26.617  26.173  1.00  0.00     0.245 C 
BRANCH  14  15
ATOM     15  N   UNL A   1      33.096  28.093  26.120  1.00  0.00    -0.328 N 
ATOM     16  C   UNL A   1      31.775  28.740  26.048  1.00  0.00     0.262 C 
ATOM     17  C   UNL A   1      33.888  28.624  27.242  1.00  0.00     0.262 C 
ATOM     18  H   UNL A   1      33.555  28.328  25.240  1.00  0.00     0.348 HD
ATOM     19  C   UNL A   1      31.888  30.263  25.942  1.00  0.00     0.062 C 
ATOM     20  C   UNL A   1      34.056  30.140  27.162  1.00  0.00     0.062 C 
ATOM     21  C   UNL A   1      32.704  30.836  27.092  1.00  0.00     0.012 C 
ENDBRANCH  14  15
ENDBRANCH   7   9
ENDBRANCH   5   7
ENDBRANCH   3   5
ENDBRANCH   2   3
ENDBRANCH   1   2
BRANCH   1  22
ATOM     22  C   UNL A   1      37.140  22.269  25.739  1.00  0.00     0.275 C 
BRANCH  22  23
ATOM     23  O   UNL A   1      38.229  23.159  25.432  1.00  0.00    -0.458 OA
BRANCH  23  24
ATOM     24  C   UNL A   1      39.295  23.110  26.262  1.00  0.00     0.338 C 
ATOM     25  O   UNL A   1      40.069  22.175  26.408  1.00  0.00    -0.246 OA
BRANCH  24  26
ATOM     26  C   UNL A   1      39.445  24.403  26.969  1.00  0.00     0.060 A 
ATOM     27  C   UNL A   1      40.138  25.466  26.390  1.00  0.00     0.016 A 
ATOM     28  C   UNL A   1      38.967  24.530  28.274  1.00  0.00     0.016 A 
ATOM     29  C   UNL A   1      40.428  26.614  27.125  1.00  0.00     0.010 A 
ATOM     30  C   UNL A   1      39.157  25.728  28.970  1.00  0.00     0.010 A 
ATOM     31  C   UNL A   1      39.908  26.780  28.412  1.00  0.00    -0.014 A 
BRANCH  31  32
ATOM     32  C   UNL A   1      40.132  28.036  29.180  1.00  0.00     0.031 A 
ATOM     33  C   UNL A   1      41.333  28.165  30.079  1.00  0.00     0.074 A 
ATOM     34  C   UNL A   1      39.250  29.054  29.114  1.00  0.00     0.049 A 
ATOM     35  N   UNL A   1      41.557  29.024  31.042  1.00  0.00    -0.248 NA
ATOM     36  C   UNL A   1      42.414  27.186  29.883  1.00  0.00     0.031 C 
ATOM     37  C   UNL A   1      38.070  29.113  28.248  1.00  0.00     0.029 A 
ATOM     38  N   UNL A   1      39.209  30.243  29.802  1.00  0.00    -0.354 N 
ATOM     39  C   UNL A   1      42.760  28.637  31.619  1.00  0.00     0.074 A 
ATOM     40  C   UNL A   1      43.229  27.480  30.887  1.00  0.00     0.031 C 
ATOM     41  C   UNL A   1      37.446  30.286  28.428  1.00  0.00     0.029 A 
ATOM     42  C   UNL A   1      38.115  31.015  29.497  1.00  0.00     0.049 A 
ATOM     43  H   UNL A   1      39.899  30.515  30.450  1.00  0.00     0.167 HD
ATOM     44  C   UNL A   1      43.404  29.188  32.677  1.00  0.00     0.031 A 
ATOM     45  C   UNL A   1      37.656  32.152  30.053  1.00  0.00     0.031 A 
ATOM     46  C   UNL A   1      42.965  30.372  33.367  1.00  0.00     0.049 A 
ATOM     47  C   UNL A   1      38.370  32.731  31.238  1.00  0.00     0.074 A 
ATOM     48  C   UNL A   1      43.557  31.014  34.442  1.00  0.00     0.029 A 
ATOM     49  N   UNL A   1      41.838  31.105  33.034  1.00  0.00    -0.354 N 
ATOM     50  N   UNL A   1      39.455  32.306  31.835  1.00  0.00    -0.248 NA
ATOM     51  C   UNL A   1      37.775  33.931  31.843  1.00  0.00     0.031 C 
ATOM     52  C   UNL A   1      42.770  32.122  34.777  1.00  0.00     0.029 A 
ATOM     53  C   UNL A   1      41.713  32.190  33.885  1.00  0.00     0.049 A 
ATOM     54  H   UNL A   1      41.217  30.887  32.301  1.00  0.00     0.167 HD
ATOM     55  C   UNL A   1      39.678  33.187  32.884  1.00  0.00     0.074 A 
ATOM     56  C   UNL A   1      38.627  34.183  32.828  1.00  0.00     0.031 C 
ATOM     57  C   UNL A   1      40.661  33.169  33.815  1.00  0.00     0.031 A 
BRANCH  44  58
ATOM     58  C   UNL A   1      44.627  28.482  33.187  1.00  0.00    -0.014 A 
ATOM     59  C   UNL A   1      45.905  28.759  32.682  1.00  0.00     0.009 A 
ATOM     60  C   UNL A   1      44.494  27.546  34.226  1.00  0.00     0.009 A 
ATOM     61  C   UNL A   1      47.023  28.090  33.187  1.00  0.00     0.001 A 
ATOM     62  C   UNL A   1      45.615  26.896  34.745  1.00  0.00     0.001 A 
ATOM     63  C   UNL A   1      46.878  27.163  34.220  1.00  0.00     0.000 A 
ENDBRANCH  44  58
BRANCH  45  64
ATOM     64  C   UNL A   1      36.412  32.779  29.535  1.00  0.00    -0.014 A 
ATOM     65  C   UNL A   1      35.192  32.588  30.200  1.00  0.00     0.009 A 
ATOM     66  C   UNL A   1      36.442  33.581  28.384  1.00  0.00     0.009 A 
ATOM     67  C   UNL A   1      34.024  33.180  29.715  1.00  0.00     0.001 A 
ATOM     68  C   UNL A   1      35.278  34.195  27.917  1.00  0.00     0.001 A 
ATOM     69  C   UNL A   1      34.070  33.989  28.580  1.00  0.00     0.000 A 
ENDBRANCH  45  64
BRANCH  57  70
ATOM     70  C   UNL A   1      40.659  34.277  34.825  1.00  0.00    -0.014 A 
ATOM     71  C   UNL A   1      41.358  35.472  34.591  1.00  0.00     0.009 A 
ATOM     72  C   UNL A   1      39.932  34.131  36.016  1.00  0.00     0.009 A 
ATOM     73  C   UNL A   1      41.350  36.489  35.546  1.00  0.00     0.001 A 
ATOM     74  C   UNL A   1      39.909  35.158  36.959  1.00  0.00     0.001 A 
ATOM     75  C   UNL A   1      40.625  36.332  36.728  1.00  0.00     0.000 A 
ENDBRANCH  57  70
ENDBRANCH  31  32
ENDBRANCH  24  26
ENDBRANCH  23  24
ENDBRANCH  22  23
ENDBRANCH   1  22
TORSDOF 14
ENDMDL
