MODEL 1
REMARK VINA RESULT:     -10.2      0.000      0.000
REMARK SMILES COCCCN1C(=O)CC[C@@H](C(=O)OCCOC(=O)c2ccc(-c3c4nc(c(-c5ccccc5)c5ccc([nH]5)c(-c5ccccc5)c5nc(c(-c6ccccc6)c6ccc3[nH]6)C=C5)C=C4)cc2)[C@@H]1c1ccc(F)cc1
REMARK SMILES IDX 15 1 14 2 12 3 13 4 11 5 6 6 7 7 68 8 8 9 9 10 10 11 5 12
REMARK SMILES IDX 4 13 3 14 2 15 1 16 69 17 70 18 75 19 71 20 74 21 72 22
REMARK SMILES IDX 73 23 16 24 17 25 18 26 19 27 20 28 21 29 67 30 22 31 66 32
REMARK SMILES IDX 23 33 24 34 25 35 60 36 26 37 65 38 59 39 61 40 27 41 64 42
REMARK SMILES IDX 58 43 57 44 28 46 50 47 35 48 49 49 36 50 39 51 48 52 62 53
REMARK SMILES IDX 37 54 38 55 47 57 63 58 40 59 29 60 30 61 34 62 31 63 33 64
REMARK SMILES IDX 32 65 51 66 52 67 56 68 53 69 55 70 54 71 41 72 42 73 46 74
REMARK SMILES IDX 43 75 45 76 44 77
REMARK H PARENT 61 45 39 56
REMARK Flexibility Score: inf
ROOT
ATOM      1  C   UNL A   1      31.837  28.079  27.119  1.00  0.00     0.274 C 
ENDROOT
BRANCH   1   2
ATOM      2  O   UNL A   1      31.708  27.221  25.961  1.00  0.00    -0.462 OA
BRANCH   2   3
ATOM      3  C   UNL A   1      31.894  25.889  26.181  1.00  0.00     0.311 C 
ATOM      4  O   UNL A   1      31.010  25.119  26.528  1.00  0.00    -0.252 OA
BRANCH   3   5
ATOM      5  C   UNL A   1      33.343  25.480  25.928  1.00  0.00     0.127 C 
ATOM      6  N   UNL A   1      32.650  23.820  24.246  1.00  0.00    -0.335 N 
ATOM      7  C   UNL A   1      32.770  24.732  23.206  1.00  0.00     0.223 C 
ATOM      8  C   UNL A   1      33.436  24.009  25.475  1.00  0.00     0.129 C 
ATOM      9  O   UNL A   1      32.296  24.547  22.087  1.00  0.00    -0.275 OA
ATOM     10  C   UNL A   1      33.593  25.991  23.441  1.00  0.00     0.101 C 
ATOM     11  C   UNL A   1      34.004  26.352  24.865  1.00  0.00     0.028 C 
BRANCH   6  12
ATOM     12  C   UNL A   1      31.968  22.530  24.056  1.00  0.00     0.122 C 
BRANCH  12  13
ATOM     13  C   UNL A   1      31.954  21.575  25.254  1.00  0.00     0.050 C 
BRANCH  13  14
ATOM     14  C   UNL A   1      32.872  20.353  25.182  1.00  0.00     0.161 C 
BRANCH  14  15
ATOM     15  O   UNL A   1      32.158  19.146  24.907  1.00  0.00    -0.385 OA
ATOM     16  C   UNL A   1      32.571  18.055  25.727  1.00  0.00     0.194 C 
ENDBRANCH  14  15
ENDBRANCH  13  14
ENDBRANCH  12  13
ENDBRANCH   6  12
BRANCH   8  17
ATOM     17  C   UNL A   1      34.904  23.562  25.289  1.00  0.00    -0.024 A 
ATOM     18  C   UNL A   1      35.904  23.843  26.245  1.00  0.00     0.009 A 
ATOM     19  C   UNL A   1      35.261  22.763  24.187  1.00  0.00     0.009 A 
ATOM     20  C   UNL A   1      37.180  23.288  26.148  1.00  0.00     0.039 A 
ATOM     21  C   UNL A   1      36.540  22.204  24.093  1.00  0.00     0.039 A 
ATOM     22  C   UNL A   1      37.482  22.461  25.080  1.00  0.00     0.123 A 
ATOM     23  F   UNL A   1      38.694  21.897  25.003  1.00  0.00    -0.207 F 
ENDBRANCH   8  17
ENDBRANCH   3   5
ENDBRANCH   2   3
ENDBRANCH   1   2
BRANCH   1  24
ATOM     24  C   UNL A   1      32.640  29.347  26.817  1.00  0.00     0.275 C 
BRANCH  24  25
ATOM     25  O   UNL A   1      33.980  29.211  27.322  1.00  0.00    -0.458 OA
BRANCH  25  26
ATOM     26  C   UNL A   1      34.556  30.335  27.804  1.00  0.00     0.338 C 
ATOM     27  O   UNL A   1      34.045  31.427  27.966  1.00  0.00    -0.246 OA
BRANCH  26  28
ATOM     28  C   UNL A   1      35.915  30.007  28.263  1.00  0.00     0.060 A 
ATOM     29  C   UNL A   1      36.943  30.140  27.337  1.00  0.00     0.016 A 
ATOM     30  C   UNL A   1      36.174  29.474  29.523  1.00  0.00     0.016 A 
ATOM     31  C   UNL A   1      38.229  29.710  27.631  1.00  0.00     0.010 A 
ATOM     32  C   UNL A   1      37.483  29.078  29.840  1.00  0.00     0.010 A 
ATOM     33  C   UNL A   1      38.513  29.178  28.888  1.00  0.00    -0.014 A 
BRANCH  33  34
ATOM     34  C   UNL A   1      39.876  28.651  29.135  1.00  0.00     0.031 A 
ATOM     35  C   UNL A   1      40.857  29.480  29.909  1.00  0.00     0.074 A 
ATOM     36  C   UNL A   1      40.197  27.391  28.785  1.00  0.00     0.049 A 
ATOM     37  N   UNL A   1      42.120  29.250  30.156  1.00  0.00    -0.248 NA
ATOM     38  C   UNL A   1      40.339  30.722  30.506  1.00  0.00     0.031 C 
ATOM     39  C   UNL A   1      39.287  26.417  28.179  1.00  0.00     0.029 A 
ATOM     40  N   UNL A   1      41.380  26.708  28.914  1.00  0.00    -0.354 N 
ATOM     41  C   UNL A   1      42.557  30.329  30.912  1.00  0.00     0.074 A 
ATOM     42  C   UNL A   1      41.423  31.211  31.089  1.00  0.00     0.031 C 
ATOM     43  C   UNL A   1      39.944  25.261  27.995  1.00  0.00     0.029 A 
ATOM     44  C   UNL A   1      41.335  25.434  28.400  1.00  0.00     0.049 A 
ATOM     45  H   UNL A   1      42.184  27.093  29.332  1.00  0.00     0.167 HD
ATOM     46  C   UNL A   1      43.796  30.569  31.402  1.00  0.00     0.031 A 
ATOM     47  C   UNL A   1      42.318  24.528  28.234  1.00  0.00     0.031 A 
ATOM     48  C   UNL A   1      44.923  29.696  31.221  1.00  0.00     0.049 A 
ATOM     49  C   UNL A   1      43.719  24.883  28.648  1.00  0.00     0.074 A 
ATOM     50  C   UNL A   1      46.235  29.883  31.619  1.00  0.00     0.029 A 
ATOM     51  N   UNL A   1      44.867  28.464  30.590  1.00  0.00    -0.354 N 
ATOM     52  N   UNL A   1      44.152  25.952  29.272  1.00  0.00    -0.248 NA
ATOM     53  C   UNL A   1      44.773  23.914  28.311  1.00  0.00     0.031 C 
ATOM     54  C   UNL A   1      46.983  28.782  31.187  1.00  0.00     0.029 A 
ATOM     55  C   UNL A   1      46.125  27.889  30.564  1.00  0.00     0.049 A 
ATOM     56  H   UNL A   1      44.053  28.057  30.214  1.00  0.00     0.167 HD
ATOM     57  C   UNL A   1      45.523  25.778  29.415  1.00  0.00     0.074 A 
ATOM     58  C   UNL A   1      45.847  24.494  28.830  1.00  0.00     0.031 C 
ATOM     59  C   UNL A   1      46.431  26.611  29.978  1.00  0.00     0.031 A 
BRANCH  46  60
ATOM     60  C   UNL A   1      44.005  31.871  32.115  1.00  0.00    -0.014 A 
ATOM     61  C   UNL A   1      43.791  31.996  33.495  1.00  0.00     0.009 A 
ATOM     62  C   UNL A   1      44.425  32.993  31.383  1.00  0.00     0.009 A 
ATOM     63  C   UNL A   1      43.968  33.231  34.125  1.00  0.00     0.001 A 
ATOM     64  C   UNL A   1      44.620  34.220  32.018  1.00  0.00     0.001 A 
ATOM     65  C   UNL A   1      44.384  34.339  33.387  1.00  0.00     0.000 A 
ENDBRANCH  46  60
BRANCH  47  66
ATOM     66  C   UNL A   1      42.036  23.230  27.566  1.00  0.00    -0.014 A 
ATOM     67  C   UNL A   1      41.522  22.144  28.289  1.00  0.00     0.009 A 
ATOM     68  C   UNL A   1      42.322  23.063  26.201  1.00  0.00     0.009 A 
ATOM     69  C   UNL A   1      41.321  20.910  27.662  1.00  0.00     0.001 A 
ATOM     70  C   UNL A   1      42.094  21.838  25.571  1.00  0.00     0.001 A 
ATOM     71  C   UNL A   1      41.604  20.760  26.305  1.00  0.00     0.000 A 
ENDBRANCH  47  66
BRANCH  59  72
ATOM     72  C   UNL A   1      47.857  26.145  30.013  1.00  0.00    -0.014 A 
ATOM     73  C   UNL A   1      48.689  26.269  28.890  1.00  0.00     0.009 A 
ATOM     74  C   UNL A   1      48.388  25.614  31.200  1.00  0.00     0.009 A 
ATOM     75  C   UNL A   1      50.018  25.847  28.948  1.00  0.00     0.001 A 
ATOM     76  C   UNL A   1      49.723  25.215  31.261  1.00  0.00     0.001 A 
ATOM     77  C   UNL A   1      50.535  25.326  30.134  1.00  0.00     0.000 A 
ENDBRANCH  59  72
ENDBRANCH  33  34
ENDBRANCH  26  28
ENDBRANCH  25  26
ENDBRANCH  24  25
ENDBRANCH   1  24
TORSDOF 16
ENDMDL
MODEL 2
REMARK VINA RESULT:     -10.1      2.893      7.914
REMARK SMILES COCCCN1C(=O)CC[C@@H](C(=O)OCCOC(=O)c2ccc(-c3c4nc(c(-c5ccccc5)c5ccc([nH]5)c(-c5ccccc5)c5nc(c(-c6ccccc6)c6ccc3[nH]6)C=C5)C=C4)cc2)[C@@H]1c1ccc(F)cc1
REMARK SMILES IDX 15 1 14 2 12 3 13 4 11 5 6 6 7 7 68 8 8 9 9 10 10 11 5 12
REMARK SMILES IDX 4 13 3 14 2 15 1 16 69 17 70 18 75 19 71 20 74 21 72 22
REMARK SMILES IDX 73 23 16 24 17 25 18 26 19 27 20 28 21 29 67 30 22 31 66 32
REMARK SMILES IDX 23 33 24 34 25 35 60 36 26 37 65 38 59 39 61 40 27 41 64 42
REMARK SMILES IDX 58 43 57 44 28 46 50 47 35 48 49 49 36 50 39 51 48 52 62 53
REMARK SMILES IDX 37 54 38 55 47 57 63 58 40 59 29 60 30 61 34 62 31 63 33 64
REMARK SMILES IDX 32 65 51 66 52 67 56 68 53 69 55 70 54 71 41 72 42 73 46 74
REMARK SMILES IDX 43 75 45 76 44 77
REMARK H PARENT 61 45 39 56
REMARK Flexibility Score: inf
ROOT
ATOM      1  C   UNL A   1      36.157  23.203  23.523  1.00  0.00     0.274 C 
ENDROOT
BRANCH   1   2
ATOM      2  O   UNL A   1      34.752  23.339  23.842  1.00  0.00    -0.462 OA
BRANCH   2   3
ATOM      3  C   UNL A   1      34.132  24.447  23.347  1.00  0.00     0.311 C 
ATOM      4  O   UNL A   1      33.634  24.515  22.232  1.00  0.00    -0.252 OA
BRANCH   3   5
ATOM      5  C   UNL A   1      34.128  25.585  24.365  1.00  0.00     0.127 C 
ATOM      6  N   UNL A   1      31.670  25.705  24.321  1.00  0.00    -0.335 N 
ATOM      7  C   UNL A   1      31.545  24.815  25.379  1.00  0.00     0.223 C 
ATOM      8  C   UNL A   1      32.901  26.498  24.176  1.00  0.00     0.129 C 
ATOM      9  O   UNL A   1      30.489  24.260  25.675  1.00  0.00    -0.275 OA
ATOM     10  C   UNL A   1      32.760  24.571  26.264  1.00  0.00     0.101 C 
ATOM     11  C   UNL A   1      34.126  25.067  25.799  1.00  0.00     0.028 C 
BRANCH   6  12
ATOM     12  C   UNL A   1      30.510  26.077  23.494  1.00  0.00     0.122 C 
BRANCH  12  13
ATOM     13  C   UNL A   1      30.723  27.199  22.473  1.00  0.00     0.050 C 
BRANCH  13  14
ATOM     14  C   UNL A   1      30.137  28.572  22.813  1.00  0.00     0.161 C 
BRANCH  14  15
ATOM     15  O   UNL A   1      29.937  29.385  21.655  1.00  0.00    -0.385 OA
ATOM     16  C   UNL A   1      28.680  30.057  21.656  1.00  0.00     0.194 C 
ENDBRANCH  14  15
ENDBRANCH  13  14
ENDBRANCH  12  13
ENDBRANCH   6  12
BRANCH   8  17
ATOM     17  C   UNL A   1      32.926  27.696  25.151  1.00  0.00    -0.024 A 
ATOM     18  C   UNL A   1      31.860  27.972  26.034  1.00  0.00     0.009 A 
ATOM     19  C   UNL A   1      34.080  28.496  25.252  1.00  0.00     0.009 A 
ATOM     20  C   UNL A   1      31.969  28.948  27.025  1.00  0.00     0.039 A 
ATOM     21  C   UNL A   1      34.190  29.472  26.248  1.00  0.00     0.039 A 
ATOM     22  C   UNL A   1      33.139  29.680  27.132  1.00  0.00     0.123 A 
ATOM     23  F   UNL A   1      33.261  30.592  28.105  1.00  0.00    -0.207 F 
ENDBRANCH   8  17
ENDBRANCH   3   5
ENDBRANCH   2   3
ENDBRANCH   1   2
BRANCH   1  24
ATOM     24  C   UNL A   1      36.950  22.546  24.656  1.00  0.00     0.275 C 
BRANCH  24  25
ATOM     25  O   UNL A   1      37.596  23.555  25.453  1.00  0.00    -0.458 OA
BRANCH  25  26
ATOM     26  C   UNL A   1      38.720  23.178  26.102  1.00  0.00     0.338 C 
ATOM     27  O   UNL A   1      39.260  22.088  26.091  1.00  0.00    -0.246 OA
BRANCH  26  28
ATOM     28  C   UNL A   1      39.312  24.363  26.742  1.00  0.00     0.060 A 
ATOM     29  C   UNL A   1      38.993  24.585  28.077  1.00  0.00     0.016 A 
ATOM     30  C   UNL A   1      40.064  25.300  26.039  1.00  0.00     0.016 A 
ATOM     31  C   UNL A   1      39.379  25.752  28.719  1.00  0.00     0.010 A 
ATOM     32  C   UNL A   1      40.494  26.463  26.697  1.00  0.00     0.010 A 
ATOM     33  C   UNL A   1      40.137  26.702  28.036  1.00  0.00    -0.014 A 
BRANCH  33  34
ATOM     34  C   UNL A   1      40.456  27.974  28.727  1.00  0.00     0.031 A 
ATOM     35  C   UNL A   1      41.845  28.203  29.243  1.00  0.00     0.074 A 
ATOM     36  C   UNL A   1      39.552  28.970  28.783  1.00  0.00     0.049 A 
ATOM     37  N   UNL A   1      42.310  29.197  29.954  1.00  0.00    -0.248 NA
ATOM     38  C   UNL A   1      42.852  27.188  28.890  1.00  0.00     0.031 C 
ATOM     39  C   UNL A   1      38.221  28.946  28.173  1.00  0.00     0.029 A 
ATOM     40  N   UNL A   1      39.631  30.210  29.364  1.00  0.00    -0.354 N 
ATOM     41  C   UNL A   1      43.654  28.917  30.157  1.00  0.00     0.074 A 
ATOM     42  C   UNL A   1      43.934  27.664  29.490  1.00  0.00     0.031 C 
ATOM     43  C   UNL A   1      37.611  30.119  28.408  1.00  0.00     0.029 A 
ATOM     44  C   UNL A   1      38.477  30.946  29.243  1.00  0.00     0.049 A 
ATOM     45  H   UNL A   1      40.435  30.541  29.824  1.00  0.00     0.167 HD
ATOM     46  C   UNL A   1      44.570  29.635  30.849  1.00  0.00     0.031 A 
ATOM     47  C   UNL A   1      38.140  32.133  29.784  1.00  0.00     0.031 A 
ATOM     48  C   UNL A   1      44.291  30.876  31.516  1.00  0.00     0.049 A 
ATOM     49  C   UNL A   1      39.125  32.835  30.678  1.00  0.00     0.074 A 
ATOM     50  C   UNL A   1      45.134  31.644  32.302  1.00  0.00     0.029 A 
ATOM     51  N   UNL A   1      43.073  31.535  31.471  1.00  0.00    -0.354 N 
ATOM     52  N   UNL A   1      40.366  32.515  30.955  1.00  0.00    -0.248 NA
ATOM     53  C   UNL A   1      38.651  34.052  31.355  1.00  0.00     0.031 C 
ATOM     54  C   UNL A   1      44.408  32.746  32.769  1.00  0.00     0.029 A 
ATOM     55  C   UNL A   1      43.132  32.688  32.235  1.00  0.00     0.049 A 
ATOM     56  H   UNL A   1      42.283  31.229  30.971  1.00  0.00     0.167 HD
ATOM     57  C   UNL A   1      40.826  33.496  31.824  1.00  0.00     0.074 A 
ATOM     58  C   UNL A   1      39.737  34.432  32.015  1.00  0.00     0.031 C 
ATOM     59  C   UNL A   1      42.040  33.608  32.414  1.00  0.00     0.031 A 
BRANCH  46  60
ATOM     60  C   UNL A   1      45.941  29.042  30.980  1.00  0.00    -0.014 A 
ATOM     61  C   UNL A   1      46.959  29.334  30.061  1.00  0.00     0.009 A 
ATOM     62  C   UNL A   1      46.212  28.173  32.048  1.00  0.00     0.009 A 
ATOM     63  C   UNL A   1      48.218  28.744  30.196  1.00  0.00     0.001 A 
ATOM     64  C   UNL A   1      47.477  27.601  32.192  1.00  0.00     0.001 A 
ATOM     65  C   UNL A   1      48.476  27.880  31.261  1.00  0.00     0.000 A 
ENDBRANCH  46  60
BRANCH  47  66
ATOM     66  C   UNL A   1      36.780  32.695  29.574  1.00  0.00    -0.014 A 
ATOM     67  C   UNL A   1      35.765  32.499  30.521  1.00  0.00     0.009 A 
ATOM     68  C   UNL A   1      36.483  33.399  28.396  1.00  0.00     0.009 A 
ATOM     69  C   UNL A   1      34.474  32.978  30.281  1.00  0.00     0.001 A 
ATOM     70  C   UNL A   1      35.200  33.900  28.171  1.00  0.00     0.001 A 
ATOM     71  C   UNL A   1      34.194  33.681  29.109  1.00  0.00     0.000 A 
ENDBRANCH  47  66
BRANCH  59  72
ATOM     72  C   UNL A   1      42.264  34.800  33.298  1.00  0.00    -0.014 A 
ATOM     73  C   UNL A   1      42.932  35.939  32.823  1.00  0.00     0.009 A 
ATOM     74  C   UNL A   1      41.763  34.799  34.609  1.00  0.00     0.009 A 
ATOM     75  C   UNL A   1      43.115  37.046  33.655  1.00  0.00     0.001 A 
ATOM     76  C   UNL A   1      41.927  35.915  35.429  1.00  0.00     0.001 A 
ATOM     77  C   UNL A   1      42.609  37.034  34.954  1.00  0.00     0.000 A 
ENDBRANCH  59  72
ENDBRANCH  33  34
ENDBRANCH  26  28
ENDBRANCH  25  26
ENDBRANCH  24  25
ENDBRANCH   1  24
TORSDOF 16
ENDMDL
MODEL 3
REMARK VINA RESULT:     -10.0      3.159      6.732
REMARK SMILES COCCCN1C(=O)CC[C@@H](C(=O)OCCOC(=O)c2ccc(-c3c4nc(c(-c5ccccc5)c5ccc([nH]5)c(-c5ccccc5)c5nc(c(-c6ccccc6)c6ccc3[nH]6)C=C5)C=C4)cc2)[C@@H]1c1ccc(F)cc1
REMARK SMILES IDX 15 1 14 2 12 3 13 4 11 5 6 6 7 7 68 8 8 9 9 10 10 11 5 12
REMARK SMILES IDX 4 13 3 14 2 15 1 16 69 17 70 18 75 19 71 20 74 21 72 22
REMARK SMILES IDX 73 23 16 24 17 25 18 26 19 27 20 28 21 29 67 30 22 31 66 32
REMARK SMILES IDX 23 33 24 34 25 35 60 36 26 37 65 38 59 39 61 40 27 41 64 42
REMARK SMILES IDX 58 43 57 44 28 46 50 47 35 48 49 49 36 50 39 51 48 52 62 53
REMARK SMILES IDX 37 54 38 55 47 57 63 58 40 59 29 60 30 61 34 62 31 63 33 64
REMARK SMILES IDX 32 65 51 66 52 67 56 68 53 69 55 70 54 71 41 72 42 73 46 74
REMARK SMILES IDX 43 75 45 76 44 77
REMARK H PARENT 61 45 39 56
REMARK Flexibility Score: inf
ROOT
ATOM      1  C   UNL A   1      34.658  21.399  24.301  1.00  0.00     0.274 C 
ENDROOT
BRANCH   1   2
ATOM      2  O   UNL A   1      33.585  22.230  24.805  1.00  0.00    -0.462 OA
BRANCH   2   3
ATOM      3  C   UNL A   1      33.409  23.425  24.173  1.00  0.00     0.311 C 
ATOM      4  O   UNL A   1      33.096  23.541  22.997  1.00  0.00    -0.252 OA
BRANCH   3   5
ATOM      5  C   UNL A   1      33.640  24.597  25.124  1.00  0.00     0.127 C 
ATOM      6  N   UNL A   1      31.225  25.061  25.246  1.00  0.00    -0.335 N 
ATOM      7  C   UNL A   1      31.061  24.246  26.358  1.00  0.00     0.223 C 
ATOM      8  C   UNL A   1      32.539  25.664  24.971  1.00  0.00     0.129 C 
ATOM      9  O   UNL A   1      29.965  23.859  26.757  1.00  0.00    -0.275 OA
ATOM     10  C   UNL A   1      32.295  23.873  27.167  1.00  0.00     0.101 C 
ATOM     11  C   UNL A   1      33.677  24.150  26.581  1.00  0.00     0.028 C 
BRANCH   6  12
ATOM     12  C   UNL A   1      30.067  25.555  24.483  1.00  0.00     0.122 C 
BRANCH  12  13
ATOM     13  C   UNL A   1      30.366  26.484  23.301  1.00  0.00     0.050 C 
BRANCH  13  14
ATOM     14  C   UNL A   1      29.804  27.905  23.372  1.00  0.00     0.161 C 
BRANCH  14  15
ATOM     15  O   UNL A   1      29.610  28.484  22.080  1.00  0.00    -0.385 OA
ATOM     16  C   UNL A   1      29.858  29.888  22.055  1.00  0.00     0.194 C 
ENDBRANCH  14  15
ENDBRANCH  13  14
ENDBRANCH  12  13
ENDBRANCH   6  12
BRANCH   8  17
ATOM     17  C   UNL A   1      32.804  26.890  25.874  1.00  0.00    -0.024 A 
ATOM     18  C   UNL A   1      34.039  27.574  25.872  1.00  0.00     0.009 A 
ATOM     19  C   UNL A   1      31.766  27.421  26.661  1.00  0.00     0.009 A 
ATOM     20  C   UNL A   1      34.207  28.776  26.560  1.00  0.00     0.039 A 
ATOM     21  C   UNL A   1      31.933  28.628  27.348  1.00  0.00     0.039 A 
ATOM     22  C   UNL A   1      33.147  29.300  27.280  1.00  0.00     0.123 A 
ATOM     23  F   UNL A   1      33.293  30.472  27.912  1.00  0.00    -0.207 F 
ENDBRANCH   8  17
ENDBRANCH   3   5
ENDBRANCH   2   3
ENDBRANCH   1   2
BRANCH   1  24
ATOM     24  C   UNL A   1      35.725  21.120  25.364  1.00  0.00     0.275 C 
BRANCH  24  25
ATOM     25  O   UNL A   1      36.918  21.867  25.069  1.00  0.00    -0.458 OA
BRANCH  25  26
ATOM     26  C   UNL A   1      38.072  21.379  25.577  1.00  0.00     0.338 C 
ATOM     27  O   UNL A   1      38.515  20.250  25.478  1.00  0.00    -0.246 OA
BRANCH  26  28
ATOM     28  C   UNL A   1      38.828  22.489  26.178  1.00  0.00     0.060 A 
ATOM     29  C   UNL A   1      38.336  23.773  25.969  1.00  0.00     0.016 A 
ATOM     30  C   UNL A   1      40.044  22.304  26.829  1.00  0.00     0.016 A 
ATOM     31  C   UNL A   1      39.061  24.887  26.365  1.00  0.00     0.010 A 
ATOM     32  C   UNL A   1      40.760  23.428  27.270  1.00  0.00     0.010 A 
ATOM     33  C   UNL A   1      40.280  24.726  27.023  1.00  0.00    -0.014 A 
BRANCH  33  34
ATOM     34  C   UNL A   1      41.065  25.939  27.353  1.00  0.00     0.031 A 
ATOM     35  C   UNL A   1      40.507  26.937  28.323  1.00  0.00     0.074 A 
ATOM     36  C   UNL A   1      42.321  26.088  26.891  1.00  0.00     0.049 A 
ATOM     37  N   UNL A   1      40.984  28.102  28.677  1.00  0.00    -0.248 NA
ATOM     38  C   UNL A   1      39.257  26.561  29.005  1.00  0.00     0.031 C 
ATOM     39  C   UNL A   1      43.050  25.114  26.077  1.00  0.00     0.029 A 
ATOM     40  N   UNL A   1      43.215  27.114  27.065  1.00  0.00    -0.354 N 
ATOM     41  C   UNL A   1      40.082  28.611  29.601  1.00  0.00     0.074 A 
ATOM     42  C   UNL A   1      39.032  27.627  29.758  1.00  0.00     0.031 C 
ATOM     43  C   UNL A   1      44.282  25.588  25.828  1.00  0.00     0.029 A 
ATOM     44  C   UNL A   1      44.403  26.924  26.401  1.00  0.00     0.049 A 
ATOM     45  H   UNL A   1      43.025  27.910  27.612  1.00  0.00     0.167 HD
ATOM     46  C   UNL A   1      40.118  29.799  30.249  1.00  0.00     0.031 A 
ATOM     47  C   UNL A   1      45.450  27.755  26.235  1.00  0.00     0.031 A 
ATOM     48  C   UNL A   1      41.158  30.778  30.088  1.00  0.00     0.049 A 
ATOM     49  C   UNL A   1      45.396  29.131  26.840  1.00  0.00     0.074 A 
ATOM     50  C   UNL A   1      41.250  32.041  30.648  1.00  0.00     0.029 A 
ATOM     51  N   UNL A   1      42.291  30.600  29.311  1.00  0.00    -0.354 N 
ATOM     52  N   UNL A   1      44.490  29.652  27.631  1.00  0.00    -0.248 NA
ATOM     53  C   UNL A   1      46.501  30.043  26.507  1.00  0.00     0.031 C 
ATOM     54  C   UNL A   1      42.420  32.644  30.171  1.00  0.00     0.029 A 
ATOM     55  C   UNL A   1      43.077  31.737  29.355  1.00  0.00     0.049 A 
ATOM     56  H   UNL A   1      42.505  29.784  28.803  1.00  0.00     0.167 HD
ATOM     57  C   UNL A   1      44.921  30.944  27.902  1.00  0.00     0.074 A 
ATOM     58  C   UNL A   1      46.178  31.123  27.206  1.00  0.00     0.031 C 
ATOM     59  C   UNL A   1      44.325  31.898  28.656  1.00  0.00     0.031 A 
BRANCH  46  60
ATOM     60  C   UNL A   1      38.952  30.128  31.132  1.00  0.00    -0.014 A 
ATOM     61  C   UNL A   1      38.939  29.784  32.491  1.00  0.00     0.009 A 
ATOM     62  C   UNL A   1      37.846  30.798  30.584  1.00  0.00     0.009 A 
ATOM     63  C   UNL A   1      37.825  30.081  33.280  1.00  0.00     0.001 A 
ATOM     64  C   UNL A   1      36.744  31.111  31.380  1.00  0.00     0.001 A 
ATOM     65  C   UNL A   1      36.731  30.746  32.725  1.00  0.00     0.000 A 
ENDBRANCH  46  60
BRANCH  47  66
ATOM     66  C   UNL A   1      46.603  27.349  25.390  1.00  0.00    -0.014 A 
ATOM     67  C   UNL A   1      46.741  27.829  24.079  1.00  0.00     0.009 A 
ATOM     68  C   UNL A   1      47.555  26.440  25.883  1.00  0.00     0.009 A 
ATOM     69  C   UNL A   1      47.795  27.389  23.273  1.00  0.00     0.001 A 
ATOM     70  C   UNL A   1      48.622  26.025  25.086  1.00  0.00     0.001 A 
ATOM     71  C   UNL A   1      48.735  26.491  23.778  1.00  0.00     0.000 A 
ENDBRANCH  47  66
BRANCH  59  72
ATOM     72  C   UNL A   1      45.041  33.211  28.792  1.00  0.00    -0.014 A 
ATOM     73  C   UNL A   1      44.773  34.276  27.919  1.00  0.00     0.009 A 
ATOM     74  C   UNL A   1      45.965  33.396  29.832  1.00  0.00     0.009 A 
ATOM     75  C   UNL A   1      45.436  35.495  28.072  1.00  0.00     0.001 A 
ATOM     76  C   UNL A   1      46.608  34.623  29.996  1.00  0.00     0.001 A 
ATOM     77  C   UNL A   1      46.348  35.669  29.112  1.00  0.00     0.000 A 
ENDBRANCH  59  72
ENDBRANCH  33  34
ENDBRANCH  26  28
ENDBRANCH  25  26
ENDBRANCH  24  25
ENDBRANCH   1  24
TORSDOF 16
ENDMDL
