MODEL 1
REMARK VINA RESULT:     -10.7      0.000      0.000
REMARK SMILES O=Cc1ccc2c(c1)C=C(C(=O)OCCOC(=O)c1ccc(-c3c4nc(c(-c5ccccc5)c5ccc([nH]5)c(-c5ccccc5)c5nc(c(-c6ccccc6)c6ccc3[nH]6)C=C5)C=C4)cc1)[C@H](C(F)(F)F)O2
REMARK SMILES IDX 15 1 14 2 13 3 11 4 12 5 10 6 3 7 4 8 8 9 5 10 7 11 6 12
REMARK SMILES IDX 9 13 72 14 67 15 2 16 1 17 68 18 69 19 70 20 71 21 16 22
REMARK SMILES IDX 17 23 18 24 19 25 20 26 66 27 21 28 65 29 22 30 23 31 24 32
REMARK SMILES IDX 59 33 25 34 64 35 58 36 60 37 26 38 63 39 57 40 56 41 27 43
REMARK SMILES IDX 49 44 34 45 48 46 35 47 38 48 47 49 61 50 36 51 37 52 46 54
REMARK SMILES IDX 62 55 39 56 28 57 29 58 33 59 30 60 32 61 31 62 50 63 51 64
REMARK SMILES IDX 55 65 52 66 54 67 53 68 40 69 41 70 45 71 42 72 44 73 43 74
REMARK H PARENT 60 42 38 53
REMARK Flexibility Score: inf
ROOT
ATOM      1  C   UNL A   1      32.575  29.669  27.061  1.00  0.00     0.275 C 
ENDROOT
BRANCH   1   2
ATOM      2  C   UNL A   1      31.786  28.364  27.198  1.00  0.00     0.275 C 
BRANCH   2   3
ATOM      3  O   UNL A   1      31.791  27.611  25.966  1.00  0.00    -0.459 OA
BRANCH   3   4
ATOM      4  C   UNL A   1      31.624  26.269  26.078  1.00  0.00     0.338 C 
ATOM      5  O   UNL A   1      30.705  25.716  26.656  1.00  0.00    -0.246 OA
BRANCH   4   6
ATOM      6  C   UNL A   1      32.685  25.526  25.356  1.00  0.00     0.087 C 
ATOM      7  C   UNL A   1      36.885  23.161  25.148  1.00  0.00     0.015 A 
ATOM      8  C   UNL A   1      36.692  22.938  23.781  1.00  0.00     0.015 A 
ATOM      9  C   UNL A   1      35.917  23.831  25.908  1.00  0.00     0.023 A 
ATOM     10  C   UNL A   1      35.508  23.354  23.177  1.00  0.00     0.048 A 
ATOM     11  C   UNL A   1      34.738  24.271  25.295  1.00  0.00     0.018 A 
ATOM     12  C   UNL A   1      34.540  24.012  23.935  1.00  0.00     0.128 A 
ATOM     13  C   UNL A   1      33.693  24.962  26.047  1.00  0.00     0.027 C 
ATOM     14  O   UNL A   1      33.372  24.315  23.298  1.00  0.00    -0.475 OA
ATOM     15  C   UNL A   1      32.625  25.440  23.841  1.00  0.00     0.316 C 
BRANCH   7  16
ATOM     16  C   UNL A   1      38.113  22.667  25.804  1.00  0.00     0.260 C 
ATOM     17  O   UNL A   1      38.504  21.515  25.668  1.00  0.00    -0.298 OA
ENDBRANCH   7  16
BRANCH  15  18
ATOM     18  C   UNL A   1      31.243  25.434  23.157  1.00  0.00     0.430 C 
ATOM     19  F   UNL A   1      30.630  26.636  23.238  1.00  0.00    -0.167 F 
ATOM     20  F   UNL A   1      31.382  25.189  21.825  1.00  0.00    -0.167 F 
ATOM     21  F   UNL A   1      30.421  24.484  23.649  1.00  0.00    -0.167 F 
ENDBRANCH  15  18
ENDBRANCH   4   6
ENDBRANCH   3   4
ENDBRANCH   2   3
ENDBRANCH   1   2
BRANCH   1  22
ATOM     22  O   UNL A   1      33.985  29.460  27.259  1.00  0.00    -0.458 OA
BRANCH  22  23
ATOM     23  C   UNL A   1      34.628  30.462  27.903  1.00  0.00     0.338 C 
ATOM     24  O   UNL A   1      34.163  31.540  28.236  1.00  0.00    -0.246 OA
BRANCH  23  25
ATOM     25  C   UNL A   1      35.969  30.010  28.325  1.00  0.00     0.060 A 
ATOM     26  C   UNL A   1      36.993  30.102  27.376  1.00  0.00     0.016 A 
ATOM     27  C   UNL A   1      36.235  29.497  29.595  1.00  0.00     0.016 A 
ATOM     28  C   UNL A   1      38.299  29.755  27.705  1.00  0.00     0.010 A 
ATOM     29  C   UNL A   1      37.538  29.092  29.911  1.00  0.00     0.010 A 
ATOM     30  C   UNL A   1      38.574  29.229  28.970  1.00  0.00    -0.014 A 
BRANCH  30  31
ATOM     31  C   UNL A   1      39.931  28.727  29.269  1.00  0.00     0.031 A 
ATOM     32  C   UNL A   1      40.894  29.618  29.995  1.00  0.00     0.074 A 
ATOM     33  C   UNL A   1      40.287  27.478  28.921  1.00  0.00     0.049 A 
ATOM     34  N   UNL A   1      42.155  29.416  30.277  1.00  0.00    -0.248 NA
ATOM     35  C   UNL A   1      40.361  30.902  30.478  1.00  0.00     0.031 C 
ATOM     36  C   UNL A   1      39.403  26.486  28.313  1.00  0.00     0.029 A 
ATOM     37  N   UNL A   1      41.494  26.837  29.028  1.00  0.00    -0.354 N 
ATOM     38  C   UNL A   1      42.568  30.548  30.967  1.00  0.00     0.074 A 
ATOM     39  C   UNL A   1      41.427  31.433  31.059  1.00  0.00     0.031 C 
ATOM     40  C   UNL A   1      40.107  25.365  28.076  1.00  0.00     0.029 A 
ATOM     41  C   UNL A   1      41.497  25.580  28.474  1.00  0.00     0.049 A 
ATOM     42  H   UNL A   1      42.284  27.240  29.459  1.00  0.00     0.167 HD
ATOM     43  C   UNL A   1      43.794  30.830  31.465  1.00  0.00     0.031 A 
ATOM     44  C   UNL A   1      42.516  24.723  28.278  1.00  0.00     0.031 A 
ATOM     45  C   UNL A   1      44.937  29.969  31.326  1.00  0.00     0.049 A 
ATOM     46  C   UNL A   1      43.902  25.117  28.717  1.00  0.00     0.074 A 
ATOM     47  C   UNL A   1      46.236  30.183  31.750  1.00  0.00     0.029 A 
ATOM     48  N   UNL A   1      44.916  28.731  30.701  1.00  0.00    -0.354 N 
ATOM     49  N   UNL A   1      44.293  26.201  29.344  1.00  0.00    -0.248 NA
ATOM     50  C   UNL A   1      44.989  24.172  28.415  1.00  0.00     0.031 C 
ATOM     51  C   UNL A   1      47.013  29.097  31.335  1.00  0.00     0.029 A 
ATOM     52  C   UNL A   1      46.185  28.181  30.705  1.00  0.00     0.049 A 
ATOM     53  H   UNL A   1      44.116  28.308  30.313  1.00  0.00     0.167 HD
ATOM     54  C   UNL A   1      45.661  26.055  29.538  1.00  0.00     0.074 A 
ATOM     55  C   UNL A   1      46.032  24.777  28.968  1.00  0.00     0.031 C 
ATOM     56  C   UNL A   1      46.531  26.902  30.141  1.00  0.00     0.031 A 
BRANCH  43  57
ATOM     57  C   UNL A   1      43.968  32.159  32.138  1.00  0.00    -0.014 A 
ATOM     58  C   UNL A   1      43.768  32.311  33.518  1.00  0.00     0.009 A 
ATOM     59  C   UNL A   1      44.342  33.277  31.376  1.00  0.00     0.009 A 
ATOM     60  C   UNL A   1      43.906  33.566  34.117  1.00  0.00     0.001 A 
ATOM     61  C   UNL A   1      44.502  34.524  31.980  1.00  0.00     0.001 A 
ATOM     62  C   UNL A   1      44.275  34.670  33.348  1.00  0.00     0.000 A 
ENDBRANCH  43  57
BRANCH  44  63
ATOM     63  C   UNL A   1      42.281  23.430  27.582  1.00  0.00    -0.014 A 
ATOM     64  C   UNL A   1      41.750  22.329  28.269  1.00  0.00     0.009 A 
ATOM     65  C   UNL A   1      42.610  23.286  26.224  1.00  0.00     0.009 A 
ATOM     66  C   UNL A   1      41.575  21.104  27.617  1.00  0.00     0.001 A 
ATOM     67  C   UNL A   1      42.407  22.070  25.568  1.00  0.00     0.001 A 
ATOM     68  C   UNL A   1      41.900  20.977  26.267  1.00  0.00     0.000 A 
ENDBRANCH  44  63
BRANCH  56  69
ATOM     69  C   UNL A   1      47.960  26.457  30.263  1.00  0.00    -0.014 A 
ATOM     70  C   UNL A   1      48.418  25.764  31.393  1.00  0.00     0.009 A 
ATOM     71  C   UNL A   1      48.841  26.673  29.191  1.00  0.00     0.009 A 
ATOM     72  C   UNL A   1      49.738  25.313  31.454  1.00  0.00     0.001 A 
ATOM     73  C   UNL A   1      50.152  26.199  29.245  1.00  0.00     0.001 A 
ATOM     74  C   UNL A   1      50.600  25.524  30.378  1.00  0.00     0.000 A 
ENDBRANCH  56  69
ENDBRANCH  30  31
ENDBRANCH  23  25
ENDBRANCH  22  23
ENDBRANCH   1  22
TORSDOF 13
ENDMDL
MODEL 2
REMARK VINA RESULT:     -10.7      4.933      9.870
REMARK SMILES O=Cc1ccc2c(c1)C=C(C(=O)OCCOC(=O)c1ccc(-c3c4nc(c(-c5ccccc5)c5ccc([nH]5)c(-c5ccccc5)c5nc(c(-c6ccccc6)c6ccc3[nH]6)C=C5)C=C4)cc1)[C@H](C(F)(F)F)O2
REMARK SMILES IDX 15 1 14 2 13 3 11 4 12 5 10 6 3 7 4 8 8 9 5 10 7 11 6 12
REMARK SMILES IDX 9 13 72 14 67 15 2 16 1 17 68 18 69 19 70 20 71 21 16 22
REMARK SMILES IDX 17 23 18 24 19 25 20 26 66 27 21 28 65 29 22 30 23 31 24 32
REMARK SMILES IDX 59 33 25 34 64 35 58 36 60 37 26 38 63 39 57 40 56 41 27 43
REMARK SMILES IDX 49 44 34 45 48 46 35 47 38 48 47 49 61 50 36 51 37 52 46 54
REMARK SMILES IDX 62 55 39 56 28 57 29 58 33 59 30 60 32 61 31 62 50 63 51 64
REMARK SMILES IDX 55 65 52 66 54 67 53 68 40 69 41 70 45 71 42 72 44 73 43 74
REMARK H PARENT 60 42 38 53
REMARK Flexibility Score: inf
ROOT
ATOM      1  C   UNL A   1      40.788  20.173  26.877  1.00  0.00     0.275 C 
ENDROOT
BRANCH   1   2
ATOM      2  C   UNL A   1      42.046  20.134  26.005  1.00  0.00     0.275 C 
BRANCH   2   3
ATOM      3  O   UNL A   1      43.073  21.009  26.519  1.00  0.00    -0.459 OA
BRANCH   3   4
ATOM      4  C   UNL A   1      43.316  22.139  25.809  1.00  0.00     0.338 C 
ATOM      5  O   UNL A   1      42.700  22.499  24.821  1.00  0.00    -0.246 OA
BRANCH   4   6
ATOM      6  C   UNL A   1      44.409  22.938  26.412  1.00  0.00     0.087 C 
ATOM      7  C   UNL A   1      46.438  25.386  30.041  1.00  0.00     0.015 A 
ATOM      8  C   UNL A   1      47.563  25.631  29.247  1.00  0.00     0.015 A 
ATOM      9  C   UNL A   1      45.373  24.615  29.555  1.00  0.00     0.023 A 
ATOM     10  C   UNL A   1      47.640  25.073  27.973  1.00  0.00     0.048 A 
ATOM     11  C   UNL A   1      45.440  24.076  28.266  1.00  0.00     0.018 A 
ATOM     12  C   UNL A   1      46.584  24.299  27.493  1.00  0.00     0.128 A 
ATOM     13  C   UNL A   1      44.362  23.255  27.719  1.00  0.00     0.027 C 
ATOM     14  O   UNL A   1      46.765  23.715  26.273  1.00  0.00    -0.475 OA
ATOM     15  C   UNL A   1      45.552  23.409  25.529  1.00  0.00     0.316 C 
BRANCH   7  16
ATOM     16  C   UNL A   1      46.380  25.926  31.414  1.00  0.00     0.260 C 
ATOM     17  O   UNL A   1      45.400  25.770  32.132  1.00  0.00    -0.298 OA
ENDBRANCH   7  16
BRANCH  15  18
ATOM     18  C   UNL A   1      45.969  22.530  24.333  1.00  0.00     0.430 C 
ATOM     19  F   UNL A   1      45.050  22.551  23.342  1.00  0.00    -0.167 F 
ATOM     20  F   UNL A   1      47.112  23.014  23.774  1.00  0.00    -0.167 F 
ATOM     21  F   UNL A   1      46.212  21.250  24.684  1.00  0.00    -0.167 F 
ENDBRANCH  15  18
ENDBRANCH   4   6
ENDBRANCH   3   4
ENDBRANCH   2   3
ENDBRANCH   1   2
BRANCH   1  22
ATOM     22  O   UNL A   1      40.595  21.469  27.472  1.00  0.00    -0.458 OA
BRANCH  22  23
ATOM     23  C   UNL A   1      39.811  22.315  26.763  1.00  0.00     0.338 C 
ATOM     24  O   UNL A   1      38.838  22.022  26.087  1.00  0.00    -0.246 OA
BRANCH  23  25
ATOM     25  C   UNL A   1      40.187  23.712  27.054  1.00  0.00     0.060 A 
ATOM     26  C   UNL A   1      40.717  23.972  28.322  1.00  0.00     0.016 A 
ATOM     27  C   UNL A   1      40.022  24.752  26.137  1.00  0.00     0.016 A 
ATOM     28  C   UNL A   1      41.153  25.248  28.660  1.00  0.00     0.010 A 
ATOM     29  C   UNL A   1      40.407  26.049  26.496  1.00  0.00     0.010 A 
ATOM     30  C   UNL A   1      40.983  26.298  27.754  1.00  0.00    -0.014 A 
BRANCH  30  31
ATOM     31  C   UNL A   1      41.313  27.677  28.170  1.00  0.00     0.031 A 
ATOM     32  C   UNL A   1      42.749  28.110  28.182  1.00  0.00     0.074 A 
ATOM     33  C   UNL A   1      40.338  28.540  28.503  1.00  0.00     0.049 A 
ATOM     34  N   UNL A   1      43.269  29.236  28.595  1.00  0.00    -0.248 NA
ATOM     35  C   UNL A   1      43.726  27.149  27.646  1.00  0.00     0.031 C 
ATOM     36  C   UNL A   1      38.904  28.268  28.422  1.00  0.00     0.029 A 
ATOM     37  N   UNL A   1      40.413  29.822  28.982  1.00  0.00    -0.354 N 
ATOM     38  C   UNL A   1      44.634  29.119  28.372  1.00  0.00     0.074 A 
ATOM     39  C   UNL A   1      44.863  27.815  27.791  1.00  0.00     0.031 C 
ATOM     40  C   UNL A   1      38.233  29.346  28.864  1.00  0.00     0.029 A 
ATOM     41  C   UNL A   1      39.190  30.361  29.297  1.00  0.00     0.049 A 
ATOM     42  H   UNL A   1      41.263  30.310  29.090  1.00  0.00     0.167 HD
ATOM     43  C   UNL A   1      45.611  30.016  28.644  1.00  0.00     0.031 A 
ATOM     44  C   UNL A   1      38.886  31.524  29.905  1.00  0.00     0.031 A 
ATOM     45  C   UNL A   1      45.384  31.291  29.268  1.00  0.00     0.049 A 
ATOM     46  C   UNL A   1      40.001  32.446  30.324  1.00  0.00     0.074 A 
ATOM     47  C   UNL A   1      46.310  32.251  29.631  1.00  0.00     0.029 A 
ATOM     48  N   UNL A   1      44.137  31.774  29.633  1.00  0.00    -0.354 N 
ATOM     49  N   UNL A   1      41.293  32.319  30.137  1.00  0.00    -0.248 NA
ATOM     50  C   UNL A   1      39.616  33.669  31.045  1.00  0.00     0.031 C 
ATOM     51  C   UNL A   1      45.627  33.295  30.266  1.00  0.00     0.029 A 
ATOM     52  C   UNL A   1      44.271  33.008  30.242  1.00  0.00     0.049 A 
ATOM     53  H   UNL A   1      43.283  31.308  29.480  1.00  0.00     0.167 HD
ATOM     54  C   UNL A   1      41.871  33.456  30.687  1.00  0.00     0.074 A 
ATOM     55  C   UNL A   1      40.790  34.264  31.211  1.00  0.00     0.031 C 
ATOM     56  C   UNL A   1      43.180  33.803  30.747  1.00  0.00     0.031 A 
BRANCH  43  57
ATOM     57  C   UNL A   1      47.020  29.605  28.331  1.00  0.00    -0.014 A 
ATOM     58  C   UNL A   1      47.515  29.635  27.018  1.00  0.00     0.009 A 
ATOM     59  C   UNL A   1      47.865  29.185  29.369  1.00  0.00     0.009 A 
ATOM     60  C   UNL A   1      48.821  29.217  26.748  1.00  0.00     0.001 A 
ATOM     61  C   UNL A   1      49.176  28.792  29.100  1.00  0.00     0.001 A 
ATOM     62  C   UNL A   1      49.650  28.799  27.789  1.00  0.00     0.000 A 
ENDBRANCH  43  57
BRANCH  44  63
ATOM     63  C   UNL A   1      37.470  31.861  30.209  1.00  0.00    -0.014 A 
ATOM     64  C   UNL A   1      36.682  32.558  29.282  1.00  0.00     0.009 A 
ATOM     65  C   UNL A   1      36.906  31.504  31.444  1.00  0.00     0.009 A 
ATOM     66  C   UNL A   1      35.365  32.909  29.594  1.00  0.00     0.001 A 
ATOM     67  C   UNL A   1      35.582  31.831  31.742  1.00  0.00     0.001 A 
ATOM     68  C   UNL A   1      34.815  32.542  30.822  1.00  0.00     0.000 A 
ENDBRANCH  44  63
BRANCH  56  69
ATOM     69  C   UNL A   1      43.518  35.133  31.355  1.00  0.00    -0.014 A 
ATOM     70  C   UNL A   1      43.672  36.282  30.566  1.00  0.00     0.009 A 
ATOM     71  C   UNL A   1      43.610  35.247  32.753  1.00  0.00     0.009 A 
ATOM     72  C   UNL A   1      43.930  37.517  31.164  1.00  0.00     0.001 A 
ATOM     73  C   UNL A   1      43.844  36.487  33.348  1.00  0.00     0.001 A 
ATOM     74  C   UNL A   1      44.008  37.619  32.553  1.00  0.00     0.000 A 
ENDBRANCH  56  69
ENDBRANCH  30  31
ENDBRANCH  23  25
ENDBRANCH  22  23
ENDBRANCH   1  22
TORSDOF 13
ENDMDL
MODEL 3
REMARK VINA RESULT:     -10.7      4.347      6.821
REMARK SMILES O=Cc1ccc2c(c1)C=C(C(=O)OCCOC(=O)c1ccc(-c3c4nc(c(-c5ccccc5)c5ccc([nH]5)c(-c5ccccc5)c5nc(c(-c6ccccc6)c6ccc3[nH]6)C=C5)C=C4)cc1)[C@H](C(F)(F)F)O2
REMARK SMILES IDX 15 1 14 2 13 3 11 4 12 5 10 6 3 7 4 8 8 9 5 10 7 11 6 12
REMARK SMILES IDX 9 13 72 14 67 15 2 16 1 17 68 18 69 19 70 20 71 21 16 22
REMARK SMILES IDX 17 23 18 24 19 25 20 26 66 27 21 28 65 29 22 30 23 31 24 32
REMARK SMILES IDX 59 33 25 34 64 35 58 36 60 37 26 38 63 39 57 40 56 41 27 43
REMARK SMILES IDX 49 44 34 45 48 46 35 47 38 48 47 49 61 50 36 51 37 52 46 54
REMARK SMILES IDX 62 55 39 56 28 57 29 58 33 59 30 60 32 61 31 62 50 63 51 64
REMARK SMILES IDX 55 65 52 66 54 67 53 68 40 69 41 70 45 71 42 72 44 73 43 74
REMARK H PARENT 60 42 38 53
REMARK Flexibility Score: inf
ROOT
ATOM      1  C   UNL A   1      33.784  32.812  28.320  1.00  0.00     0.275 C 
ENDROOT
BRANCH   1   2
ATOM      2  C   UNL A   1      33.967  34.313  28.078  1.00  0.00     0.275 C 
BRANCH   2   3
ATOM      3  O   UNL A   1      34.458  34.983  29.259  1.00  0.00    -0.459 OA
BRANCH   3   4
ATOM      4  C   UNL A   1      33.668  34.924  30.360  1.00  0.00     0.338 C 
ATOM      5  O   UNL A   1      32.463  35.106  30.377  1.00  0.00    -0.246 OA
BRANCH   4   6
ATOM      6  C   UNL A   1      34.443  34.553  31.568  1.00  0.00     0.087 C 
ATOM      7  C   UNL A   1      37.601  31.803  33.964  1.00  0.00     0.015 A 
ATOM      8  C   UNL A   1      37.439  32.604  35.098  1.00  0.00     0.015 A 
ATOM      9  C   UNL A   1      36.926  32.102  32.773  1.00  0.00     0.023 A 
ATOM     10  C   UNL A   1      36.627  33.733  35.032  1.00  0.00     0.048 A 
ATOM     11  C   UNL A   1      36.089  33.222  32.714  1.00  0.00     0.018 A 
ATOM     12  C   UNL A   1      35.961  34.037  33.844  1.00  0.00     0.128 A 
ATOM     13  C   UNL A   1      35.374  33.584  31.492  1.00  0.00     0.027 C 
ATOM     14  O   UNL A   1      35.251  35.202  33.826  1.00  0.00    -0.475 OA
ATOM     15  C   UNL A   1      34.147  35.258  32.880  1.00  0.00     0.316 C 
BRANCH   7  16
ATOM     16  C   UNL A   1      38.509  30.639  34.014  1.00  0.00     0.260 C 
ATOM     17  O   UNL A   1      38.100  29.490  33.901  1.00  0.00    -0.298 OA
ENDBRANCH   7  16
BRANCH  15  18
ATOM     18  C   UNL A   1      33.667  36.723  32.837  1.00  0.00     0.430 C 
ATOM     19  F   UNL A   1      34.102  37.368  31.731  1.00  0.00    -0.167 F 
ATOM     20  F   UNL A   1      32.308  36.768  32.769  1.00  0.00    -0.167 F 
ATOM     21  F   UNL A   1      34.031  37.425  33.930  1.00  0.00    -0.167 F 
ENDBRANCH  15  18
ENDBRANCH   4   6
ENDBRANCH   3   4
ENDBRANCH   2   3
ENDBRANCH   1   2
BRANCH   1  22
ATOM     22  O   UNL A   1      34.774  32.038  27.618  1.00  0.00    -0.458 OA
BRANCH  22  23
ATOM     23  C   UNL A   1      34.714  30.702  27.831  1.00  0.00     0.338 C 
ATOM     24  O   UNL A   1      33.793  29.954  27.547  1.00  0.00    -0.246 OA
BRANCH  23  25
ATOM     25  C   UNL A   1      36.020  30.210  28.312  1.00  0.00     0.060 A 
ATOM     26  C   UNL A   1      37.061  30.171  27.379  1.00  0.00     0.016 A 
ATOM     27  C   UNL A   1      36.237  29.784  29.623  1.00  0.00     0.016 A 
ATOM     28  C   UNL A   1      38.340  29.778  27.760  1.00  0.00     0.010 A 
ATOM     29  C   UNL A   1      37.509  29.333  29.995  1.00  0.00     0.010 A 
ATOM     30  C   UNL A   1      38.565  29.338  29.067  1.00  0.00    -0.014 A 
BRANCH  30  31
ATOM     31  C   UNL A   1      39.887  28.786  29.430  1.00  0.00     0.031 A 
ATOM     32  C   UNL A   1      40.821  29.615  30.260  1.00  0.00     0.074 A 
ATOM     33  C   UNL A   1      40.235  27.545  29.047  1.00  0.00     0.049 A 
ATOM     34  N   UNL A   1      42.054  29.366  30.614  1.00  0.00    -0.248 NA
ATOM     35  C   UNL A   1      40.288  30.890  30.767  1.00  0.00     0.031 C 
ATOM     36  C   UNL A   1      39.370  26.606  28.335  1.00  0.00     0.029 A 
ATOM     37  N   UNL A   1      41.417  26.867  29.202  1.00  0.00    -0.354 N 
ATOM     38  C   UNL A   1      42.447  30.454  31.383  1.00  0.00     0.074 A 
ATOM     39  C   UNL A   1      41.325  31.364  31.442  1.00  0.00     0.031 C 
ATOM     40  C   UNL A   1      40.062  25.479  28.091  1.00  0.00     0.029 A 
ATOM     41  C   UNL A   1      41.426  25.637  28.590  1.00  0.00     0.049 A 
ATOM     42  H   UNL A   1      42.185  27.227  29.703  1.00  0.00     0.167 HD
ATOM     43  C   UNL A   1      43.644  30.678  31.974  1.00  0.00     0.031 A 
ATOM     44  C   UNL A   1      42.435  24.763  28.420  1.00  0.00     0.031 A 
ATOM     45  C   UNL A   1      44.772  29.794  31.869  1.00  0.00     0.049 A 
ATOM     46  C   UNL A   1      43.798  25.098  28.968  1.00  0.00     0.074 A 
ATOM     47  C   UNL A   1      46.044  29.953  32.388  1.00  0.00     0.029 A 
ATOM     48  N   UNL A   1      44.763  28.588  31.186  1.00  0.00    -0.354 N 
ATOM     49  N   UNL A   1      44.172  26.141  29.670  1.00  0.00    -0.248 NA
ATOM     50  C   UNL A   1      44.879  24.139  28.693  1.00  0.00     0.031 C 
ATOM     51  C   UNL A   1      46.822  28.866  31.973  1.00  0.00     0.029 A 
ATOM     52  C   UNL A   1      46.015  28.004  31.246  1.00  0.00     0.049 A 
ATOM     53  H   UNL A   1      43.981  28.205  30.726  1.00  0.00     0.167 HD
ATOM     54  C   UNL A   1      45.520  25.949  29.948  1.00  0.00     0.074 A 
ATOM     55  C   UNL A   1      45.897  24.688  29.342  1.00  0.00     0.031 C 
ATOM     56  C   UNL A   1      46.368  26.742  30.647  1.00  0.00     0.031 A 
BRANCH  43  57
ATOM     57  C   UNL A   1      43.804  31.970  32.720  1.00  0.00    -0.014 A 
ATOM     58  C   UNL A   1      44.246  33.136  32.076  1.00  0.00     0.009 A 
ATOM     59  C   UNL A   1      43.505  32.020  34.090  1.00  0.00     0.009 A 
ATOM     60  C   UNL A   1      44.417  34.319  32.799  1.00  0.00     0.001 A 
ATOM     61  C   UNL A   1      43.654  33.209  34.804  1.00  0.00     0.001 A 
ATOM     62  C   UNL A   1      44.119  34.355  34.161  1.00  0.00     0.000 A 
ENDBRANCH  43  57
BRANCH  44  63
ATOM     63  C   UNL A   1      42.216  23.510  27.649  1.00  0.00    -0.014 A 
ATOM     64  C   UNL A   1      41.697  22.365  28.269  1.00  0.00     0.009 A 
ATOM     65  C   UNL A   1      42.549  23.450  26.286  1.00  0.00     0.009 A 
ATOM     66  C   UNL A   1      41.537  21.178  27.546  1.00  0.00     0.001 A 
ATOM     67  C   UNL A   1      42.361  22.272  25.559  1.00  0.00     0.001 A 
ATOM     68  C   UNL A   1      41.865  21.134  26.192  1.00  0.00     0.000 A 
ENDBRANCH  44  63
BRANCH  56  69
ATOM     69  C   UNL A   1      47.774  26.254  30.841  1.00  0.00    -0.014 A 
ATOM     70  C   UNL A   1      48.755  26.436  29.856  1.00  0.00     0.009 A 
ATOM     71  C   UNL A   1      48.136  25.667  32.065  1.00  0.00     0.009 A 
ATOM     72  C   UNL A   1      50.069  26.022  30.086  1.00  0.00     0.001 A 
ATOM     73  C   UNL A   1      49.454  25.277  32.301  1.00  0.00     0.001 A 
ATOM     74  C   UNL A   1      50.418  25.451  31.310  1.00  0.00     0.000 A 
ENDBRANCH  56  69
ENDBRANCH  30  31
ENDBRANCH  23  25
ENDBRANCH  22  23
ENDBRANCH   1  22
TORSDOF 13
ENDMDL
