MODEL 1
REMARK VINA RESULT:     -11.6      0.000      0.000
REMARK SMILES O=C1O[C@@H](c2ccc(O)c(O)c2)[C@H](C(=O)OCCOC(=O)c2ccc(-c3c4nc(c(-c5ccccc5)c5ccc([nH]5)c(-c5ccccc5)c5nc(c(-c6ccccc6)c6ccc3[nH]6)C=C5)C=C4)cc2)/C1=C\c1ccc(O)c(O)c1
REMARK SMILES IDX 17 1 16 2 14 3 15 4 13 5 1 6 2 7 3 8 70 9 4 10 71 11 5 12
REMARK SMILES IDX 6 13 12 14 7 15 10 16 8 17 11 18 9 20 72 22 73 23 79 24
REMARK SMILES IDX 74 25 77 26 75 27 78 28 76 30 18 32 19 33 20 34 21 35 22 36
REMARK SMILES IDX 23 37 69 38 24 39 68 40 25 41 26 42 27 43 62 44 28 45 67 46
REMARK SMILES IDX 61 47 63 48 29 49 66 50 60 51 59 52 30 54 52 55 37 56 51 57
REMARK SMILES IDX 38 58 41 59 50 60 64 61 39 62 40 63 49 65 65 66 42 67 31 68
REMARK SMILES IDX 32 69 36 70 33 71 35 72 34 73 53 74 54 75 58 76 55 77 57 78
REMARK SMILES IDX 56 79 43 80 44 81 48 82 45 83 47 84 46 85
REMARK H PARENT 11 19 9 21 78 29 76 31 63 53 41 64
REMARK Flexibility Score: inf
ROOT
ATOM      1  C   UNL A   1      33.119  25.162  21.477  1.00  0.00     0.274 C 
ENDROOT
BRANCH   1   2
ATOM      2  O   UNL A   1      33.991  24.322  22.268  1.00  0.00    -0.461 OA
BRANCH   2   3
ATOM      3  C   UNL A   1      33.408  23.247  22.873  1.00  0.00     0.318 C 
ATOM      4  O   UNL A   1      32.249  22.902  22.687  1.00  0.00    -0.251 OA
BRANCH   3   5
ATOM      5  C   UNL A   1      34.358  22.604  23.879  1.00  0.00     0.182 C 
ATOM      6  O   UNL A   1      32.628  23.273  26.889  1.00  0.00    -0.247 OA
ATOM      7  C   UNL A   1      33.417  23.223  25.977  1.00  0.00     0.335 C 
ATOM      8  O   UNL A   1      34.240  24.232  25.565  1.00  0.00    -0.453 OA
ATOM      9  C   UNL A   1      33.677  22.059  25.089  1.00  0.00     0.056 C 
ATOM     10  C   UNL A   1      35.123  23.756  24.527  1.00  0.00     0.226 C 
ATOM     11  C   UNL A   1      33.422  20.816  25.529  1.00  0.00     0.020 C 
BRANCH  10  12
ATOM     12  C   UNL A   1      36.473  23.362  25.112  1.00  0.00    -0.002 A 
ATOM     13  C   UNL A   1      37.040  22.110  24.806  1.00  0.00     0.012 A 
ATOM     14  C   UNL A   1      37.188  24.234  25.951  1.00  0.00     0.057 A 
ATOM     15  C   UNL A   1      38.252  21.708  25.374  1.00  0.00     0.050 A 
ATOM     16  C   UNL A   1      38.393  23.829  26.507  1.00  0.00     0.157 A 
ATOM     17  C   UNL A   1      38.918  22.571  26.232  1.00  0.00     0.157 A 
BRANCH  16  18
ATOM     18  O   UNL A   1      39.060  24.680  27.340  1.00  0.00    -0.504 OA
ATOM     19  H   UNL A   1      39.855  24.406  27.753  1.00  0.00     0.293 HD
ENDBRANCH  16  18
BRANCH  17  20
ATOM     20  O   UNL A   1      40.096  22.228  26.831  1.00  0.00    -0.504 OA
ATOM     21  H   UNL A   1      40.802  21.886  26.317  1.00  0.00     0.293 HD
ENDBRANCH  17  20
ENDBRANCH  10  12
BRANCH  11  22
ATOM     22  C   UNL A   1      33.666  19.563  24.805  1.00  0.00    -0.021 A 
ATOM     23  C   UNL A   1      34.803  18.774  24.990  1.00  0.00     0.012 A 
ATOM     24  C   UNL A   1      32.688  19.105  23.926  1.00  0.00     0.058 A 
ATOM     25  C   UNL A   1      34.954  17.566  24.281  1.00  0.00     0.051 A 
ATOM     26  C   UNL A   1      32.860  17.954  23.179  1.00  0.00     0.157 A 
ATOM     27  C   UNL A   1      33.981  17.171  23.367  1.00  0.00     0.157 A 
BRANCH  26  28
ATOM     28  O   UNL A   1      31.910  17.601  22.262  1.00  0.00    -0.504 OA
ATOM     29  H   UNL A   1      31.178  18.164  22.107  1.00  0.00     0.293 HD
ENDBRANCH  26  28
BRANCH  27  30
ATOM     30  O   UNL A   1      34.065  16.021  22.637  1.00  0.00    -0.504 OA
ATOM     31  H   UNL A   1      33.647  15.240  22.942  1.00  0.00     0.293 HD
ENDBRANCH  27  30
ENDBRANCH  11  22
ENDBRANCH   3   5
ENDBRANCH   2   3
ENDBRANCH   1   2
BRANCH   1  32
ATOM     32  C   UNL A   1      33.027  26.590  22.031  1.00  0.00     0.275 C 
BRANCH  32  33
ATOM     33  O   UNL A   1      33.617  26.705  23.346  1.00  0.00    -0.458 OA
BRANCH  33  34
ATOM     34  C   UNL A   1      32.695  26.831  24.325  1.00  0.00     0.338 C 
ATOM     35  O   UNL A   1      31.724  26.104  24.477  1.00  0.00    -0.246 OA
BRANCH  34  36
ATOM     36  C   UNL A   1      33.001  27.899  25.295  1.00  0.00     0.060 A 
ATOM     37  C   UNL A   1      33.719  28.997  24.825  1.00  0.00     0.016 A 
ATOM     38  C   UNL A   1      33.018  27.595  26.661  1.00  0.00     0.016 A 
ATOM     39  C   UNL A   1      34.592  29.668  25.684  1.00  0.00     0.010 A 
ATOM     40  C   UNL A   1      33.818  28.348  27.541  1.00  0.00     0.010 A 
ATOM     41  C   UNL A   1      34.672  29.351  27.056  1.00  0.00    -0.014 A 
BRANCH  41  42
ATOM     42  C   UNL A   1      35.659  30.062  27.932  1.00  0.00     0.031 A 
ATOM     43  C   UNL A   1      37.108  29.631  28.074  1.00  0.00     0.074 A 
ATOM     44  C   UNL A   1      35.262  31.174  28.580  1.00  0.00     0.049 A 
ATOM     45  N   UNL A   1      38.043  30.094  28.876  1.00  0.00    -0.248 NA
ATOM     46  C   UNL A   1      37.579  28.553  27.200  1.00  0.00     0.031 C 
ATOM     47  C   UNL A   1      33.926  31.768  28.498  1.00  0.00     0.029 A 
ATOM     48  N   UNL A   1      35.947  32.016  29.421  1.00  0.00    -0.354 N 
ATOM     49  C   UNL A   1      39.193  29.348  28.612  1.00  0.00     0.074 A 
ATOM     50  C   UNL A   1      38.845  28.405  27.573  1.00  0.00     0.031 C 
ATOM     51  C   UNL A   1      33.903  32.900  29.207  1.00  0.00     0.029 A 
ATOM     52  C   UNL A   1      35.170  33.034  29.912  1.00  0.00     0.049 A 
ATOM     53  H   UNL A   1      36.898  31.900  29.649  1.00  0.00     0.167 HD
ATOM     54  C   UNL A   1      40.419  29.431  29.191  1.00  0.00     0.031 A 
ATOM     55  C   UNL A   1      35.397  33.935  30.882  1.00  0.00     0.031 A 
ATOM     56  C   UNL A   1      40.767  30.369  30.232  1.00  0.00     0.049 A 
ATOM     57  C   UNL A   1      36.705  33.926  31.601  1.00  0.00     0.074 A 
ATOM     58  C   UNL A   1      41.979  30.524  30.887  1.00  0.00     0.029 A 
ATOM     59  N   UNL A   1      39.904  31.308  30.771  1.00  0.00    -0.354 N 
ATOM     60  N   UNL A   1      37.752  33.166  31.396  1.00  0.00    -0.248 NA
ATOM     61  C   UNL A   1      36.855  34.890  32.697  1.00  0.00     0.031 C 
ATOM     62  C   UNL A   1      41.827  31.510  31.868  1.00  0.00     0.029 A 
ATOM     63  C   UNL A   1      40.544  32.018  31.776  1.00  0.00     0.049 A 
ATOM     64  H   UNL A   1      38.973  31.450  30.484  1.00  0.00     0.167 HD
ATOM     65  C   UNL A   1      38.692  33.564  32.334  1.00  0.00     0.074 A 
ATOM     66  C   UNL A   1      38.098  34.647  33.091  1.00  0.00     0.031 C 
ATOM     67  C   UNL A   1      39.938  33.072  32.546  1.00  0.00     0.031 A 
BRANCH  54  68
ATOM     68  C   UNL A   1      41.485  28.446  28.772  1.00  0.00    -0.014 A 
ATOM     69  C   UNL A   1      41.555  27.152  29.311  1.00  0.00     0.009 A 
ATOM     70  C   UNL A   1      42.366  28.788  27.729  1.00  0.00     0.009 A 
ATOM     71  C   UNL A   1      42.488  26.229  28.822  1.00  0.00     0.001 A 
ATOM     72  C   UNL A   1      43.279  27.857  27.227  1.00  0.00     0.001 A 
ATOM     73  C   UNL A   1      43.342  26.580  27.777  1.00  0.00     0.000 A 
ENDBRANCH  54  68
BRANCH  55  74
ATOM     74  C   UNL A   1      34.288  34.838  31.283  1.00  0.00    -0.014 A 
ATOM     75  C   UNL A   1      33.620  34.665  32.501  1.00  0.00     0.009 A 
ATOM     76  C   UNL A   1      33.962  35.941  30.473  1.00  0.00     0.009 A 
ATOM     77  C   UNL A   1      32.652  35.588  32.904  1.00  0.00     0.001 A 
ATOM     78  C   UNL A   1      33.026  36.882  30.898  1.00  0.00     0.001 A 
ATOM     79  C   UNL A   1      32.369  36.702  32.113  1.00  0.00     0.000 A 
ENDBRANCH  55  74
BRANCH  67  80
ATOM     80  C   UNL A   1      40.742  33.732  33.628  1.00  0.00    -0.014 A 
ATOM     81  C   UNL A   1      40.731  33.242  34.945  1.00  0.00     0.009 A 
ATOM     82  C   UNL A   1      41.501  34.874  33.333  1.00  0.00     0.009 A 
ATOM     83  C   UNL A   1      41.422  33.916  35.953  1.00  0.00     0.001 A 
ATOM     84  C   UNL A   1      42.216  35.528  34.337  1.00  0.00     0.001 A 
ATOM     85  C   UNL A   1      42.163  35.057  35.648  1.00  0.00     0.000 A 
ENDBRANCH  67  80
ENDBRANCH  41  42
ENDBRANCH  34  36
ENDBRANCH  33  34
ENDBRANCH  32  33
ENDBRANCH   1  32
TORSDOF 17
ENDMDL
MODEL 2
REMARK VINA RESULT:     -11.4      3.290      8.495
REMARK SMILES O=C1O[C@@H](c2ccc(O)c(O)c2)[C@H](C(=O)OCCOC(=O)c2ccc(-c3c4nc(c(-c5ccccc5)c5ccc([nH]5)c(-c5ccccc5)c5nc(c(-c6ccccc6)c6ccc3[nH]6)C=C5)C=C4)cc2)/C1=C\c1ccc(O)c(O)c1
REMARK SMILES IDX 17 1 16 2 14 3 15 4 13 5 1 6 2 7 3 8 70 9 4 10 71 11 5 12
REMARK SMILES IDX 6 13 12 14 7 15 10 16 8 17 11 18 9 20 72 22 73 23 79 24
REMARK SMILES IDX 74 25 77 26 75 27 78 28 76 30 18 32 19 33 20 34 21 35 22 36
REMARK SMILES IDX 23 37 69 38 24 39 68 40 25 41 26 42 27 43 62 44 28 45 67 46
REMARK SMILES IDX 61 47 63 48 29 49 66 50 60 51 59 52 30 54 52 55 37 56 51 57
REMARK SMILES IDX 38 58 41 59 50 60 64 61 39 62 40 63 49 65 65 66 42 67 31 68
REMARK SMILES IDX 32 69 36 70 33 71 35 72 34 73 53 74 54 75 58 76 55 77 57 78
REMARK SMILES IDX 56 79 43 80 44 81 48 82 45 83 47 84 46 85
REMARK H PARENT 11 19 9 21 78 29 76 31 63 53 41 64
REMARK Flexibility Score: inf
ROOT
ATOM      1  C   UNL A   1      36.376  20.770  25.163  1.00  0.00     0.274 C 
ENDROOT
BRANCH   1   2
ATOM      2  O   UNL A   1      36.111  21.782  24.165  1.00  0.00    -0.461 OA
BRANCH   2   3
ATOM      3  C   UNL A   1      35.565  22.948  24.617  1.00  0.00     0.318 C 
ATOM      4  O   UNL A   1      36.221  23.897  25.027  1.00  0.00    -0.251 OA
BRANCH   3   5
ATOM      5  C   UNL A   1      34.042  22.867  24.637  1.00  0.00     0.182 C 
ATOM      6  O   UNL A   1      33.315  23.961  21.355  1.00  0.00    -0.247 OA
ATOM      7  C   UNL A   1      33.426  23.833  22.549  1.00  0.00     0.335 C 
ATOM      8  O   UNL A   1      33.570  24.841  23.460  1.00  0.00    -0.453 OA
ATOM      9  C   UNL A   1      33.437  22.556  23.309  1.00  0.00     0.056 C 
ATOM     10  C   UNL A   1      33.550  24.303  24.800  1.00  0.00     0.226 C 
ATOM     11  C   UNL A   1      32.832  21.472  22.797  1.00  0.00     0.020 C 
BRANCH  10  12
ATOM     12  C   UNL A   1      32.156  24.424  25.403  1.00  0.00    -0.002 A 
ATOM     13  C   UNL A   1      31.368  25.562  25.144  1.00  0.00     0.012 A 
ATOM     14  C   UNL A   1      31.620  23.408  26.213  1.00  0.00     0.057 A 
ATOM     15  C   UNL A   1      30.109  25.716  25.730  1.00  0.00     0.050 A 
ATOM     16  C   UNL A   1      30.368  23.567  26.787  1.00  0.00     0.157 A 
ATOM     17  C   UNL A   1      29.619  24.717  26.559  1.00  0.00     0.157 A 
BRANCH  16  18
ATOM     18  O   UNL A   1      29.875  22.580  27.591  1.00  0.00    -0.504 OA
ATOM     19  H   UNL A   1      29.419  22.800  28.379  1.00  0.00     0.293 HD
ENDBRANCH  16  18
BRANCH  17  20
ATOM     20  O   UNL A   1      28.404  24.818  27.174  1.00  0.00    -0.504 OA
ATOM     21  H   UNL A   1      28.043  25.662  27.364  1.00  0.00     0.293 HD
ENDBRANCH  17  20
ENDBRANCH  10  12
BRANCH  11  22
ATOM     22  C   UNL A   1      32.706  20.155  23.434  1.00  0.00    -0.021 A 
ATOM     23  C   UNL A   1      32.441  18.979  22.729  1.00  0.00     0.012 A 
ATOM     24  C   UNL A   1      32.915  20.062  24.808  1.00  0.00     0.058 A 
ATOM     25  C   UNL A   1      32.365  17.746  23.406  1.00  0.00     0.051 A 
ATOM     26  C   UNL A   1      32.777  18.865  25.487  1.00  0.00     0.157 A 
ATOM     27  C   UNL A   1      32.522  17.702  24.789  1.00  0.00     0.157 A 
BRANCH  26  28
ATOM     28  O   UNL A   1      32.900  18.848  26.847  1.00  0.00    -0.504 OA
ATOM     29  H   UNL A   1      32.385  18.255  27.357  1.00  0.00     0.293 HD
ENDBRANCH  26  28
BRANCH  27  30
ATOM     30  O   UNL A   1      32.449  16.547  25.512  1.00  0.00    -0.504 OA
ATOM     31  H   UNL A   1      32.976  16.440  26.280  1.00  0.00     0.293 HD
ENDBRANCH  27  30
ENDBRANCH  11  22
ENDBRANCH   3   5
ENDBRANCH   2   3
ENDBRANCH   1   2
BRANCH   1  32
ATOM     32  C   UNL A   1      37.779  20.168  25.024  1.00  0.00     0.275 C 
BRANCH  32  33
ATOM     33  O   UNL A   1      38.814  21.176  25.080  1.00  0.00    -0.458 OA
BRANCH  33  34
ATOM     34  C   UNL A   1      39.661  21.002  26.117  1.00  0.00     0.338 C 
ATOM     35  O   UNL A   1      40.319  19.994  26.328  1.00  0.00    -0.246 OA
BRANCH  34  36
ATOM     36  C   UNL A   1      39.811  22.196  26.969  1.00  0.00     0.060 A 
ATOM     37  C   UNL A   1      39.202  23.370  26.529  1.00  0.00     0.016 A 
ATOM     38  C   UNL A   1      40.887  22.268  27.860  1.00  0.00     0.016 A 
ATOM     39  C   UNL A   1      39.785  24.603  26.830  1.00  0.00     0.010 A 
ATOM     40  C   UNL A   1      41.401  23.520  28.248  1.00  0.00     0.010 A 
ATOM     41  C   UNL A   1      40.903  24.706  27.683  1.00  0.00    -0.014 A 
BRANCH  41  42
ATOM     42  C   UNL A   1      41.529  26.044  27.940  1.00  0.00     0.031 A 
ATOM     43  C   UNL A   1      40.874  27.120  28.788  1.00  0.00     0.074 A 
ATOM     44  C   UNL A   1      42.759  26.285  27.448  1.00  0.00     0.049 A 
ATOM     45  N   UNL A   1      41.258  28.359  29.009  1.00  0.00    -0.248 NA
ATOM     46  C   UNL A   1      39.639  26.764  29.493  1.00  0.00     0.031 C 
ATOM     47  C   UNL A   1      43.561  25.335  26.673  1.00  0.00     0.029 A 
ATOM     48  N   UNL A   1      43.561  27.396  27.541  1.00  0.00    -0.354 N 
ATOM     49  C   UNL A   1      40.301  28.924  29.852  1.00  0.00     0.074 A 
ATOM     50  C   UNL A   1      39.320  27.895  30.112  1.00  0.00     0.031 C 
ATOM     51  C   UNL A   1      44.754  25.877  26.410  1.00  0.00     0.029 A 
ATOM     52  C   UNL A   1      44.747  27.260  26.865  1.00  0.00     0.049 A 
ATOM     53  H   UNL A   1      43.311  28.207  28.041  1.00  0.00     0.167 HD
ATOM     54  C   UNL A   1      40.237  30.185  30.352  1.00  0.00     0.031 A 
ATOM     55  C   UNL A   1      45.700  28.155  26.556  1.00  0.00     0.031 A 
ATOM     56  C   UNL A   1      41.214  31.216  30.090  1.00  0.00     0.049 A 
ATOM     57  C   UNL A   1      45.549  29.572  27.002  1.00  0.00     0.074 A 
ATOM     58  C   UNL A   1      41.232  32.526  30.543  1.00  0.00     0.029 A 
ATOM     59  N   UNL A   1      42.343  31.055  29.305  1.00  0.00    -0.354 N 
ATOM     60  N   UNL A   1      44.602  30.109  27.730  1.00  0.00    -0.248 NA
ATOM     61  C   UNL A   1      46.590  30.509  26.567  1.00  0.00     0.031 C 
ATOM     62  C   UNL A   1      42.335  33.174  29.976  1.00  0.00     0.029 A 
ATOM     63  C   UNL A   1      43.042  32.250  29.228  1.00  0.00     0.049 A 
ATOM     64  H   UNL A   1      42.609  30.216  28.864  1.00  0.00     0.167 HD
ATOM     65  C   UNL A   1      44.936  31.450  27.849  1.00  0.00     0.074 A 
ATOM     66  C   UNL A   1      46.185  31.636  27.137  1.00  0.00     0.031 C 
ATOM     67  C   UNL A   1      44.266  32.436  28.493  1.00  0.00     0.031 A 
BRANCH  54  68
ATOM     68  C   UNL A   1      39.043  30.572  31.193  1.00  0.00    -0.014 A 
ATOM     69  C   UNL A   1      37.847  31.028  30.618  1.00  0.00     0.009 A 
ATOM     70  C   UNL A   1      39.083  30.362  32.583  1.00  0.00     0.009 A 
ATOM     71  C   UNL A   1      36.724  31.274  31.419  1.00  0.00     0.001 A 
ATOM     72  C   UNL A   1      37.955  30.585  33.376  1.00  0.00     0.001 A 
ATOM     73  C   UNL A   1      36.777  31.045  32.794  1.00  0.00     0.000 A 
ENDBRANCH  54  68
BRANCH  55  74
ATOM     74  C   UNL A   1      46.820  27.724  25.681  1.00  0.00    -0.014 A 
ATOM     75  C   UNL A   1      46.717  27.797  24.287  1.00  0.00     0.009 A 
ATOM     76  C   UNL A   1      48.039  27.323  26.258  1.00  0.00     0.009 A 
ATOM     77  C   UNL A   1      47.818  27.485  23.487  1.00  0.00     0.001 A 
ATOM     78  C   UNL A   1      49.148  27.055  25.458  1.00  0.00     0.001 A 
ATOM     79  C   UNL A   1      49.035  27.132  24.073  1.00  0.00     0.000 A 
ENDBRANCH  55  74
BRANCH  67  80
ATOM     80  C   UNL A   1      44.896  33.798  28.471  1.00  0.00    -0.014 A 
ATOM     81  C   UNL A   1      44.631  34.706  27.432  1.00  0.00     0.009 A 
ATOM     82  C   UNL A   1      45.787  34.169  29.489  1.00  0.00     0.009 A 
ATOM     83  C   UNL A   1      45.289  35.937  27.389  1.00  0.00     0.001 A 
ATOM     84  C   UNL A   1      46.419  35.412  29.459  1.00  0.00     0.001 A 
ATOM     85  C   UNL A   1      46.181  36.288  28.401  1.00  0.00     0.000 A 
ENDBRANCH  67  80
ENDBRANCH  41  42
ENDBRANCH  34  36
ENDBRANCH  33  34
ENDBRANCH  32  33
ENDBRANCH   1  32
TORSDOF 17
ENDMDL
MODEL 3
REMARK VINA RESULT:     -11.4      3.164      8.613
REMARK SMILES O=C1O[C@@H](c2ccc(O)c(O)c2)[C@H](C(=O)OCCOC(=O)c2ccc(-c3c4nc(c(-c5ccccc5)c5ccc([nH]5)c(-c5ccccc5)c5nc(c(-c6ccccc6)c6ccc3[nH]6)C=C5)C=C4)cc2)/C1=C\c1ccc(O)c(O)c1
REMARK SMILES IDX 17 1 16 2 14 3 15 4 13 5 1 6 2 7 3 8 70 9 4 10 71 11 5 12
REMARK SMILES IDX 6 13 12 14 7 15 10 16 8 17 11 18 9 20 72 22 73 23 79 24
REMARK SMILES IDX 74 25 77 26 75 27 78 28 76 30 18 32 19 33 20 34 21 35 22 36
REMARK SMILES IDX 23 37 69 38 24 39 68 40 25 41 26 42 27 43 62 44 28 45 67 46
REMARK SMILES IDX 61 47 63 48 29 49 66 50 60 51 59 52 30 54 52 55 37 56 51 57
REMARK SMILES IDX 38 58 41 59 50 60 64 61 39 62 40 63 49 65 65 66 42 67 31 68
REMARK SMILES IDX 32 69 36 70 33 71 35 72 34 73 53 74 54 75 58 76 55 77 57 78
REMARK SMILES IDX 56 79 43 80 44 81 48 82 45 83 47 84 46 85
REMARK H PARENT 11 19 9 21 78 29 76 31 63 53 41 64
REMARK Flexibility Score: inf
ROOT
ATOM      1  C   UNL A   1      33.480  26.833  25.157  1.00  0.00     0.274 C 
ENDROOT
BRANCH   1   2
ATOM      2  O   UNL A   1      33.705  25.451  25.518  1.00  0.00    -0.461 OA
BRANCH   2   3
ATOM      3  C   UNL A   1      32.702  24.577  25.218  1.00  0.00     0.318 C 
ATOM      4  O   UNL A   1      31.513  24.817  25.381  1.00  0.00    -0.251 OA
BRANCH   3   5
ATOM      5  C   UNL A   1      33.265  23.238  24.751  1.00  0.00     0.182 C 
ATOM      6  O   UNL A   1      33.478  23.826  21.272  1.00  0.00    -0.247 OA
ATOM      7  C   UNL A   1      33.208  23.428  22.378  1.00  0.00     0.335 C 
ATOM      8  O   UNL A   1      31.988  22.979  22.800  1.00  0.00    -0.453 OA
ATOM      9  C   UNL A   1      34.131  23.335  23.540  1.00  0.00     0.056 C 
ATOM     10  C   UNL A   1      32.086  22.476  24.150  1.00  0.00     0.226 C 
ATOM     11  C   UNL A   1      35.452  23.217  23.333  1.00  0.00     0.020 C 
BRANCH  10  12
ATOM     12  C   UNL A   1      32.255  20.961  24.145  1.00  0.00    -0.002 A 
ATOM     13  C   UNL A   1      32.161  20.242  22.938  1.00  0.00     0.012 A 
ATOM     14  C   UNL A   1      32.522  20.252  25.328  1.00  0.00     0.057 A 
ATOM     15  C   UNL A   1      32.260  18.848  22.919  1.00  0.00     0.050 A 
ATOM     16  C   UNL A   1      32.623  18.869  25.300  1.00  0.00     0.157 A 
ATOM     17  C   UNL A   1      32.482  18.168  24.108  1.00  0.00     0.157 A 
BRANCH  16  18
ATOM     18  O   UNL A   1      32.858  18.196  26.464  1.00  0.00    -0.504 OA
ATOM     19  H   UNL A   1      33.245  18.640  27.193  1.00  0.00     0.293 HD
ENDBRANCH  16  18
BRANCH  17  20
ATOM     20  O   UNL A   1      32.571  16.806  24.155  1.00  0.00    -0.504 OA
ATOM     21  H   UNL A   1      33.409  16.393  24.231  1.00  0.00     0.293 HD
ENDBRANCH  17  20
ENDBRANCH  10  12
BRANCH  11  22
ATOM     22  C   UNL A   1      36.490  23.064  24.359  1.00  0.00    -0.021 A 
ATOM     23  C   UNL A   1      36.832  24.068  25.267  1.00  0.00     0.012 A 
ATOM     24  C   UNL A   1      37.134  21.834  24.471  1.00  0.00     0.058 A 
ATOM     25  C   UNL A   1      37.819  23.838  26.245  1.00  0.00     0.051 A 
ATOM     26  C   UNL A   1      38.149  21.623  25.386  1.00  0.00     0.157 A 
ATOM     27  C   UNL A   1      38.482  22.614  26.287  1.00  0.00     0.157 A 
BRANCH  26  28
ATOM     28  O   UNL A   1      38.811  20.428  25.390  1.00  0.00    -0.504 OA
ATOM     29  H   UNL A   1      39.743  20.409  25.483  1.00  0.00     0.293 HD
ENDBRANCH  26  28
BRANCH  27  30
ATOM     30  O   UNL A   1      39.456  22.324  27.199  1.00  0.00    -0.504 OA
ATOM     31  H   UNL A   1      40.007  23.006  27.529  1.00  0.00     0.293 HD
ENDBRANCH  27  30
ENDBRANCH  11  22
ENDBRANCH   3   5
ENDBRANCH   2   3
ENDBRANCH   1   2
BRANCH   1  32
ATOM     32  C   UNL A   1      33.405  27.750  26.383  1.00  0.00     0.275 C 
BRANCH  32  33
ATOM     33  O   UNL A   1      34.714  28.154  26.846  1.00  0.00    -0.458 OA
BRANCH  33  34
ATOM     34  C   UNL A   1      34.702  29.347  27.477  1.00  0.00     0.338 C 
ATOM     35  O   UNL A   1      33.721  30.064  27.613  1.00  0.00    -0.246 OA
BRANCH  34  36
ATOM     36  C   UNL A   1      35.992  29.705  28.096  1.00  0.00     0.060 A 
ATOM     37  C   UNL A   1      37.049  29.998  27.236  1.00  0.00     0.016 A 
ATOM     38  C   UNL A   1      36.261  29.287  29.403  1.00  0.00     0.016 A 
ATOM     39  C   UNL A   1      38.356  29.693  27.623  1.00  0.00     0.010 A 
ATOM     40  C   UNL A   1      37.590  29.087  29.822  1.00  0.00     0.010 A 
ATOM     41  C   UNL A   1      38.655  29.219  28.917  1.00  0.00    -0.014 A 
BRANCH  41  42
ATOM     42  C   UNL A   1      40.065  28.857  29.275  1.00  0.00     0.031 A 
ATOM     43  C   UNL A   1      40.981  29.765  30.076  1.00  0.00     0.074 A 
ATOM     44  C   UNL A   1      40.527  27.642  28.924  1.00  0.00     0.049 A 
ATOM     45  N   UNL A   1      42.255  29.620  30.370  1.00  0.00    -0.248 NA
ATOM     46  C   UNL A   1      40.396  30.988  30.636  1.00  0.00     0.031 C 
ATOM     47  C   UNL A   1      39.757  26.618  28.213  1.00  0.00     0.029 A 
ATOM     48  N   UNL A   1      41.749  27.051  29.130  1.00  0.00    -0.354 N 
ATOM     49  C   UNL A   1      42.617  30.738  31.121  1.00  0.00     0.074 A 
ATOM     50  C   UNL A   1      41.429  31.553  31.247  1.00  0.00     0.031 C 
ATOM     51  C   UNL A   1      40.499  25.513  28.093  1.00  0.00     0.029 A 
ATOM     52  C   UNL A   1      41.841  25.798  28.582  1.00  0.00     0.049 A 
ATOM     53  H   UNL A   1      42.485  27.484  29.622  1.00  0.00     0.167 HD
ATOM     54  C   UNL A   1      43.827  31.063  31.645  1.00  0.00     0.031 A 
ATOM     55  C   UNL A   1      42.894  24.983  28.400  1.00  0.00     0.031 A 
ATOM     56  C   UNL A   1      45.015  30.253  31.516  1.00  0.00     0.049 A 
ATOM     57  C   UNL A   1      44.245  25.415  28.865  1.00  0.00     0.074 A 
ATOM     58  C   UNL A   1      46.289  30.501  32.003  1.00  0.00     0.029 A 
ATOM     59  N   UNL A   1      45.077  29.040  30.851  1.00  0.00    -0.354 N 
ATOM     60  N   UNL A   1      44.586  26.507  29.501  1.00  0.00    -0.248 NA
ATOM     61  C   UNL A   1      45.359  24.507  28.569  1.00  0.00     0.031 C 
ATOM     62  C   UNL A   1      47.134  29.472  31.574  1.00  0.00     0.029 A 
ATOM     63  C   UNL A   1      46.373  28.547  30.881  1.00  0.00     0.049 A 
ATOM     64  H   UNL A   1      44.313  28.593  30.419  1.00  0.00     0.167 HD
ATOM     65  C   UNL A   1      45.957  26.417  29.692  1.00  0.00     0.074 A 
ATOM     66  C   UNL A   1      46.377  25.152  29.122  1.00  0.00     0.031 C 
ATOM     67  C   UNL A   1      46.790  27.305  30.286  1.00  0.00     0.031 A 
BRANCH  54  68
ATOM     68  C   UNL A   1      43.974  32.384  32.363  1.00  0.00    -0.014 A 
ATOM     69  C   UNL A   1      44.311  33.565  31.684  1.00  0.00     0.009 A 
ATOM     70  C   UNL A   1      43.653  32.463  33.731  1.00  0.00     0.009 A 
ATOM     71  C   UNL A   1      44.333  34.791  32.362  1.00  0.00     0.001 A 
ATOM     72  C   UNL A   1      43.652  33.690  34.398  1.00  0.00     0.001 A 
ATOM     73  C   UNL A   1      43.996  34.853  33.714  1.00  0.00     0.000 A 
ENDBRANCH  54  68
BRANCH  55  74
ATOM     74  C   UNL A   1      42.692  23.724  27.638  1.00  0.00    -0.014 A 
ATOM     75  C   UNL A   1      42.711  23.716  26.239  1.00  0.00     0.009 A 
ATOM     76  C   UNL A   1      42.571  22.505  28.330  1.00  0.00     0.009 A 
ATOM     77  C   UNL A   1      42.624  22.507  25.546  1.00  0.00     0.001 A 
ATOM     78  C   UNL A   1      42.527  21.297  27.635  1.00  0.00     0.001 A 
ATOM     79  C   UNL A   1      42.550  21.300  26.243  1.00  0.00     0.000 A 
ENDBRANCH  55  74
BRANCH  67  80
ATOM     80  C   UNL A   1      48.237  26.914  30.368  1.00  0.00    -0.014 A 
ATOM     81  C   UNL A   1      49.150  27.289  29.368  1.00  0.00     0.009 A 
ATOM     82  C   UNL A   1      48.688  26.139  31.446  1.00  0.00     0.009 A 
ATOM     83  C   UNL A   1      50.474  26.848  29.422  1.00  0.00     0.001 A 
ATOM     84  C   UNL A   1      50.019  25.725  31.513  1.00  0.00     0.001 A 
ATOM     85  C   UNL A   1      50.906  26.068  30.494  1.00  0.00     0.000 A 
ENDBRANCH  67  80
ENDBRANCH  41  42
ENDBRANCH  34  36
ENDBRANCH  33  34
ENDBRANCH  32  33
ENDBRANCH   1  32
TORSDOF 17
ENDMDL
