MODEL 1
REMARK VINA RESULT:     -10.5      0.000      0.000
REMARK SMILES C[NH2+][C@@]1(C(=O)OCCOC(=O)c2ccc(-c3c4nc(c(-c5ccccc5)c5ccc([nH]5)c(-c5ccccc5)c5nc(c(-c6ccccc6)c6ccc3[nH]6)C=C5)C=C4)cc2)CCC[C@H]([N@H+](C)C2CC[NH+](C)CC2)C1
REMARK SMILES IDX 7 1 6 2 4 3 5 4 3 5 60 6 73 7 61 8 63 9 62 10 2 11 1 12
REMARK SMILES IDX 64 15 65 16 66 18 67 19 72 20 68 21 71 22 69 23 70 24 8 26
REMARK SMILES IDX 9 27 10 28 11 29 12 30 13 31 59 32 14 33 58 34 15 35 16 36
REMARK SMILES IDX 17 37 52 38 18 39 57 40 51 41 53 42 19 43 56 44 50 45 49 46
REMARK SMILES IDX 20 48 42 49 27 50 41 51 28 52 31 53 40 54 54 55 29 56 30 57
REMARK SMILES IDX 39 59 55 60 32 61 21 62 22 63 26 64 23 65 25 66 24 67 43 68
REMARK SMILES IDX 44 69 48 70 45 71 47 72 46 73 33 74 34 75 38 76 35 77 37 78
REMARK SMILES IDX 36 79
REMARK H PARENT 2 13 2 14 64 17 69 25 53 47 31 58
REMARK Flexibility Score: inf
ROOT
ATOM      1  C   UNL A   1      33.020  29.329  24.909  1.00  0.00     0.274 C 
ENDROOT
BRANCH   1   2
ATOM      2  O   UNL A   1      32.699  27.925  24.838  1.00  0.00    -0.457 OA
BRANCH   2   3
ATOM      3  C   UNL A   1      32.918  27.361  23.613  1.00  0.00     0.368 C 
ATOM      4  O   UNL A   1      34.008  26.903  23.278  1.00  0.00    -0.245 OA
BRANCH   3   5
ATOM      5  C   UNL A   1      31.608  27.186  22.772  1.00  0.00     0.199 C 
ATOM      6  C   UNL A   1      30.388  27.164  23.723  1.00  0.00     0.081 C 
ATOM      7  C   UNL A   1      31.609  25.900  21.910  1.00  0.00     0.146 C 
ATOM      8  C   UNL A   1      30.240  25.860  24.492  1.00  0.00     0.013 C 
ATOM      9  C   UNL A   1      31.550  24.555  22.707  1.00  0.00     0.190 C 
ATOM     10  C   UNL A   1      30.278  24.645  23.571  1.00  0.00     0.065 C 
BRANCH   5  11
ATOM     11  N   UNL A   1      31.386  28.452  22.001  1.00  0.00    -0.334 N 
ATOM     12  C   UNL A   1      30.268  29.288  22.383  1.00  0.00     0.331 C 
ATOM     13  H   UNL A   1      32.232  29.014  22.091  1.00  0.00     0.347 HD
ATOM     14  H   UNL A   1      31.163  28.141  21.056  1.00  0.00     0.347 HD
ENDBRANCH   5  11
BRANCH   9  15
ATOM     15  N   UNL A   1      32.864  24.206  23.341  1.00  0.00    -0.332 N 
ATOM     16  C   UNL A   1      33.596  23.346  22.368  1.00  0.00     0.333 C 
ATOM     17  H   UNL A   1      33.317  25.094  23.555  1.00  0.00     0.348 HD
BRANCH  15  18
ATOM     18  C   UNL A   1      32.814  23.488  24.669  1.00  0.00     0.195 C 
ATOM     19  C   UNL A   1      33.346  24.275  25.886  1.00  0.00     0.126 C 
ATOM     20  C   UNL A   1      33.668  22.181  24.726  1.00  0.00     0.126 C 
ATOM     21  C   UNL A   1      34.833  24.592  25.752  1.00  0.00     0.268 C 
ATOM     22  C   UNL A   1      35.174  22.466  24.633  1.00  0.00     0.268 C 
ATOM     23  N   UNL A   1      35.633  23.361  25.703  1.00  0.00    -0.337 N 
ATOM     24  C   UNL A   1      37.048  23.701  25.552  1.00  0.00     0.332 C 
ATOM     25  H   UNL A   1      35.511  22.854  26.580  1.00  0.00     0.347 HD
ENDBRANCH  15  18
ENDBRANCH   9  15
ENDBRANCH   3   5
ENDBRANCH   2   3
ENDBRANCH   1   2
BRANCH   1  26
ATOM     26  C   UNL A   1      31.987  30.076  25.757  1.00  0.00     0.275 C 
BRANCH  26  27
ATOM     27  O   UNL A   1      32.547  30.282  27.064  1.00  0.00    -0.458 OA
BRANCH  27  28
ATOM     28  C   UNL A   1      33.099  31.502  27.243  1.00  0.00     0.338 C 
ATOM     29  O   UNL A   1      32.553  32.589  27.251  1.00  0.00    -0.246 OA
BRANCH  28  30
ATOM     30  C   UNL A   1      34.446  31.255  27.761  1.00  0.00     0.060 A 
ATOM     31  C   UNL A   1      34.761  29.936  28.090  1.00  0.00     0.016 A 
ATOM     32  C   UNL A   1      35.363  32.279  27.955  1.00  0.00     0.016 A 
ATOM     33  C   UNL A   1      35.958  29.632  28.712  1.00  0.00     0.010 A 
ATOM     34  C   UNL A   1      36.599  31.965  28.525  1.00  0.00     0.010 A 
ATOM     35  C   UNL A   1      36.886  30.648  28.942  1.00  0.00    -0.014 A 
BRANCH  35  36
ATOM     36  C   UNL A   1      38.106  30.365  29.728  1.00  0.00     0.031 A 
ATOM     37  C   UNL A   1      39.194  29.555  29.090  1.00  0.00     0.074 A 
ATOM     38  C   UNL A   1      38.257  30.842  30.977  1.00  0.00     0.049 A 
ATOM     39  N   UNL A   1      40.205  28.943  29.645  1.00  0.00    -0.248 NA
ATOM     40  C   UNL A   1      39.118  29.395  27.626  1.00  0.00     0.031 C 
ATOM     41  C   UNL A   1      37.327  31.737  31.669  1.00  0.00     0.029 A 
ATOM     42  N   UNL A   1      39.258  30.630  31.888  1.00  0.00    -0.354 N 
ATOM     43  C   UNL A   1      40.836  28.260  28.614  1.00  0.00     0.074 A 
ATOM     44  C   UNL A   1      40.108  28.547  27.397  1.00  0.00     0.031 C 
ATOM     45  C   UNL A   1      37.809  32.004  32.893  1.00  0.00     0.029 A 
ATOM     46  C   UNL A   1      39.027  31.230  33.100  1.00  0.00     0.049 A 
ATOM     47  H   UNL A   1      40.064  30.100  31.691  1.00  0.00     0.167 HD
ATOM     48  C   UNL A   1      41.917  27.449  28.689  1.00  0.00     0.031 A 
ATOM     49  C   UNL A   1      39.690  31.116  34.266  1.00  0.00     0.031 A 
ATOM     50  C   UNL A   1      42.651  27.214  29.902  1.00  0.00     0.049 A 
ATOM     51  C   UNL A   1      40.867  30.186  34.338  1.00  0.00     0.074 A 
ATOM     52  C   UNL A   1      43.748  26.397  30.108  1.00  0.00     0.029 A 
ATOM     53  N   UNL A   1      42.372  27.826  31.114  1.00  0.00    -0.354 N 
ATOM     54  N   UNL A   1      41.394  29.446  33.391  1.00  0.00    -0.248 NA
ATOM     55  C   UNL A   1      41.526  30.056  35.644  1.00  0.00     0.031 C 
ATOM     56  C   UNL A   1      44.116  26.496  31.454  1.00  0.00     0.029 A 
ATOM     57  C   UNL A   1      43.275  27.406  32.075  1.00  0.00     0.049 A 
ATOM     58  H   UNL A   1      41.639  28.465  31.270  1.00  0.00     0.167 HD
ATOM     59  C   UNL A   1      42.448  28.767  33.985  1.00  0.00     0.074 A 
ATOM     60  C   UNL A   1      42.499  29.200  35.368  1.00  0.00     0.031 C 
ATOM     61  C   UNL A   1      43.294  27.858  33.441  1.00  0.00     0.031 A 
BRANCH  48  62
ATOM     62  C   UNL A   1      42.314  26.716  27.442  1.00  0.00    -0.014 A 
ATOM     63  C   UNL A   1      41.801  25.446  27.135  1.00  0.00     0.009 A 
ATOM     64  C   UNL A   1      43.227  27.312  26.558  1.00  0.00     0.009 A 
ATOM     65  C   UNL A   1      42.223  24.775  25.984  1.00  0.00     0.001 A 
ATOM     66  C   UNL A   1      43.627  26.650  25.395  1.00  0.00     0.001 A 
ATOM     67  C   UNL A   1      43.131  25.378  25.115  1.00  0.00     0.000 A 
ENDBRANCH  48  62
BRANCH  49  68
ATOM     68  C   UNL A   1      39.207  31.844  35.466  1.00  0.00    -0.014 A 
ATOM     69  C   UNL A   1      39.668  33.137  35.751  1.00  0.00     0.009 A 
ATOM     70  C   UNL A   1      38.264  31.255  36.325  1.00  0.00     0.009 A 
ATOM     71  C   UNL A   1      39.201  33.822  36.877  1.00  0.00     0.001 A 
ATOM     72  C   UNL A   1      37.778  31.952  37.433  1.00  0.00     0.001 A 
ATOM     73  C   UNL A   1      38.252  33.232  37.712  1.00  0.00     0.000 A 
ENDBRANCH  49  68
BRANCH  61  74
ATOM     74  C   UNL A   1      44.358  27.303  34.340  1.00  0.00    -0.014 A 
ATOM     75  C   UNL A   1      44.142  26.125  35.073  1.00  0.00     0.009 A 
ATOM     76  C   UNL A   1      45.599  27.949  34.427  1.00  0.00     0.009 A 
ATOM     77  C   UNL A   1      45.146  25.621  35.900  1.00  0.00     0.001 A 
ATOM     78  C   UNL A   1      46.608  27.430  35.238  1.00  0.00     0.001 A 
ATOM     79  C   UNL A   1      46.378  26.271  35.978  1.00  0.00     0.000 A 
ENDBRANCH  61  74
ENDBRANCH  35  36
ENDBRANCH  28  30
ENDBRANCH  27  28
ENDBRANCH  26  27
ENDBRANCH   1  26
TORSDOF 14
ENDMDL
MODEL 2
REMARK VINA RESULT:     -10.3      3.692      8.616
REMARK SMILES C[NH2+][C@@]1(C(=O)OCCOC(=O)c2ccc(-c3c4nc(c(-c5ccccc5)c5ccc([nH]5)c(-c5ccccc5)c5nc(c(-c6ccccc6)c6ccc3[nH]6)C=C5)C=C4)cc2)CCC[C@H]([N@H+](C)C2CC[NH+](C)CC2)C1
REMARK SMILES IDX 7 1 6 2 4 3 5 4 3 5 60 6 73 7 61 8 63 9 62 10 2 11 1 12
REMARK SMILES IDX 64 15 65 16 66 18 67 19 72 20 68 21 71 22 69 23 70 24 8 26
REMARK SMILES IDX 9 27 10 28 11 29 12 30 13 31 59 32 14 33 58 34 15 35 16 36
REMARK SMILES IDX 17 37 52 38 18 39 57 40 51 41 53 42 19 43 56 44 50 45 49 46
REMARK SMILES IDX 20 48 42 49 27 50 41 51 28 52 31 53 40 54 54 55 29 56 30 57
REMARK SMILES IDX 39 59 55 60 32 61 21 62 22 63 26 64 23 65 25 66 24 67 43 68
REMARK SMILES IDX 44 69 48 70 45 71 47 72 46 73 33 74 34 75 38 76 35 77 37 78
REMARK SMILES IDX 36 79
REMARK H PARENT 2 13 2 14 64 17 69 25 53 47 31 58
REMARK Flexibility Score: inf
ROOT
ATOM      1  C   UNL A   1      36.548  23.186  23.580  1.00  0.00     0.274 C 
ENDROOT
BRANCH   1   2
ATOM      2  O   UNL A   1      35.111  23.245  23.465  1.00  0.00    -0.457 OA
BRANCH   2   3
ATOM      3  C   UNL A   1      34.467  23.547  24.632  1.00  0.00     0.368 C 
ATOM      4  O   UNL A   1      34.538  24.653  25.162  1.00  0.00    -0.245 OA
BRANCH   3   5
ATOM      5  C   UNL A   1      33.492  22.418  25.108  1.00  0.00     0.199 C 
ATOM      6  C   UNL A   1      33.217  21.449  23.933  1.00  0.00     0.081 C 
ATOM      7  C   UNL A   1      32.147  22.966  25.645  1.00  0.00     0.146 C 
ATOM      8  C   UNL A   1      32.275  22.019  22.882  1.00  0.00     0.013 C 
ATOM      9  C   UNL A   1      31.218  23.635  24.579  1.00  0.00     0.190 C 
ATOM     10  C   UNL A   1      30.990  22.559  23.500  1.00  0.00     0.065 C 
BRANCH   5  11
ATOM     11  N   UNL A   1      34.237  21.544  26.071  1.00  0.00    -0.334 N 
ATOM     12  C   UNL A   1      34.034  21.771  27.486  1.00  0.00     0.331 C 
ATOM     13  H   UNL A   1      33.969  20.580  25.876  1.00  0.00     0.347 HD
ATOM     14  H   UNL A   1      35.220  21.768  25.913  1.00  0.00     0.347 HD
ENDBRANCH   5  11
BRANCH   9  15
ATOM     15  N   UNL A   1      31.691  25.003  24.184  1.00  0.00    -0.332 N 
ATOM     16  C   UNL A   1      31.153  25.953  25.200  1.00  0.00     0.333 C 
ATOM     17  H   UNL A   1      32.708  24.948  24.145  1.00  0.00     0.348 HD
BRANCH  15  18
ATOM     18  C   UNL A   1      31.295  25.497  22.813  1.00  0.00     0.195 C 
ATOM     19  C   UNL A   1      32.408  25.497  21.744  1.00  0.00     0.126 C 
ATOM     20  C   UNL A   1      30.808  26.981  22.779  1.00  0.00     0.126 C 
ATOM     21  C   UNL A   1      33.545  26.449  22.107  1.00  0.00     0.268 C 
ATOM     22  C   UNL A   1      31.938  27.970  23.103  1.00  0.00     0.268 C 
ATOM     23  N   UNL A   1      33.069  27.836  22.177  1.00  0.00    -0.337 N 
ATOM     24  C   UNL A   1      34.177  28.717  22.548  1.00  0.00     0.332 C 
ATOM     25  H   UNL A   1      32.727  28.113  21.256  1.00  0.00     0.347 HD
ENDBRANCH  15  18
ENDBRANCH   9  15
ENDBRANCH   3   5
ENDBRANCH   2   3
ENDBRANCH   1   2
BRANCH   1  26
ATOM     26  C   UNL A   1      36.988  21.838  24.157  1.00  0.00     0.275 C 
BRANCH  26  27
ATOM     27  O   UNL A   1      37.280  22.023  25.551  1.00  0.00    -0.458 OA
BRANCH  27  28
ATOM     28  C   UNL A   1      38.479  21.533  25.934  1.00  0.00     0.338 C 
ATOM     29  O   UNL A   1      39.008  20.485  25.616  1.00  0.00    -0.246 OA
BRANCH  28  30
ATOM     30  C   UNL A   1      39.187  22.655  26.554  1.00  0.00     0.060 A 
ATOM     31  C   UNL A   1      38.704  23.935  26.273  1.00  0.00     0.016 A 
ATOM     32  C   UNL A   1      40.307  22.473  27.354  1.00  0.00     0.016 A 
ATOM     33  C   UNL A   1      39.390  25.056  26.703  1.00  0.00     0.010 A 
ATOM     34  C   UNL A   1      40.965  23.603  27.843  1.00  0.00     0.010 A 
ATOM     35  C   UNL A   1      40.534  24.899  27.487  1.00  0.00    -0.014 A 
BRANCH  35  36
ATOM     36  C   UNL A   1      41.353  26.079  27.836  1.00  0.00     0.031 A 
ATOM     37  C   UNL A   1      40.772  27.101  28.767  1.00  0.00     0.074 A 
ATOM     38  C   UNL A   1      42.601  26.227  27.357  1.00  0.00     0.049 A 
ATOM     39  N   UNL A   1      41.158  28.327  28.994  1.00  0.00    -0.248 NA
ATOM     40  C   UNL A   1      39.579  26.690  29.527  1.00  0.00     0.031 C 
ATOM     41  C   UNL A   1      43.325  25.252  26.539  1.00  0.00     0.029 A 
ATOM     42  N   UNL A   1      43.481  27.269  27.492  1.00  0.00    -0.354 N 
ATOM     43  C   UNL A   1      40.210  28.859  29.858  1.00  0.00     0.074 A 
ATOM     44  C   UNL A   1      39.243  27.819  30.131  1.00  0.00     0.031 C 
ATOM     45  C   UNL A   1      44.542  25.739  26.254  1.00  0.00     0.029 A 
ATOM     46  C   UNL A   1      44.646  27.091  26.791  1.00  0.00     0.049 A 
ATOM     47  H   UNL A   1      43.294  28.066  28.039  1.00  0.00     0.167 HD
ATOM     48  C   UNL A   1      40.149  30.115  30.359  1.00  0.00     0.031 A 
ATOM     49  C   UNL A   1      45.657  27.948  26.555  1.00  0.00     0.031 A 
ATOM     50  C   UNL A   1      41.147  31.119  30.110  1.00  0.00     0.049 A 
ATOM     51  C   UNL A   1      45.556  29.348  27.091  1.00  0.00     0.074 A 
ATOM     52  C   UNL A   1      41.184  32.432  30.544  1.00  0.00     0.029 A 
ATOM     53  N   UNL A   1      42.304  30.905  29.377  1.00  0.00    -0.354 N 
ATOM     54  N   UNL A   1      44.602  29.889  27.811  1.00  0.00    -0.248 NA
ATOM     55  C   UNL A   1      46.659  30.261  26.764  1.00  0.00     0.031 C 
ATOM     56  C   UNL A   1      42.354  33.019  30.050  1.00  0.00     0.029 A 
ATOM     57  C   UNL A   1      43.064  32.060  29.344  1.00  0.00     0.049 A 
ATOM     58  H   UNL A   1      42.549  30.056  28.942  1.00  0.00     0.167 HD
ATOM     59  C   UNL A   1      44.990  31.204  28.027  1.00  0.00     0.074 A 
ATOM     60  C   UNL A   1      46.278  31.371  27.380  1.00  0.00     0.031 C 
ATOM     61  C   UNL A   1      44.339  32.189  28.690  1.00  0.00     0.031 A 
BRANCH  48  62
ATOM     62  C   UNL A   1      38.935  30.476  31.162  1.00  0.00    -0.014 A 
ATOM     63  C   UNL A   1      38.872  30.259  32.548  1.00  0.00     0.009 A 
ATOM     64  C   UNL A   1      37.827  31.043  30.513  1.00  0.00     0.009 A 
ATOM     65  C   UNL A   1      37.710  30.571  33.258  1.00  0.00     0.001 A 
ATOM     66  C   UNL A   1      36.677  31.379  31.229  1.00  0.00     0.001 A 
ATOM     67  C   UNL A   1      36.616  31.133  32.600  1.00  0.00     0.000 A 
ENDBRANCH  48  62
BRANCH  49  68
ATOM     68  C   UNL A   1      46.805  27.525  25.714  1.00  0.00    -0.014 A 
ATOM     69  C   UNL A   1      46.834  27.820  24.344  1.00  0.00     0.009 A 
ATOM     70  C   UNL A   1      47.890  26.839  26.283  1.00  0.00     0.009 A 
ATOM     71  C   UNL A   1      47.923  27.429  23.559  1.00  0.00     0.001 A 
ATOM     72  C   UNL A   1      48.989  26.474  25.504  1.00  0.00     0.001 A 
ATOM     73  C   UNL A   1      49.002  26.763  24.141  1.00  0.00     0.000 A 
ENDBRANCH  49  68
BRANCH  61  74
ATOM     74  C   UNL A   1      45.028  33.519  28.771  1.00  0.00    -0.014 A 
ATOM     75  C   UNL A   1      45.936  33.800  29.803  1.00  0.00     0.009 A 
ATOM     76  C   UNL A   1      44.790  34.485  27.783  1.00  0.00     0.009 A 
ATOM     77  C   UNL A   1      46.572  35.041  29.858  1.00  0.00     0.001 A 
ATOM     78  C   UNL A   1      45.444  35.715  27.829  1.00  0.00     0.001 A 
ATOM     79  C   UNL A   1      46.329  35.994  28.870  1.00  0.00     0.000 A 
ENDBRANCH  61  74
ENDBRANCH  35  36
ENDBRANCH  28  30
ENDBRANCH  27  28
ENDBRANCH  26  27
ENDBRANCH   1  26
TORSDOF 14
ENDMDL
MODEL 3
REMARK VINA RESULT:     -10.2      2.962      7.023
REMARK SMILES C[NH2+][C@@]1(C(=O)OCCOC(=O)c2ccc(-c3c4nc(c(-c5ccccc5)c5ccc([nH]5)c(-c5ccccc5)c5nc(c(-c6ccccc6)c6ccc3[nH]6)C=C5)C=C4)cc2)CCC[C@H]([N@H+](C)C2CC[NH+](C)CC2)C1
REMARK SMILES IDX 7 1 6 2 4 3 5 4 3 5 60 6 73 7 61 8 63 9 62 10 2 11 1 12
REMARK SMILES IDX 64 15 65 16 66 18 67 19 72 20 68 21 71 22 69 23 70 24 8 26
REMARK SMILES IDX 9 27 10 28 11 29 12 30 13 31 59 32 14 33 58 34 15 35 16 36
REMARK SMILES IDX 17 37 52 38 18 39 57 40 51 41 53 42 19 43 56 44 50 45 49 46
REMARK SMILES IDX 20 48 42 49 27 50 41 51 28 52 31 53 40 54 54 55 29 56 30 57
REMARK SMILES IDX 39 59 55 60 32 61 21 62 22 63 26 64 23 65 25 66 24 67 43 68
REMARK SMILES IDX 44 69 48 70 45 71 47 72 46 73 33 74 34 75 38 76 35 77 37 78
REMARK SMILES IDX 36 79
REMARK H PARENT 2 13 2 14 64 17 69 25 53 47 31 58
REMARK Flexibility Score: inf
ROOT
ATOM      1  C   UNL A   1      33.962  27.181  25.837  1.00  0.00     0.274 C 
ENDROOT
BRANCH   1   2
ATOM      2  O   UNL A   1      33.406  25.930  26.289  1.00  0.00    -0.457 OA
BRANCH   2   3
ATOM      3  C   UNL A   1      33.962  24.826  25.706  1.00  0.00     0.368 C 
ATOM      4  O   UNL A   1      35.044  24.856  25.124  1.00  0.00    -0.245 OA
BRANCH   3   5
ATOM      5  C   UNL A   1      33.183  23.504  26.022  1.00  0.00     0.199 C 
ATOM      6  C   UNL A   1      33.523  22.440  24.950  1.00  0.00     0.081 C 
ATOM      7  C   UNL A   1      31.648  23.704  26.076  1.00  0.00     0.146 C 
ATOM      8  C   UNL A   1      32.847  22.689  23.610  1.00  0.00     0.013 C 
ATOM      9  C   UNL A   1      30.966  24.051  24.712  1.00  0.00     0.190 C 
ATOM     10  C   UNL A   1      31.344  22.901  23.759  1.00  0.00     0.065 C 
BRANCH   5  11
ATOM     11  N   UNL A   1      33.777  22.907  27.261  1.00  0.00    -0.334 N 
ATOM     12  C   UNL A   1      33.917  21.467  27.317  1.00  0.00     0.331 C 
ATOM     13  H   UNL A   1      34.708  23.307  27.374  1.00  0.00     0.347 HD
ATOM     14  H   UNL A   1      33.109  23.129  27.999  1.00  0.00     0.347 HD
ENDBRANCH   5  11
BRANCH   9  15
ATOM     15  N   UNL A   1      31.200  25.474  24.299  1.00  0.00    -0.332 N 
ATOM     16  C   UNL A   1      30.274  26.315  25.111  1.00  0.00     0.333 C 
ATOM     17  H   UNL A   1      32.191  25.653  24.457  1.00  0.00     0.348 HD
BRANCH  15  18
ATOM     18  C   UNL A   1      30.993  25.808  22.841  1.00  0.00     0.195 C 
ATOM     19  C   UNL A   1      32.205  25.578  21.913  1.00  0.00     0.126 C 
ATOM     20  C   UNL A   1      30.650  27.307  22.566  1.00  0.00     0.126 C 
ATOM     21  C   UNL A   1      33.380  26.479  22.280  1.00  0.00     0.268 C 
ATOM     22  C   UNL A   1      31.826  28.240  22.889  1.00  0.00     0.268 C 
ATOM     23  N   UNL A   1      33.030  27.896  22.120  1.00  0.00    -0.337 N 
ATOM     24  C   UNL A   1      34.170  28.730  22.501  1.00  0.00     0.332 C 
ATOM     25  H   UNL A   1      32.810  28.072  21.140  1.00  0.00     0.347 HD
ENDBRANCH  15  18
ENDBRANCH   9  15
ENDBRANCH   3   5
ENDBRANCH   2   3
ENDBRANCH   1   2
BRANCH   1  26
ATOM     26  C   UNL A   1      33.674  28.295  26.847  1.00  0.00     0.275 C 
BRANCH  26  27
ATOM     27  O   UNL A   1      34.546  29.399  26.556  1.00  0.00    -0.458 OA
BRANCH  27  28
ATOM     28  C   UNL A   1      34.729  30.247  27.591  1.00  0.00     0.338 C 
ATOM     29  O   UNL A   1      33.907  30.941  28.159  1.00  0.00    -0.246 OA
BRANCH  28  30
ATOM     30  C   UNL A   1      36.053  29.933  28.132  1.00  0.00     0.060 A 
ATOM     31  C   UNL A   1      37.141  30.122  27.278  1.00  0.00     0.016 A 
ATOM     32  C   UNL A   1      36.229  29.435  29.416  1.00  0.00     0.016 A 
ATOM     33  C   UNL A   1      38.411  29.723  27.656  1.00  0.00     0.010 A 
ATOM     34  C   UNL A   1      37.520  29.091  29.823  1.00  0.00     0.010 A 
ATOM     35  C   UNL A   1      38.609  29.196  28.932  1.00  0.00    -0.014 A 
BRANCH  35  36
ATOM     36  C   UNL A   1      39.928  28.638  29.300  1.00  0.00     0.031 A 
ATOM     37  C   UNL A   1      40.850  29.477  30.134  1.00  0.00     0.074 A 
ATOM     38  C   UNL A   1      40.291  27.399  28.923  1.00  0.00     0.049 A 
ATOM     39  N   UNL A   1      42.132  29.342  30.341  1.00  0.00    -0.248 NA
ATOM     40  C   UNL A   1      40.246  30.641  30.807  1.00  0.00     0.031 C 
ATOM     41  C   UNL A   1      39.444  26.439  28.211  1.00  0.00     0.029 A 
ATOM     42  N   UNL A   1      41.480  26.738  29.089  1.00  0.00    -0.354 N 
ATOM     43  C   UNL A   1      42.503  30.444  31.099  1.00  0.00     0.074 A 
ATOM     44  C   UNL A   1      41.310  31.229  31.332  1.00  0.00     0.031 C 
ATOM     45  C   UNL A   1      40.140  25.309  28.010  1.00  0.00     0.029 A 
ATOM     46  C   UNL A   1      41.501  25.501  28.496  1.00  0.00     0.049 A 
ATOM     47  H   UNL A   1      42.243  27.115  29.584  1.00  0.00     0.167 HD
ATOM     48  C   UNL A   1      43.738  30.776  31.540  1.00  0.00     0.031 A 
ATOM     49  C   UNL A   1      42.523  24.644  28.312  1.00  0.00     0.031 A 
ATOM     50  C   UNL A   1      44.902  29.959  31.335  1.00  0.00     0.049 A 
ATOM     51  C   UNL A   1      43.893  25.045  28.778  1.00  0.00     0.074 A 
ATOM     52  C   UNL A   1      46.210  30.199  31.715  1.00  0.00     0.029 A 
ATOM     53  N   UNL A   1      44.885  28.720  30.712  1.00  0.00    -0.354 N 
ATOM     54  N   UNL A   1      44.268  26.143  29.391  1.00  0.00    -0.248 NA
ATOM     55  C   UNL A   1      44.985  24.100  28.508  1.00  0.00     0.031 C 
ATOM     56  C   UNL A   1      46.989  29.114  31.297  1.00  0.00     0.029 A 
ATOM     57  C   UNL A   1      46.159  28.181  30.695  1.00  0.00     0.049 A 
ATOM     58  H   UNL A   1      44.084  28.286  30.336  1.00  0.00     0.167 HD
ATOM     59  C   UNL A   1      45.637  26.020  29.583  1.00  0.00     0.074 A 
ATOM     60  C   UNL A   1      46.021  24.730  29.042  1.00  0.00     0.031 C 
ATOM     61  C   UNL A   1      46.503  26.897  30.147  1.00  0.00     0.031 A 
BRANCH  48  62
ATOM     62  C   UNL A   1      43.891  32.104  32.221  1.00  0.00    -0.014 A 
ATOM     63  C   UNL A   1      43.759  32.243  33.612  1.00  0.00     0.009 A 
ATOM     64  C   UNL A   1      44.169  33.243  31.448  1.00  0.00     0.009 A 
ATOM     65  C   UNL A   1      43.868  33.501  34.209  1.00  0.00     0.001 A 
ATOM     66  C   UNL A   1      44.303  34.496  32.051  1.00  0.00     0.001 A 
ATOM     67  C   UNL A   1      44.143  34.624  33.429  1.00  0.00     0.000 A 
ENDBRANCH  48  62
BRANCH  49  68
ATOM     68  C   UNL A   1      42.296  23.367  27.590  1.00  0.00    -0.014 A 
ATOM     69  C   UNL A   1      42.558  23.266  26.216  1.00  0.00     0.009 A 
ATOM     70  C   UNL A   1      41.834  22.233  28.277  1.00  0.00     0.009 A 
ATOM     71  C   UNL A   1      42.354  22.058  25.544  1.00  0.00     0.001 A 
ATOM     72  C   UNL A   1      41.657  21.019  27.610  1.00  0.00     0.001 A 
ATOM     73  C   UNL A   1      41.910  20.934  26.243  1.00  0.00     0.000 A 
ENDBRANCH  49  68
BRANCH  61  74
ATOM     74  C   UNL A   1      47.938  26.469  30.230  1.00  0.00    -0.014 A 
ATOM     75  C   UNL A   1      48.835  26.742  29.185  1.00  0.00     0.009 A 
ATOM     76  C   UNL A   1      48.402  25.817  31.381  1.00  0.00     0.009 A 
ATOM     77  C   UNL A   1      50.168  26.341  29.283  1.00  0.00     0.001 A 
ATOM     78  C   UNL A   1      49.740  25.437  31.484  1.00  0.00     0.001 A 
ATOM     79  C   UNL A   1      50.619  25.694  30.433  1.00  0.00     0.000 A 
ENDBRANCH  61  74
ENDBRANCH  35  36
ENDBRANCH  28  30
ENDBRANCH  27  28
ENDBRANCH  26  27
ENDBRANCH   1  26
TORSDOF 14
ENDMDL
