MODEL 1
REMARK VINA RESULT:     -12.7      0.000      0.000
REMARK SMILES COc1ccc2c(c1)c(CC(=O)OCCOC(=O)c1ccc(-c3c4nc(c(-c5ccccc5)c5ccc([nH]5)c(-c5ccccc5)c5nc(c(-c6ccccc6)c6ccc3[nH]6)C=C5)C=C4)cc1)c(C)n2C(=O)c1ccc(Cl)cc1
REMARK SMILES IDX 14 1 13 2 11 3 12 4 10 5 9 6 3 7 4 8 8 9 5 10 7 11 6 12
REMARK SMILES IDX 69 13 67 14 68 15 2 16 1 17 70 18 71 19 72 20 73 21 78 22
REMARK SMILES IDX 74 23 77 24 75 25 76 26 15 27 16 28 17 29 18 30 19 31 20 32
REMARK SMILES IDX 66 33 21 34 65 35 22 36 23 37 24 38 59 39 25 40 64 41 58 42
REMARK SMILES IDX 60 43 26 44 63 45 57 46 56 47 27 49 49 50 34 51 48 52 35 53
REMARK SMILES IDX 38 54 47 55 61 56 36 57 37 58 46 60 62 61 39 62 28 63 29 64
REMARK SMILES IDX 33 65 30 66 32 67 31 68 50 69 51 70 55 71 52 72 54 73 53 74
REMARK SMILES IDX 40 75 41 76 45 77 42 78 44 79 43 80
REMARK H PARENT 60 48 38 59
REMARK Flexibility Score: inf
ROOT
ATOM      1  C   UNL A   1      34.982  23.716  23.460  1.00  0.00     0.274 C 
ENDROOT
BRANCH   1   2
ATOM      2  O   UNL A   1      33.783  23.656  22.656  1.00  0.00    -0.462 OA
BRANCH   2   3
ATOM      3  C   UNL A   1      33.179  24.846  22.428  1.00  0.00     0.310 C 
ATOM      4  O   UNL A   1      33.637  25.727  21.702  1.00  0.00    -0.252 OA
BRANCH   3   5
ATOM      5  C   UNL A   1      31.906  25.073  23.187  1.00  0.00     0.160 C 
BRANCH   5   6
ATOM      6  C   UNL A   1      31.661  26.332  23.977  1.00  0.00    -0.008 A 
ATOM      7  C   UNL A   1      29.498  29.179  22.505  1.00  0.00     0.119 A 
ATOM      8  C   UNL A   1      29.829  30.119  23.460  1.00  0.00     0.048 A 
ATOM      9  C   UNL A   1      29.991  27.870  22.636  1.00  0.00     0.057 A 
ATOM     10  C   UNL A   1      30.656  29.774  24.531  1.00  0.00     0.031 A 
ATOM     11  C   UNL A   1      30.879  27.497  23.676  1.00  0.00     0.008 A 
ATOM     12  C   UNL A   1      31.168  28.460  24.650  1.00  0.00     0.057 A 
ATOM     13  N   UNL A   1      31.973  27.854  25.630  1.00  0.00    -0.280 N 
ATOM     14  C   UNL A   1      32.414  26.641  25.107  1.00  0.00     0.028 A 
ATOM     15  C   UNL A   1      33.519  25.808  25.684  1.00  0.00     0.065 C 
BRANCH   7  16
ATOM     16  O   UNL A   1      28.714  29.411  21.407  1.00  0.00    -0.497 OA
ATOM     17  C   UNL A   1      28.240  30.741  21.208  1.00  0.00     0.278 C 
ENDBRANCH   7  16
BRANCH  13  18
ATOM     18  C   UNL A   1      32.295  28.389  26.907  1.00  0.00     0.262 C 
ATOM     19  O   UNL A   1      31.770  27.919  27.914  1.00  0.00    -0.268 OA
BRANCH  18  20
ATOM     20  C   UNL A   1      33.221  29.503  27.132  1.00  0.00     0.040 A 
ATOM     21  C   UNL A   1      34.583  29.254  27.334  1.00  0.00     0.015 A 
ATOM     22  C   UNL A   1      32.701  30.799  27.198  1.00  0.00     0.015 A 
ATOM     23  C   UNL A   1      35.422  30.314  27.671  1.00  0.00     0.021 A 
ATOM     24  C   UNL A   1      33.546  31.854  27.534  1.00  0.00     0.021 A 
ATOM     25  C   UNL A   1      34.898  31.606  27.780  1.00  0.00     0.041 A 
ATOM     26  Cl  UNL A   1      35.927  32.902  28.252  1.00  0.00    -0.084 Cl
ENDBRANCH  18  20
ENDBRANCH  13  18
ENDBRANCH   5   6
ENDBRANCH   3   5
ENDBRANCH   2   3
ENDBRANCH   1   2
BRANCH   1  27
ATOM     27  C   UNL A   1      35.441  22.307  23.846  1.00  0.00     0.275 C 
BRANCH  27  28
ATOM     28  O   UNL A   1      36.873  22.305  23.941  1.00  0.00    -0.458 OA
BRANCH  28  29
ATOM     29  C   UNL A   1      37.441  21.348  24.714  1.00  0.00     0.338 C 
ATOM     30  O   UNL A   1      37.522  20.155  24.484  1.00  0.00    -0.246 OA
BRANCH  29  31
ATOM     31  C   UNL A   1      38.230  22.075  25.723  1.00  0.00     0.060 A 
ATOM     32  C   UNL A   1      37.956  23.414  25.992  1.00  0.00     0.016 A 
ATOM     33  C   UNL A   1      39.379  21.462  26.235  1.00  0.00     0.016 A 
ATOM     34  C   UNL A   1      38.897  24.162  26.686  1.00  0.00     0.010 A 
ATOM     35  C   UNL A   1      40.344  22.224  26.879  1.00  0.00     0.010 A 
ATOM     36  C   UNL A   1      40.117  23.581  27.074  1.00  0.00    -0.014 A 
BRANCH  36  37
ATOM     37  C   UNL A   1      40.968  24.339  27.975  1.00  0.00     0.031 A 
ATOM     38  C   UNL A   1      40.424  25.689  28.244  1.00  0.00     0.074 A 
ATOM     39  C   UNL A   1      42.091  23.976  28.619  1.00  0.00     0.049 A 
ATOM     40  N   UNL A   1      40.842  26.798  27.738  1.00  0.00    -0.248 NA
ATOM     41  C   UNL A   1      39.209  25.801  29.060  1.00  0.00     0.031 C 
ATOM     42  C   UNL A   1      42.679  22.658  28.842  1.00  0.00     0.029 A 
ATOM     43  N   UNL A   1      42.939  24.815  29.284  1.00  0.00    -0.354 N 
ATOM     44  C   UNL A   1      40.022  27.785  28.261  1.00  0.00     0.074 A 
ATOM     45  C   UNL A   1      38.963  27.107  28.968  1.00  0.00     0.031 C 
ATOM     46  C   UNL A   1      43.684  22.772  29.750  1.00  0.00     0.029 A 
ATOM     47  C   UNL A   1      43.912  24.182  30.037  1.00  0.00     0.049 A 
ATOM     48  H   UNL A   1      42.865  25.795  29.230  1.00  0.00     0.167 HD
ATOM     49  C   UNL A   1      40.364  29.098  28.206  1.00  0.00     0.031 A 
ATOM     50  C   UNL A   1      44.800  24.803  30.853  1.00  0.00     0.031 A 
ATOM     51  C   UNL A   1      41.421  29.344  27.259  1.00  0.00     0.049 A 
ATOM     52  C   UNL A   1      44.930  26.209  30.397  1.00  0.00     0.074 A 
ATOM     53  C   UNL A   1      41.565  29.116  25.903  1.00  0.00     0.029 A 
ATOM     54  N   UNL A   1      42.696  29.528  27.741  1.00  0.00    -0.354 N 
ATOM     55  N   UNL A   1      45.495  26.567  29.280  1.00  0.00    -0.248 NA
ATOM     56  C   UNL A   1      44.112  27.226  31.036  1.00  0.00     0.031 C 
ATOM     57  C   UNL A   1      42.914  28.682  25.743  1.00  0.00     0.029 A 
ATOM     58  C   UNL A   1      43.525  28.723  26.998  1.00  0.00     0.049 A 
ATOM     59  H   UNL A   1      42.964  30.122  28.479  1.00  0.00     0.167 HD
ATOM     60  C   UNL A   1      44.779  27.678  28.860  1.00  0.00     0.074 A 
ATOM     61  C   UNL A   1      44.023  28.103  30.034  1.00  0.00     0.031 C 
ATOM     62  C   UNL A   1      44.653  27.989  27.535  1.00  0.00     0.031 A 
BRANCH  49  63
ATOM     63  C   UNL A   1      39.935  30.097  29.239  1.00  0.00    -0.014 A 
ATOM     64  C   UNL A   1      38.725  30.815  29.158  1.00  0.00     0.009 A 
ATOM     65  C   UNL A   1      40.636  30.172  30.453  1.00  0.00     0.009 A 
ATOM     66  C   UNL A   1      38.244  31.582  30.220  1.00  0.00     0.001 A 
ATOM     67  C   UNL A   1      40.134  30.902  31.537  1.00  0.00     0.001 A 
ATOM     68  C   UNL A   1      38.941  31.608  31.418  1.00  0.00     0.000 A 
ENDBRANCH  49  63
BRANCH  50  69
ATOM     69  C   UNL A   1      45.321  24.385  32.172  1.00  0.00    -0.014 A 
ATOM     70  C   UNL A   1      44.669  23.382  32.908  1.00  0.00     0.009 A 
ATOM     71  C   UNL A   1      46.253  25.193  32.849  1.00  0.00     0.009 A 
ATOM     72  C   UNL A   1      44.889  23.236  34.283  1.00  0.00     0.001 A 
ATOM     73  C   UNL A   1      46.466  25.052  34.226  1.00  0.00     0.001 A 
ATOM     74  C   UNL A   1      45.770  24.086  34.946  1.00  0.00     0.000 A 
ENDBRANCH  50  69
BRANCH  62  75
ATOM     75  C   UNL A   1      45.544  27.293  26.528  1.00  0.00    -0.014 A 
ATOM     76  C   UNL A   1      45.168  26.013  26.083  1.00  0.00     0.009 A 
ATOM     77  C   UNL A   1      46.806  27.778  26.139  1.00  0.00     0.009 A 
ATOM     78  C   UNL A   1      46.022  25.242  25.289  1.00  0.00     0.001 A 
ATOM     79  C   UNL A   1      47.648  27.020  25.317  1.00  0.00     0.001 A 
ATOM     80  C   UNL A   1      47.261  25.748  24.903  1.00  0.00     0.000 A 
ENDBRANCH  62  75
ENDBRANCH  36  37
ENDBRANCH  29  31
ENDBRANCH  28  29
ENDBRANCH  27  28
ENDBRANCH   1  27
TORSDOF 15
ENDMDL
MODEL 2
REMARK VINA RESULT:     -12.5      1.637      3.245
REMARK SMILES COc1ccc2c(c1)c(CC(=O)OCCOC(=O)c1ccc(-c3c4nc(c(-c5ccccc5)c5ccc([nH]5)c(-c5ccccc5)c5nc(c(-c6ccccc6)c6ccc3[nH]6)C=C5)C=C4)cc1)c(C)n2C(=O)c1ccc(Cl)cc1
REMARK SMILES IDX 14 1 13 2 11 3 12 4 10 5 9 6 3 7 4 8 8 9 5 10 7 11 6 12
REMARK SMILES IDX 69 13 67 14 68 15 2 16 1 17 70 18 71 19 72 20 73 21 78 22
REMARK SMILES IDX 74 23 77 24 75 25 76 26 15 27 16 28 17 29 18 30 19 31 20 32
REMARK SMILES IDX 66 33 21 34 65 35 22 36 23 37 24 38 59 39 25 40 64 41 58 42
REMARK SMILES IDX 60 43 26 44 63 45 57 46 56 47 27 49 49 50 34 51 48 52 35 53
REMARK SMILES IDX 38 54 47 55 61 56 36 57 37 58 46 60 62 61 39 62 28 63 29 64
REMARK SMILES IDX 33 65 30 66 32 67 31 68 50 69 51 70 55 71 52 72 54 73 53 74
REMARK SMILES IDX 40 75 41 76 45 77 42 78 44 79 43 80
REMARK H PARENT 60 48 38 59
REMARK Flexibility Score: inf
ROOT
ATOM      1  C   UNL A   1      34.619  22.099  25.114  1.00  0.00     0.274 C 
ENDROOT
BRANCH   1   2
ATOM      2  O   UNL A   1      34.145  22.486  23.805  1.00  0.00    -0.462 OA
BRANCH   2   3
ATOM      3  C   UNL A   1      34.137  23.818  23.562  1.00  0.00     0.310 C 
ATOM      4  O   UNL A   1      34.365  24.323  22.465  1.00  0.00    -0.252 OA
BRANCH   3   5
ATOM      5  C   UNL A   1      33.892  24.684  24.761  1.00  0.00     0.160 C 
BRANCH   5   6
ATOM      6  C   UNL A   1      32.899  25.816  24.739  1.00  0.00    -0.008 A 
ATOM      7  C   UNL A   1      33.771  29.221  26.352  1.00  0.00     0.119 A 
ATOM      8  C   UNL A   1      32.493  29.738  26.296  1.00  0.00     0.048 A 
ATOM      9  C   UNL A   1      34.022  27.959  25.787  1.00  0.00     0.057 A 
ATOM     10  C   UNL A   1      31.463  29.007  25.699  1.00  0.00     0.031 A 
ATOM     11  C   UNL A   1      32.993  27.163  25.225  1.00  0.00     0.008 A 
ATOM     12  C   UNL A   1      31.714  27.728  25.148  1.00  0.00     0.057 A 
ATOM     13  N   UNL A   1      30.882  26.820  24.471  1.00  0.00    -0.280 N 
ATOM     14  C   UNL A   1      31.562  25.606  24.410  1.00  0.00     0.028 A 
ATOM     15  C   UNL A   1      30.943  24.292  24.039  1.00  0.00     0.065 C 
BRANCH   7  16
ATOM     16  O   UNL A   1      34.848  29.838  26.928  1.00  0.00    -0.497 OA
ATOM     17  C   UNL A   1      34.584  30.866  27.880  1.00  0.00     0.278 C 
ENDBRANCH   7  16
BRANCH  13  18
ATOM     18  C   UNL A   1      29.582  27.084  23.963  1.00  0.00     0.262 C 
ATOM     19  O   UNL A   1      28.656  26.321  24.231  1.00  0.00    -0.268 OA
BRANCH  18  20
ATOM     20  C   UNL A   1      29.240  28.222  23.103  1.00  0.00     0.040 A 
ATOM     21  C   UNL A   1      30.229  28.836  22.328  1.00  0.00     0.015 A 
ATOM     22  C   UNL A   1      27.929  28.706  23.127  1.00  0.00     0.015 A 
ATOM     23  C   UNL A   1      29.911  29.991  21.615  1.00  0.00     0.021 A 
ATOM     24  C   UNL A   1      27.618  29.860  22.412  1.00  0.00     0.021 A 
ATOM     25  C   UNL A   1      28.612  30.503  21.670  1.00  0.00     0.041 A 
ATOM     26  Cl  UNL A   1      28.238  31.961  20.836  1.00  0.00    -0.084 Cl
ENDBRANCH  18  20
ENDBRANCH  13  18
ENDBRANCH   5   6
ENDBRANCH   3   5
ENDBRANCH   2   3
ENDBRANCH   1   2
BRANCH   1  27
ATOM     27  C   UNL A   1      35.563  20.899  25.011  1.00  0.00     0.275 C 
BRANCH  27  28
ATOM     28  O   UNL A   1      36.877  21.379  24.689  1.00  0.00    -0.458 OA
BRANCH  28  29
ATOM     29  C   UNL A   1      37.928  20.637  25.113  1.00  0.00     0.338 C 
ATOM     30  O   UNL A   1      38.201  19.489  24.812  1.00  0.00    -0.246 OA
BRANCH  29  31
ATOM     31  C   UNL A   1      38.854  21.594  25.744  1.00  0.00     0.060 A 
ATOM     32  C   UNL A   1      40.017  21.138  26.360  1.00  0.00     0.016 A 
ATOM     33  C   UNL A   1      38.435  22.921  25.896  1.00  0.00     0.016 A 
ATOM     34  C   UNL A   1      40.697  21.991  27.219  1.00  0.00     0.010 A 
ATOM     35  C   UNL A   1      39.084  23.753  26.798  1.00  0.00     0.010 A 
ATOM     36  C   UNL A   1      40.194  23.276  27.484  1.00  0.00    -0.014 A 
BRANCH  36  37
ATOM     37  C   UNL A   1      41.048  24.197  28.215  1.00  0.00     0.031 A 
ATOM     38  C   UNL A   1      40.445  25.545  28.317  1.00  0.00     0.074 A 
ATOM     39  C   UNL A   1      42.219  23.986  28.839  1.00  0.00     0.049 A 
ATOM     40  N   UNL A   1      40.776  26.586  27.632  1.00  0.00    -0.248 NA
ATOM     41  C   UNL A   1      39.268  25.720  29.176  1.00  0.00     0.031 C 
ATOM     42  C   UNL A   1      42.888  22.744  29.217  1.00  0.00     0.029 A 
ATOM     43  N   UNL A   1      43.053  24.952  29.326  1.00  0.00    -0.354 N 
ATOM     44  C   UNL A   1      39.931  27.600  28.053  1.00  0.00     0.074 A 
ATOM     45  C   UNL A   1      38.947  26.986  28.910  1.00  0.00     0.031 C 
ATOM     46  C   UNL A   1      43.930  23.038  30.040  1.00  0.00     0.029 A 
ATOM     47  C   UNL A   1      44.095  24.484  30.106  1.00  0.00     0.049 A 
ATOM     48  H   UNL A   1      42.923  25.909  29.135  1.00  0.00     0.167 HD
ATOM     49  C   UNL A   1      40.198  28.906  27.789  1.00  0.00     0.031 A 
ATOM     50  C   UNL A   1      44.987  25.259  30.771  1.00  0.00     0.031 A 
ATOM     51  C   UNL A   1      41.192  29.058  26.757  1.00  0.00     0.049 A 
ATOM     52  C   UNL A   1      45.018  26.587  30.109  1.00  0.00     0.074 A 
ATOM     53  C   UNL A   1      41.280  28.639  25.442  1.00  0.00     0.029 A 
ATOM     54  N   UNL A   1      42.477  29.369  27.133  1.00  0.00    -0.354 N 
ATOM     55  N   UNL A   1      45.506  26.801  28.921  1.00  0.00    -0.248 NA
ATOM     56  C   UNL A   1      44.180  27.648  30.640  1.00  0.00     0.031 C 
ATOM     57  C   UNL A   1      42.640  28.249  25.269  1.00  0.00     0.029 A 
ATOM     58  C   UNL A   1      43.310  28.503  26.468  1.00  0.00     0.049 A 
ATOM     59  H   UNL A   1      42.749  30.078  27.760  1.00  0.00     0.167 HD
ATOM     60  C   UNL A   1      44.711  27.804  28.386  1.00  0.00     0.074 A 
ATOM     61  C   UNL A   1      43.993  28.362  29.529  1.00  0.00     0.031 C 
ATOM     62  C   UNL A   1      44.502  27.910  27.040  1.00  0.00     0.031 A 
BRANCH  49  63
ATOM     63  C   UNL A   1      39.767  30.025  28.689  1.00  0.00    -0.014 A 
ATOM     64  C   UNL A   1      38.476  30.586  28.653  1.00  0.00     0.009 A 
ATOM     65  C   UNL A   1      40.588  30.391  29.768  1.00  0.00     0.009 A 
ATOM     66  C   UNL A   1      38.027  31.479  29.627  1.00  0.00     0.001 A 
ATOM     67  C   UNL A   1      40.126  31.250  30.772  1.00  0.00     0.001 A 
ATOM     68  C   UNL A   1      38.847  31.794  30.699  1.00  0.00     0.000 A 
ENDBRANCH  49  63
BRANCH  50  69
ATOM     69  C   UNL A   1      45.596  25.065  32.105  1.00  0.00    -0.014 A 
ATOM     70  C   UNL A   1      44.820  24.596  33.178  1.00  0.00     0.009 A 
ATOM     71  C   UNL A   1      46.841  25.649  32.402  1.00  0.00     0.009 A 
ATOM     72  C   UNL A   1      45.242  24.767  34.502  1.00  0.00     0.001 A 
ATOM     73  C   UNL A   1      47.258  25.826  33.727  1.00  0.00     0.001 A 
ATOM     74  C   UNL A   1      46.449  25.402  34.777  1.00  0.00     0.000 A 
ENDBRANCH  50  69
BRANCH  62  75
ATOM     75  C   UNL A   1      45.377  27.114  26.095  1.00  0.00    -0.014 A 
ATOM     76  C   UNL A   1      45.068  25.758  25.885  1.00  0.00     0.009 A 
ATOM     77  C   UNL A   1      46.576  27.605  25.545  1.00  0.00     0.009 A 
ATOM     78  C   UNL A   1      45.925  24.922  25.165  1.00  0.00     0.001 A 
ATOM     79  C   UNL A   1      47.419  26.776  24.797  1.00  0.00     0.001 A 
ATOM     80  C   UNL A   1      47.099  25.433  24.617  1.00  0.00     0.000 A 
ENDBRANCH  62  75
ENDBRANCH  36  37
ENDBRANCH  29  31
ENDBRANCH  28  29
ENDBRANCH  27  28
ENDBRANCH   1  27
TORSDOF 15
ENDMDL
MODEL 3
REMARK VINA RESULT:     -12.3      3.702      9.318
REMARK SMILES COc1ccc2c(c1)c(CC(=O)OCCOC(=O)c1ccc(-c3c4nc(c(-c5ccccc5)c5ccc([nH]5)c(-c5ccccc5)c5nc(c(-c6ccccc6)c6ccc3[nH]6)C=C5)C=C4)cc1)c(C)n2C(=O)c1ccc(Cl)cc1
REMARK SMILES IDX 14 1 13 2 11 3 12 4 10 5 9 6 3 7 4 8 8 9 5 10 7 11 6 12
REMARK SMILES IDX 69 13 67 14 68 15 2 16 1 17 70 18 71 19 72 20 73 21 78 22
REMARK SMILES IDX 74 23 77 24 75 25 76 26 15 27 16 28 17 29 18 30 19 31 20 32
REMARK SMILES IDX 66 33 21 34 65 35 22 36 23 37 24 38 59 39 25 40 64 41 58 42
REMARK SMILES IDX 60 43 26 44 63 45 57 46 56 47 27 49 49 50 34 51 48 52 35 53
REMARK SMILES IDX 38 54 47 55 61 56 36 57 37 58 46 60 62 61 39 62 28 63 29 64
REMARK SMILES IDX 33 65 30 66 32 67 31 68 50 69 51 70 55 71 52 72 54 73 53 74
REMARK SMILES IDX 40 75 41 76 45 77 42 78 44 79 43 80
REMARK H PARENT 60 48 38 59
REMARK Flexibility Score: inf
ROOT
ATOM      1  C   UNL A   1      31.707  29.055  23.570  1.00  0.00     0.274 C 
ENDROOT
BRANCH   1   2
ATOM      2  O   UNL A   1      31.800  27.620  23.710  1.00  0.00    -0.462 OA
BRANCH   2   3
ATOM      3  C   UNL A   1      32.910  27.170  24.342  1.00  0.00     0.310 C 
ATOM      4  O   UNL A   1      34.031  27.653  24.198  1.00  0.00    -0.252 OA
BRANCH   3   5
ATOM      5  C   UNL A   1      32.707  25.964  25.209  1.00  0.00     0.160 C 
BRANCH   5   6
ATOM      6  C   UNL A   1      33.173  24.594  24.791  1.00  0.00    -0.008 A 
ATOM      7  C   UNL A   1      36.855  23.533  25.308  1.00  0.00     0.119 A 
ATOM      8  C   UNL A   1      36.783  22.387  24.542  1.00  0.00     0.048 A 
ATOM      9  C   UNL A   1      35.689  24.288  25.517  1.00  0.00     0.057 A 
ATOM     10  C   UNL A   1      35.570  21.997  23.971  1.00  0.00     0.031 A 
ATOM     11  C   UNL A   1      34.453  23.957  24.907  1.00  0.00     0.008 A 
ATOM     12  C   UNL A   1      34.401  22.770  24.166  1.00  0.00     0.057 A 
ATOM     13  N   UNL A   1      33.074  22.583  23.745  1.00  0.00    -0.280 N 
ATOM     14  C   UNL A   1      32.400  23.783  23.964  1.00  0.00     0.028 A 
ATOM     15  C   UNL A   1      31.055  24.128  23.399  1.00  0.00     0.065 C 
BRANCH   7  16
ATOM     16  O   UNL A   1      37.991  24.019  25.897  1.00  0.00    -0.497 OA
ATOM     17  C   UNL A   1      38.940  23.069  26.378  1.00  0.00     0.278 C 
ENDBRANCH   7  16
BRANCH  13  18
ATOM     18  C   UNL A   1      32.526  21.400  23.179  1.00  0.00     0.262 C 
ATOM     19  O   UNL A   1      32.002  21.442  22.068  1.00  0.00    -0.268 OA
BRANCH  18  20
ATOM     20  C   UNL A   1      32.518  20.091  23.839  1.00  0.00     0.040 A 
ATOM     21  C   UNL A   1      32.623  20.006  25.232  1.00  0.00     0.015 A 
ATOM     22  C   UNL A   1      32.464  18.943  23.043  1.00  0.00     0.015 A 
ATOM     23  C   UNL A   1      32.740  18.751  25.827  1.00  0.00     0.021 A 
ATOM     24  C   UNL A   1      32.579  17.692  23.644  1.00  0.00     0.021 A 
ATOM     25  C   UNL A   1      32.729  17.602  25.030  1.00  0.00     0.041 A 
ATOM     26  Cl  UNL A   1      32.931  16.059  25.764  1.00  0.00    -0.084 Cl
ENDBRANCH  18  20
ENDBRANCH  13  18
ENDBRANCH   5   6
ENDBRANCH   3   5
ENDBRANCH   2   3
ENDBRANCH   1   2
BRANCH   1  27
ATOM     27  C   UNL A   1      30.963  29.665  24.761  1.00  0.00     0.275 C 
BRANCH  27  28
ATOM     28  O   UNL A   1      31.913  30.348  25.592  1.00  0.00    -0.458 OA
BRANCH  28  29
ATOM     29  C   UNL A   1      32.161  29.818  26.813  1.00  0.00     0.338 C 
ATOM     30  O   UNL A   1      31.486  29.013  27.428  1.00  0.00    -0.246 OA
BRANCH  29  31
ATOM     31  C   UNL A   1      33.566  30.150  27.107  1.00  0.00     0.060 A 
ATOM     32  C   UNL A   1      34.500  29.133  27.293  1.00  0.00     0.016 A 
ATOM     33  C   UNL A   1      33.886  31.479  27.405  1.00  0.00     0.016 A 
ATOM     34  C   UNL A   1      35.718  29.444  27.882  1.00  0.00     0.010 A 
ATOM     35  C   UNL A   1      35.081  31.779  28.045  1.00  0.00     0.010 A 
ATOM     36  C   UNL A   1      35.981  30.755  28.314  1.00  0.00    -0.014 A 
BRANCH  36  37
ATOM     37  C   UNL A   1      37.338  31.070  28.726  1.00  0.00     0.031 A 
ATOM     38  C   UNL A   1      38.239  29.902  28.600  1.00  0.00     0.074 A 
ATOM     39  C   UNL A   1      37.878  32.236  29.121  1.00  0.00     0.049 A 
ATOM     40  N   UNL A   1      38.665  29.156  29.561  1.00  0.00    -0.248 NA
ATOM     41  C   UNL A   1      38.596  29.438  27.254  1.00  0.00     0.031 C 
ATOM     42  C   UNL A   1      37.372  33.602  29.022  1.00  0.00     0.029 A 
ATOM     43  N   UNL A   1      39.110  32.398  29.686  1.00  0.00    -0.354 N 
ATOM     44  C   UNL A   1      39.454  28.185  28.966  1.00  0.00     0.074 A 
ATOM     45  C   UNL A   1      39.279  28.331  27.542  1.00  0.00     0.031 C 
ATOM     46  C   UNL A   1      38.373  34.466  29.338  1.00  0.00     0.029 A 
ATOM     47  C   UNL A   1      39.523  33.711  29.817  1.00  0.00     0.049 A 
ATOM     48  H   UNL A   1      39.663  31.637  29.978  1.00  0.00     0.167 HD
ATOM     49  C   UNL A   1      40.322  27.430  29.688  1.00  0.00     0.031 A 
ATOM     50  C   UNL A   1      40.742  34.110  30.259  1.00  0.00     0.031 A 
ATOM     51  C   UNL A   1      40.049  27.496  31.102  1.00  0.00     0.049 A 
ATOM     52  C   UNL A   1      41.316  33.007  31.068  1.00  0.00     0.074 A 
ATOM     53  C   UNL A   1      38.944  27.203  31.879  1.00  0.00     0.029 A 
ATOM     54  N   UNL A   1      40.849  28.298  31.881  1.00  0.00    -0.354 N 
ATOM     55  N   UNL A   1      40.861  32.639  32.231  1.00  0.00    -0.248 NA
ATOM     56  C   UNL A   1      42.210  32.063  30.420  1.00  0.00     0.031 C 
ATOM     57  C   UNL A   1      38.904  28.233  32.865  1.00  0.00     0.029 A 
ATOM     58  C   UNL A   1      40.013  29.057  32.663  1.00  0.00     0.049 A 
ATOM     59  H   UNL A   1      41.833  28.324  31.879  1.00  0.00     0.167 HD
ATOM     60  C   UNL A   1      41.059  31.267  32.272  1.00  0.00     0.074 A 
ATOM     61  C   UNL A   1      41.995  30.991  31.186  1.00  0.00     0.031 C 
ATOM     62  C   UNL A   1      40.243  30.447  33.000  1.00  0.00     0.031 A 
BRANCH  49  63
ATOM     63  C   UNL A   1      41.596  26.880  29.119  1.00  0.00    -0.014 A 
ATOM     64  C   UNL A   1      42.857  27.460  29.360  1.00  0.00     0.009 A 
ATOM     65  C   UNL A   1      41.584  25.615  28.510  1.00  0.00     0.009 A 
ATOM     66  C   UNL A   1      44.046  26.825  28.998  1.00  0.00     0.001 A 
ATOM     67  C   UNL A   1      42.775  24.955  28.188  1.00  0.00     0.001 A 
ATOM     68  C   UNL A   1      44.004  25.561  28.430  1.00  0.00     0.000 A 
ENDBRANCH  49  63
BRANCH  50  69
ATOM     69  C   UNL A   1      41.589  35.234  29.803  1.00  0.00    -0.014 A 
ATOM     70  C   UNL A   1      41.497  35.702  28.482  1.00  0.00     0.009 A 
ATOM     71  C   UNL A   1      42.710  35.621  30.559  1.00  0.00     0.009 A 
ATOM     72  C   UNL A   1      42.520  36.472  27.916  1.00  0.00     0.001 A 
ATOM     73  C   UNL A   1      43.737  36.384  29.990  1.00  0.00     0.001 A 
ATOM     74  C   UNL A   1      43.650  36.793  28.662  1.00  0.00     0.000 A 
ENDBRANCH  50  69
BRANCH  62  75
ATOM     75  C   UNL A   1      39.296  31.061  34.010  1.00  0.00    -0.014 A 
ATOM     76  C   UNL A   1      38.100  31.630  33.538  1.00  0.00     0.009 A 
ATOM     77  C   UNL A   1      39.618  31.243  35.367  1.00  0.00     0.009 A 
ATOM     78  C   UNL A   1      37.262  32.361  34.383  1.00  0.00     0.001 A 
ATOM     79  C   UNL A   1      38.763  31.948  36.222  1.00  0.00     0.001 A 
ATOM     80  C   UNL A   1      37.592  32.516  35.727  1.00  0.00     0.000 A 
ENDBRANCH  62  75
ENDBRANCH  36  37
ENDBRANCH  29  31
ENDBRANCH  28  29
ENDBRANCH  27  28
ENDBRANCH   1  27
TORSDOF 15
ENDMDL
