MODEL 1
REMARK VINA RESULT:      -9.9      0.000      0.000
REMARK SMILES Cc1ccc(O)c(C(=O)NCc2ccc(C(=O)OCCOC(=O)c3ccc(-c4c5nc(c(-c6ccccc6)c6ccc([nH]6)c(-c6ccccc6)c6nc(c(-c7ccccc7)c7ccc4[nH]7)C=C6)C=C5)cc3)o2)c1
REMARK SMILES IDX 19 1 18 2 16 3 17 4 15 5 12 6 13 7 72 8 14 9 11 10 10 11
REMARK SMILES IDX 8 12 9 13 7 15 1 16 2 17 3 18 73 19 4 20 5 21 6 22 20 24
REMARK SMILES IDX 21 25 22 26 23 27 24 28 25 29 71 30 26 31 70 32 27 33 28 34
REMARK SMILES IDX 29 35 64 36 30 37 69 38 63 39 65 40 31 41 68 42 62 43 61 44
REMARK SMILES IDX 32 46 54 47 39 48 53 49 40 50 43 51 52 52 66 53 41 54 42 55
REMARK SMILES IDX 51 57 67 58 44 59 33 60 34 61 38 62 35 63 37 64 36 65 55 66
REMARK SMILES IDX 56 67 60 68 57 69 59 70 58 71 45 72 46 73 50 74 47 75 49 76
REMARK SMILES IDX 48 77
REMARK H PARENT 10 14 6 23 65 45 43 56
REMARK Flexibility Score: inf
ROOT
ATOM      1  C   UNL A   1      44.522  18.444  25.811  1.00  0.00     0.275 C 
ENDROOT
BRANCH   1   2
ATOM      2  O   UNL A   1      44.865  19.177  24.621  1.00  0.00    -0.456 OA
BRANCH   2   3
ATOM      3  C   UNL A   1      46.019  19.905  24.681  1.00  0.00     0.374 C 
ATOM      4  O   UNL A   1      47.145  19.428  24.604  1.00  0.00    -0.242 OA
BRANCH   3   5
ATOM      5  C   UNL A   1      45.708  21.315  24.714  1.00  0.00     0.211 A 
ATOM      6  C   UNL A   1      46.179  23.400  25.276  1.00  0.00     0.124 A 
ATOM      7  C   UNL A   1      45.191  23.467  24.315  1.00  0.00     0.048 A 
ATOM      8  O   UNL A   1      46.417  22.096  25.591  1.00  0.00    -0.452 OA
ATOM      9  C   UNL A   1      44.892  22.129  23.951  1.00  0.00     0.058 A 
BRANCH   6  10
ATOM     10  C   UNL A   1      47.082  24.394  25.920  1.00  0.00     0.191 C 
BRANCH  10  11
ATOM     11  N   UNL A   1      47.386  25.417  24.937  1.00  0.00    -0.345 N 
ATOM     12  C   UNL A   1      46.885  26.657  24.657  1.00  0.00     0.255 C 
ATOM     13  O   UNL A   1      47.434  27.276  23.739  1.00  0.00    -0.269 OA
ATOM     14  H   UNL A   1      48.120  25.158  24.335  1.00  0.00     0.164 HD
BRANCH  12  15
ATOM     15  C   UNL A   1      45.765  27.329  25.380  1.00  0.00     0.081 A 
ATOM     16  C   UNL A   1      41.949  27.512  25.499  1.00  0.00     0.044 C 
ATOM     17  C   UNL A   1      43.394  27.769  25.817  1.00  0.00    -0.050 A 
ATOM     18  C   UNL A   1      43.741  28.662  26.833  1.00  0.00     0.007 A 
ATOM     19  C   UNL A   1      44.410  27.140  25.078  1.00  0.00     0.021 A 
ATOM     20  C   UNL A   1      45.080  28.907  27.118  1.00  0.00     0.047 A 
ATOM     21  C   UNL A   1      46.079  28.247  26.401  1.00  0.00     0.128 A 
BRANCH  21  22
ATOM     22  O   UNL A   1      47.363  28.572  26.761  1.00  0.00    -0.507 OA
ATOM     23  H   UNL A   1      47.595  28.632  27.668  1.00  0.00     0.293 HD
ENDBRANCH  21  22
ENDBRANCH  12  15
ENDBRANCH  10  11
ENDBRANCH   6  10
ENDBRANCH   3   5
ENDBRANCH   2   3
ENDBRANCH   1   2
BRANCH   1  24
ATOM     24  C   UNL A   1      43.001  18.315  25.969  1.00  0.00     0.275 C 
BRANCH  24  25
ATOM     25  O   UNL A   1      42.288  19.335  25.241  1.00  0.00    -0.458 OA
BRANCH  25  26
ATOM     26  C   UNL A   1      41.141  19.764  25.819  1.00  0.00     0.338 C 
ATOM     27  O   UNL A   1      40.086  19.157  25.898  1.00  0.00    -0.246 OA
BRANCH  26  28
ATOM     28  C   UNL A   1      41.366  21.055  26.495  1.00  0.00     0.060 A 
ATOM     29  C   UNL A   1      41.863  22.105  25.722  1.00  0.00     0.016 A 
ATOM     30  C   UNL A   1      41.176  21.224  27.867  1.00  0.00     0.016 A 
ATOM     31  C   UNL A   1      42.172  23.329  26.302  1.00  0.00     0.010 A 
ATOM     32  C   UNL A   1      41.490  22.457  28.456  1.00  0.00     0.010 A 
ATOM     33  C   UNL A   1      41.997  23.515  27.678  1.00  0.00    -0.014 A 
BRANCH  33  34
ATOM     34  C   UNL A   1      42.395  24.808  28.285  1.00  0.00     0.031 A 
ATOM     35  C   UNL A   1      41.376  25.892  28.482  1.00  0.00     0.074 A 
ATOM     36  C   UNL A   1      43.655  24.984  28.724  1.00  0.00     0.049 A 
ATOM     37  N   UNL A   1      41.535  27.094  28.975  1.00  0.00    -0.248 NA
ATOM     38  C   UNL A   1      39.996  25.582  28.077  1.00  0.00     0.031 C 
ATOM     39  C   UNL A   1      44.723  23.986  28.653  1.00  0.00     0.029 A 
ATOM     40  N   UNL A   1      44.245  26.065  29.330  1.00  0.00    -0.354 N 
ATOM     41  C   UNL A   1      40.282  27.691  28.925  1.00  0.00     0.074 A 
ATOM     42  C   UNL A   1      39.376  26.724  28.343  1.00  0.00     0.031 C 
ATOM     43  C   UNL A   1      45.834  24.495  29.211  1.00  0.00     0.029 A 
ATOM     44  C   UNL A   1      45.569  25.866  29.638  1.00  0.00     0.049 A 
ATOM     45  H   UNL A   1      43.765  26.901  29.526  1.00  0.00     0.167 HD
ATOM     46  C   UNL A   1      39.917  28.932  29.327  1.00  0.00     0.031 A 
ATOM     47  C   UNL A   1      46.472  26.701  30.184  1.00  0.00     0.031 A 
ATOM     48  C   UNL A   1      40.812  29.897  29.910  1.00  0.00     0.049 A 
ATOM     49  C   UNL A   1      46.059  28.097  30.557  1.00  0.00     0.074 A 
ATOM     50  C   UNL A   1      40.532  31.182  30.342  1.00  0.00     0.029 A 
ATOM     51  N   UNL A   1      42.159  29.679  30.147  1.00  0.00    -0.354 N 
ATOM     52  N   UNL A   1      44.877  28.657  30.479  1.00  0.00    -0.248 NA
ATOM     53  C   UNL A   1      47.110  28.978  31.087  1.00  0.00     0.031 C 
ATOM     54  C   UNL A   1      41.721  31.756  30.806  1.00  0.00     0.029 A 
ATOM     55  C   UNL A   1      42.730  30.813  30.701  1.00  0.00     0.049 A 
ATOM     56  H   UNL A   1      42.639  28.842  29.951  1.00  0.00     0.167 HD
ATOM     57  C   UNL A   1      45.038  29.949  30.960  1.00  0.00     0.074 A 
ATOM     58  C   UNL A   1      46.428  30.086  31.345  1.00  0.00     0.031 C 
ATOM     59  C   UNL A   1      44.115  30.935  31.073  1.00  0.00     0.031 A 
BRANCH  46  60
ATOM     60  C   UNL A   1      38.487  29.331  29.108  1.00  0.00    -0.014 A 
ATOM     61  C   UNL A   1      37.548  29.271  30.148  1.00  0.00     0.009 A 
ATOM     62  C   UNL A   1      38.083  29.796  27.848  1.00  0.00     0.009 A 
ATOM     63  C   UNL A   1      36.220  29.643  29.920  1.00  0.00     0.001 A 
ATOM     64  C   UNL A   1      36.761  30.186  27.628  1.00  0.00     0.001 A 
ATOM     65  C   UNL A   1      35.830  30.102  28.662  1.00  0.00     0.000 A 
ENDBRANCH  46  60
BRANCH  47  66
ATOM     66  C   UNL A   1      47.872  26.250  30.385  1.00  0.00    -0.014 A 
ATOM     67  C   UNL A   1      48.796  26.296  29.331  1.00  0.00     0.009 A 
ATOM     68  C   UNL A   1      48.287  25.765  31.635  1.00  0.00     0.009 A 
ATOM     69  C   UNL A   1      50.106  25.850  29.522  1.00  0.00     0.001 A 
ATOM     70  C   UNL A   1      49.603  25.341  31.828  1.00  0.00     0.001 A 
ATOM     71  C   UNL A   1      50.509  25.377  30.770  1.00  0.00     0.000 A 
ENDBRANCH  47  66
BRANCH  59  72
ATOM     72  C   UNL A   1      44.577  32.240  31.650  1.00  0.00    -0.014 A 
ATOM     73  C   UNL A   1      44.544  32.471  33.034  1.00  0.00     0.009 A 
ATOM     74  C   UNL A   1      45.081  33.238  30.802  1.00  0.00     0.009 A 
ATOM     75  C   UNL A   1      44.984  33.690  33.555  1.00  0.00     0.001 A 
ATOM     76  C   UNL A   1      45.538  34.447  31.327  1.00  0.00     0.001 A 
ATOM     77  C   UNL A   1      45.483  34.675  32.702  1.00  0.00     0.000 A 
ENDBRANCH  59  72
ENDBRANCH  33  34
ENDBRANCH  26  28
ENDBRANCH  25  26
ENDBRANCH  24  25
ENDBRANCH   1  24
TORSDOF 15
ENDMDL
MODEL 2
REMARK VINA RESULT:      -9.3      0.703      6.062
REMARK SMILES Cc1ccc(O)c(C(=O)NCc2ccc(C(=O)OCCOC(=O)c3ccc(-c4c5nc(c(-c6ccccc6)c6ccc([nH]6)c(-c6ccccc6)c6nc(c(-c7ccccc7)c7ccc4[nH]7)C=C6)C=C5)cc3)o2)c1
REMARK SMILES IDX 19 1 18 2 16 3 17 4 15 5 12 6 13 7 72 8 14 9 11 10 10 11
REMARK SMILES IDX 8 12 9 13 7 15 1 16 2 17 3 18 73 19 4 20 5 21 6 22 20 24
REMARK SMILES IDX 21 25 22 26 23 27 24 28 25 29 71 30 26 31 70 32 27 33 28 34
REMARK SMILES IDX 29 35 64 36 30 37 69 38 63 39 65 40 31 41 68 42 62 43 61 44
REMARK SMILES IDX 32 46 54 47 39 48 53 49 40 50 43 51 52 52 66 53 41 54 42 55
REMARK SMILES IDX 51 57 67 58 44 59 33 60 34 61 38 62 35 63 37 64 36 65 55 66
REMARK SMILES IDX 56 67 60 68 57 69 59 70 58 71 45 72 46 73 50 74 47 75 49 76
REMARK SMILES IDX 48 77
REMARK H PARENT 10 14 6 23 65 45 43 56
REMARK Flexibility Score: inf
ROOT
ATOM      1  C   UNL A   1      44.463  18.405  25.564  1.00  0.00     0.275 C 
ENDROOT
BRANCH   1   2
ATOM      2  O   UNL A   1      44.828  19.247  24.455  1.00  0.00    -0.456 OA
BRANCH   2   3
ATOM      3  C   UNL A   1      45.982  19.962  24.606  1.00  0.00     0.374 C 
ATOM      4  O   UNL A   1      47.108  19.479  24.572  1.00  0.00    -0.242 OA
BRANCH   3   5
ATOM      5  C   UNL A   1      45.679  21.373  24.676  1.00  0.00     0.211 A 
ATOM      6  C   UNL A   1      46.180  23.446  25.258  1.00  0.00     0.124 A 
ATOM      7  C   UNL A   1      45.159  23.534  24.334  1.00  0.00     0.048 A 
ATOM      8  O   UNL A   1      46.423  22.135  25.541  1.00  0.00    -0.452 OA
ATOM      9  C   UNL A   1      44.841  22.204  23.957  1.00  0.00     0.058 A 
BRANCH   6  10
ATOM     10  C   UNL A   1      47.109  24.424  25.887  1.00  0.00     0.191 C 
BRANCH  10  11
ATOM     11  N   UNL A   1      47.399  25.452  24.906  1.00  0.00    -0.345 N 
ATOM     12  C   UNL A   1      46.901  26.697  24.646  1.00  0.00     0.255 C 
ATOM     13  O   UNL A   1      47.434  27.321  23.721  1.00  0.00    -0.269 OA
ATOM     14  H   UNL A   1      48.120  25.194  24.287  1.00  0.00     0.164 HD
BRANCH  12  15
ATOM     15  C   UNL A   1      45.800  27.371  25.397  1.00  0.00     0.081 A 
ATOM     16  C   UNL A   1      41.990  27.598  25.577  1.00  0.00     0.044 C 
ATOM     17  C   UNL A   1      43.442  27.832  25.878  1.00  0.00    -0.050 A 
ATOM     18  C   UNL A   1      43.815  28.703  26.903  1.00  0.00     0.007 A 
ATOM     19  C   UNL A   1      44.439  27.203  25.112  1.00  0.00     0.021 A 
ATOM     20  C   UNL A   1      45.161  28.927  27.171  1.00  0.00     0.047 A 
ATOM     21  C   UNL A   1      46.141  28.268  26.428  1.00  0.00     0.128 A 
BRANCH  21  22
ATOM     22  O   UNL A   1      47.434  28.571  26.774  1.00  0.00    -0.507 OA
ATOM     23  H   UNL A   1      47.650  29.433  27.074  1.00  0.00     0.293 HD
ENDBRANCH  21  22
ENDBRANCH  12  15
ENDBRANCH  10  11
ENDBRANCH   6  10
ENDBRANCH   3   5
ENDBRANCH   2   3
ENDBRANCH   1   2
BRANCH   1  24
ATOM     24  C   UNL A   1      42.984  18.581  25.936  1.00  0.00     0.275 C 
BRANCH  24  25
ATOM     25  O   UNL A   1      42.423  19.790  25.385  1.00  0.00    -0.458 OA
BRANCH  25  26
ATOM     26  C   UNL A   1      41.402  20.328  26.092  1.00  0.00     0.338 C 
ATOM     27  O   UNL A   1      40.326  19.810  26.340  1.00  0.00    -0.246 OA
BRANCH  26  28
ATOM     28  C   UNL A   1      41.813  21.618  26.675  1.00  0.00     0.060 A 
ATOM     29  C   UNL A   1      41.954  21.680  28.061  1.00  0.00     0.016 A 
ATOM     30  C   UNL A   1      41.980  22.769  25.903  1.00  0.00     0.016 A 
ATOM     31  C   UNL A   1      42.265  22.879  28.692  1.00  0.00     0.010 A 
ATOM     32  C   UNL A   1      42.290  23.981  26.536  1.00  0.00     0.010 A 
ATOM     33  C   UNL A   1      42.426  24.045  27.935  1.00  0.00    -0.014 A 
BRANCH  33  34
ATOM     34  C   UNL A   1      42.693  25.324  28.635  1.00  0.00     0.031 A 
ATOM     35  C   UNL A   1      44.085  25.660  29.086  1.00  0.00     0.074 A 
ATOM     36  C   UNL A   1      41.699  26.216  28.804  1.00  0.00     0.049 A 
ATOM     37  N   UNL A   1      44.510  26.717  29.729  1.00  0.00    -0.248 NA
ATOM     38  C   UNL A   1      45.135  24.682  28.767  1.00  0.00     0.031 C 
ATOM     39  C   UNL A   1      40.318  26.041  28.352  1.00  0.00     0.029 A 
ATOM     40  N   UNL A   1      41.706  27.457  29.390  1.00  0.00    -0.354 N 
ATOM     41  C   UNL A   1      45.875  26.526  29.908  1.00  0.00     0.074 A 
ATOM     42  C   UNL A   1      46.203  25.246  29.315  1.00  0.00     0.031 C 
ATOM     43  C   UNL A   1      39.614  27.142  28.664  1.00  0.00     0.029 A 
ATOM     44  C   UNL A   1      40.481  28.079  29.372  1.00  0.00     0.049 A 
ATOM     45  H   UNL A   1      42.511  27.862  29.785  1.00  0.00     0.167 HD
ATOM     46  C   UNL A   1      46.774  27.340  30.510  1.00  0.00     0.031 A 
ATOM     47  C   UNL A   1      40.095  29.261  29.886  1.00  0.00     0.031 A 
ATOM     48  C   UNL A   1      46.455  28.615  31.097  1.00  0.00     0.049 A 
ATOM     49  C   UNL A   1      41.097  30.115  30.611  1.00  0.00     0.074 A 
ATOM     50  C   UNL A   1      47.300  29.507  31.734  1.00  0.00     0.029 A 
ATOM     51  N   UNL A   1      45.190  29.180  31.113  1.00  0.00    -0.354 N 
ATOM     52  N   UNL A   1      42.378  29.909  30.796  1.00  0.00    -0.248 NA
ATOM     53  C   UNL A   1      40.596  31.364  31.205  1.00  0.00     0.031 C 
ATOM     54  C   UNL A   1      46.538  30.597  32.170  1.00  0.00     0.029 A 
ATOM     55  C   UNL A   1      45.228  30.401  31.767  1.00  0.00     0.049 A 
ATOM     56  H   UNL A   1      44.385  28.775  30.718  1.00  0.00     0.167 HD
ATOM     57  C   UNL A   1      42.838  31.004  31.514  1.00  0.00     0.074 A 
ATOM     58  C   UNL A   1      41.703  31.882  31.718  1.00  0.00     0.031 C 
ATOM     59  C   UNL A   1      44.090  31.259  31.966  1.00  0.00     0.031 A 
BRANCH  46  60
ATOM     60  C   UNL A   1      48.190  26.851  30.599  1.00  0.00    -0.014 A 
ATOM     61  C   UNL A   1      49.142  27.199  29.630  1.00  0.00     0.009 A 
ATOM     62  C   UNL A   1      48.579  26.051  31.684  1.00  0.00     0.009 A 
ATOM     63  C   UNL A   1      50.453  26.728  29.731  1.00  0.00     0.001 A 
ATOM     64  C   UNL A   1      49.895  25.598  31.793  1.00  0.00     0.001 A 
ATOM     65  C   UNL A   1      50.829  25.932  30.813  1.00  0.00     0.000 A 
ENDBRANCH  46  60
BRANCH  47  66
ATOM     66  C   UNL A   1      38.682  29.699  29.761  1.00  0.00    -0.014 A 
ATOM     67  C   UNL A   1      37.724  29.296  30.702  1.00  0.00     0.009 A 
ATOM     68  C   UNL A   1      38.287  30.518  28.693  1.00  0.00     0.009 A 
ATOM     69  C   UNL A   1      36.392  29.694  30.566  1.00  0.00     0.001 A 
ATOM     70  C   UNL A   1      36.960  30.933  28.573  1.00  0.00     0.001 A 
ATOM     71  C   UNL A   1      36.012  30.515  29.505  1.00  0.00     0.000 A 
ENDBRANCH  47  66
BRANCH  59  72
ATOM     72  C   UNL A   1      44.299  32.546  32.709  1.00  0.00    -0.014 A 
ATOM     73  C   UNL A   1      44.162  32.606  34.104  1.00  0.00     0.009 A 
ATOM     74  C   UNL A   1      44.667  33.704  32.007  1.00  0.00     0.009 A 
ATOM     75  C   UNL A   1      44.366  33.810  34.780  1.00  0.00     0.001 A 
ATOM     76  C   UNL A   1      44.890  34.902  32.688  1.00  0.00     0.001 A 
ATOM     77  C   UNL A   1      44.733  34.956  34.072  1.00  0.00     0.000 A 
ENDBRANCH  59  72
ENDBRANCH  33  34
ENDBRANCH  26  28
ENDBRANCH  25  26
ENDBRANCH  24  25
ENDBRANCH   1  24
TORSDOF 15
ENDMDL
MODEL 3
REMARK VINA RESULT:      -9.1      1.118      2.149
REMARK SMILES Cc1ccc(O)c(C(=O)NCc2ccc(C(=O)OCCOC(=O)c3ccc(-c4c5nc(c(-c6ccccc6)c6ccc([nH]6)c(-c6ccccc6)c6nc(c(-c7ccccc7)c7ccc4[nH]7)C=C6)C=C5)cc3)o2)c1
REMARK SMILES IDX 19 1 18 2 16 3 17 4 15 5 12 6 13 7 72 8 14 9 11 10 10 11
REMARK SMILES IDX 8 12 9 13 7 15 1 16 2 17 3 18 73 19 4 20 5 21 6 22 20 24
REMARK SMILES IDX 21 25 22 26 23 27 24 28 25 29 71 30 26 31 70 32 27 33 28 34
REMARK SMILES IDX 29 35 64 36 30 37 69 38 63 39 65 40 31 41 68 42 62 43 61 44
REMARK SMILES IDX 32 46 54 47 39 48 53 49 40 50 43 51 52 52 66 53 41 54 42 55
REMARK SMILES IDX 51 57 67 58 44 59 33 60 34 61 38 62 35 63 37 64 36 65 55 66
REMARK SMILES IDX 56 67 60 68 57 69 59 70 58 71 45 72 46 73 50 74 47 75 49 76
REMARK SMILES IDX 48 77
REMARK H PARENT 10 14 6 23 65 45 43 56
REMARK Flexibility Score: inf
ROOT
ATOM      1  C   UNL A   1      44.495  18.109  25.875  1.00  0.00     0.275 C 
ENDROOT
BRANCH   1   2
ATOM      2  O   UNL A   1      44.915  18.936  24.775  1.00  0.00    -0.456 OA
BRANCH   2   3
ATOM      3  C   UNL A   1      46.003  19.728  25.006  1.00  0.00     0.374 C 
ATOM      4  O   UNL A   1      47.138  19.309  25.202  1.00  0.00    -0.242 OA
BRANCH   3   5
ATOM      5  C   UNL A   1      45.640  21.118  24.852  1.00  0.00     0.211 A 
ATOM      6  C   UNL A   1      46.043  23.275  25.111  1.00  0.00     0.124 A 
ATOM      7  C   UNL A   1      45.035  23.174  24.174  1.00  0.00     0.048 A 
ATOM      8  O   UNL A   1      46.335  22.036  25.597  1.00  0.00    -0.452 OA
ATOM      9  C   UNL A   1      44.780  21.790  24.004  1.00  0.00     0.058 A 
BRANCH   6  10
ATOM     10  C   UNL A   1      46.919  24.380  25.591  1.00  0.00     0.191 C 
BRANCH  10  11
ATOM     11  N   UNL A   1      46.306  25.634  25.195  1.00  0.00    -0.345 N 
ATOM     12  C   UNL A   1      46.784  26.859  24.826  1.00  0.00     0.255 C 
ATOM     13  O   UNL A   1      45.939  27.706  24.513  1.00  0.00    -0.269 OA
ATOM     14  H   UNL A   1      45.323  25.591  25.192  1.00  0.00     0.164 HD
BRANCH  12  15
ATOM     15  C   UNL A   1      48.223  27.246  24.741  1.00  0.00     0.081 A 
ATOM     16  C   UNL A   1      51.005  28.929  26.749  1.00  0.00     0.044 C 
ATOM     17  C   UNL A   1      50.280  28.234  25.632  1.00  0.00    -0.050 A 
ATOM     18  C   UNL A   1      50.954  27.912  24.453  1.00  0.00     0.007 A 
ATOM     19  C   UNL A   1      48.913  27.930  25.749  1.00  0.00     0.021 A 
ATOM     20  C   UNL A   1      50.277  27.279  23.415  1.00  0.00     0.047 A 
ATOM     21  C   UNL A   1      48.929  26.948  23.559  1.00  0.00     0.128 A 
BRANCH  21  22
ATOM     22  O   UNL A   1      48.363  26.334  22.470  1.00  0.00    -0.507 OA
ATOM     23  H   UNL A   1      47.851  25.557  22.583  1.00  0.00     0.293 HD
ENDBRANCH  21  22
ENDBRANCH  12  15
ENDBRANCH  10  11
ENDBRANCH   6  10
ENDBRANCH   3   5
ENDBRANCH   2   3
ENDBRANCH   1   2
BRANCH   1  24
ATOM     24  C   UNL A   1      42.983  18.221  26.114  1.00  0.00     0.275 C 
BRANCH  24  25
ATOM     25  O   UNL A   1      42.388  19.290  25.351  1.00  0.00    -0.458 OA
BRANCH  25  26
ATOM     26  C   UNL A   1      41.229  19.780  25.850  1.00  0.00     0.338 C 
ATOM     27  O   UNL A   1      40.144  19.223  25.872  1.00  0.00    -0.246 OA
BRANCH  26  28
ATOM     28  C   UNL A   1      41.471  21.070  26.522  1.00  0.00     0.060 A 
ATOM     29  C   UNL A   1      41.722  22.177  25.712  1.00  0.00     0.016 A 
ATOM     30  C   UNL A   1      41.532  21.191  27.911  1.00  0.00     0.016 A 
ATOM     31  C   UNL A   1      42.033  23.411  26.271  1.00  0.00     0.010 A 
ATOM     32  C   UNL A   1      41.850  22.433  28.479  1.00  0.00     0.010 A 
ATOM     33  C   UNL A   1      42.109  23.549  27.661  1.00  0.00    -0.014 A 
BRANCH  33  34
ATOM     34  C   UNL A   1      42.507  24.858  28.232  1.00  0.00     0.031 A 
ATOM     35  C   UNL A   1      41.478  25.931  28.445  1.00  0.00     0.074 A 
ATOM     36  C   UNL A   1      43.778  25.060  28.626  1.00  0.00     0.049 A 
ATOM     37  N   UNL A   1      41.635  27.143  28.912  1.00  0.00    -0.248 NA
ATOM     38  C   UNL A   1      40.091  25.593  28.091  1.00  0.00     0.031 C 
ATOM     39  C   UNL A   1      44.858  24.077  28.537  1.00  0.00     0.029 A 
ATOM     40  N   UNL A   1      44.370  26.160  29.194  1.00  0.00    -0.354 N 
ATOM     41  C   UNL A   1      40.372  27.721  28.893  1.00  0.00     0.074 A 
ATOM     42  C   UNL A   1      39.462  26.729  28.358  1.00  0.00     0.031 C 
ATOM     43  C   UNL A   1      45.979  24.613  29.049  1.00  0.00     0.029 A 
ATOM     44  C   UNL A   1      45.707  25.987  29.461  1.00  0.00     0.049 A 
ATOM     45  H   UNL A   1      43.884  26.993  29.391  1.00  0.00     0.167 HD
ATOM     46  C   UNL A   1      40.001  28.962  29.286  1.00  0.00     0.031 A 
ATOM     47  C   UNL A   1      46.615  26.845  29.962  1.00  0.00     0.031 A 
ATOM     48  C   UNL A   1      40.900  29.951  29.822  1.00  0.00     0.049 A 
ATOM     49  C   UNL A   1      46.193  28.241  30.325  1.00  0.00     0.074 A 
ATOM     50  C   UNL A   1      40.615  31.239  30.241  1.00  0.00     0.029 A 
ATOM     51  N   UNL A   1      42.257  29.757  30.018  1.00  0.00    -0.354 N 
ATOM     52  N   UNL A   1      45.000  28.782  30.276  1.00  0.00    -0.248 NA
ATOM     53  C   UNL A   1      47.246  29.147  30.805  1.00  0.00     0.031 C 
ATOM     54  C   UNL A   1      41.810  31.838  30.656  1.00  0.00     0.029 A 
ATOM     55  C   UNL A   1      42.829  30.909  30.533  1.00  0.00     0.049 A 
ATOM     56  H   UNL A   1      42.744  28.924  29.821  1.00  0.00     0.167 HD
ATOM     57  C   UNL A   1      45.157  30.084  30.730  1.00  0.00     0.074 A 
ATOM     58  C   UNL A   1      46.556  30.248  31.066  1.00  0.00     0.031 C 
ATOM     59  C   UNL A   1      44.223  31.058  30.856  1.00  0.00     0.031 A 
BRANCH  46  60
ATOM     60  C   UNL A   1      38.559  29.336  29.107  1.00  0.00    -0.014 A 
ATOM     61  C   UNL A   1      37.656  29.283  30.179  1.00  0.00     0.009 A 
ATOM     62  C   UNL A   1      38.106  29.770  27.853  1.00  0.00     0.009 A 
ATOM     63  C   UNL A   1      36.316  29.631  29.989  1.00  0.00     0.001 A 
ATOM     64  C   UNL A   1      36.771  30.137  27.670  1.00  0.00     0.001 A 
ATOM     65  C   UNL A   1      35.877  30.060  28.737  1.00  0.00     0.000 A 
ENDBRANCH  46  60
BRANCH  47  66
ATOM     66  C   UNL A   1      48.027  26.418  30.124  1.00  0.00    -0.014 A 
ATOM     67  C   UNL A   1      48.950  26.590  29.082  1.00  0.00     0.009 A 
ATOM     68  C   UNL A   1      48.456  25.831  31.324  1.00  0.00     0.009 A 
ATOM     69  C   UNL A   1      50.272  26.167  29.234  1.00  0.00     0.001 A 
ATOM     70  C   UNL A   1      49.784  25.430  31.481  1.00  0.00     0.001 A 
ATOM     71  C   UNL A   1      50.689  25.591  30.434  1.00  0.00     0.000 A 
ENDBRANCH  47  66
BRANCH  59  72
ATOM     72  C   UNL A   1      44.684  32.380  31.396  1.00  0.00    -0.014 A 
ATOM     73  C   UNL A   1      45.117  33.401  30.536  1.00  0.00     0.009 A 
ATOM     74  C   UNL A   1      44.655  32.617  32.779  1.00  0.00     0.009 A 
ATOM     75  C   UNL A   1      45.537  34.627  31.055  1.00  0.00     0.001 A 
ATOM     76  C   UNL A   1      45.056  33.850  33.293  1.00  0.00     0.001 A 
ATOM     77  C   UNL A   1      45.503  34.852  32.432  1.00  0.00     0.000 A 
ENDBRANCH  59  72
ENDBRANCH  33  34
ENDBRANCH  26  28
ENDBRANCH  25  26
ENDBRANCH  24  25
ENDBRANCH   1  24
TORSDOF 15
ENDMDL
