MODEL 1
REMARK VINA RESULT:      -8.8      0.000      0.000
REMARK SMILES O=C(OCCOC(=O)c1ccccc1C[N@H+]1CCCC[C@@H]1CCn1cccn1)c1ccc(-c2c3nc(c(-c4ccccc4)c4ccc([nH]4)c(-c4ccccc4)c4nc(c(-c5ccccc5)c5ccc2[nH]5)C=C4)C=C3)cc1
REMARK SMILES IDX 6 1 5 2 4 3 3 4 2 5 1 6 29 7 30 8 76 9 31 10 75 11 32 12
REMARK SMILES IDX 33 13 34 14 69 15 35 16 74 17 68 18 70 19 36 20 73 21 67 22
REMARK SMILES IDX 66 23 37 25 59 26 44 27 58 28 45 29 48 30 57 31 71 32 46 33
REMARK SMILES IDX 47 34 56 36 72 37 49 38 38 39 39 40 43 41 40 42 42 43 41 44
REMARK SMILES IDX 60 45 61 46 65 47 62 48 64 49 63 50 50 51 51 52 55 53 52 54
REMARK SMILES IDX 54 55 53 56 7 57 8 58 9 59 10 60 14 61 11 62 13 63 12 64
REMARK SMILES IDX 15 65 16 66 17 67 21 68 18 70 20 71 19 72 22 73 23 74 24 75
REMARK SMILES IDX 25 76 28 77 26 78 27 79
REMARK H PARENT 70 24 48 35 16 69
REMARK Flexibility Score: inf
ROOT
ATOM      1  O   UNL A   1      35.492  34.238  30.198  1.00  0.00    -0.458 OA
ENDROOT
BRANCH   1   2
ATOM      2  C   UNL A   1      34.186  34.578  29.713  1.00  0.00     0.275 C 
BRANCH   2   3
ATOM      3  C   UNL A   1      33.985  33.971  28.325  1.00  0.00     0.275 C 
BRANCH   3   4
ATOM      4  O   UNL A   1      35.018  33.111  27.803  1.00  0.00    -0.458 OA
BRANCH   4   5
ATOM      5  C   UNL A   1      34.888  31.774  27.925  1.00  0.00     0.338 C 
ATOM      6  O   UNL A   1      33.902  31.138  27.589  1.00  0.00    -0.246 OA
BRANCH   5   7
ATOM      7  C   UNL A   1      36.169  31.133  28.307  1.00  0.00     0.060 A 
ATOM      8  C   UNL A   1      37.301  31.871  28.667  1.00  0.00     0.016 A 
ATOM      9  C   UNL A   1      36.215  29.733  28.309  1.00  0.00     0.016 A 
ATOM     10  C   UNL A   1      38.496  31.211  28.930  1.00  0.00     0.010 A 
ATOM     11  C   UNL A   1      37.399  29.074  28.604  1.00  0.00     0.010 A 
ATOM     12  C   UNL A   1      38.555  29.813  28.853  1.00  0.00    -0.014 A 
BRANCH  12  13
ATOM     13  C   UNL A   1      39.841  29.153  29.075  1.00  0.00     0.031 A 
ATOM     14  C   UNL A   1      40.133  28.761  30.482  1.00  0.00     0.074 A 
ATOM     15  C   UNL A   1      40.694  28.828  28.081  1.00  0.00     0.049 A 
ATOM     16  N   UNL A   1      41.041  29.245  31.264  1.00  0.00    -0.248 NA
ATOM     17  C   UNL A   1      39.255  27.775  31.126  1.00  0.00     0.031 C 
ATOM     18  C   UNL A   1      40.483  28.888  26.631  1.00  0.00     0.029 A 
ATOM     19  N   UNL A   1      41.939  28.278  28.178  1.00  0.00    -0.354 N 
ATOM     20  C   UNL A   1      40.968  28.519  32.451  1.00  0.00     0.074 A 
ATOM     21  C   UNL A   1      39.778  27.708  32.353  1.00  0.00     0.031 C 
ATOM     22  C   UNL A   1      41.454  28.185  26.003  1.00  0.00     0.029 A 
ATOM     23  C   UNL A   1      42.444  27.779  26.983  1.00  0.00     0.049 A 
ATOM     24  H   UNL A   1      42.439  28.240  29.025  1.00  0.00     0.167 HD
ATOM     25  C   UNL A   1      41.998  28.499  33.343  1.00  0.00     0.031 A 
ATOM     26  C   UNL A   1      43.587  27.071  26.815  1.00  0.00     0.031 A 
ATOM     27  C   UNL A   1      42.937  29.561  33.099  1.00  0.00     0.049 A 
ATOM     28  C   UNL A   1      44.457  27.351  27.978  1.00  0.00     0.074 A 
ATOM     29  C   UNL A   1      42.873  30.940  33.104  1.00  0.00     0.029 A 
ATOM     30  N   UNL A   1      44.084  29.241  32.415  1.00  0.00    -0.354 N 
ATOM     31  N   UNL A   1      44.990  28.517  28.206  1.00  0.00    -0.248 NA
ATOM     32  C   UNL A   1      44.372  26.464  29.126  1.00  0.00     0.031 C 
ATOM     33  C   UNL A   1      43.683  31.342  32.003  1.00  0.00     0.029 A 
ATOM     34  C   UNL A   1      44.253  30.195  31.447  1.00  0.00     0.049 A 
ATOM     35  H   UNL A   1      44.674  28.471  32.587  1.00  0.00     0.167 HD
ATOM     36  C   UNL A   1      44.895  28.682  29.579  1.00  0.00     0.074 A 
ATOM     37  C   UNL A   1      44.595  27.349  30.102  1.00  0.00     0.031 C 
ATOM     38  C   UNL A   1      44.792  29.924  30.133  1.00  0.00     0.031 A 
BRANCH  25  39
ATOM     39  C   UNL A   1      42.372  27.303  34.184  1.00  0.00    -0.014 A 
ATOM     40  C   UNL A   1      43.381  26.437  33.716  1.00  0.00     0.009 A 
ATOM     41  C   UNL A   1      41.578  26.833  35.245  1.00  0.00     0.009 A 
ATOM     42  C   UNL A   1      43.522  25.139  34.221  1.00  0.00     0.001 A 
ATOM     43  C   UNL A   1      41.742  25.549  35.776  1.00  0.00     0.001 A 
ATOM     44  C   UNL A   1      42.693  24.692  35.242  1.00  0.00     0.000 A 
ENDBRANCH  25  39
BRANCH  26  45
ATOM     45  C   UNL A   1      43.864  25.956  25.884  1.00  0.00    -0.014 A 
ATOM     46  C   UNL A   1      45.172  25.677  25.456  1.00  0.00     0.009 A 
ATOM     47  C   UNL A   1      42.878  24.980  25.651  1.00  0.00     0.009 A 
ATOM     48  C   UNL A   1      45.488  24.448  24.855  1.00  0.00     0.001 A 
ATOM     49  C   UNL A   1      43.193  23.753  25.054  1.00  0.00     0.001 A 
ATOM     50  C   UNL A   1      44.502  23.482  24.670  1.00  0.00     0.000 A 
ENDBRANCH  26  45
BRANCH  38  51
ATOM     51  C   UNL A   1      45.001  31.125  29.245  1.00  0.00    -0.014 A 
ATOM     52  C   UNL A   1      43.975  31.697  28.470  1.00  0.00     0.009 A 
ATOM     53  C   UNL A   1      46.224  31.807  29.338  1.00  0.00     0.009 A 
ATOM     54  C   UNL A   1      44.177  32.910  27.799  1.00  0.00     0.001 A 
ATOM     55  C   UNL A   1      46.417  33.026  28.687  1.00  0.00     0.001 A 
ATOM     56  C   UNL A   1      45.395  33.576  27.916  1.00  0.00     0.000 A 
ENDBRANCH  38  51
ENDBRANCH  12  13
ENDBRANCH   5   7
ENDBRANCH   4   5
ENDBRANCH   3   4
ENDBRANCH   2   3
ENDBRANCH   1   2
BRANCH   1  57
ATOM     57  C   UNL A   1      35.663  34.278  31.547  1.00  0.00     0.338 C 
ATOM     58  O   UNL A   1      35.320  35.139  32.325  1.00  0.00    -0.246 OA
BRANCH  57  59
ATOM     59  C   UNL A   1      36.302  33.001  31.915  1.00  0.00     0.068 A 
ATOM     60  C   UNL A   1      35.493  31.861  31.974  1.00  0.00     0.016 A 
ATOM     61  C   UNL A   1      37.682  32.929  32.170  1.00  0.00     0.021 A 
ATOM     62  C   UNL A   1      36.070  30.610  32.173  1.00  0.00     0.001 A 
ATOM     63  C   UNL A   1      38.247  31.652  32.305  1.00  0.00     0.010 A 
ATOM     64  C   UNL A   1      37.451  30.504  32.304  1.00  0.00     0.001 A 
BRANCH  61  65
ATOM     65  C   UNL A   1      38.510  34.181  32.426  1.00  0.00     0.300 C 
BRANCH  65  66
ATOM     66  N   UNL A   1      39.980  34.042  32.236  1.00  0.00    -0.329 N 
ATOM     67  C   UNL A   1      40.336  34.239  30.811  1.00  0.00     0.262 C 
ATOM     68  C   UNL A   1      40.802  34.918  33.115  1.00  0.00     0.186 C 
ATOM     69  H   UNL A   1      40.209  33.090  32.520  1.00  0.00     0.348 HD
ATOM     70  C   UNL A   1      41.815  34.034  30.503  1.00  0.00     0.062 C 
ATOM     71  C   UNL A   1      42.306  34.674  32.850  1.00  0.00     0.065 C 
ATOM     72  C   UNL A   1      42.672  34.913  31.394  1.00  0.00     0.012 C 
BRANCH  68  73
ATOM     73  C   UNL A   1      40.510  34.703  34.626  1.00  0.00     0.088 C 
BRANCH  73  74
ATOM     74  C   UNL A   1      40.970  33.359  35.221  1.00  0.00     0.150 C 
BRANCH  74  75
ATOM     75  N   UNL A   1      39.924  32.388  35.492  1.00  0.00    -0.273 N 
ATOM     76  C   UNL A   1      40.038  31.027  35.442  1.00  0.00     0.108 A 
ATOM     77  N   UNL A   1      38.717  32.786  35.927  1.00  0.00    -0.182 NA
ATOM     78  C   UNL A   1      38.806  30.523  35.794  1.00  0.00     0.042 A 
ATOM     79  C   UNL A   1      38.024  31.657  36.066  1.00  0.00     0.135 A 
ENDBRANCH  74  75
ENDBRANCH  73  74
ENDBRANCH  68  73
ENDBRANCH  65  66
ENDBRANCH  61  65
ENDBRANCH  57  59
ENDBRANCH   1  57
TORSDOF 16
ENDMDL
MODEL 2
REMARK VINA RESULT:      -8.3      4.196      7.575
REMARK SMILES O=C(OCCOC(=O)c1ccccc1C[N@H+]1CCCC[C@@H]1CCn1cccn1)c1ccc(-c2c3nc(c(-c4ccccc4)c4ccc([nH]4)c(-c4ccccc4)c4nc(c(-c5ccccc5)c5ccc2[nH]5)C=C4)C=C3)cc1
REMARK SMILES IDX 6 1 5 2 4 3 3 4 2 5 1 6 29 7 30 8 76 9 31 10 75 11 32 12
REMARK SMILES IDX 33 13 34 14 69 15 35 16 74 17 68 18 70 19 36 20 73 21 67 22
REMARK SMILES IDX 66 23 37 25 59 26 44 27 58 28 45 29 48 30 57 31 71 32 46 33
REMARK SMILES IDX 47 34 56 36 72 37 49 38 38 39 39 40 43 41 40 42 42 43 41 44
REMARK SMILES IDX 60 45 61 46 65 47 62 48 64 49 63 50 50 51 51 52 55 53 52 54
REMARK SMILES IDX 54 55 53 56 7 57 8 58 9 59 10 60 14 61 11 62 13 63 12 64
REMARK SMILES IDX 15 65 16 66 17 67 21 68 18 70 20 71 19 72 22 73 23 74 24 75
REMARK SMILES IDX 25 76 28 77 26 78 27 79
REMARK H PARENT 70 24 48 35 16 69
REMARK Flexibility Score: inf
ROOT
ATOM      1  O   UNL A   1      32.676  29.948  25.410  1.00  0.00    -0.458 OA
ENDROOT
BRANCH   1   2
ATOM      2  C   UNL A   1      32.806  30.001  26.837  1.00  0.00     0.275 C 
BRANCH   2   3
ATOM      3  C   UNL A   1      33.248  31.403  27.256  1.00  0.00     0.275 C 
BRANCH   3   4
ATOM      4  O   UNL A   1      34.229  31.520  28.307  1.00  0.00    -0.458 OA
BRANCH   4   5
ATOM      5  C   UNL A   1      35.435  32.058  28.028  1.00  0.00     0.338 C 
ATOM      6  O   UNL A   1      35.611  33.197  27.627  1.00  0.00    -0.246 OA
BRANCH   5   7
ATOM      7  C   UNL A   1      36.542  31.180  28.476  1.00  0.00     0.060 A 
ATOM      8  C   UNL A   1      37.723  31.683  29.030  1.00  0.00     0.016 A 
ATOM      9  C   UNL A   1      36.366  29.798  28.337  1.00  0.00     0.016 A 
ATOM     10  C   UNL A   1      38.758  30.812  29.349  1.00  0.00     0.010 A 
ATOM     11  C   UNL A   1      37.387  28.926  28.688  1.00  0.00     0.010 A 
ATOM     12  C   UNL A   1      38.605  29.435  29.135  1.00  0.00    -0.014 A 
BRANCH  12  13
ATOM     13  C   UNL A   1      39.734  28.552  29.423  1.00  0.00     0.031 A 
ATOM     14  C   UNL A   1      40.097  28.414  30.861  1.00  0.00     0.074 A 
ATOM     15  C   UNL A   1      40.374  27.827  28.482  1.00  0.00     0.049 A 
ATOM     16  N   UNL A   1      41.173  28.825  31.447  1.00  0.00    -0.248 NA
ATOM     17  C   UNL A   1      39.107  27.829  31.776  1.00  0.00     0.031 C 
ATOM     18  C   UNL A   1      40.013  27.622  27.075  1.00  0.00     0.029 A 
ATOM     19  N   UNL A   1      41.473  27.032  28.626  1.00  0.00    -0.354 N 
ATOM     20  C   UNL A   1      41.084  28.411  32.774  1.00  0.00     0.074 A 
ATOM     21  C   UNL A   1      39.744  27.904  32.947  1.00  0.00     0.031 C 
ATOM     22  C   UNL A   1      40.728  26.590  26.570  1.00  0.00     0.029 A 
ATOM     23  C   UNL A   1      41.714  26.182  27.553  1.00  0.00     0.049 A 
ATOM     24  H   UNL A   1      42.048  27.058  29.424  1.00  0.00     0.167 HD
ATOM     25  C   UNL A   1      42.183  28.339  33.578  1.00  0.00     0.031 A 
ATOM     26  C   UNL A   1      42.649  25.202  27.485  1.00  0.00     0.031 A 
ATOM     27  C   UNL A   1      43.294  29.068  33.029  1.00  0.00     0.049 A 
ATOM     28  C   UNL A   1      43.689  25.511  28.490  1.00  0.00     0.074 A 
ATOM     29  C   UNL A   1      43.531  30.391  32.713  1.00  0.00     0.029 A 
ATOM     30  N   UNL A   1      44.257  28.345  32.368  1.00  0.00    -0.354 N 
ATOM     31  N   UNL A   1      44.485  26.537  28.401  1.00  0.00    -0.248 NA
ATOM     32  C   UNL A   1      43.548  24.939  29.818  1.00  0.00     0.031 C 
ATOM     33  C   UNL A   1      44.276  30.342  31.498  1.00  0.00     0.029 A 
ATOM     34  C   UNL A   1      44.514  29.000  31.193  1.00  0.00     0.049 A 
ATOM     35  H   UNL A   1      44.681  27.513  32.680  1.00  0.00     0.167 HD
ATOM     36  C   UNL A   1      44.589  27.012  29.699  1.00  0.00     0.074 A 
ATOM     37  C   UNL A   1      44.070  25.934  30.540  1.00  0.00     0.031 C 
ATOM     38  C   UNL A   1      44.824  28.333  29.949  1.00  0.00     0.031 A 
BRANCH  25  39
ATOM     39  C   UNL A   1      42.384  27.297  34.651  1.00  0.00    -0.014 A 
ATOM     40  C   UNL A   1      42.797  26.005  34.271  1.00  0.00     0.009 A 
ATOM     41  C   UNL A   1      41.899  27.445  35.963  1.00  0.00     0.009 A 
ATOM     42  C   UNL A   1      42.642  24.907  35.126  1.00  0.00     0.001 A 
ATOM     43  C   UNL A   1      41.780  26.356  36.833  1.00  0.00     0.001 A 
ATOM     44  C   UNL A   1      42.121  25.082  36.403  1.00  0.00     0.000 A 
ENDBRANCH  25  39
BRANCH  26  45
ATOM     45  C   UNL A   1      42.566  23.880  26.828  1.00  0.00    -0.014 A 
ATOM     46  C   UNL A   1      43.616  23.402  26.026  1.00  0.00     0.009 A 
ATOM     47  C   UNL A   1      41.582  22.959  27.233  1.00  0.00     0.009 A 
ATOM     48  C   UNL A   1      43.698  22.046  25.677  1.00  0.00     0.001 A 
ATOM     49  C   UNL A   1      41.665  21.605  26.888  1.00  0.00     0.001 A 
ATOM     50  C   UNL A   1      42.732  21.146  26.122  1.00  0.00     0.000 A 
ENDBRANCH  26  45
BRANCH  38  51
ATOM     51  C   UNL A   1      45.183  29.229  28.790  1.00  0.00    -0.014 A 
ATOM     52  C   UNL A   1      44.222  29.880  27.995  1.00  0.00     0.009 A 
ATOM     53  C   UNL A   1      46.533  29.570  28.617  1.00  0.00     0.009 A 
ATOM     54  C   UNL A   1      44.608  30.833  27.045  1.00  0.00     0.001 A 
ATOM     55  C   UNL A   1      46.914  30.536  27.685  1.00  0.00     0.001 A 
ATOM     56  C   UNL A   1      45.953  31.166  26.898  1.00  0.00     0.000 A 
ENDBRANCH  38  51
ENDBRANCH  12  13
ENDBRANCH   5   7
ENDBRANCH   4   5
ENDBRANCH   3   4
ENDBRANCH   2   3
ENDBRANCH   1   2
BRANCH   1  57
ATOM     57  C   UNL A   1      32.895  28.737  24.829  1.00  0.00     0.338 C 
ATOM     58  O   UNL A   1      33.944  28.151  24.680  1.00  0.00    -0.246 OA
BRANCH  57  59
ATOM     59  C   UNL A   1      31.565  28.213  24.467  1.00  0.00     0.068 A 
ATOM     60  C   UNL A   1      30.859  28.872  23.455  1.00  0.00     0.016 A 
ATOM     61  C   UNL A   1      31.039  27.073  25.098  1.00  0.00     0.021 A 
ATOM     62  C   UNL A   1      29.668  28.334  22.975  1.00  0.00     0.001 A 
ATOM     63  C   UNL A   1      29.872  26.516  24.555  1.00  0.00     0.010 A 
ATOM     64  C   UNL A   1      29.194  27.138  23.504  1.00  0.00     0.001 A 
BRANCH  61  65
ATOM     65  C   UNL A   1      31.629  26.540  26.397  1.00  0.00     0.300 C 
BRANCH  65  66
ATOM     66  N   UNL A   1      31.669  25.059  26.537  1.00  0.00    -0.329 N 
ATOM     67  C   UNL A   1      30.296  24.502  26.521  1.00  0.00     0.262 C 
ATOM     68  C   UNL A   1      32.535  24.367  25.544  1.00  0.00     0.186 C 
ATOM     69  H   UNL A   1      32.104  24.877  27.442  1.00  0.00     0.348 HD
ATOM     70  C   UNL A   1      30.230  22.996  26.743  1.00  0.00     0.062 C 
ATOM     71  C   UNL A   1      32.520  22.841  25.798  1.00  0.00     0.065 C 
ATOM     72  C   UNL A   1      31.112  22.270  25.745  1.00  0.00     0.012 C 
BRANCH  68  73
ATOM     73  C   UNL A   1      34.004  24.872  25.567  1.00  0.00     0.088 C 
BRANCH  73  74
ATOM     74  C   UNL A   1      34.883  24.455  24.374  1.00  0.00     0.150 C 
BRANCH  74  75
ATOM     75  N   UNL A   1      35.851  23.403  24.631  1.00  0.00    -0.273 N 
ATOM     76  C   UNL A   1      36.632  22.764  23.707  1.00  0.00     0.108 A 
ATOM     77  N   UNL A   1      36.130  23.020  25.889  1.00  0.00    -0.182 NA
ATOM     78  C   UNL A   1      37.404  21.866  24.408  1.00  0.00     0.042 A 
ATOM     79  C   UNL A   1      37.038  22.056  25.750  1.00  0.00     0.135 A 
ENDBRANCH  74  75
ENDBRANCH  73  74
ENDBRANCH  68  73
ENDBRANCH  65  66
ENDBRANCH  61  65
ENDBRANCH  57  59
ENDBRANCH   1  57
TORSDOF 16
ENDMDL
MODEL 3
REMARK VINA RESULT:      -8.3      3.775      7.212
REMARK SMILES O=C(OCCOC(=O)c1ccccc1C[N@H+]1CCCC[C@@H]1CCn1cccn1)c1ccc(-c2c3nc(c(-c4ccccc4)c4ccc([nH]4)c(-c4ccccc4)c4nc(c(-c5ccccc5)c5ccc2[nH]5)C=C4)C=C3)cc1
REMARK SMILES IDX 6 1 5 2 4 3 3 4 2 5 1 6 29 7 30 8 76 9 31 10 75 11 32 12
REMARK SMILES IDX 33 13 34 14 69 15 35 16 74 17 68 18 70 19 36 20 73 21 67 22
REMARK SMILES IDX 66 23 37 25 59 26 44 27 58 28 45 29 48 30 57 31 71 32 46 33
REMARK SMILES IDX 47 34 56 36 72 37 49 38 38 39 39 40 43 41 40 42 42 43 41 44
REMARK SMILES IDX 60 45 61 46 65 47 62 48 64 49 63 50 50 51 51 52 55 53 52 54
REMARK SMILES IDX 54 55 53 56 7 57 8 58 9 59 10 60 14 61 11 62 13 63 12 64
REMARK SMILES IDX 15 65 16 66 17 67 21 68 18 70 20 71 19 72 22 73 23 74 24 75
REMARK SMILES IDX 25 76 28 77 26 78 27 79
REMARK H PARENT 70 24 48 35 16 69
REMARK Flexibility Score: inf
ROOT
ATOM      1  O   UNL A   1      32.659  29.162  26.633  1.00  0.00    -0.458 OA
ENDROOT
BRANCH   1   2
ATOM      2  C   UNL A   1      32.040  30.455  26.601  1.00  0.00     0.275 C 
BRANCH   2   3
ATOM      3  C   UNL A   1      32.895  31.447  27.389  1.00  0.00     0.275 C 
BRANCH   3   4
ATOM      4  O   UNL A   1      34.327  31.389  27.226  1.00  0.00    -0.458 OA
BRANCH   4   5
ATOM      5  C   UNL A   1      35.116  32.095  28.063  1.00  0.00     0.338 C 
ATOM      6  O   UNL A   1      34.793  33.138  28.607  1.00  0.00    -0.246 OA
BRANCH   5   7
ATOM      7  C   UNL A   1      36.340  31.342  28.425  1.00  0.00     0.060 A 
ATOM      8  C   UNL A   1      37.440  31.947  29.042  1.00  0.00     0.016 A 
ATOM      9  C   UNL A   1      36.365  29.972  28.135  1.00  0.00     0.016 A 
ATOM     10  C   UNL A   1      38.591  31.204  29.275  1.00  0.00     0.010 A 
ATOM     11  C   UNL A   1      37.503  29.223  28.399  1.00  0.00     0.010 A 
ATOM     12  C   UNL A   1      38.638  29.851  28.911  1.00  0.00    -0.014 A 
BRANCH  12  13
ATOM     13  C   UNL A   1      39.883  29.113  29.113  1.00  0.00     0.031 A 
ATOM     14  C   UNL A   1      40.208  28.768  30.525  1.00  0.00     0.074 A 
ATOM     15  C   UNL A   1      40.669  28.683  28.104  1.00  0.00     0.049 A 
ATOM     16  N   UNL A   1      41.180  29.222  31.246  1.00  0.00    -0.248 NA
ATOM     17  C   UNL A   1      39.293  27.877  31.252  1.00  0.00     0.031 C 
ATOM     18  C   UNL A   1      40.400  28.690  26.662  1.00  0.00     0.029 A 
ATOM     19  N   UNL A   1      41.876  28.053  28.178  1.00  0.00    -0.354 N 
ATOM     20  C   UNL A   1      41.109  28.559  32.469  1.00  0.00     0.074 A 
ATOM     21  C   UNL A   1      39.864  27.830  32.459  1.00  0.00     0.031 C 
ATOM     22  C   UNL A   1      41.292  27.892  26.031  1.00  0.00     0.029 A 
ATOM     23  C   UNL A   1      42.293  27.464  26.990  1.00  0.00     0.049 A 
ATOM     24  H   UNL A   1      42.408  28.018  29.005  1.00  0.00     0.167 HD
ATOM     25  C   UNL A   1      42.173  28.508  33.320  1.00  0.00     0.031 A 
ATOM     26  C   UNL A   1      43.378  26.670  26.812  1.00  0.00     0.031 A 
ATOM     27  C   UNL A   1      43.171  29.489  32.986  1.00  0.00     0.049 A 
ATOM     28  C   UNL A   1      44.314  26.942  27.924  1.00  0.00     0.074 A 
ATOM     29  C   UNL A   1      43.201  30.868  32.926  1.00  0.00     0.029 A 
ATOM     30  N   UNL A   1      44.263  29.057  32.273  1.00  0.00    -0.354 N 
ATOM     31  N   UNL A   1      44.935  28.076  28.073  1.00  0.00    -0.248 NA
ATOM     32  C   UNL A   1      44.218  26.118  29.116  1.00  0.00     0.031 C 
ATOM     33  C   UNL A   1      43.990  31.160  31.775  1.00  0.00     0.029 A 
ATOM     34  C   UNL A   1      44.455  29.951  31.253  1.00  0.00     0.049 A 
ATOM     35  H   UNL A   1      44.805  28.257  32.460  1.00  0.00     0.167 HD
ATOM     36  C   UNL A   1      44.910  28.311  29.438  1.00  0.00     0.074 A 
ATOM     37  C   UNL A   1      44.542  27.029  30.038  1.00  0.00     0.031 C 
ATOM     38  C   UNL A   1      44.917  29.582  29.935  1.00  0.00     0.031 A 
BRANCH  25  39
ATOM     39  C   UNL A   1      42.500  27.329  34.203  1.00  0.00    -0.014 A 
ATOM     40  C   UNL A   1      43.364  26.332  33.706  1.00  0.00     0.009 A 
ATOM     41  C   UNL A   1      41.768  27.011  35.360  1.00  0.00     0.009 A 
ATOM     42  C   UNL A   1      43.417  25.057  34.284  1.00  0.00     0.001 A 
ATOM     43  C   UNL A   1      41.848  25.750  35.961  1.00  0.00     0.001 A 
ATOM     44  C   UNL A   1      42.648  24.764  35.404  1.00  0.00     0.000 A 
ENDBRANCH  25  39
BRANCH  26  45
ATOM     45  C   UNL A   1      43.537  25.496  25.926  1.00  0.00    -0.014 A 
ATOM     46  C   UNL A   1      44.758  25.232  25.286  1.00  0.00     0.009 A 
ATOM     47  C   UNL A   1      42.575  24.469  25.949  1.00  0.00     0.009 A 
ATOM     48  C   UNL A   1      45.022  23.973  24.725  1.00  0.00     0.001 A 
ATOM     49  C   UNL A   1      42.838  23.212  25.392  1.00  0.00     0.001 A 
ATOM     50  C   UNL A   1      44.068  22.960  24.793  1.00  0.00     0.000 A 
ENDBRANCH  26  45
BRANCH  38  51
ATOM     51  C   UNL A   1      45.169  30.723  28.980  1.00  0.00    -0.014 A 
ATOM     52  C   UNL A   1      46.446  31.267  28.751  1.00  0.00     0.009 A 
ATOM     53  C   UNL A   1      44.112  31.134  28.154  1.00  0.00     0.009 A 
ATOM     54  C   UNL A   1      46.651  32.205  27.732  1.00  0.00     0.001 A 
ATOM     55  C   UNL A   1      44.322  32.053  27.125  1.00  0.00     0.001 A 
ATOM     56  C   UNL A   1      45.590  32.590  26.915  1.00  0.00     0.000 A 
ENDBRANCH  38  51
ENDBRANCH  12  13
ENDBRANCH   5   7
ENDBRANCH   4   5
ENDBRANCH   3   4
ENDBRANCH   2   3
ENDBRANCH   1   2
BRANCH   1  57
ATOM     57  C   UNL A   1      31.818  28.092  26.619  1.00  0.00     0.338 C 
ATOM     58  O   UNL A   1      31.141  27.653  27.521  1.00  0.00    -0.246 OA
BRANCH  57  59
ATOM     59  C   UNL A   1      31.824  27.587  25.233  1.00  0.00     0.068 A 
ATOM     60  C   UNL A   1      30.800  28.013  24.381  1.00  0.00     0.016 A 
ATOM     61  C   UNL A   1      32.841  26.730  24.779  1.00  0.00     0.021 A 
ATOM     62  C   UNL A   1      30.840  27.684  23.028  1.00  0.00     0.001 A 
ATOM     63  C   UNL A   1      32.894  26.466  23.403  1.00  0.00     0.010 A 
ATOM     64  C   UNL A   1      31.907  26.939  22.536  1.00  0.00     0.001 A 
BRANCH  61  65
ATOM     65  C   UNL A   1      33.764  26.008  25.750  1.00  0.00     0.300 C 
BRANCH  65  66
ATOM     66  N   UNL A   1      33.450  24.576  26.008  1.00  0.00    -0.329 N 
ATOM     67  C   UNL A   1      32.030  24.423  26.403  1.00  0.00     0.262 C 
ATOM     68  C   UNL A   1      33.793  23.656  24.889  1.00  0.00     0.186 C 
ATOM     69  H   UNL A   1      34.055  24.293  26.780  1.00  0.00     0.348 HD
ATOM     70  C   UNL A   1      31.634  22.997  26.770  1.00  0.00     0.062 C 
ATOM     71  C   UNL A   1      33.448  22.199  25.275  1.00  0.00     0.065 C 
ATOM     72  C   UNL A   1      31.981  22.041  25.644  1.00  0.00     0.012 C 
BRANCH  68  73
ATOM     73  C   UNL A   1      35.290  23.734  24.480  1.00  0.00     0.088 C 
BRANCH  73  74
ATOM     74  C   UNL A   1      36.155  22.512  24.839  1.00  0.00     0.150 C 
BRANCH  74  75
ATOM     75  N   UNL A   1      37.398  22.791  25.536  1.00  0.00    -0.273 N 
ATOM     76  C   UNL A   1      37.769  23.977  26.107  1.00  0.00     0.108 A 
ATOM     77  N   UNL A   1      38.292  21.813  25.760  1.00  0.00    -0.182 NA
ATOM     78  C   UNL A   1      39.008  23.765  26.667  1.00  0.00     0.042 A 
ATOM     79  C   UNL A   1      39.289  22.415  26.406  1.00  0.00     0.135 A 
ENDBRANCH  74  75
ENDBRANCH  73  74
ENDBRANCH  68  73
ENDBRANCH  65  66
ENDBRANCH  61  65
ENDBRANCH  57  59
ENDBRANCH   1  57
TORSDOF 16
ENDMDL
