MODEL 1
REMARK VINA RESULT:     -10.3      0.000      0.000
REMARK SMILES [NH3+][C@H](CO)c1ccc(Cl)c(C(=O)OCCOC(=O)c2ccc(-c3c4nc(c(-c5ccccc5)c5ccc([nH]5)c(-c5ccccc5)c5nc(c(-c6ccccc6)c6ccc3[nH]6)C=C5)C=C4)cc2)c1
REMARK SMILES IDX 14 1 13 2 11 3 12 4 10 5 5 6 6 7 67 8 7 9 8 10 9 11 2 12
REMARK SMILES IDX 1 13 3 17 4 18 15 20 16 21 17 22 18 23 19 24 20 25 66 26
REMARK SMILES IDX 21 27 65 28 22 29 23 30 24 31 59 32 25 33 64 34 58 35 60 36
REMARK SMILES IDX 26 37 63 38 57 39 56 40 27 42 49 43 34 44 48 45 35 46 38 47
REMARK SMILES IDX 47 48 61 49 36 50 37 51 46 53 62 54 39 55 28 56 29 57 33 58
REMARK SMILES IDX 30 59 32 60 31 61 50 62 51 63 55 64 52 65 54 66 53 67 40 68
REMARK SMILES IDX 41 69 45 70 42 71 44 72 43 73
REMARK H PARENT 1 14 1 15 1 16 4 19 60 41 38 52
REMARK Flexibility Score: inf
ROOT
ATOM      1  C   UNL A   1      35.268  22.490  24.487  1.00  0.00     0.275 C 
ENDROOT
BRANCH   1   2
ATOM      2  O   UNL A   1      34.045  22.007  23.897  1.00  0.00    -0.458 OA
BRANCH   2   3
ATOM      3  C   UNL A   1      33.195  21.355  24.722  1.00  0.00     0.339 C 
ATOM      4  O   UNL A   1      32.609  21.822  25.688  1.00  0.00    -0.246 OA
BRANCH   3   5
ATOM      5  C   UNL A   1      32.927  19.986  24.236  1.00  0.00     0.079 A 
ATOM      6  C   UNL A   1      33.141  17.589  24.729  1.00  0.00     0.012 A 
ATOM      7  C   UNL A   1      32.572  17.313  23.481  1.00  0.00     0.011 A 
ATOM      8  C   UNL A   1      33.319  18.934  25.083  1.00  0.00     0.027 A 
ATOM      9  C   UNL A   1      32.203  18.353  22.617  1.00  0.00     0.022 A 
ATOM     10  C   UNL A   1      32.382  19.691  22.988  1.00  0.00     0.055 A 
ATOM     11  Cl  UNL A   1      31.981  20.899  21.822  1.00  0.00    -0.083 Cl
BRANCH   6  12
ATOM     12  C   UNL A   1      33.546  16.459  25.667  1.00  0.00     0.237 C 
BRANCH  12  13
ATOM     13  N   UNL A   1      34.919  16.016  25.381  1.00  0.00    -0.349 N 
ATOM     14  H   UNL A   1      35.077  16.024  24.374  1.00  0.00     0.345 HD
ATOM     15  H   UNL A   1      35.053  15.070  25.738  1.00  0.00     0.345 HD
ATOM     16  H   UNL A   1      35.581  16.647  25.833  1.00  0.00     0.345 HD
ENDBRANCH  12  13
BRANCH  12  17
ATOM     17  C   UNL A   1      32.558  15.265  25.617  1.00  0.00     0.226 C 
BRANCH  17  18
ATOM     18  O   UNL A   1      33.239  14.010  25.524  1.00  0.00    -0.390 OA
ATOM     19  H   UNL A   1      34.113  14.085  25.939  1.00  0.00     0.210 HD
ENDBRANCH  17  18
ENDBRANCH  12  17
ENDBRANCH   6  12
ENDBRANCH   3   5
ENDBRANCH   2   3
ENDBRANCH   1   2
BRANCH   1  20
ATOM     20  C   UNL A   1      36.270  21.349  24.634  1.00  0.00     0.275 C 
BRANCH  20  21
ATOM     21  O   UNL A   1      36.961  21.490  25.887  1.00  0.00    -0.458 OA
BRANCH  21  22
ATOM     22  C   UNL A   1      38.305  21.358  25.837  1.00  0.00     0.338 C 
ATOM     23  O   UNL A   1      38.948  20.423  25.391  1.00  0.00    -0.246 OA
BRANCH  22  24
ATOM     24  C   UNL A   1      38.934  22.553  26.424  1.00  0.00     0.060 A 
ATOM     25  C   UNL A   1      38.422  23.815  26.137  1.00  0.00     0.016 A 
ATOM     26  C   UNL A   1      40.108  22.424  27.162  1.00  0.00     0.016 A 
ATOM     27  C   UNL A   1      39.145  24.955  26.489  1.00  0.00     0.010 A 
ATOM     28  C   UNL A   1      40.773  23.573  27.607  1.00  0.00     0.010 A 
ATOM     29  C   UNL A   1      40.332  24.855  27.232  1.00  0.00    -0.014 A 
BRANCH  29  30
ATOM     30  C   UNL A   1      41.136  26.068  27.573  1.00  0.00     0.031 A 
ATOM     31  C   UNL A   1      40.601  27.090  28.551  1.00  0.00     0.074 A 
ATOM     32  C   UNL A   1      42.354  26.273  27.028  1.00  0.00     0.049 A 
ATOM     33  N   UNL A   1      41.047  28.293  28.821  1.00  0.00    -0.248 NA
ATOM     34  C   UNL A   1      39.396  26.719  29.310  1.00  0.00     0.031 C 
ATOM     35  C   UNL A   1      43.041  25.368  26.106  1.00  0.00     0.029 A 
ATOM     36  N   UNL A   1      43.241  27.312  27.189  1.00  0.00    -0.354 N 
ATOM     37  C   UNL A   1      40.135  28.846  29.713  1.00  0.00     0.074 A 
ATOM     38  C   UNL A   1      39.116  27.848  29.947  1.00  0.00     0.031 C 
ATOM     39  C   UNL A   1      44.262  25.855  25.836  1.00  0.00     0.029 A 
ATOM     40  C   UNL A   1      44.408  27.155  26.480  1.00  0.00     0.049 A 
ATOM     41  H   UNL A   1      43.058  28.094  27.758  1.00  0.00     0.167 HD
ATOM     42  C   UNL A   1      40.141  30.077  30.282  1.00  0.00     0.031 A 
ATOM     43  C   UNL A   1      45.465  27.975  26.324  1.00  0.00     0.031 A 
ATOM     44  C   UNL A   1      41.191  31.048  30.117  1.00  0.00     0.049 A 
ATOM     45  C   UNL A   1      45.449  29.334  26.962  1.00  0.00     0.074 A 
ATOM     46  C   UNL A   1      41.290  32.312  30.675  1.00  0.00     0.029 A 
ATOM     47  N   UNL A   1      42.334  30.854  29.361  1.00  0.00    -0.354 N 
ATOM     48  N   UNL A   1      44.541  29.871  27.738  1.00  0.00    -0.248 NA
ATOM     49  C   UNL A   1      46.595  30.210  26.678  1.00  0.00     0.031 C 
ATOM     50  C   UNL A   1      42.482  32.896  30.232  1.00  0.00     0.029 A 
ATOM     51  C   UNL A   1      43.143  31.978  29.432  1.00  0.00     0.049 A 
ATOM     52  H   UNL A   1      42.543  30.040  28.850  1.00  0.00     0.167 HD
ATOM     53  C   UNL A   1      45.006  31.145  28.036  1.00  0.00     0.074 A 
ATOM     54  C   UNL A   1      46.290  31.290  27.381  1.00  0.00     0.031 C 
ATOM     55  C   UNL A   1      44.414  32.112  28.777  1.00  0.00     0.031 A 
BRANCH  42  56
ATOM     56  C   UNL A   1      38.952  30.468  31.115  1.00  0.00    -0.014 A 
ATOM     57  C   UNL A   1      37.805  31.038  30.543  1.00  0.00     0.009 A 
ATOM     58  C   UNL A   1      38.964  30.202  32.493  1.00  0.00     0.009 A 
ATOM     59  C   UNL A   1      36.705  31.358  31.342  1.00  0.00     0.001 A 
ATOM     60  C   UNL A   1      37.853  30.500  33.286  1.00  0.00     0.001 A 
ATOM     61  C   UNL A   1      36.727  31.084  32.710  1.00  0.00     0.000 A 
ENDBRANCH  42  56
BRANCH  43  62
ATOM     62  C   UNL A   1      46.614  27.554  25.480  1.00  0.00    -0.014 A 
ATOM     63  C   UNL A   1      46.686  27.937  24.133  1.00  0.00     0.009 A 
ATOM     64  C   UNL A   1      47.643  26.765  26.019  1.00  0.00     0.009 A 
ATOM     65  C   UNL A   1      47.759  27.527  23.338  1.00  0.00     0.001 A 
ATOM     66  C   UNL A   1      48.730  26.383  25.230  1.00  0.00     0.001 A 
ATOM     67  C   UNL A   1      48.783  26.758  23.889  1.00  0.00     0.000 A 
ENDBRANCH  43  62
BRANCH  55  68
ATOM     68  C   UNL A   1      45.164  33.401  28.938  1.00  0.00    -0.014 A 
ATOM     69  C   UNL A   1      46.085  33.576  29.983  1.00  0.00     0.009 A 
ATOM     70  C   UNL A   1      44.967  34.443  28.020  1.00  0.00     0.009 A 
ATOM     71  C   UNL A   1      46.771  34.784  30.122  1.00  0.00     0.001 A 
ATOM     72  C   UNL A   1      45.669  35.642  28.150  1.00  0.00     0.001 A 
ATOM     73  C   UNL A   1      46.563  35.815  29.205  1.00  0.00     0.000 A 
ENDBRANCH  55  68
ENDBRANCH  29  30
ENDBRANCH  22  24
ENDBRANCH  21  22
ENDBRANCH  20  21
ENDBRANCH   1  20
TORSDOF 15
ENDMDL
MODEL 2
REMARK VINA RESULT:     -10.2      2.601      6.436
REMARK SMILES [NH3+][C@H](CO)c1ccc(Cl)c(C(=O)OCCOC(=O)c2ccc(-c3c4nc(c(-c5ccccc5)c5ccc([nH]5)c(-c5ccccc5)c5nc(c(-c6ccccc6)c6ccc3[nH]6)C=C5)C=C4)cc2)c1
REMARK SMILES IDX 14 1 13 2 11 3 12 4 10 5 5 6 6 7 67 8 7 9 8 10 9 11 2 12
REMARK SMILES IDX 1 13 3 17 4 18 15 20 16 21 17 22 18 23 19 24 20 25 66 26
REMARK SMILES IDX 21 27 65 28 22 29 23 30 24 31 59 32 25 33 64 34 58 35 60 36
REMARK SMILES IDX 26 37 63 38 57 39 56 40 27 42 49 43 34 44 48 45 35 46 38 47
REMARK SMILES IDX 47 48 61 49 36 50 37 51 46 53 62 54 39 55 28 56 29 57 33 58
REMARK SMILES IDX 30 59 32 60 31 61 50 62 51 63 55 64 52 65 54 66 53 67 40 68
REMARK SMILES IDX 41 69 45 70 42 71 44 72 43 73
REMARK H PARENT 1 14 1 15 1 16 4 19 60 41 38 52
REMARK Flexibility Score: inf
ROOT
ATOM      1  C   UNL A   1      38.494  21.007  25.413  1.00  0.00     0.275 C 
ENDROOT
BRANCH   1   2
ATOM      2  O   UNL A   1      37.175  20.917  24.838  1.00  0.00    -0.458 OA
BRANCH   2   3
ATOM      3  C   UNL A   1      36.244  21.763  25.332  1.00  0.00     0.339 C 
ATOM      4  O   UNL A   1      36.440  22.727  26.059  1.00  0.00    -0.246 OA
BRANCH   3   5
ATOM      5  C   UNL A   1      34.909  21.471  24.772  1.00  0.00     0.079 A 
ATOM      6  C   UNL A   1      33.121  19.797  24.577  1.00  0.00     0.012 A 
ATOM      7  C   UNL A   1      32.420  20.687  23.756  1.00  0.00     0.011 A 
ATOM      8  C   UNL A   1      34.370  20.206  25.067  1.00  0.00     0.027 A 
ATOM      9  C   UNL A   1      32.960  21.939  23.434  1.00  0.00     0.022 A 
ATOM     10  C   UNL A   1      34.204  22.335  23.935  1.00  0.00     0.055 A 
ATOM     11  Cl  UNL A   1      34.827  23.857  23.410  1.00  0.00    -0.083 Cl
BRANCH   6  12
ATOM     12  C   UNL A   1      32.537  18.434  24.925  1.00  0.00     0.237 C 
BRANCH  12  13
ATOM     13  N   UNL A   1      32.781  18.112  26.340  1.00  0.00    -0.349 N 
ATOM     14  H   UNL A   1      33.557  17.454  26.410  1.00  0.00     0.345 HD
ATOM     15  H   UNL A   1      31.944  17.694  26.744  1.00  0.00     0.345 HD
ATOM     16  H   UNL A   1      33.014  18.966  26.848  1.00  0.00     0.345 HD
ENDBRANCH  12  13
BRANCH  12  17
ATOM     17  C   UNL A   1      33.069  17.308  24.002  1.00  0.00     0.226 C 
BRANCH  17  18
ATOM     18  O   UNL A   1      32.414  17.305  22.729  1.00  0.00    -0.390 OA
ATOM     19  H   UNL A   1      32.932  16.777  22.100  1.00  0.00     0.210 HD
ENDBRANCH  17  18
ENDBRANCH  12  17
ENDBRANCH   6  12
ENDBRANCH   3   5
ENDBRANCH   2   3
ENDBRANCH   1   2
BRANCH   1  20
ATOM     20  C   UNL A   1      39.189  19.651  25.355  1.00  0.00     0.275 C 
BRANCH  20  21
ATOM     21  O   UNL A   1      40.123  19.554  26.444  1.00  0.00    -0.458 OA
BRANCH  21  22
ATOM     22  C   UNL A   1      41.429  19.654  26.111  1.00  0.00     0.338 C 
ATOM     23  O   UNL A   1      42.111  18.841  25.510  1.00  0.00    -0.246 OA
BRANCH  22  24
ATOM     24  C   UNL A   1      41.958  20.940  26.595  1.00  0.00     0.060 A 
ATOM     25  C   UNL A   1      42.008  21.197  27.963  1.00  0.00     0.016 A 
ATOM     26  C   UNL A   1      42.291  21.938  25.683  1.00  0.00     0.016 A 
ATOM     27  C   UNL A   1      42.279  22.487  28.418  1.00  0.00     0.010 A 
ATOM     28  C   UNL A   1      42.668  23.202  26.149  1.00  0.00     0.010 A 
ATOM     29  C   UNL A   1      42.616  23.512  27.521  1.00  0.00    -0.014 A 
BRANCH  29  30
ATOM     30  C   UNL A   1      42.862  24.908  27.997  1.00  0.00     0.031 A 
ATOM     31  C   UNL A   1      44.270  25.380  28.282  1.00  0.00     0.074 A 
ATOM     32  C   UNL A   1      41.843  25.775  28.172  1.00  0.00     0.049 A 
ATOM     33  N   UNL A   1      44.671  26.472  28.888  1.00  0.00    -0.248 NA
ATOM     34  C   UNL A   1      45.369  24.503  27.848  1.00  0.00     0.031 C 
ATOM     35  C   UNL A   1      40.431  25.501  27.899  1.00  0.00     0.029 A 
ATOM     36  N   UNL A   1      41.845  27.079  28.609  1.00  0.00    -0.354 N 
ATOM     37  C   UNL A   1      46.056  26.370  28.978  1.00  0.00     0.074 A 
ATOM     38  C   UNL A   1      46.427  25.118  28.359  1.00  0.00     0.031 C 
ATOM     39  C   UNL A   1      39.716  26.617  28.110  1.00  0.00     0.029 A 
ATOM     40  C   UNL A   1      40.596  27.654  28.632  1.00  0.00     0.049 A 
ATOM     41  H   UNL A   1      42.662  27.556  28.881  1.00  0.00     0.167 HD
ATOM     42  C   UNL A   1      46.938  27.238  29.532  1.00  0.00     0.031 A 
ATOM     43  C   UNL A   1      40.188  28.864  29.062  1.00  0.00     0.031 A 
ATOM     44  C   UNL A   1      46.587  28.522  30.081  1.00  0.00     0.049 A 
ATOM     45  C   UNL A   1      41.183  29.807  29.673  1.00  0.00     0.074 A 
ATOM     46  C   UNL A   1      47.420  29.476  30.642  1.00  0.00     0.029 A 
ATOM     47  N   UNL A   1      45.305  29.043  30.111  1.00  0.00    -0.354 N 
ATOM     48  N   UNL A   1      42.475  29.661  29.823  1.00  0.00    -0.248 NA
ATOM     49  C   UNL A   1      40.653  31.074  30.201  1.00  0.00     0.031 C 
ATOM     50  C   UNL A   1      46.636  30.564  31.040  1.00  0.00     0.029 A 
ATOM     51  C   UNL A   1      45.322  30.303  30.688  1.00  0.00     0.049 A 
ATOM     52  H   UNL A   1      44.501  28.588  29.774  1.00  0.00     0.167 HD
ATOM     53  C   UNL A   1      42.913  30.815  30.458  1.00  0.00     0.074 A 
ATOM     54  C   UNL A   1      41.755  31.664  30.640  1.00  0.00     0.031 C 
ATOM     55  C   UNL A   1      44.165  31.136  30.865  1.00  0.00     0.031 A 
BRANCH  42  56
ATOM     56  C   UNL A   1      48.378  26.815  29.611  1.00  0.00    -0.014 A 
ATOM     57  C   UNL A   1      49.302  27.144  28.608  1.00  0.00     0.009 A 
ATOM     58  C   UNL A   1      48.827  26.122  30.747  1.00  0.00     0.009 A 
ATOM     59  C   UNL A   1      50.640  26.763  28.730  1.00  0.00     0.001 A 
ATOM     60  C   UNL A   1      50.171  25.764  30.878  1.00  0.00     0.001 A 
ATOM     61  C   UNL A   1      51.074  26.080  29.866  1.00  0.00     0.000 A 
ENDBRANCH  42  56
BRANCH  43  62
ATOM     62  C   UNL A   1      38.751  29.236  28.977  1.00  0.00    -0.014 A 
ATOM     63  C   UNL A   1      38.225  29.780  27.797  1.00  0.00     0.009 A 
ATOM     64  C   UNL A   1      37.900  29.049  30.078  1.00  0.00     0.009 A 
ATOM     65  C   UNL A   1      36.877  30.141  27.725  1.00  0.00     0.001 A 
ATOM     66  C   UNL A   1      36.548  29.382  29.993  1.00  0.00     0.001 A 
ATOM     67  C   UNL A   1      36.039  29.935  28.820  1.00  0.00     0.000 A 
ENDBRANCH  43  62
BRANCH  55  68
ATOM     68  C   UNL A   1      44.345  32.472  31.523  1.00  0.00    -0.014 A 
ATOM     69  C   UNL A   1      44.247  32.612  32.917  1.00  0.00     0.009 A 
ATOM     70  C   UNL A   1      44.642  33.600  30.744  1.00  0.00     0.009 A 
ATOM     71  C   UNL A   1      44.412  33.863  33.513  1.00  0.00     0.001 A 
ATOM     72  C   UNL A   1      44.827  34.846  31.344  1.00  0.00     0.001 A 
ATOM     73  C   UNL A   1      44.703  34.978  32.726  1.00  0.00     0.000 A 
ENDBRANCH  55  68
ENDBRANCH  29  30
ENDBRANCH  22  24
ENDBRANCH  21  22
ENDBRANCH  20  21
ENDBRANCH   1  20
TORSDOF 15
ENDMDL
MODEL 3
REMARK VINA RESULT:     -10.0      5.798      8.775
REMARK SMILES [NH3+][C@H](CO)c1ccc(Cl)c(C(=O)OCCOC(=O)c2ccc(-c3c4nc(c(-c5ccccc5)c5ccc([nH]5)c(-c5ccccc5)c5nc(c(-c6ccccc6)c6ccc3[nH]6)C=C5)C=C4)cc2)c1
REMARK SMILES IDX 14 1 13 2 11 3 12 4 10 5 5 6 6 7 67 8 7 9 8 10 9 11 2 12
REMARK SMILES IDX 1 13 3 17 4 18 15 20 16 21 17 22 18 23 19 24 20 25 66 26
REMARK SMILES IDX 21 27 65 28 22 29 23 30 24 31 59 32 25 33 64 34 58 35 60 36
REMARK SMILES IDX 26 37 63 38 57 39 56 40 27 42 49 43 34 44 48 45 35 46 38 47
REMARK SMILES IDX 47 48 61 49 36 50 37 51 46 53 62 54 39 55 28 56 29 57 33 58
REMARK SMILES IDX 30 59 32 60 31 61 50 62 51 63 55 64 52 65 54 66 53 67 40 68
REMARK SMILES IDX 41 69 45 70 42 71 44 72 43 73
REMARK H PARENT 1 14 1 15 1 16 4 19 60 41 38 52
REMARK Flexibility Score: inf
ROOT
ATOM      1  C   UNL A   1      32.863  31.192  27.214  1.00  0.00     0.275 C 
ENDROOT
BRANCH   1   2
ATOM      2  O   UNL A   1      32.009  30.152  26.698  1.00  0.00    -0.458 OA
BRANCH   2   3
ATOM      3  C   UNL A   1      32.584  29.265  25.855  1.00  0.00     0.339 C 
ATOM      4  O   UNL A   1      33.771  28.978  25.790  1.00  0.00    -0.246 OA
BRANCH   3   5
ATOM      5  C   UNL A   1      31.564  28.541  25.069  1.00  0.00     0.079 A 
ATOM      6  C   UNL A   1      29.924  28.705  23.247  1.00  0.00     0.012 A 
ATOM      7  C   UNL A   1      29.555  27.380  23.502  1.00  0.00     0.011 A 
ATOM      8  C   UNL A   1      30.926  29.270  24.051  1.00  0.00     0.027 A 
ATOM      9  C   UNL A   1      30.165  26.653  24.532  1.00  0.00     0.022 A 
ATOM     10  C   UNL A   1      31.167  27.228  25.321  1.00  0.00     0.055 A 
ATOM     11  Cl  UNL A   1      31.796  26.285  26.623  1.00  0.00    -0.083 Cl
BRANCH   6  12
ATOM     12  C   UNL A   1      29.258  29.498  22.130  1.00  0.00     0.237 C 
BRANCH  12  13
ATOM     13  N   UNL A   1      30.240  30.356  21.448  1.00  0.00    -0.349 N 
ATOM     14  H   UNL A   1      29.910  31.321  21.453  1.00  0.00     0.345 HD
ATOM     15  H   UNL A   1      30.356  30.042  20.485  1.00  0.00     0.345 HD
ATOM     16  H   UNL A   1      31.135  30.301  21.934  1.00  0.00     0.345 HD
ENDBRANCH  12  13
BRANCH  12  17
ATOM     17  C   UNL A   1      28.051  30.330  22.633  1.00  0.00     0.226 C 
BRANCH  17  18
ATOM     18  O   UNL A   1      26.865  29.537  22.750  1.00  0.00    -0.390 OA
ATOM     19  H   UNL A   1      26.276  29.932  23.412  1.00  0.00     0.210 HD
ENDBRANCH  17  18
ENDBRANCH  12  17
ENDBRANCH   6  12
ENDBRANCH   3   5
ENDBRANCH   2   3
ENDBRANCH   1   2
BRANCH   1  20
ATOM     20  C   UNL A   1      32.080  32.493  27.360  1.00  0.00     0.275 C 
BRANCH  20  21
ATOM     21  O   UNL A   1      32.995  33.601  27.309  1.00  0.00    -0.458 OA
BRANCH  21  22
ATOM     22  C   UNL A   1      33.206  34.246  28.477  1.00  0.00     0.338 C 
ATOM     23  O   UNL A   1      32.479  35.057  29.026  1.00  0.00    -0.246 OA
BRANCH  22  24
ATOM     24  C   UNL A   1      34.500  33.824  29.039  1.00  0.00     0.060 A 
ATOM     25  C   UNL A   1      35.685  34.248  28.443  1.00  0.00     0.016 A 
ATOM     26  C   UNL A   1      34.533  32.905  30.085  1.00  0.00     0.016 A 
ATOM     27  C   UNL A   1      36.898  33.669  28.816  1.00  0.00     0.010 A 
ATOM     28  C   UNL A   1      35.764  32.407  30.528  1.00  0.00     0.010 A 
ATOM     29  C   UNL A   1      36.960  32.739  29.866  1.00  0.00    -0.014 A 
BRANCH  29  30
ATOM     30  C   UNL A   1      38.248  32.079  30.240  1.00  0.00     0.031 A 
ATOM     31  C   UNL A   1      39.167  32.718  31.257  1.00  0.00     0.074 A 
ATOM     32  C   UNL A   1      38.613  30.901  29.691  1.00  0.00     0.049 A 
ATOM     33  N   UNL A   1      40.405  32.412  31.563  1.00  0.00    -0.248 NA
ATOM     34  C   UNL A   1      38.632  33.861  32.014  1.00  0.00     0.031 C 
ATOM     35  C   UNL A   1      37.825  30.124  28.732  1.00  0.00     0.029 A 
ATOM     36  N   UNL A   1      39.743  30.140  29.878  1.00  0.00    -0.354 N 
ATOM     37  C   UNL A   1      40.817  33.372  32.482  1.00  0.00     0.074 A 
ATOM     38  C   UNL A   1      39.698  34.263  32.692  1.00  0.00     0.031 C 
ATOM     39  C   UNL A   1      38.462  28.973  28.467  1.00  0.00     0.029 A 
ATOM     40  C   UNL A   1      39.748  28.973  29.153  1.00  0.00     0.049 A 
ATOM     41  H   UNL A   1      40.480  30.407  30.475  1.00  0.00     0.167 HD
ATOM     42  C   UNL A   1      42.022  33.503  33.092  1.00  0.00     0.031 A 
ATOM     43  C   UNL A   1      40.692  28.022  29.015  1.00  0.00     0.031 A 
ATOM     44  C   UNL A   1      43.115  32.577  32.949  1.00  0.00     0.049 A 
ATOM     45  C   UNL A   1      42.018  28.190  29.698  1.00  0.00     0.074 A 
ATOM     46  C   UNL A   1      44.363  32.620  33.548  1.00  0.00     0.029 A 
ATOM     47  N   UNL A   1      43.081  31.429  32.177  1.00  0.00    -0.354 N 
ATOM     48  N   UNL A   1      42.419  29.144  30.500  1.00  0.00    -0.248 NA
ATOM     49  C   UNL A   1      43.032  27.158  29.433  1.00  0.00     0.031 C 
ATOM     50  C   UNL A   1      45.097  31.511  33.114  1.00  0.00     0.029 A 
ATOM     51  C   UNL A   1      44.290  30.758  32.278  1.00  0.00     0.049 A 
ATOM     52  H   UNL A   1      42.314  31.133  31.636  1.00  0.00     0.167 HD
ATOM     53  C   UNL A   1      43.728  28.828  30.837  1.00  0.00     0.074 A 
ATOM     54  C   UNL A   1      44.046  27.579  30.176  1.00  0.00     0.031 C 
ATOM     55  C   UNL A   1      44.594  29.520  31.616  1.00  0.00     0.031 A 
BRANCH  42  56
ATOM     56  C   UNL A   1      42.242  34.719  33.948  1.00  0.00    -0.014 A 
ATOM     57  C   UNL A   1      42.709  35.927  33.410  1.00  0.00     0.009 A 
ATOM     58  C   UNL A   1      41.917  34.663  35.313  1.00  0.00     0.009 A 
ATOM     59  C   UNL A   1      42.870  37.047  34.229  1.00  0.00     0.001 A 
ATOM     60  C   UNL A   1      42.055  35.791  36.124  1.00  0.00     0.001 A 
ATOM     61  C   UNL A   1      42.539  36.980  35.582  1.00  0.00     0.000 A 
ENDBRANCH  42  56
BRANCH  43  62
ATOM     62  C   UNL A   1      40.437  26.843  28.147  1.00  0.00    -0.014 A 
ATOM     63  C   UNL A   1      39.793  25.707  28.659  1.00  0.00     0.009 A 
ATOM     64  C   UNL A   1      40.837  26.848  26.801  1.00  0.00     0.009 A 
ATOM     65  C   UNL A   1      39.566  24.595  27.845  1.00  0.00     0.001 A 
ATOM     66  C   UNL A   1      40.582  25.747  25.981  1.00  0.00     0.001 A 
ATOM     67  C   UNL A   1      39.954  24.619  26.505  1.00  0.00     0.000 A 
ENDBRANCH  43  62
BRANCH  55  68
ATOM     68  C   UNL A   1      45.957  28.925  31.813  1.00  0.00    -0.014 A 
ATOM     69  C   UNL A   1      46.207  28.020  32.857  1.00  0.00     0.009 A 
ATOM     70  C   UNL A   1      46.997  29.253  30.930  1.00  0.00     0.009 A 
ATOM     71  C   UNL A   1      47.482  27.480  33.030  1.00  0.00     0.001 A 
ATOM     72  C   UNL A   1      48.265  28.695  31.093  1.00  0.00     0.001 A 
ATOM     73  C   UNL A   1      48.509  27.817  32.147  1.00  0.00     0.000 A 
ENDBRANCH  55  68
ENDBRANCH  29  30
ENDBRANCH  22  24
ENDBRANCH  21  22
ENDBRANCH  20  21
ENDBRANCH   1  20
TORSDOF 15
ENDMDL
