MODEL 1
REMARK VINA RESULT:     -11.4      0.000      0.000
REMARK SMILES Cc1ccc(C#N)cc1Nc1cc(C)c(N)c(C(=O)OCCOC(=O)c2ccc(-c3c4nc(c(-c5ccccc5)c5ccc([nH]5)c(-c5ccccc5)c5nc(c(-c6ccccc6)c6ccc3[nH]6)C=C5)C=C4)cc2)c1
REMARK SMILES IDX 21 1 20 2 18 3 19 4 17 5 11 6 12 7 74 8 13 9 14 10 15 11
REMARK SMILES IDX 10 12 9 14 1 15 2 16 3 17 4 18 8 19 5 20 6 21 7 22 16 23
REMARK SMILES IDX 22 26 23 27 24 28 25 29 26 30 27 31 73 32 28 33 72 34 29 35
REMARK SMILES IDX 30 36 31 37 66 38 32 39 71 40 65 41 67 42 33 43 70 44 64 45
REMARK SMILES IDX 63 46 34 48 56 49 41 50 55 51 42 52 45 53 54 54 68 55 43 56
REMARK SMILES IDX 44 57 53 59 69 60 46 61 35 62 36 63 40 64 37 65 39 66 38 67
REMARK SMILES IDX 57 68 58 69 62 70 59 71 61 72 60 73 47 74 48 75 52 76 49 77
REMARK SMILES IDX 51 78 50 79
REMARK H PARENT 10 13 16 24 16 25 67 47 45 58
REMARK Flexibility Score: inf
ROOT
ATOM      1  C   UNL A   1      33.064  29.246  24.969  1.00  0.00     0.275 C 
ENDROOT
BRANCH   1   2
ATOM      2  O   UNL A   1      33.239  29.562  23.569  1.00  0.00    -0.458 OA
BRANCH   2   3
ATOM      3  C   UNL A   1      33.049  28.535  22.701  1.00  0.00     0.340 C 
ATOM      4  O   UNL A   1      33.896  28.069  21.956  1.00  0.00    -0.246 OA
BRANCH   3   5
ATOM      5  C   UNL A   1      31.635  28.079  22.708  1.00  0.00     0.085 A 
ATOM      6  C   UNL A   1      30.055  26.448  23.518  1.00  0.00     0.040 A 
ATOM      7  C   UNL A   1      29.024  27.378  23.361  1.00  0.00     0.031 A 
ATOM      8  C   UNL A   1      31.368  26.813  23.218  1.00  0.00     0.044 A 
ATOM      9  C   UNL A   1      29.271  28.651  22.851  1.00  0.00    -0.025 A 
ATOM     10  C   UNL A   1      28.121  29.621  22.782  1.00  0.00     0.047 C 
ATOM     11  C   UNL A   1      30.570  28.963  22.426  1.00  0.00     0.049 A 
BRANCH   6  12
ATOM     12  N   UNL A   1      29.768  25.243  24.171  1.00  0.00    -0.355 N 
ATOM     13  H   UNL A   1      28.859  24.884  24.051  1.00  0.00     0.167 HD
BRANCH  12  14
ATOM     14  C   UNL A   1      30.639  24.489  24.981  1.00  0.00     0.043 A 
ATOM     15  C   UNL A   1      30.978  26.483  26.542  1.00  0.00     0.046 C 
ATOM     16  C   UNL A   1      31.205  25.051  26.138  1.00  0.00    -0.027 A 
ATOM     17  C   UNL A   1      32.070  24.269  26.925  1.00  0.00     0.007 A 
ATOM     18  C   UNL A   1      32.347  22.940  26.592  1.00  0.00     0.020 A 
ATOM     19  C   UNL A   1      30.921  23.145  24.671  1.00  0.00     0.045 A 
ATOM     20  C   UNL A   1      31.769  22.373  25.462  1.00  0.00     0.054 A 
BRANCH  20  21
ATOM     21  C   UNL A   1      32.040  21.014  25.092  1.00  0.00     0.099 C 
ATOM     22  N   UNL A   1      32.268  19.920  24.785  1.00  0.00    -0.192 NA
ENDBRANCH  20  21
ENDBRANCH  12  14
ENDBRANCH   6  12
BRANCH  11  23
ATOM     23  N   UNL A   1      30.753  30.051  21.587  1.00  0.00    -0.398 N 
ATOM     24  H   UNL A   1      31.413  30.745  21.818  1.00  0.00     0.156 HD
ATOM     25  H   UNL A   1      30.224  30.130  20.760  1.00  0.00     0.156 HD
ENDBRANCH  11  23
ENDBRANCH   3   5
ENDBRANCH   2   3
ENDBRANCH   1   2
BRANCH   1  26
ATOM     26  C   UNL A   1      32.136  30.262  25.637  1.00  0.00     0.275 C 
BRANCH  26  27
ATOM     27  O   UNL A   1      32.499  30.462  27.016  1.00  0.00    -0.458 OA
BRANCH  27  28
ATOM     28  C   UNL A   1      33.200  31.587  27.260  1.00  0.00     0.338 C 
ATOM     29  O   UNL A   1      32.795  32.740  27.280  1.00  0.00    -0.246 OA
BRANCH  28  30
ATOM     30  C   UNL A   1      34.577  31.261  27.640  1.00  0.00     0.060 A 
ATOM     31  C   UNL A   1      35.484  32.261  27.978  1.00  0.00     0.016 A 
ATOM     32  C   UNL A   1      34.844  29.941  27.967  1.00  0.00     0.016 A 
ATOM     33  C   UNL A   1      36.676  31.913  28.628  1.00  0.00     0.010 A 
ATOM     34  C   UNL A   1      35.902  29.651  28.814  1.00  0.00     0.010 A 
ATOM     35  C   UNL A   1      36.886  30.602  29.092  1.00  0.00    -0.014 A 
BRANCH  35  36
ATOM     36  C   UNL A   1      38.126  30.158  29.797  1.00  0.00     0.031 A 
ATOM     37  C   UNL A   1      38.327  30.536  31.255  1.00  0.00     0.074 A 
ATOM     38  C   UNL A   1      39.094  29.478  29.146  1.00  0.00     0.049 A 
ATOM     39  N   UNL A   1      39.366  30.332  32.025  1.00  0.00    -0.248 NA
ATOM     40  C   UNL A   1      37.256  31.306  31.922  1.00  0.00     0.031 C 
ATOM     41  C   UNL A   1      39.079  29.125  27.724  1.00  0.00     0.029 A 
ATOM     42  N   UNL A   1      40.277  28.943  29.601  1.00  0.00    -0.354 N 
ATOM     43  C   UNL A   1      39.080  30.988  33.219  1.00  0.00     0.074 A 
ATOM     44  C   UNL A   1      37.847  31.704  33.034  1.00  0.00     0.031 C 
ATOM     45  C   UNL A   1      40.146  28.358  27.448  1.00  0.00     0.029 A 
ATOM     46  C   UNL A   1      40.961  28.219  28.651  1.00  0.00     0.049 A 
ATOM     47  H   UNL A   1      40.604  29.067  30.521  1.00  0.00     0.167 HD
ATOM     48  C   UNL A   1      39.734  30.937  34.400  1.00  0.00     0.031 A 
ATOM     49  C   UNL A   1      42.106  27.510  28.738  1.00  0.00     0.031 A 
ATOM     50  C   UNL A   1      40.903  30.135  34.611  1.00  0.00     0.049 A 
ATOM     51  C   UNL A   1      42.811  27.433  30.068  1.00  0.00     0.074 A 
ATOM     52  C   UNL A   1      41.591  29.926  35.790  1.00  0.00     0.029 A 
ATOM     53  N   UNL A   1      41.535  29.394  33.627  1.00  0.00    -0.354 N 
ATOM     54  N   UNL A   1      42.470  27.980  31.210  1.00  0.00    -0.248 NA
ATOM     55  C   UNL A   1      44.045  26.635  30.133  1.00  0.00     0.031 C 
ATOM     56  C   UNL A   1      42.693  29.124  35.502  1.00  0.00     0.029 A 
ATOM     57  C   UNL A   1      42.631  28.751  34.168  1.00  0.00     0.049 A 
ATOM     58  H   UNL A   1      41.248  29.334  32.687  1.00  0.00     0.167 HD
ATOM     59  C   UNL A   1      43.424  27.570  32.133  1.00  0.00     0.074 A 
ATOM     60  C   UNL A   1      44.353  26.716  31.423  1.00  0.00     0.031 C 
ATOM     61  C   UNL A   1      43.523  27.877  33.448  1.00  0.00     0.031 A 
BRANCH  48  62
ATOM     62  C   UNL A   1      39.177  31.704  35.571  1.00  0.00    -0.014 A 
ATOM     63  C   UNL A   1      39.652  32.994  35.854  1.00  0.00     0.009 A 
ATOM     64  C   UNL A   1      38.258  31.117  36.459  1.00  0.00     0.009 A 
ATOM     65  C   UNL A   1      39.241  33.669  37.004  1.00  0.00     0.001 A 
ATOM     66  C   UNL A   1      37.812  31.811  37.584  1.00  0.00     0.001 A 
ATOM     67  C   UNL A   1      38.317  33.079  37.865  1.00  0.00     0.000 A 
ENDBRANCH  48  62
BRANCH  49  68
ATOM     68  C   UNL A   1      42.601  26.764  27.545  1.00  0.00    -0.014 A 
ATOM     69  C   UNL A   1      43.452  27.379  26.611  1.00  0.00     0.009 A 
ATOM     70  C   UNL A   1      42.160  25.456  27.287  1.00  0.00     0.009 A 
ATOM     71  C   UNL A   1      43.814  26.722  25.431  1.00  0.00     0.001 A 
ATOM     72  C   UNL A   1      42.555  24.785  26.125  1.00  0.00     0.001 A 
ATOM     73  C   UNL A   1      43.368  25.424  25.190  1.00  0.00     0.000 A 
ENDBRANCH  49  68
BRANCH  61  74
ATOM     74  C   UNL A   1      44.647  27.287  34.254  1.00  0.00    -0.014 A 
ATOM     75  C   UNL A   1      45.902  27.921  34.249  1.00  0.00     0.009 A 
ATOM     76  C   UNL A   1      44.528  26.011  34.820  1.00  0.00     0.009 A 
ATOM     77  C   UNL A   1      47.028  27.263  34.743  1.00  0.00     0.001 A 
ATOM     78  C   UNL A   1      45.652  25.372  35.350  1.00  0.00     0.001 A 
ATOM     79  C   UNL A   1      46.902  25.989  35.290  1.00  0.00     0.000 A 
ENDBRANCH  61  74
ENDBRANCH  35  36
ENDBRANCH  28  30
ENDBRANCH  27  28
ENDBRANCH  26  27
ENDBRANCH   1  26
TORSDOF 15
ENDMDL
MODEL 2
REMARK VINA RESULT:     -11.1      2.575      7.678
REMARK SMILES Cc1ccc(C#N)cc1Nc1cc(C)c(N)c(C(=O)OCCOC(=O)c2ccc(-c3c4nc(c(-c5ccccc5)c5ccc([nH]5)c(-c5ccccc5)c5nc(c(-c6ccccc6)c6ccc3[nH]6)C=C5)C=C4)cc2)c1
REMARK SMILES IDX 21 1 20 2 18 3 19 4 17 5 11 6 12 7 74 8 13 9 14 10 15 11
REMARK SMILES IDX 10 12 9 14 1 15 2 16 3 17 4 18 8 19 5 20 6 21 7 22 16 23
REMARK SMILES IDX 22 26 23 27 24 28 25 29 26 30 27 31 73 32 28 33 72 34 29 35
REMARK SMILES IDX 30 36 31 37 66 38 32 39 71 40 65 41 67 42 33 43 70 44 64 45
REMARK SMILES IDX 63 46 34 48 56 49 41 50 55 51 42 52 45 53 54 54 68 55 43 56
REMARK SMILES IDX 44 57 53 59 69 60 46 61 35 62 36 63 40 64 37 65 39 66 38 67
REMARK SMILES IDX 57 68 58 69 62 70 59 71 61 72 60 73 47 74 48 75 52 76 49 77
REMARK SMILES IDX 51 78 50 79
REMARK H PARENT 10 13 16 24 16 25 67 47 45 58
REMARK Flexibility Score: inf
ROOT
ATOM      1  C   UNL A   1      32.861  34.790  28.221  1.00  0.00     0.275 C 
ENDROOT
BRANCH   1   2
ATOM      2  O   UNL A   1      33.399  33.458  28.064  1.00  0.00    -0.458 OA
BRANCH   2   3
ATOM      3  C   UNL A   1      32.609  32.575  27.398  1.00  0.00     0.340 C 
ATOM      4  O   UNL A   1      31.493  32.809  26.963  1.00  0.00    -0.246 OA
BRANCH   3   5
ATOM      5  C   UNL A   1      33.246  31.234  27.322  1.00  0.00     0.085 A 
ATOM      6  C   UNL A   1      33.545  29.224  26.025  1.00  0.00     0.040 A 
ATOM      7  C   UNL A   1      34.762  28.995  26.672  1.00  0.00     0.031 A 
ATOM      8  C   UNL A   1      32.802  30.365  26.332  1.00  0.00     0.044 A 
ATOM      9  C   UNL A   1      35.224  29.855  27.668  1.00  0.00    -0.025 A 
ATOM     10  C   UNL A   1      36.579  29.582  28.266  1.00  0.00     0.047 C 
ATOM     11  C   UNL A   1      34.407  30.923  28.064  1.00  0.00     0.049 A 
BRANCH   6  12
ATOM     12  N   UNL A   1      33.209  28.410  24.936  1.00  0.00    -0.355 N 
ATOM     13  H   UNL A   1      33.959  28.027  24.427  1.00  0.00     0.167 HD
BRANCH  12  14
ATOM     14  C   UNL A   1      31.915  28.080  24.491  1.00  0.00     0.043 A 
ATOM     15  C   UNL A   1      31.877  26.022  26.005  1.00  0.00     0.046 C 
ATOM     16  C   UNL A   1      31.245  26.960  25.011  1.00  0.00    -0.027 A 
ATOM     17  C   UNL A   1      29.953  26.658  24.545  1.00  0.00     0.007 A 
ATOM     18  C   UNL A   1      29.317  27.471  23.602  1.00  0.00     0.020 A 
ATOM     19  C   UNL A   1      31.252  28.892  23.551  1.00  0.00     0.045 A 
ATOM     20  C   UNL A   1      29.967  28.595  23.104  1.00  0.00     0.054 A 
BRANCH  20  21
ATOM     21  C   UNL A   1      29.342  29.444  22.130  1.00  0.00     0.099 C 
ATOM     22  N   UNL A   1      28.849  30.134  21.342  1.00  0.00    -0.192 NA
ENDBRANCH  20  21
ENDBRANCH  12  14
ENDBRANCH   6  12
BRANCH  11  23
ATOM     23  N   UNL A   1      34.663  31.544  29.276  1.00  0.00    -0.398 N 
ATOM     24  H   UNL A   1      34.398  32.482  29.415  1.00  0.00     0.156 HD
ATOM     25  H   UNL A   1      35.110  31.047  29.999  1.00  0.00     0.156 HD
ENDBRANCH  11  23
ENDBRANCH   3   5
ENDBRANCH   2   3
ENDBRANCH   1   2
BRANCH   1  26
ATOM     26  C   UNL A   1      33.407  35.443  29.493  1.00  0.00     0.275 C 
BRANCH  26  27
ATOM     27  O   UNL A   1      32.726  34.945  30.660  1.00  0.00    -0.458 OA
BRANCH  27  28
ATOM     28  C   UNL A   1      32.985  35.619  31.798  1.00  0.00     0.338 C 
ATOM     29  O   UNL A   1      32.398  36.590  32.251  1.00  0.00    -0.246 OA
BRANCH  28  30
ATOM     30  C   UNL A   1      34.051  34.957  32.555  1.00  0.00     0.060 A 
ATOM     31  C   UNL A   1      33.901  33.651  33.013  1.00  0.00     0.016 A 
ATOM     32  C   UNL A   1      35.308  35.538  32.513  1.00  0.00     0.016 A 
ATOM     33  C   UNL A   1      35.029  32.946  33.452  1.00  0.00     0.010 A 
ATOM     34  C   UNL A   1      36.429  34.751  32.720  1.00  0.00     0.010 A 
ATOM     35  C   UNL A   1      36.321  33.474  33.275  1.00  0.00    -0.014 A 
BRANCH  35  36
ATOM     36  C   UNL A   1      37.570  32.779  33.710  1.00  0.00     0.031 A 
ATOM     37  C   UNL A   1      38.227  31.777  32.775  1.00  0.00     0.074 A 
ATOM     38  C   UNL A   1      38.091  32.983  34.938  1.00  0.00     0.049 A 
ATOM     39  N   UNL A   1      39.259  31.001  32.990  1.00  0.00    -0.248 NA
ATOM     40  C   UNL A   1      37.608  31.562  31.450  1.00  0.00     0.031 C 
ATOM     41  C   UNL A   1      37.518  33.846  35.975  1.00  0.00     0.029 A 
ATOM     42  N   UNL A   1      39.236  32.492  35.522  1.00  0.00    -0.354 N 
ATOM     43  C   UNL A   1      39.360  30.193  31.861  1.00  0.00     0.074 A 
ATOM     44  C   UNL A   1      38.222  30.471  31.027  1.00  0.00     0.031 C 
ATOM     45  C   UNL A   1      38.356  33.895  37.023  1.00  0.00     0.029 A 
ATOM     46  C   UNL A   1      39.494  33.016  36.768  1.00  0.00     0.049 A 
ATOM     47  H   UNL A   1      39.816  31.826  35.089  1.00  0.00     0.167 HD
ATOM     48  C   UNL A   1      40.355  29.353  31.497  1.00  0.00     0.031 A 
ATOM     49  C   UNL A   1      40.533  32.825  37.608  1.00  0.00     0.031 A 
ATOM     50  C   UNL A   1      41.539  29.161  32.279  1.00  0.00     0.049 A 
ATOM     51  C   UNL A   1      41.652  31.911  37.179  1.00  0.00     0.074 A 
ATOM     52  C   UNL A   1      42.657  28.414  31.964  1.00  0.00     0.029 A 
ATOM     53  N   UNL A   1      41.767  29.741  33.516  1.00  0.00    -0.354 N 
ATOM     54  N   UNL A   1      41.776  31.233  36.063  1.00  0.00    -0.248 NA
ATOM     55  C   UNL A   1      42.779  31.742  38.109  1.00  0.00     0.031 C 
ATOM     56  C   UNL A   1      43.528  28.472  33.049  1.00  0.00     0.029 A 
ATOM     57  C   UNL A   1      42.998  29.339  33.993  1.00  0.00     0.049 A 
ATOM     58  H   UNL A   1      41.147  30.348  33.982  1.00  0.00     0.167 HD
ATOM     59  C   UNL A   1      43.002  30.585  36.141  1.00  0.00     0.074 A 
ATOM     60  C   UNL A   1      43.593  30.959  37.409  1.00  0.00     0.031 C 
ATOM     61  C   UNL A   1      43.582  29.752  35.245  1.00  0.00     0.031 A 
BRANCH  48  62
ATOM     62  C   UNL A   1      40.248  28.632  30.178  1.00  0.00    -0.014 A 
ATOM     63  C   UNL A   1      40.722  29.242  29.006  1.00  0.00     0.009 A 
ATOM     64  C   UNL A   1      39.587  27.396  30.072  1.00  0.00     0.009 A 
ATOM     65  C   UNL A   1      40.519  28.646  27.761  1.00  0.00     0.001 A 
ATOM     66  C   UNL A   1      39.425  26.779  28.831  1.00  0.00     0.001 A 
ATOM     67  C   UNL A   1      39.876  27.413  27.675  1.00  0.00     0.000 A 
ENDBRANCH  48  62
BRANCH  49  68
ATOM     68  C   UNL A   1      40.585  33.576  38.896  1.00  0.00    -0.014 A 
ATOM     69  C   UNL A   1      41.223  34.825  38.979  1.00  0.00     0.009 A 
ATOM     70  C   UNL A   1      40.066  33.011  40.072  1.00  0.00     0.009 A 
ATOM     71  C   UNL A   1      41.380  35.468  40.211  1.00  0.00     0.001 A 
ATOM     72  C   UNL A   1      40.189  33.675  41.297  1.00  0.00     0.001 A 
ATOM     73  C   UNL A   1      40.860  34.894  41.368  1.00  0.00     0.000 A 
ENDBRANCH  49  68
BRANCH  61  74
ATOM     74  C   UNL A   1      44.941  29.184  35.548  1.00  0.00    -0.014 A 
ATOM     75  C   UNL A   1      46.083  29.835  35.050  1.00  0.00     0.009 A 
ATOM     76  C   UNL A   1      45.074  27.912  36.121  1.00  0.00     0.009 A 
ATOM     77  C   UNL A   1      47.323  29.196  35.066  1.00  0.00     0.001 A 
ATOM     78  C   UNL A   1      46.324  27.293  36.171  1.00  0.00     0.001 A 
ATOM     79  C   UNL A   1      47.441  27.926  35.624  1.00  0.00     0.000 A 
ENDBRANCH  61  74
ENDBRANCH  35  36
ENDBRANCH  28  30
ENDBRANCH  27  28
ENDBRANCH  26  27
ENDBRANCH   1  26
TORSDOF 15
ENDMDL
MODEL 3
REMARK VINA RESULT:     -11.0      2.663      4.863
REMARK SMILES Cc1ccc(C#N)cc1Nc1cc(C)c(N)c(C(=O)OCCOC(=O)c2ccc(-c3c4nc(c(-c5ccccc5)c5ccc([nH]5)c(-c5ccccc5)c5nc(c(-c6ccccc6)c6ccc3[nH]6)C=C5)C=C4)cc2)c1
REMARK SMILES IDX 21 1 20 2 18 3 19 4 17 5 11 6 12 7 74 8 13 9 14 10 15 11
REMARK SMILES IDX 10 12 9 14 1 15 2 16 3 17 4 18 8 19 5 20 6 21 7 22 16 23
REMARK SMILES IDX 22 26 23 27 24 28 25 29 26 30 27 31 73 32 28 33 72 34 29 35
REMARK SMILES IDX 30 36 31 37 66 38 32 39 71 40 65 41 67 42 33 43 70 44 64 45
REMARK SMILES IDX 63 46 34 48 56 49 41 50 55 51 42 52 45 53 54 54 68 55 43 56
REMARK SMILES IDX 44 57 53 59 69 60 46 61 35 62 36 63 40 64 37 65 39 66 38 67
REMARK SMILES IDX 57 68 58 69 62 70 59 71 61 72 60 73 47 74 48 75 52 76 49 77
REMARK SMILES IDX 51 78 50 79
REMARK H PARENT 10 13 16 24 16 25 67 47 45 58
REMARK Flexibility Score: inf
ROOT
ATOM      1  C   UNL A   1      33.048  35.171  28.632  1.00  0.00     0.275 C 
ENDROOT
BRANCH   1   2
ATOM      2  O   UNL A   1      33.373  33.763  28.580  1.00  0.00    -0.458 OA
BRANCH   2   3
ATOM      3  C   UNL A   1      32.687  33.030  27.666  1.00  0.00     0.340 C 
ATOM      4  O   UNL A   1      31.722  33.416  27.024  1.00  0.00    -0.246 OA
BRANCH   3   5
ATOM      5  C   UNL A   1      33.211  31.642  27.585  1.00  0.00     0.085 A 
ATOM      6  C   UNL A   1      33.006  29.474  26.550  1.00  0.00     0.040 A 
ATOM      7  C   UNL A   1      34.354  29.224  26.821  1.00  0.00     0.031 A 
ATOM      8  C   UNL A   1      32.444  30.701  26.908  1.00  0.00     0.044 A 
ATOM      9  C   UNL A   1      35.139  30.155  27.500  1.00  0.00    -0.025 A 
ATOM     10  C   UNL A   1      36.600  29.844  27.688  1.00  0.00     0.047 C 
ATOM     11  C   UNL A   1      34.532  31.327  27.973  1.00  0.00     0.049 A 
BRANCH   6  12
ATOM     12  N   UNL A   1      32.313  28.568  25.738  1.00  0.00    -0.355 N 
ATOM     13  H   UNL A   1      31.471  28.888  25.343  1.00  0.00     0.167 HD
BRANCH  12  14
ATOM     14  C   UNL A   1      32.691  27.248  25.425  1.00  0.00     0.043 A 
ATOM     15  C   UNL A   1      33.918  28.053  23.333  1.00  0.00     0.046 C 
ATOM     16  C   UNL A   1      33.485  26.981  24.297  1.00  0.00    -0.027 A 
ATOM     17  C   UNL A   1      33.845  25.651  24.014  1.00  0.00     0.007 A 
ATOM     18  C   UNL A   1      33.454  24.602  24.851  1.00  0.00     0.020 A 
ATOM     19  C   UNL A   1      32.318  26.179  26.262  1.00  0.00     0.045 A 
ATOM     20  C   UNL A   1      32.690  24.866  25.982  1.00  0.00     0.054 A 
BRANCH  20  21
ATOM     21  C   UNL A   1      32.268  23.809  26.856  1.00  0.00     0.099 C 
ATOM     22  N   UNL A   1      31.934  22.961  27.571  1.00  0.00    -0.192 NA
ENDBRANCH  20  21
ENDBRANCH  12  14
ENDBRANCH   6  12
BRANCH  11  23
ATOM     23  N   UNL A   1      35.180  32.063  28.953  1.00  0.00    -0.398 N 
ATOM     24  H   UNL A   1      35.214  33.045  28.887  1.00  0.00     0.156 HD
ATOM     25  H   UNL A   1      35.606  31.605  29.713  1.00  0.00     0.156 HD
ENDBRANCH  11  23
ENDBRANCH   3   5
ENDBRANCH   2   3
ENDBRANCH   1   2
BRANCH   1  26
ATOM     26  C   UNL A   1      33.443  35.764  29.985  1.00  0.00     0.275 C 
BRANCH  26  27
ATOM     27  O   UNL A   1      32.586  35.273  31.033  1.00  0.00    -0.458 OA
BRANCH  27  28
ATOM     28  C   UNL A   1      32.861  35.752  32.262  1.00  0.00     0.338 C 
ATOM     29  O   UNL A   1      32.249  36.594  32.899  1.00  0.00    -0.246 OA
BRANCH  28  30
ATOM     30  C   UNL A   1      33.989  35.027  32.853  1.00  0.00     0.060 A 
ATOM     31  C   UNL A   1      33.895  33.671  33.152  1.00  0.00     0.016 A 
ATOM     32  C   UNL A   1      35.231  35.642  32.797  1.00  0.00     0.016 A 
ATOM     33  C   UNL A   1      35.064  32.946  33.418  1.00  0.00     0.010 A 
ATOM     34  C   UNL A   1      36.377  34.863  32.825  1.00  0.00     0.010 A 
ATOM     35  C   UNL A   1      36.331  33.525  33.220  1.00  0.00    -0.014 A 
BRANCH  35  36
ATOM     36  C   UNL A   1      37.619  32.813  33.476  1.00  0.00     0.031 A 
ATOM     37  C   UNL A   1      38.366  33.073  34.774  1.00  0.00     0.074 A 
ATOM     38  C   UNL A   1      38.158  31.991  32.551  1.00  0.00     0.049 A 
ATOM     39  N   UNL A   1      39.538  32.632  35.154  1.00  0.00    -0.248 NA
ATOM     40  C   UNL A   1      37.755  34.002  35.746  1.00  0.00     0.031 C 
ATOM     41  C   UNL A   1      37.601  31.718  31.224  1.00  0.00     0.029 A 
ATOM     42  N   UNL A   1      39.292  31.213  32.592  1.00  0.00    -0.354 N 
ATOM     43  C   UNL A   1      39.804  33.272  36.361  1.00  0.00     0.074 A 
ATOM     44  C   UNL A   1      38.749  34.222  36.588  1.00  0.00     0.031 C 
ATOM     45  C   UNL A   1      38.338  30.773  30.619  1.00  0.00     0.029 A 
ATOM     46  C   UNL A   1      39.462  30.418  31.482  1.00  0.00     0.049 A 
ATOM     47  H   UNL A   1      39.925  31.226  33.346  1.00  0.00     0.167 HD
ATOM     48  C   UNL A   1      40.789  33.035  37.255  1.00  0.00     0.031 A 
ATOM     49  C   UNL A   1      40.404  29.495  31.193  1.00  0.00     0.031 A 
ATOM     50  C   UNL A   1      41.776  32.012  37.077  1.00  0.00     0.049 A 
ATOM     51  C   UNL A   1      41.481  29.217  32.210  1.00  0.00     0.074 A 
ATOM     52  C   UNL A   1      42.761  31.614  37.959  1.00  0.00     0.029 A 
ATOM     53  N   UNL A   1      41.883  31.211  35.952  1.00  0.00    -0.354 N 
ATOM     54  N   UNL A   1      41.657  29.763  33.389  1.00  0.00    -0.248 NA
ATOM     55  C   UNL A   1      42.480  28.192  31.872  1.00  0.00     0.031 C 
ATOM     56  C   UNL A   1      43.520  30.629  37.334  1.00  0.00     0.029 A 
ATOM     57  C   UNL A   1      42.944  30.341  36.105  1.00  0.00     0.049 A 
ATOM     58  H   UNL A   1      41.293  31.255  35.164  1.00  0.00     0.167 HD
ATOM     59  C   UNL A   1      42.761  29.130  33.945  1.00  0.00     0.074 A 
ATOM     60  C   UNL A   1      43.209  28.147  32.981  1.00  0.00     0.031 C 
ATOM     61  C   UNL A   1      43.351  29.346  35.145  1.00  0.00     0.031 A 
BRANCH  48  62
ATOM     62  C   UNL A   1      40.819  33.838  38.530  1.00  0.00    -0.014 A 
ATOM     63  C   UNL A   1      40.067  33.418  39.639  1.00  0.00     0.009 A 
ATOM     64  C   UNL A   1      41.505  35.062  38.608  1.00  0.00     0.009 A 
ATOM     65  C   UNL A   1      39.982  34.213  40.783  1.00  0.00     0.001 A 
ATOM     66  C   UNL A   1      41.457  35.833  39.770  1.00  0.00     0.001 A 
ATOM     67  C   UNL A   1      40.681  35.416  40.850  1.00  0.00     0.000 A 
ENDBRANCH  48  62
BRANCH  49  68
ATOM     68  C   UNL A   1      40.314  28.728  29.917  1.00  0.00    -0.014 A 
ATOM     69  C   UNL A   1      40.855  29.240  28.726  1.00  0.00     0.009 A 
ATOM     70  C   UNL A   1      39.613  27.511  29.864  1.00  0.00     0.009 A 
ATOM     71  C   UNL A   1      40.660  28.579  27.509  1.00  0.00     0.001 A 
ATOM     72  C   UNL A   1      39.454  26.831  28.652  1.00  0.00     0.001 A 
ATOM     73  C   UNL A   1      39.962  27.374  27.474  1.00  0.00     0.000 A 
ENDBRANCH  49  68
BRANCH  61  74
ATOM     74  C   UNL A   1      44.536  28.509  35.538  1.00  0.00    -0.014 A 
ATOM     75  C   UNL A   1      44.326  27.310  36.241  1.00  0.00     0.009 A 
ATOM     76  C   UNL A   1      45.840  29.008  35.414  1.00  0.00     0.009 A 
ATOM     77  C   UNL A   1      45.391  26.659  36.863  1.00  0.00     0.001 A 
ATOM     78  C   UNL A   1      46.909  28.332  36.004  1.00  0.00     0.001 A 
ATOM     79  C   UNL A   1      46.680  27.173  36.746  1.00  0.00     0.000 A 
ENDBRANCH  61  74
ENDBRANCH  35  36
ENDBRANCH  28  30
ENDBRANCH  27  28
ENDBRANCH  26  27
ENDBRANCH   1  26
TORSDOF 15
ENDMDL
