MODEL 1
REMARK VINA RESULT:      -9.2      0.000      0.000
REMARK SMILES Cc1cc(SCC(=O)OCCOC(=O)c2ccc(-c3c4nc(c(-c5ccccc5)c5ccc([nH]5)c(-c5ccccc5)c5nc(c(-c6ccccc6)c6ccc3[nH]6)C=C5)C=C4)cc2)c2cc(I)ccc2n1
REMARK SMILES IDX 10 1 9 2 7 3 8 4 6 5 5 6 4 7 1 8 2 9 3 10 70 11 69 12 63 13
REMARK SMILES IDX 68 14 64 15 67 16 65 17 66 18 11 19 12 20 13 21 14 22 15 23
REMARK SMILES IDX 16 24 62 25 17 26 61 27 18 28 19 29 20 30 55 31 21 32 60 33
REMARK SMILES IDX 54 34 56 35 22 36 59 37 53 38 52 39 23 41 45 42 30 43 44 44
REMARK SMILES IDX 31 45 34 46 43 47 57 48 32 49 33 50 42 52 58 53 35 54 24 55
REMARK SMILES IDX 25 56 29 57 26 58 28 59 27 60 46 61 47 62 51 63 48 64 50 65
REMARK SMILES IDX 49 66 36 67 37 68 41 69 38 70 40 71 39 72
REMARK H PARENT 56 40 34 51
REMARK Flexibility Score: inf
ROOT
ATOM      1  C   UNL A   1      44.957  19.416  24.508  1.00  0.00     0.274 C 
ENDROOT
BRANCH   1   2
ATOM      2  O   UNL A   1      44.758  20.787  24.110  1.00  0.00    -0.461 OA
BRANCH   2   3
ATOM      3  C   UNL A   1      45.485  21.720  24.776  1.00  0.00     0.316 C 
ATOM      4  O   UNL A   1      46.212  21.470  25.734  1.00  0.00    -0.251 OA
BRANCH   3   5
ATOM      5  C   UNL A   1      45.366  23.131  24.238  1.00  0.00     0.197 C 
BRANCH   5   6
ATOM      6  S   UNL A   1      46.501  24.349  24.964  1.00  0.00    -0.114 SA
BRANCH   6   7
ATOM      7  C   UNL A   1      45.514  25.832  25.289  1.00  0.00     0.019 A 
ATOM      8  C   UNL A   1      41.926  27.048  25.407  1.00  0.00     0.067 C 
ATOM      9  C   UNL A   1      43.422  27.001  25.498  1.00  0.00     0.039 A 
ATOM     10  C   UNL A   1      44.121  25.837  25.205  1.00  0.00     0.039 A 
ATOM     11  N   UNL A   1      44.033  28.131  25.902  1.00  0.00    -0.253 NA
ATOM     12  C   UNL A   1      45.366  28.140  26.009  1.00  0.00     0.072 A 
ATOM     13  C   UNL A   1      46.177  27.027  25.693  1.00  0.00     0.015 A 
ATOM     14  C   UNL A   1      45.957  29.313  26.455  1.00  0.00     0.030 A 
ATOM     15  C   UNL A   1      47.586  27.180  25.805  1.00  0.00     0.026 A 
ATOM     16  C   UNL A   1      47.340  29.445  26.578  1.00  0.00     0.017 A 
ATOM     17  C   UNL A   1      48.154  28.377  26.239  1.00  0.00     0.014 A 
ATOM     18  I   UNL A   1      50.217  28.556  26.375  1.00  0.00    -0.044 I 
ENDBRANCH   6   7
ENDBRANCH   5   6
ENDBRANCH   3   5
ENDBRANCH   2   3
ENDBRANCH   1   2
BRANCH   1  19
ATOM     19  C   UNL A   1      43.626  18.703  24.725  1.00  0.00     0.275 C 
BRANCH  19  20
ATOM     20  O   UNL A   1      43.088  19.043  26.016  1.00  0.00    -0.458 OA
BRANCH  20  21
ATOM     21  C   UNL A   1      41.864  19.606  25.994  1.00  0.00     0.338 C 
ATOM     22  O   UNL A   1      40.828  19.127  25.558  1.00  0.00    -0.246 OA
BRANCH  21  23
ATOM     23  C   UNL A   1      41.902  20.940  26.606  1.00  0.00     0.060 A 
ATOM     24  C   UNL A   1      41.979  21.038  27.995  1.00  0.00     0.016 A 
ATOM     25  C   UNL A   1      42.037  22.077  25.806  1.00  0.00     0.016 A 
ATOM     26  C   UNL A   1      42.178  22.287  28.584  1.00  0.00     0.010 A 
ATOM     27  C   UNL A   1      42.307  23.312  26.393  1.00  0.00     0.010 A 
ATOM     28  C   UNL A   1      42.360  23.430  27.788  1.00  0.00    -0.014 A 
BRANCH  28  29
ATOM     29  C   UNL A   1      42.594  24.745  28.430  1.00  0.00     0.031 A 
ATOM     30  C   UNL A   1      43.966  25.123  28.903  1.00  0.00     0.074 A 
ATOM     31  C   UNL A   1      41.574  25.613  28.573  1.00  0.00     0.049 A 
ATOM     32  N   UNL A   1      44.407  26.295  29.284  1.00  0.00    -0.248 NA
ATOM     33  C   UNL A   1      44.974  24.052  28.962  1.00  0.00     0.031 C 
ATOM     34  C   UNL A   1      40.177  25.346  28.226  1.00  0.00     0.029 A 
ATOM     35  N   UNL A   1      41.562  26.906  29.034  1.00  0.00    -0.354 N 
ATOM     36  C   UNL A   1      45.747  26.109  29.592  1.00  0.00     0.074 A 
ATOM     37  C   UNL A   1      46.029  24.700  29.432  1.00  0.00     0.031 C 
ATOM     38  C   UNL A   1      39.450  26.452  28.453  1.00  0.00     0.029 A 
ATOM     39  C   UNL A   1      40.331  27.506  28.950  1.00  0.00     0.049 A 
ATOM     40  H   UNL A   1      42.361  27.358  29.390  1.00  0.00     0.167 HD
ATOM     41  C   UNL A   1      46.672  27.033  29.937  1.00  0.00     0.031 A 
ATOM     42  C   UNL A   1      39.958  28.775  29.204  1.00  0.00     0.031 A 
ATOM     43  C   UNL A   1      46.392  28.430  30.111  1.00  0.00     0.049 A 
ATOM     44  C   UNL A   1      40.995  29.785  29.604  1.00  0.00     0.074 A 
ATOM     45  C   UNL A   1      47.275  29.459  30.390  1.00  0.00     0.029 A 
ATOM     46  N   UNL A   1      45.127  28.992  30.039  1.00  0.00    -0.354 N 
ATOM     47  N   UNL A   1      42.288  29.625  29.754  1.00  0.00    -0.248 NA
ATOM     48  C   UNL A   1      40.527  31.159  29.839  1.00  0.00     0.031 C 
ATOM     49  C   UNL A   1      46.537  30.640  30.527  1.00  0.00     0.029 A 
ATOM     50  C   UNL A   1      45.201  30.349  30.295  1.00  0.00     0.049 A 
ATOM     51  H   UNL A   1      44.301  28.499  29.835  1.00  0.00     0.167 HD
ATOM     52  C   UNL A   1      42.791  30.880  30.071  1.00  0.00     0.074 A 
ATOM     53  C   UNL A   1      41.665  31.792  30.090  1.00  0.00     0.031 C 
ATOM     54  C   UNL A   1      44.073  31.242  30.313  1.00  0.00     0.031 A 
BRANCH  41  55
ATOM     55  C   UNL A   1      48.083  26.557  30.113  1.00  0.00    -0.014 A 
ATOM     56  C   UNL A   1      48.894  26.313  28.996  1.00  0.00     0.009 A 
ATOM     57  C   UNL A   1      48.598  26.320  31.398  1.00  0.00     0.009 A 
ATOM     58  C   UNL A   1      50.200  25.850  29.164  1.00  0.00     0.001 A 
ATOM     59  C   UNL A   1      49.910  25.877  31.563  1.00  0.00     0.001 A 
ATOM     60  C   UNL A   1      50.709  25.639  30.445  1.00  0.00     0.000 A 
ENDBRANCH  41  55
BRANCH  42  61
ATOM     61  C   UNL A   1      38.545  29.178  29.003  1.00  0.00    -0.014 A 
ATOM     62  C   UNL A   1      38.100  29.625  27.750  1.00  0.00     0.009 A 
ATOM     63  C   UNL A   1      37.638  29.135  30.073  1.00  0.00     0.009 A 
ATOM     64  C   UNL A   1      36.773  30.025  27.574  1.00  0.00     0.001 A 
ATOM     65  C   UNL A   1      36.309  29.521  29.889  1.00  0.00     0.001 A 
ATOM     66  C   UNL A   1      35.878  29.968  28.641  1.00  0.00     0.000 A 
ENDBRANCH  42  61
BRANCH  54  67
ATOM     67  C   UNL A   1      44.342  32.688  30.611  1.00  0.00    -0.014 A 
ATOM     68  C   UNL A   1      44.272  33.152  31.934  1.00  0.00     0.009 A 
ATOM     69  C   UNL A   1      44.578  33.605  29.576  1.00  0.00     0.009 A 
ATOM     70  C   UNL A   1      44.424  34.509  32.215  1.00  0.00     0.001 A 
ATOM     71  C   UNL A   1      44.750  34.961  29.863  1.00  0.00     0.001 A 
ATOM     72  C   UNL A   1      44.666  35.412  31.181  1.00  0.00     0.000 A 
ENDBRANCH  54  67
ENDBRANCH  28  29
ENDBRANCH  21  23
ENDBRANCH  20  21
ENDBRANCH  19  20
ENDBRANCH   1  19
TORSDOF 13
ENDMDL
MODEL 2
REMARK VINA RESULT:      -8.5      1.155      6.246
REMARK SMILES Cc1cc(SCC(=O)OCCOC(=O)c2ccc(-c3c4nc(c(-c5ccccc5)c5ccc([nH]5)c(-c5ccccc5)c5nc(c(-c6ccccc6)c6ccc3[nH]6)C=C5)C=C4)cc2)c2cc(I)ccc2n1
REMARK SMILES IDX 10 1 9 2 7 3 8 4 6 5 5 6 4 7 1 8 2 9 3 10 70 11 69 12 63 13
REMARK SMILES IDX 68 14 64 15 67 16 65 17 66 18 11 19 12 20 13 21 14 22 15 23
REMARK SMILES IDX 16 24 62 25 17 26 61 27 18 28 19 29 20 30 55 31 21 32 60 33
REMARK SMILES IDX 54 34 56 35 22 36 59 37 53 38 52 39 23 41 45 42 30 43 44 44
REMARK SMILES IDX 31 45 34 46 43 47 57 48 32 49 33 50 42 52 58 53 35 54 24 55
REMARK SMILES IDX 25 56 29 57 26 58 28 59 27 60 46 61 47 62 51 63 48 64 50 65
REMARK SMILES IDX 49 66 36 67 37 68 41 69 38 70 40 71 39 72
REMARK H PARENT 56 40 34 51
REMARK Flexibility Score: inf
ROOT
ATOM      1  C   UNL A   1      44.419  19.038  25.494  1.00  0.00     0.274 C 
ENDROOT
BRANCH   1   2
ATOM      2  O   UNL A   1      44.428  20.183  24.619  1.00  0.00    -0.461 OA
BRANCH   2   3
ATOM      3  C   UNL A   1      45.560  20.932  24.617  1.00  0.00     0.316 C 
ATOM      4  O   UNL A   1      46.693  20.465  24.704  1.00  0.00    -0.251 OA
BRANCH   3   5
ATOM      5  C   UNL A   1      45.343  22.423  24.473  1.00  0.00     0.197 C 
BRANCH   5   6
ATOM      6  S   UNL A   1      46.839  23.449  24.561  1.00  0.00    -0.114 SA
BRANCH   6   7
ATOM      7  C   UNL A   1      46.284  25.124  24.965  1.00  0.00     0.019 A 
ATOM      8  C   UNL A   1      43.135  27.187  25.406  1.00  0.00     0.067 C 
ATOM      9  C   UNL A   1      44.574  26.770  25.359  1.00  0.00     0.039 A 
ATOM     10  C   UNL A   1      44.935  25.475  25.011  1.00  0.00     0.039 A 
ATOM     11  N   UNL A   1      45.481  27.707  25.697  1.00  0.00    -0.253 NA
ATOM     12  C   UNL A   1      46.779  27.385  25.680  1.00  0.00     0.072 A 
ATOM     13  C   UNL A   1      47.256  26.112  25.299  1.00  0.00     0.015 A 
ATOM     14  C   UNL A   1      47.679  28.369  26.062  1.00  0.00     0.030 A 
ATOM     15  C   UNL A   1      48.664  25.910  25.279  1.00  0.00     0.026 A 
ATOM     16  C   UNL A   1      49.058  28.153  26.056  1.00  0.00     0.017 A 
ATOM     17  C   UNL A   1      49.547  26.922  25.650  1.00  0.00     0.014 A 
ATOM     18  I   UNL A   1      51.594  26.583  25.594  1.00  0.00    -0.044 I 
ENDBRANCH   6   7
ENDBRANCH   5   6
ENDBRANCH   3   5
ENDBRANCH   2   3
ENDBRANCH   1   2
BRANCH   1  19
ATOM     19  C   UNL A   1      42.996  18.558  25.765  1.00  0.00     0.275 C 
BRANCH  19  20
ATOM     20  O   UNL A   1      42.047  19.484  25.207  1.00  0.00    -0.458 OA
BRANCH  20  21
ATOM     21  C   UNL A   1      41.058  19.862  26.042  1.00  0.00     0.338 C 
ATOM     22  O   UNL A   1      40.076  19.217  26.377  1.00  0.00    -0.246 OA
BRANCH  21  23
ATOM     23  C   UNL A   1      41.309  21.215  26.556  1.00  0.00     0.060 A 
ATOM     24  C   UNL A   1      41.227  21.434  27.930  1.00  0.00     0.016 A 
ATOM     25  C   UNL A   1      41.790  22.212  25.704  1.00  0.00     0.016 A 
ATOM     26  C   UNL A   1      41.617  22.669  28.451  1.00  0.00     0.010 A 
ATOM     27  C   UNL A   1      42.247  23.418  26.234  1.00  0.00     0.010 A 
ATOM     28  C   UNL A   1      42.146  23.663  27.610  1.00  0.00    -0.014 A 
BRANCH  28  29
ATOM     29  C   UNL A   1      42.577  24.960  28.184  1.00  0.00     0.031 A 
ATOM     30  C   UNL A   1      41.580  26.058  28.405  1.00  0.00     0.074 A 
ATOM     31  C   UNL A   1      43.866  25.146  28.525  1.00  0.00     0.049 A 
ATOM     32  N   UNL A   1      41.721  27.166  29.087  1.00  0.00    -0.248 NA
ATOM     33  C   UNL A   1      40.258  25.900  27.779  1.00  0.00     0.031 C 
ATOM     34  C   UNL A   1      44.952  24.191  28.297  1.00  0.00     0.029 A 
ATOM     35  N   UNL A   1      44.477  26.201  29.157  1.00  0.00    -0.354 N 
ATOM     36  C   UNL A   1      40.499  27.817  29.002  1.00  0.00     0.074 A 
ATOM     37  C   UNL A   1      39.653  27.023  28.139  1.00  0.00     0.031 C 
ATOM     38  C   UNL A   1      46.088  24.688  28.811  1.00  0.00     0.029 A 
ATOM     39  C   UNL A   1      45.808  25.988  29.415  1.00  0.00     0.049 A 
ATOM     40  H   UNL A   1      44.005  27.029  29.402  1.00  0.00     0.167 HD
ATOM     41  C   UNL A   1      40.100  28.951  29.621  1.00  0.00     0.031 A 
ATOM     42  C   UNL A   1      46.696  26.736  30.097  1.00  0.00     0.031 A 
ATOM     43  C   UNL A   1      40.941  29.749  30.466  1.00  0.00     0.049 A 
ATOM     44  C   UNL A   1      46.240  28.003  30.763  1.00  0.00     0.074 A 
ATOM     45  C   UNL A   1      40.609  30.878  31.196  1.00  0.00     0.029 A 
ATOM     46  N   UNL A   1      42.289  29.511  30.682  1.00  0.00    -0.354 N 
ATOM     47  N   UNL A   1      45.041  28.534  30.792  1.00  0.00    -0.248 NA
ATOM     48  C   UNL A   1      47.252  28.758  31.516  1.00  0.00     0.031 C 
ATOM     49  C   UNL A   1      41.769  31.346  31.823  1.00  0.00     0.029 A 
ATOM     50  C   UNL A   1      42.811  30.486  31.512  1.00  0.00     0.049 A 
ATOM     51  H   UNL A   1      42.797  28.759  30.302  1.00  0.00     0.167 HD
ATOM     52  C   UNL A   1      45.148  29.666  31.589  1.00  0.00     0.074 A 
ATOM     53  C   UNL A   1      46.527  29.746  32.025  1.00  0.00     0.031 C 
ATOM     54  C   UNL A   1      44.185  30.554  31.935  1.00  0.00     0.031 A 
BRANCH  41  55
ATOM     55  C   UNL A   1      38.673  29.370  29.426  1.00  0.00    -0.014 A 
ATOM     56  C   UNL A   1      38.299  30.110  28.296  1.00  0.00     0.009 A 
ATOM     57  C   UNL A   1      37.701  29.052  30.389  1.00  0.00     0.009 A 
ATOM     58  C   UNL A   1      36.974  30.516  28.129  1.00  0.00     0.001 A 
ATOM     59  C   UNL A   1      36.374  29.440  30.208  1.00  0.00     0.001 A 
ATOM     60  C   UNL A   1      36.012  30.175  29.080  1.00  0.00     0.000 A 
ENDBRANCH  41  55
BRANCH  42  61
ATOM     61  C   UNL A   1      48.090  26.256  30.255  1.00  0.00    -0.014 A 
ATOM     62  C   UNL A   1      48.487  25.581  31.419  1.00  0.00     0.009 A 
ATOM     63  C   UNL A   1      49.038  26.491  29.246  1.00  0.00     0.009 A 
ATOM     64  C   UNL A   1      49.808  25.153  31.571  1.00  0.00     0.001 A 
ATOM     65  C   UNL A   1      50.353  26.047  29.395  1.00  0.00     0.001 A 
ATOM     66  C   UNL A   1      50.738  25.382  30.557  1.00  0.00     0.000 A 
ENDBRANCH  42  61
BRANCH  54  67
ATOM     67  C   UNL A   1      44.574  31.686  32.838  1.00  0.00    -0.014 A 
ATOM     68  C   UNL A   1      44.367  31.577  34.222  1.00  0.00     0.009 A 
ATOM     69  C   UNL A   1      45.063  32.891  32.312  1.00  0.00     0.009 A 
ATOM     70  C   UNL A   1      44.633  32.657  35.063  1.00  0.00     0.001 A 
ATOM     71  C   UNL A   1      45.349  33.964  33.160  1.00  0.00     0.001 A 
ATOM     72  C   UNL A   1      45.126  33.848  34.532  1.00  0.00     0.000 A 
ENDBRANCH  54  67
ENDBRANCH  28  29
ENDBRANCH  21  23
ENDBRANCH  20  21
ENDBRANCH  19  20
ENDBRANCH   1  19
TORSDOF 13
ENDMDL
MODEL 3
REMARK VINA RESULT:      -8.5      6.132     11.035
REMARK SMILES Cc1cc(SCC(=O)OCCOC(=O)c2ccc(-c3c4nc(c(-c5ccccc5)c5ccc([nH]5)c(-c5ccccc5)c5nc(c(-c6ccccc6)c6ccc3[nH]6)C=C5)C=C4)cc2)c2cc(I)ccc2n1
REMARK SMILES IDX 10 1 9 2 7 3 8 4 6 5 5 6 4 7 1 8 2 9 3 10 70 11 69 12 63 13
REMARK SMILES IDX 68 14 64 15 67 16 65 17 66 18 11 19 12 20 13 21 14 22 15 23
REMARK SMILES IDX 16 24 62 25 17 26 61 27 18 28 19 29 20 30 55 31 21 32 60 33
REMARK SMILES IDX 54 34 56 35 22 36 59 37 53 38 52 39 23 41 45 42 30 43 44 44
REMARK SMILES IDX 31 45 34 46 43 47 57 48 32 49 33 50 42 52 58 53 35 54 24 55
REMARK SMILES IDX 25 56 29 57 26 58 28 59 27 60 46 61 47 62 51 63 48 64 50 65
REMARK SMILES IDX 49 66 36 67 37 68 41 69 38 70 40 71 39 72
REMARK H PARENT 56 40 34 51
REMARK Flexibility Score: inf
ROOT
ATOM      1  C   UNL A   1      33.490  34.955  32.695  1.00  0.00     0.274 C 
ENDROOT
BRANCH   1   2
ATOM      2  O   UNL A   1      34.539  35.504  33.517  1.00  0.00    -0.461 OA
BRANCH   2   3
ATOM      3  C   UNL A   1      35.743  34.882  33.453  1.00  0.00     0.316 C 
ATOM      4  O   UNL A   1      36.706  35.313  32.823  1.00  0.00    -0.251 OA
BRANCH   3   5
ATOM      5  C   UNL A   1      35.847  33.597  34.247  1.00  0.00     0.197 C 
BRANCH   5   6
ATOM      6  S   UNL A   1      37.399  33.358  35.159  1.00  0.00    -0.114 SA
BRANCH   6   7
ATOM      7  C   UNL A   1      38.100  31.796  34.569  1.00  0.00     0.019 A 
ATOM      8  C   UNL A   1      37.466  29.006  32.082  1.00  0.00     0.067 C 
ATOM      9  C   UNL A   1      38.097  29.859  33.142  1.00  0.00     0.039 A 
ATOM     10  C   UNL A   1      37.491  31.033  33.572  1.00  0.00     0.039 A 
ATOM     11  N   UNL A   1      39.282  29.438  33.624  1.00  0.00    -0.253 NA
ATOM     12  C   UNL A   1      39.892  30.167  34.564  1.00  0.00     0.072 A 
ATOM     13  C   UNL A   1      39.343  31.351  35.104  1.00  0.00     0.015 A 
ATOM     14  C   UNL A   1      41.124  29.715  35.015  1.00  0.00     0.030 A 
ATOM     15  C   UNL A   1      40.070  32.009  36.134  1.00  0.00     0.026 A 
ATOM     16  C   UNL A   1      41.837  30.380  36.013  1.00  0.00     0.017 A 
ATOM     17  C   UNL A   1      41.298  31.523  36.580  1.00  0.00     0.014 A 
ATOM     18  I   UNL A   1      42.316  32.513  38.094  1.00  0.00    -0.044 I 
ENDBRANCH   6   7
ENDBRANCH   5   6
ENDBRANCH   3   5
ENDBRANCH   2   3
ENDBRANCH   1   2
BRANCH   1  19
ATOM     19  C   UNL A   1      33.510  35.560  31.294  1.00  0.00     0.275 C 
BRANCH  19  20
ATOM     20  O   UNL A   1      32.709  34.766  30.401  1.00  0.00    -0.458 OA
BRANCH  20  21
ATOM     21  C   UNL A   1      33.341  34.347  29.286  1.00  0.00     0.338 C 
ATOM     22  O   UNL A   1      32.906  34.327  28.144  1.00  0.00    -0.246 OA
BRANCH  21  23
ATOM     23  C   UNL A   1      34.704  33.903  29.604  1.00  0.00     0.060 A 
ATOM     24  C   UNL A   1      34.874  32.869  30.524  1.00  0.00     0.016 A 
ATOM     25  C   UNL A   1      35.790  34.386  28.869  1.00  0.00     0.016 A 
ATOM     26  C   UNL A   1      36.145  32.327  30.718  1.00  0.00     0.010 A 
ATOM     27  C   UNL A   1      37.044  33.794  29.012  1.00  0.00     0.010 A 
ATOM     28  C   UNL A   1      37.235  32.773  29.952  1.00  0.00    -0.014 A 
BRANCH  28  29
ATOM     29  C   UNL A   1      38.573  32.169  30.155  1.00  0.00     0.031 A 
ATOM     30  C   UNL A   1      39.584  32.846  31.033  1.00  0.00     0.074 A 
ATOM     31  C   UNL A   1      38.877  30.998  29.563  1.00  0.00     0.049 A 
ATOM     32  N   UNL A   1      40.710  32.371  31.500  1.00  0.00    -0.248 NA
ATOM     33  C   UNL A   1      39.301  34.232  31.435  1.00  0.00     0.031 C 
ATOM     34  C   UNL A   1      38.017  30.271  28.628  1.00  0.00     0.029 A 
ATOM     35  N   UNL A   1      39.991  30.204  29.679  1.00  0.00    -0.354 N 
ATOM     36  C   UNL A   1      41.250  33.385  32.278  1.00  0.00     0.074 A 
ATOM     37  C   UNL A   1      40.371  34.528  32.157  1.00  0.00     0.031 C 
ATOM     38  C   UNL A   1      38.620  29.122  28.282  1.00  0.00     0.029 A 
ATOM     39  C   UNL A   1      39.900  29.027  28.979  1.00  0.00     0.049 A 
ATOM     40  H   UNL A   1      40.778  30.455  30.214  1.00  0.00     0.167 HD
ATOM     41  C   UNL A   1      42.354  33.357  33.058  1.00  0.00     0.031 A 
ATOM     42  C   UNL A   1      40.734  27.970  28.934  1.00  0.00     0.031 A 
ATOM     43  C   UNL A   1      43.236  32.230  33.169  1.00  0.00     0.049 A 
ATOM     44  C   UNL A   1      41.966  27.963  29.793  1.00  0.00     0.074 A 
ATOM     45  C   UNL A   1      44.342  32.077  33.986  1.00  0.00     0.029 A 
ATOM     46  N   UNL A   1      43.120  31.067  32.425  1.00  0.00    -0.354 N 
ATOM     47  N   UNL A   1      42.390  28.874  30.635  1.00  0.00    -0.248 NA
ATOM     48  C   UNL A   1      42.818  26.767  29.719  1.00  0.00     0.031 C 
ATOM     49  C   UNL A   1      44.920  30.833  33.707  1.00  0.00     0.029 A 
ATOM     50  C   UNL A   1      44.150  30.201  32.743  1.00  0.00     0.049 A 
ATOM     51  H   UNL A   1      42.410  30.884  31.768  1.00  0.00     0.167 HD
ATOM     52  C   UNL A   1      43.539  28.350  31.212  1.00  0.00     0.074 A 
ATOM     53  C   UNL A   1      43.746  27.041  30.627  1.00  0.00     0.031 C 
ATOM     54  C   UNL A   1      44.344  28.904  32.151  1.00  0.00     0.031 A 
BRANCH  41  55
ATOM     55  C   UNL A   1      42.644  34.578  33.878  1.00  0.00    -0.014 A 
ATOM     56  C   UNL A   1      41.979  34.791  35.093  1.00  0.00     0.009 A 
ATOM     57  C   UNL A   1      43.563  35.538  33.424  1.00  0.00     0.009 A 
ATOM     58  C   UNL A   1      42.236  35.939  35.844  1.00  0.00     0.001 A 
ATOM     59  C   UNL A   1      43.834  36.674  34.186  1.00  0.00     0.001 A 
ATOM     60  C   UNL A   1      43.167  36.876  35.394  1.00  0.00     0.000 A 
ENDBRANCH  41  55
BRANCH  42  61
ATOM     61  C   UNL A   1      40.380  26.793  28.105  1.00  0.00    -0.014 A 
ATOM     62  C   UNL A   1      39.526  25.797  28.602  1.00  0.00     0.009 A 
ATOM     63  C   UNL A   1      40.914  26.651  26.815  1.00  0.00     0.009 A 
ATOM     64  C   UNL A   1      39.216  24.679  27.824  1.00  0.00     0.001 A 
ATOM     65  C   UNL A   1      40.590  25.539  26.033  1.00  0.00     0.001 A 
ATOM     66  C   UNL A   1      39.744  24.554  26.540  1.00  0.00     0.000 A 
ENDBRANCH  42  61
BRANCH  54  67
ATOM     67  C   UNL A   1      45.520  28.099  32.620  1.00  0.00    -0.014 A 
ATOM     68  C   UNL A   1      45.350  27.140  33.629  1.00  0.00     0.009 A 
ATOM     69  C   UNL A   1      46.809  28.353  32.126  1.00  0.00     0.009 A 
ATOM     70  C   UNL A   1      46.450  26.453  34.144  1.00  0.00     0.001 A 
ATOM     71  C   UNL A   1      47.905  27.648  32.628  1.00  0.00     0.001 A 
ATOM     72  C   UNL A   1      47.725  26.706  33.641  1.00  0.00     0.000 A 
ENDBRANCH  54  67
ENDBRANCH  28  29
ENDBRANCH  21  23
ENDBRANCH  20  21
ENDBRANCH  19  20
ENDBRANCH   1  19
TORSDOF 13
ENDMDL
