MODEL 1
REMARK VINA RESULT:     -10.4      0.000      0.000
REMARK SMILES C[C@@H]1[C@@H](C(=O)OCCOC(=O)c2ccc(-c3c4nc(c(-c5ccccc5)c5ccc([nH]5)c(-c5ccccc5)c5nc(c(-c6ccccc6)c6ccc3[nH]6)C=C5)C=C4)cc2)CCN1C(=O)[C@@H](C)OCc1ccccc1
REMARK SMILES IDX 6 1 4 2 5 3 3 4 1 5 2 6 62 7 60 8 61 9 63 10 64 11 65 12
REMARK SMILES IDX 66 13 67 14 68 15 69 16 70 17 74 18 71 19 73 20 72 21 7 22
REMARK SMILES IDX 8 23 9 24 10 25 11 26 12 27 13 28 59 29 14 30 58 31 15 32
REMARK SMILES IDX 16 33 17 34 52 35 18 36 57 37 51 38 53 39 19 40 56 41 50 42
REMARK SMILES IDX 49 43 20 45 42 46 27 47 41 48 28 49 31 50 40 51 54 52 29 53
REMARK SMILES IDX 30 54 39 56 55 57 32 58 21 59 22 60 26 61 23 62 25 63 24 64
REMARK SMILES IDX 43 65 44 66 48 67 45 68 47 69 46 70 33 71 34 72 38 73 35 74
REMARK SMILES IDX 37 75 36 76
REMARK H PARENT 53 44 31 55
REMARK Flexibility Score: inf
ROOT
ATOM      1  O   UNL A   1      37.129  22.827  25.978  1.00  0.00    -0.462 OA
ENDROOT
BRANCH   1   2
ATOM      2  C   UNL A   1      36.010  23.422  25.476  1.00  0.00     0.311 C 
ATOM      3  O   UNL A   1      35.733  24.605  25.614  1.00  0.00    -0.252 OA
BRANCH   2   4
ATOM      4  C   UNL A   1      35.156  22.395  24.749  1.00  0.00     0.123 C 
ATOM      5  C   UNL A   1      32.906  21.945  23.701  1.00  0.00     0.032 C 
ATOM      6  C   UNL A   1      33.653  22.692  24.823  1.00  0.00     0.096 C 
ATOM      7  N   UNL A   1      33.251  22.218  26.138  1.00  0.00    -0.337 N 
ATOM      8  C   UNL A   1      35.228  21.062  25.488  1.00  0.00     0.039 C 
ATOM      9  C   UNL A   1      34.222  21.247  26.621  1.00  0.00     0.121 C 
BRANCH   7  10
ATOM     10  C   UNL A   1      32.305  22.675  27.028  1.00  0.00     0.251 C 
ATOM     11  O   UNL A   1      32.475  22.436  28.237  1.00  0.00    -0.272 OA
BRANCH  10  12
ATOM     12  C   UNL A   1      31.122  23.651  26.666  1.00  0.00     0.204 C 
ATOM     13  C   UNL A   1      29.831  22.909  27.100  1.00  0.00     0.049 C 
BRANCH  12  14
ATOM     14  O   UNL A   1      30.963  25.056  26.605  1.00  0.00    -0.364 OA
BRANCH  14  15
ATOM     15  C   UNL A   1      31.927  25.937  26.046  1.00  0.00     0.196 C 
BRANCH  15  16
ATOM     16  C   UNL A   1      31.299  27.179  25.460  1.00  0.00    -0.022 A 
ATOM     17  C   UNL A   1      30.178  26.867  24.110  1.00  0.00     0.006 A 
ATOM     18  C   UNL A   1      31.792  28.819  25.925  1.00  0.00     0.006 A 
ATOM     19  C   UNL A   1      29.372  28.082  23.169  1.00  0.00     0.000 A 
ATOM     20  C   UNL A   1      31.119  30.201  24.966  1.00  0.00     0.000 A 
ATOM     21  C   UNL A   1      29.802  29.775  23.489  1.00  0.00     0.000 A 
ENDBRANCH  15  16
ENDBRANCH  14  15
ENDBRANCH  12  14
ENDBRANCH  10  12
ENDBRANCH   7  10
ENDBRANCH   2   4
ENDBRANCH   1   2
BRANCH   1  22
ATOM     22  C   UNL A   1      38.268  23.682  26.195  1.00  0.00     0.274 C 
BRANCH  22  23
ATOM     23  C   UNL A   1      39.529  22.865  26.483  1.00  0.00     0.275 C 
BRANCH  23  24
ATOM     24  O   UNL A   1      40.544  23.669  27.111  1.00  0.00    -0.458 OA
BRANCH  24  25
ATOM     25  C   UNL A   1      41.812  23.338  26.787  1.00  0.00     0.338 C 
ATOM     26  O   UNL A   1      42.248  22.249  26.456  1.00  0.00    -0.246 OA
BRANCH  25  27
ATOM     27  C   UNL A   1      42.643  24.531  26.808  1.00  0.00     0.060 A 
ATOM     28  C   UNL A   1      42.921  25.445  25.285  1.00  0.00     0.016 A 
ATOM     29  C   UNL A   1      43.597  24.978  28.230  1.00  0.00     0.016 A 
ATOM     30  C   UNL A   1      44.310  26.907  25.316  1.00  0.00     0.010 A 
ATOM     31  C   UNL A   1      44.801  26.309  28.224  1.00  0.00     0.010 A 
ATOM     32  C   UNL A   1      45.160  27.301  26.809  1.00  0.00    -0.014 A 
BRANCH  32  33
ATOM     33  C   UNL A   1      46.130  28.399  26.595  1.00  0.00     0.031 A 
ATOM     34  C   UNL A   1      45.660  29.776  26.828  1.00  0.00     0.074 A 
ATOM     35  C   UNL A   1      47.463  28.142  26.510  1.00  0.00     0.049 A 
ATOM     36  N   UNL A   1      46.318  30.883  26.655  1.00  0.00    -0.248 NA
ATOM     37  C   UNL A   1      44.273  29.945  27.286  1.00  0.00     0.031 C 
ATOM     38  C   UNL A   1      48.054  26.809  26.414  1.00  0.00     0.029 A 
ATOM     39  N   UNL A   1      48.583  28.934  26.596  1.00  0.00    -0.354 N 
ATOM     40  C   UNL A   1      45.400  31.884  26.888  1.00  0.00     0.074 A 
ATOM     41  C   UNL A   1      44.141  31.260  27.225  1.00  0.00     0.031 C 
ATOM     42  C   UNL A   1      49.362  26.838  26.684  1.00  0.00     0.029 A 
ATOM     43  C   UNL A   1      49.771  28.221  26.634  1.00  0.00     0.049 A 
ATOM     44  H   UNL A   1      48.546  29.917  26.627  1.00  0.00     0.167 HD
ATOM     45  C   UNL A   1      45.615  33.210  26.786  1.00  0.00     0.031 A 
ATOM     46  C   UNL A   1      51.053  28.611  26.500  1.00  0.00     0.031 A 
ATOM     47  C   UNL A   1      46.897  33.760  26.443  1.00  0.00     0.049 A 
ATOM     48  C   UNL A   1      51.238  30.066  26.222  1.00  0.00     0.074 A 
ATOM     49  C   UNL A   1      47.235  35.074  26.200  1.00  0.00     0.029 A 
ATOM     50  N   UNL A   1      48.061  33.009  26.305  1.00  0.00    -0.354 N 
ATOM     51  N   UNL A   1      50.333  31.015  26.258  1.00  0.00    -0.248 NA
ATOM     52  C   UNL A   1      52.578  30.508  25.830  1.00  0.00     0.031 C 
ATOM     53  C   UNL A   1      48.586  35.110  25.848  1.00  0.00     0.029 A 
ATOM     54  C   UNL A   1      49.118  33.832  25.962  1.00  0.00     0.049 A 
ATOM     55  H   UNL A   1      48.124  32.034  26.433  1.00  0.00     0.167 HD
ATOM     56  C   UNL A   1      50.992  32.174  25.908  1.00  0.00     0.074 A 
ATOM     57  C   UNL A   1      52.383  31.811  25.697  1.00  0.00     0.031 C 
ATOM     58  C   UNL A   1      50.489  33.423  25.770  1.00  0.00     0.031 A 
BRANCH  45  59
ATOM     59  C   UNL A   1      44.406  34.081  26.903  1.00  0.00    -0.014 A 
ATOM     60  C   UNL A   1      43.637  34.441  25.786  1.00  0.00     0.009 A 
ATOM     61  C   UNL A   1      44.097  34.638  28.154  1.00  0.00     0.009 A 
ATOM     62  C   UNL A   1      42.613  35.382  25.912  1.00  0.00     0.001 A 
ATOM     63  C   UNL A   1      43.048  35.546  28.284  1.00  0.00     0.001 A 
ATOM     64  C   UNL A   1      42.317  35.928  27.161  1.00  0.00     0.000 A 
ENDBRANCH  45  59
BRANCH  46  65
ATOM     65  C   UNL A   1      52.192  27.639  26.422  1.00  0.00    -0.014 A 
ATOM     66  C   UNL A   1      52.538  27.015  25.213  1.00  0.00     0.009 A 
ATOM     67  C   UNL A   1      52.923  27.285  27.574  1.00  0.00     0.009 A 
ATOM     68  C   UNL A   1      53.560  26.056  25.165  1.00  0.00     0.001 A 
ATOM     69  C   UNL A   1      53.974  26.365  27.516  1.00  0.00     0.001 A 
ATOM     70  C   UNL A   1      54.283  25.739  26.313  1.00  0.00     0.000 A 
ENDBRANCH  46  65
BRANCH  58  71
ATOM     71  C   UNL A   1      51.485  34.491  25.459  1.00  0.00    -0.014 A 
ATOM     72  C   UNL A   1      52.189  35.161  26.470  1.00  0.00     0.009 A 
ATOM     73  C   UNL A   1      51.728  34.811  24.115  1.00  0.00     0.009 A 
ATOM     74  C   UNL A   1      53.093  36.167  26.136  1.00  0.00     0.001 A 
ATOM     75  C   UNL A   1      52.667  35.780  23.784  1.00  0.00     0.001 A 
ATOM     76  C   UNL A   1      53.338  36.467  24.796  1.00  0.00     0.000 A 
ENDBRANCH  58  71
ENDBRANCH  32  33
ENDBRANCH  25  27
ENDBRANCH  24  25
ENDBRANCH  23  24
ENDBRANCH  22  23
ENDBRANCH   1  22
TORSDOF 16
ENDMDL
MODEL 2
REMARK VINA RESULT:     -10.2      4.230      8.879
REMARK SMILES C[C@@H]1[C@@H](C(=O)OCCOC(=O)c2ccc(-c3c4nc(c(-c5ccccc5)c5ccc([nH]5)c(-c5ccccc5)c5nc(c(-c6ccccc6)c6ccc3[nH]6)C=C5)C=C4)cc2)CCN1C(=O)[C@@H](C)OCc1ccccc1
REMARK SMILES IDX 6 1 4 2 5 3 3 4 1 5 2 6 62 7 60 8 61 9 63 10 64 11 65 12
REMARK SMILES IDX 66 13 67 14 68 15 69 16 70 17 74 18 71 19 73 20 72 21 7 22
REMARK SMILES IDX 8 23 9 24 10 25 11 26 12 27 13 28 59 29 14 30 58 31 15 32
REMARK SMILES IDX 16 33 17 34 52 35 18 36 57 37 51 38 53 39 19 40 56 41 50 42
REMARK SMILES IDX 49 43 20 45 42 46 27 47 41 48 28 49 31 50 40 51 54 52 29 53
REMARK SMILES IDX 30 54 39 56 55 57 32 58 21 59 22 60 26 61 23 62 25 63 24 64
REMARK SMILES IDX 43 65 44 66 48 67 45 68 47 69 46 70 33 71 34 72 38 73 35 74
REMARK SMILES IDX 37 75 36 76
REMARK H PARENT 53 44 31 55
REMARK Flexibility Score: inf
ROOT
ATOM      1  O   UNL A   1      37.546  22.665  24.640  1.00  0.00    -0.462 OA
ENDROOT
BRANCH   1   2
ATOM      2  C   UNL A   1      36.545  22.841  23.732  1.00  0.00     0.311 C 
ATOM      3  O   UNL A   1      36.717  23.163  22.566  1.00  0.00    -0.252 OA
BRANCH   2   4
ATOM      4  C   UNL A   1      35.196  22.603  24.392  1.00  0.00     0.123 C 
ATOM      5  C   UNL A   1      32.716  22.357  23.999  1.00  0.00     0.032 C 
ATOM      6  C   UNL A   1      34.010  23.050  23.528  1.00  0.00     0.096 C 
ATOM      7  N   UNL A   1      33.942  24.491  23.717  1.00  0.00    -0.337 N 
ATOM      8  C   UNL A   1      35.049  23.531  25.594  1.00  0.00     0.039 C 
ATOM      9  C   UNL A   1      34.619  24.849  24.955  1.00  0.00     0.121 C 
BRANCH   7  10
ATOM     10  C   UNL A   1      33.575  25.511  22.868  1.00  0.00     0.251 C 
ATOM     11  O   UNL A   1      33.492  25.258  21.653  1.00  0.00    -0.272 OA
BRANCH  10  12
ATOM     12  C   UNL A   1      33.054  26.924  23.327  1.00  0.00     0.204 C 
ATOM     13  C   UNL A   1      33.673  27.935  22.326  1.00  0.00     0.049 C 
BRANCH  12  14
ATOM     14  O   UNL A   1      31.879  27.408  23.951  1.00  0.00    -0.364 OA
BRANCH  14  15
ATOM     15  C   UNL A   1      31.713  27.505  25.358  1.00  0.00     0.196 C 
BRANCH  15  16
ATOM     16  C   UNL A   1      32.513  28.639  25.954  1.00  0.00    -0.022 A 
ATOM     17  C   UNL A   1      34.119  28.163  26.564  1.00  0.00     0.006 A 
ATOM     18  C   UNL A   1      31.837  30.258  26.223  1.00  0.00     0.006 A 
ATOM     19  C   UNL A   1      35.235  29.209  27.384  1.00  0.00     0.000 A 
ATOM     20  C   UNL A   1      32.838  31.440  27.162  1.00  0.00     0.000 A 
ATOM     21  C   UNL A   1      34.678  30.850  27.768  1.00  0.00     0.000 A 
ENDBRANCH  15  16
ENDBRANCH  14  15
ENDBRANCH  12  14
ENDBRANCH  10  12
ENDBRANCH   7  10
ENDBRANCH   2   4
ENDBRANCH   1   2
BRANCH   1  22
ATOM     22  C   UNL A   1      37.885  21.304  24.965  1.00  0.00     0.274 C 
BRANCH  22  23
ATOM     23  C   UNL A   1      39.096  21.240  25.899  1.00  0.00     0.275 C 
BRANCH  23  24
ATOM     24  O   UNL A   1      39.573  22.557  26.232  1.00  0.00    -0.458 OA
BRANCH  24  25
ATOM     25  C   UNL A   1      40.910  22.718  26.135  1.00  0.00     0.338 C 
ATOM     26  O   UNL A   1      41.726  21.973  25.620  1.00  0.00    -0.246 OA
BRANCH  25  27
ATOM     27  C   UNL A   1      41.283  24.008  26.692  1.00  0.00     0.060 A 
ATOM     28  C   UNL A   1      41.765  24.122  28.420  1.00  0.00     0.016 A 
ATOM     29  C   UNL A   1      41.039  25.516  25.797  1.00  0.00     0.016 A 
ATOM     30  C   UNL A   1      41.982  25.966  29.207  1.00  0.00     0.010 A 
ATOM     31  C   UNL A   1      41.276  27.139  26.528  1.00  0.00     0.010 A 
ATOM     32  C   UNL A   1      41.767  27.398  28.202  1.00  0.00    -0.014 A 
BRANCH  32  33
ATOM     33  C   UNL A   1      41.972  28.636  28.989  1.00  0.00     0.031 A 
ATOM     34  C   UNL A   1      43.338  29.189  29.043  1.00  0.00     0.074 A 
ATOM     35  C   UNL A   1      40.914  29.403  29.366  1.00  0.00     0.049 A 
ATOM     36  N   UNL A   1      43.752  30.226  29.707  1.00  0.00    -0.248 NA
ATOM     37  C   UNL A   1      44.380  28.483  28.284  1.00  0.00     0.031 C 
ATOM     38  C   UNL A   1      39.511  29.016  29.235  1.00  0.00     0.029 A 
ATOM     39  N   UNL A   1      40.803  30.691  29.833  1.00  0.00    -0.354 N 
ATOM     40  C   UNL A   1      45.119  30.243  29.525  1.00  0.00     0.074 A 
ATOM     41  C   UNL A   1      45.467  29.122  28.682  1.00  0.00     0.031 C 
ATOM     42  C   UNL A   1      38.703  30.072  29.364  1.00  0.00     0.029 A 
ATOM     43  C   UNL A   1      39.495  31.141  29.925  1.00  0.00     0.049 A 
ATOM     44  H   UNL A   1      41.579  31.244  30.079  1.00  0.00     0.167 HD
ATOM     45  C   UNL A   1      45.989  31.119  30.064  1.00  0.00     0.031 A 
ATOM     46  C   UNL A   1      38.962  32.225  30.521  1.00  0.00     0.031 A 
ATOM     47  C   UNL A   1      45.568  32.212  30.897  1.00  0.00     0.049 A 
ATOM     48  C   UNL A   1      39.942  33.083  31.249  1.00  0.00     0.074 A 
ATOM     49  C   UNL A   1      46.344  33.111  31.595  1.00  0.00     0.029 A 
ATOM     50  N   UNL A   1      44.239  32.552  31.133  1.00  0.00    -0.354 N 
ATOM     51  N   UNL A   1      41.251  33.001  31.236  1.00  0.00    -0.248 NA
ATOM     52  C   UNL A   1      39.400  34.134  32.112  1.00  0.00     0.031 C 
ATOM     53  C   UNL A   1      45.486  33.953  32.308  1.00  0.00     0.029 A 
ATOM     54  C   UNL A   1      44.173  33.640  31.983  1.00  0.00     0.049 A 
ATOM     55  H   UNL A   1      43.459  32.086  30.751  1.00  0.00     0.167 HD
ATOM     56  C   UNL A   1      41.698  33.997  32.078  1.00  0.00     0.074 A 
ATOM     57  C   UNL A   1      40.515  34.694  32.557  1.00  0.00     0.031 C 
ATOM     58  C   UNL A   1      42.970  34.303  32.425  1.00  0.00     0.031 A 
BRANCH  45  59
ATOM     59  C   UNL A   1      47.437  30.807  29.869  1.00  0.00    -0.014 A 
ATOM     60  C   UNL A   1      48.155  30.010  30.773  1.00  0.00     0.009 A 
ATOM     61  C   UNL A   1      48.119  31.420  28.807  1.00  0.00     0.009 A 
ATOM     62  C   UNL A   1      49.539  29.874  30.644  1.00  0.00     0.001 A 
ATOM     63  C   UNL A   1      49.494  31.248  28.656  1.00  0.00     0.001 A 
ATOM     64  C   UNL A   1      50.204  30.488  29.584  1.00  0.00     0.000 A 
ENDBRANCH  45  59
BRANCH  46  65
ATOM     65  C   UNL A   1      37.483  32.444  30.631  1.00  0.00    -0.014 A 
ATOM     66  C   UNL A   1      36.798  33.273  29.729  1.00  0.00     0.009 A 
ATOM     67  C   UNL A   1      36.740  31.861  31.677  1.00  0.00     0.009 A 
ATOM     68  C   UNL A   1      35.428  33.526  29.882  1.00  0.00     0.001 A 
ATOM     69  C   UNL A   1      35.364  32.076  31.802  1.00  0.00     0.001 A 
ATOM     70  C   UNL A   1      34.710  32.921  30.912  1.00  0.00     0.000 A 
ENDBRANCH  46  65
BRANCH  58  71
ATOM     71  C   UNL A   1      43.130  35.504  33.299  1.00  0.00    -0.014 A 
ATOM     72  C   UNL A   1      43.057  35.416  34.696  1.00  0.00     0.009 A 
ATOM     73  C   UNL A   1      43.379  36.745  32.692  1.00  0.00     0.009 A 
ATOM     74  C   UNL A   1      43.190  36.566  35.471  1.00  0.00     0.001 A 
ATOM     75  C   UNL A   1      43.560  37.881  33.472  1.00  0.00     0.001 A 
ATOM     76  C   UNL A   1      43.452  37.792  34.859  1.00  0.00     0.000 A 
ENDBRANCH  58  71
ENDBRANCH  32  33
ENDBRANCH  25  27
ENDBRANCH  24  25
ENDBRANCH  23  24
ENDBRANCH  22  23
ENDBRANCH   1  22
TORSDOF 16
ENDMDL
MODEL 3
REMARK VINA RESULT:     -10.2     11.111     15.897
REMARK SMILES C[C@@H]1[C@@H](C(=O)OCCOC(=O)c2ccc(-c3c4nc(c(-c5ccccc5)c5ccc([nH]5)c(-c5ccccc5)c5nc(c(-c6ccccc6)c6ccc3[nH]6)C=C5)C=C4)cc2)CCN1C(=O)[C@@H](C)OCc1ccccc1
REMARK SMILES IDX 6 1 4 2 5 3 3 4 1 5 2 6 62 7 60 8 61 9 63 10 64 11 65 12
REMARK SMILES IDX 66 13 67 14 68 15 69 16 70 17 74 18 71 19 73 20 72 21 7 22
REMARK SMILES IDX 8 23 9 24 10 25 11 26 12 27 13 28 59 29 14 30 58 31 15 32
REMARK SMILES IDX 16 33 17 34 52 35 18 36 57 37 51 38 53 39 19 40 56 41 50 42
REMARK SMILES IDX 49 43 20 45 42 46 27 47 41 48 28 49 31 50 40 51 54 52 29 53
REMARK SMILES IDX 30 54 39 56 55 57 32 58 21 59 22 60 26 61 23 62 25 63 24 64
REMARK SMILES IDX 43 65 44 66 48 67 45 68 47 69 46 70 33 71 34 72 38 73 35 74
REMARK SMILES IDX 37 75 36 76
REMARK H PARENT 53 44 31 55
REMARK Flexibility Score: inf
ROOT
ATOM      1  O   UNL A   1      46.816  20.503  38.368  1.00  0.00    -0.462 OA
ENDROOT
BRANCH   1   2
ATOM      2  C   UNL A   1      46.377  19.217  38.467  1.00  0.00     0.311 C 
ATOM      3  O   UNL A   1      45.617  18.681  37.674  1.00  0.00    -0.252 OA
BRANCH   2   4
ATOM      4  C   UNL A   1      46.951  18.566  39.717  1.00  0.00     0.123 C 
ATOM      5  C   UNL A   1      47.179  16.411  41.008  1.00  0.00     0.032 C 
ATOM      6  C   UNL A   1      46.271  17.240  40.078  1.00  0.00     0.096 C 
ATOM      7  N   UNL A   1      45.040  17.632  40.748  1.00  0.00    -0.337 N 
ATOM      8  C   UNL A   1      46.605  19.416  40.935  1.00  0.00     0.039 C 
ATOM      9  C   UNL A   1      45.172  18.992  41.249  1.00  0.00     0.121 C 
BRANCH   7  10
ATOM     10  C   UNL A   1      43.789  17.057  40.776  1.00  0.00     0.251 C 
ATOM     11  O   UNL A   1      42.999  17.329  39.854  1.00  0.00    -0.272 OA
BRANCH  10  12
ATOM     12  C   UNL A   1      43.339  15.923  41.773  1.00  0.00     0.204 C 
ATOM     13  C   UNL A   1      42.283  15.091  40.999  1.00  0.00     0.049 C 
BRANCH  12  14
ATOM     14  O   UNL A   1      43.962  15.199  42.817  1.00  0.00    -0.364 OA
BRANCH  14  15
ATOM     15  C   UNL A   1      43.270  14.692  43.950  1.00  0.00     0.196 C 
BRANCH  15  16
ATOM     16  C   UNL A   1      43.825  13.367  44.416  1.00  0.00    -0.022 A 
ATOM     17  C   UNL A   1      45.578  13.376  44.735  1.00  0.00     0.006 A 
ATOM     18  C   UNL A   1      42.864  11.874  44.439  1.00  0.00     0.006 A 
ATOM     19  C   UNL A   1      46.526  11.996  45.191  1.00  0.00     0.000 A 
ATOM     20  C   UNL A   1      43.731  10.323  44.794  1.00  0.00     0.000 A 
ATOM     21  C   UNL A   1      45.710  10.420  45.210  1.00  0.00     0.000 A 
ENDBRANCH  15  16
ENDBRANCH  14  15
ENDBRANCH  12  14
ENDBRANCH  10  12
ENDBRANCH   7  10
ENDBRANCH   2   4
ENDBRANCH   1   2
BRANCH   1  22
ATOM     22  C   UNL A   1      47.222  20.944  37.059  1.00  0.00     0.274 C 
BRANCH  22  23
ATOM     23  C   UNL A   1      46.226  21.949  36.477  1.00  0.00     0.275 C 
BRANCH  23  24
ATOM     24  O   UNL A   1      46.861  23.207  36.181  1.00  0.00    -0.458 OA
BRANCH  24  25
ATOM     25  C   UNL A   1      46.566  24.207  37.038  1.00  0.00     0.338 C 
ATOM     26  O   UNL A   1      47.016  24.403  38.154  1.00  0.00    -0.246 OA
BRANCH  25  27
ATOM     27  C   UNL A   1      45.639  25.130  36.404  1.00  0.00     0.060 A 
ATOM     28  C   UNL A   1      43.881  24.755  36.397  1.00  0.00     0.016 A 
ATOM     29  C   UNL A   1      46.202  26.488  35.418  1.00  0.00     0.016 A 
ATOM     30  C   UNL A   1      42.686  25.910  35.254  1.00  0.00     0.010 A 
ATOM     31  C   UNL A   1      45.099  27.513  34.440  1.00  0.00     0.010 A 
ATOM     32  C   UNL A   1      43.354  27.273  34.357  1.00  0.00    -0.014 A 
BRANCH  32  33
ATOM     33  C   UNL A   1      42.297  27.972  33.590  1.00  0.00     0.031 A 
ATOM     34  C   UNL A   1      41.613  29.100  34.248  1.00  0.00     0.074 A 
ATOM     35  C   UNL A   1      42.189  27.805  32.244  1.00  0.00     0.049 A 
ATOM     36  N   UNL A   1      40.633  29.816  33.786  1.00  0.00    -0.248 NA
ATOM     37  C   UNL A   1      42.058  29.458  35.602  1.00  0.00     0.031 C 
ATOM     38  C   UNL A   1      42.922  26.811  31.463  1.00  0.00     0.029 A 
ATOM     39  N   UNL A   1      41.530  28.500  31.258  1.00  0.00    -0.354 N 
ATOM     40  C   UNL A   1      40.277  30.647  34.828  1.00  0.00     0.074 A 
ATOM     41  C   UNL A   1      41.149  30.357  35.942  1.00  0.00     0.031 C 
ATOM     42  C   UNL A   1      42.880  27.093  30.158  1.00  0.00     0.029 A 
ATOM     43  C   UNL A   1      41.843  28.080  29.974  1.00  0.00     0.049 A 
ATOM     44  H   UNL A   1      40.895  29.228  31.445  1.00  0.00     0.167 HD
ATOM     45  C   UNL A   1      39.273  31.545  34.830  1.00  0.00     0.031 A 
ATOM     46  C   UNL A   1      41.271  28.343  28.783  1.00  0.00     0.031 A 
ATOM     47  C   UNL A   1      38.443  31.779  33.681  1.00  0.00     0.049 A 
ATOM     48  C   UNL A   1      40.058  29.210  28.851  1.00  0.00     0.074 A 
ATOM     49  C   UNL A   1      37.325  32.578  33.573  1.00  0.00     0.029 A 
ATOM     50  N   UNL A   1      38.658  31.208  32.429  1.00  0.00    -0.354 N 
ATOM     51  N   UNL A   1      39.593  29.868  29.886  1.00  0.00    -0.248 NA
ATOM     52  C   UNL A   1      39.256  29.335  27.632  1.00  0.00     0.031 C 
ATOM     53  C   UNL A   1      36.824  32.438  32.276  1.00  0.00     0.029 A 
ATOM     54  C   UNL A   1      37.680  31.625  31.545  1.00  0.00     0.049 A 
ATOM     55  H   UNL A   1      39.397  30.597  32.206  1.00  0.00     0.167 HD
ATOM     56  C   UNL A   1      38.450  30.500  29.446  1.00  0.00     0.074 A 
ATOM     57  C   UNL A   1      38.313  30.173  28.037  1.00  0.00     0.031 C 
ATOM     58  C   UNL A   1      37.591  31.277  30.147  1.00  0.00     0.031 A 
BRANCH  45  59
ATOM     59  C   UNL A   1      38.969  32.184  36.147  1.00  0.00    -0.014 A 
ATOM     60  C   UNL A   1      38.034  31.641  37.041  1.00  0.00     0.009 A 
ATOM     61  C   UNL A   1      39.562  33.420  36.446  1.00  0.00     0.009 A 
ATOM     62  C   UNL A   1      37.662  32.350  38.185  1.00  0.00     0.001 A 
ATOM     63  C   UNL A   1      39.219  34.107  37.609  1.00  0.00     0.001 A 
ATOM     64  C   UNL A   1      38.258  33.577  38.469  1.00  0.00     0.000 A 
ENDBRANCH  45  59
BRANCH  46  65
ATOM     65  C   UNL A   1      41.681  27.653  27.517  1.00  0.00    -0.014 A 
ATOM     66  C   UNL A   1      42.625  28.223  26.648  1.00  0.00     0.009 A 
ATOM     67  C   UNL A   1      41.094  26.431  27.135  1.00  0.00     0.009 A 
ATOM     68  C   UNL A   1      42.951  27.604  25.433  1.00  0.00     0.001 A 
ATOM     69  C   UNL A   1      41.455  25.789  25.946  1.00  0.00     0.001 A 
ATOM     70  C   UNL A   1      42.373  26.384  25.087  1.00  0.00     0.000 A 
ENDBRANCH  46  65
BRANCH  58  71
ATOM     71  C   UNL A   1      36.481  31.890  29.357  1.00  0.00    -0.014 A 
ATOM     72  C   UNL A   1      35.373  31.142  28.936  1.00  0.00     0.009 A 
ATOM     73  C   UNL A   1      36.555  33.257  29.050  1.00  0.00     0.009 A 
ATOM     74  C   UNL A   1      34.372  31.750  28.182  1.00  0.00     0.001 A 
ATOM     75  C   UNL A   1      35.530  33.870  28.339  1.00  0.00     0.001 A 
ATOM     76  C   UNL A   1      34.447  33.113  27.894  1.00  0.00     0.000 A 
ENDBRANCH  58  71
ENDBRANCH  32  33
ENDBRANCH  25  27
ENDBRANCH  24  25
ENDBRANCH  23  24
ENDBRANCH  22  23
ENDBRANCH   1  22
TORSDOF 16
ENDMDL
