MODEL 1
REMARK VINA RESULT:      -9.8      0.000      0.000
REMARK SMILES CC[C@H](NC(=O)c1ccc(C)nc1)C(=O)OCCOC(=O)c1ccc(-c2c3nc(c(-c4ccccc4)c4ccc([nH]4)c(-c4ccccc4)c4nc(c(-c5ccccc5)c5ccc2[nH]5)C=C4)C=C3)cc1
REMARK SMILES IDX 17 1 16 2 14 3 15 4 3 5 2 6 1 7 4 8 5 9 6 11 7 12 8 13 13 14
REMARK SMILES IDX 9 15 12 16 10 17 11 18 18 19 19 20 20 21 21 22 22 23 23 24
REMARK SMILES IDX 69 25 24 26 68 27 25 28 26 29 27 30 62 31 28 32 67 33 61 34
REMARK SMILES IDX 63 35 29 36 66 37 60 38 59 39 30 41 52 42 37 43 51 44 38 45
REMARK SMILES IDX 41 46 50 47 64 48 39 49 40 50 49 52 65 53 42 54 31 55 32 56
REMARK SMILES IDX 36 57 33 58 35 59 34 60 53 61 54 62 58 63 55 64 57 65 56 66
REMARK SMILES IDX 43 67 44 68 48 69 45 70 47 71 46 72
REMARK H PARENT 4 10 63 40 41 51
REMARK Flexibility Score: inf
ROOT
ATOM      1  C   UNL A   1      31.860  30.230  25.747  1.00  0.00     0.274 C 
ENDROOT
BRANCH   1   2
ATOM      2  O   UNL A   1      32.467  29.393  24.738  1.00  0.00    -0.461 OA
BRANCH   2   3
ATOM      3  C   UNL A   1      31.619  28.524  24.124  1.00  0.00     0.328 C 
ATOM      4  O   UNL A   1      30.529  28.852  23.656  1.00  0.00    -0.250 OA
BRANCH   3   5
ATOM      5  C   UNL A   1      32.121  27.062  24.071  1.00  0.00     0.192 C 
BRANCH   5   6
ATOM      6  C   UNL A   1      33.605  27.137  24.511  1.00  0.00     0.033 C 
ATOM      7  C   UNL A   1      33.930  26.487  25.847  1.00  0.00     0.007 C 
ENDBRANCH   5   6
BRANCH   5   8
ATOM      8  N   UNL A   1      31.954  26.272  22.833  1.00  0.00    -0.339 N 
ATOM      9  C   UNL A   1      32.956  25.408  22.419  1.00  0.00     0.253 C 
ATOM     10  H   UNL A   1      31.130  26.358  22.301  1.00  0.00     0.164 HD
ATOM     11  O   UNL A   1      33.711  25.716  21.503  1.00  0.00    -0.269 OA
BRANCH   9  12
ATOM     12  C   UNL A   1      33.054  24.079  23.042  1.00  0.00     0.058 A 
ATOM     13  C   UNL A   1      34.273  23.583  23.498  1.00  0.00     0.017 A 
ATOM     14  C   UNL A   1      31.924  23.283  23.188  1.00  0.00     0.125 A 
ATOM     15  C   UNL A   1      34.332  22.279  23.988  1.00  0.00     0.024 A 
ATOM     16  N   UNL A   1      31.955  22.003  23.653  1.00  0.00    -0.261 NA
ATOM     17  C   UNL A   1      33.168  21.509  24.004  1.00  0.00     0.037 A 
ATOM     18  C   UNL A   1      33.255  20.045  24.323  1.00  0.00     0.066 C 
ENDBRANCH   9  12
ENDBRANCH   5   8
ENDBRANCH   3   5
ENDBRANCH   2   3
ENDBRANCH   1   2
BRANCH   1  19
ATOM     19  C   UNL A   1      32.440  30.018  27.159  1.00  0.00     0.275 C 
BRANCH  19  20
ATOM     20  O   UNL A   1      33.862  29.768  27.216  1.00  0.00    -0.458 OA
BRANCH  20  21
ATOM     21  C   UNL A   1      34.534  30.651  27.979  1.00  0.00     0.338 C 
ATOM     22  O   UNL A   1      34.100  31.701  28.418  1.00  0.00    -0.246 OA
BRANCH  21  23
ATOM     23  C   UNL A   1      35.879  30.258  28.358  1.00  0.00     0.060 A 
ATOM     24  C   UNL A   1      36.850  30.263  27.350  1.00  0.00     0.016 A 
ATOM     25  C   UNL A   1      36.112  29.652  29.592  1.00  0.00     0.016 A 
ATOM     26  C   UNL A   1      38.087  29.685  27.591  1.00  0.00     0.010 A 
ATOM     27  C   UNL A   1      37.363  29.093  29.840  1.00  0.00     0.010 A 
ATOM     28  C   UNL A   1      38.358  29.124  28.848  1.00  0.00    -0.014 A 
BRANCH  28  29
ATOM     29  C   UNL A   1      39.745  28.756  29.186  1.00  0.00     0.031 A 
ATOM     30  C   UNL A   1      40.672  29.696  29.886  1.00  0.00     0.074 A 
ATOM     31  C   UNL A   1      40.150  27.531  28.809  1.00  0.00     0.049 A 
ATOM     32  N   UNL A   1      41.931  29.517  30.195  1.00  0.00    -0.248 NA
ATOM     33  C   UNL A   1      40.127  31.000  30.291  1.00  0.00     0.031 C 
ATOM     34  C   UNL A   1      39.309  26.542  28.127  1.00  0.00     0.029 A 
ATOM     35  N   UNL A   1      41.362  26.909  28.936  1.00  0.00    -0.354 N 
ATOM     36  C   UNL A   1      42.337  30.685  30.823  1.00  0.00     0.074 A 
ATOM     37  C   UNL A   1      41.191  31.573  30.844  1.00  0.00     0.031 C 
ATOM     38  C   UNL A   1      40.029  25.434  27.902  1.00  0.00     0.029 A 
ATOM     39  C   UNL A   1      41.385  25.655  28.383  1.00  0.00     0.049 A 
ATOM     40  H   UNL A   1      42.138  27.322  29.380  1.00  0.00     0.167 HD
ATOM     41  C   UNL A   1      43.559  30.982  31.326  1.00  0.00     0.031 A 
ATOM     42  C   UNL A   1      42.398  24.783  28.252  1.00  0.00     0.031 A 
ATOM     43  C   UNL A   1      44.692  30.093  31.283  1.00  0.00     0.049 A 
ATOM     44  C   UNL A   1      43.746  25.157  28.780  1.00  0.00     0.074 A 
ATOM     45  C   UNL A   1      45.966  30.292  31.789  1.00  0.00     0.029 A 
ATOM     46  N   UNL A   1      44.689  28.839  30.691  1.00  0.00    -0.354 N 
ATOM     47  N   UNL A   1      44.111  26.259  29.388  1.00  0.00    -0.248 NA
ATOM     48  C   UNL A   1      44.818  24.172  28.605  1.00  0.00     0.031 C 
ATOM     49  C   UNL A   1      46.743  29.173  31.468  1.00  0.00     0.029 A 
ATOM     50  C   UNL A   1      45.945  28.262  30.796  1.00  0.00     0.049 A 
ATOM     51  H   UNL A   1      43.910  28.420  30.259  1.00  0.00     0.167 HD
ATOM     52  C   UNL A   1      45.457  26.101  29.675  1.00  0.00     0.074 A 
ATOM     53  C   UNL A   1      45.837  24.788  29.188  1.00  0.00     0.031 C 
ATOM     54  C   UNL A   1      46.301  26.965  30.286  1.00  0.00     0.031 A 
BRANCH  41  55
ATOM     55  C   UNL A   1      43.746  32.338  31.944  1.00  0.00    -0.014 A 
ATOM     56  C   UNL A   1      43.548  32.542  33.318  1.00  0.00     0.009 A 
ATOM     57  C   UNL A   1      44.190  33.408  31.153  1.00  0.00     0.009 A 
ATOM     58  C   UNL A   1      43.775  33.799  33.885  1.00  0.00     0.001 A 
ATOM     59  C   UNL A   1      44.430  34.660  31.725  1.00  0.00     0.001 A 
ATOM     60  C   UNL A   1      44.219  34.855  33.088  1.00  0.00     0.000 A 
ENDBRANCH  41  55
BRANCH  42  61
ATOM     61  C   UNL A   1      42.155  23.487  27.577  1.00  0.00    -0.014 A 
ATOM     62  C   UNL A   1      42.471  23.322  26.222  1.00  0.00     0.009 A 
ATOM     63  C   UNL A   1      41.668  22.391  28.306  1.00  0.00     0.009 A 
ATOM     64  C   UNL A   1      42.298  22.082  25.607  1.00  0.00     0.001 A 
ATOM     65  C   UNL A   1      41.516  21.146  27.693  1.00  0.00     0.001 A 
ATOM     66  C   UNL A   1      41.827  20.995  26.343  1.00  0.00     0.000 A 
ENDBRANCH  42  61
BRANCH  54  67
ATOM     67  C   UNL A   1      47.716  26.499  30.460  1.00  0.00    -0.014 A 
ATOM     68  C   UNL A   1      48.664  26.689  29.443  1.00  0.00     0.009 A 
ATOM     69  C   UNL A   1      48.100  25.863  31.650  1.00  0.00     0.009 A 
ATOM     70  C   UNL A   1      49.968  26.220  29.604  1.00  0.00     0.001 A 
ATOM     71  C   UNL A   1      49.409  25.412  31.814  1.00  0.00     0.001 A 
ATOM     72  C   UNL A   1      50.340  25.584  30.788  1.00  0.00     0.000 A 
ENDBRANCH  54  67
ENDBRANCH  28  29
ENDBRANCH  21  23
ENDBRANCH  20  21
ENDBRANCH  19  20
ENDBRANCH   1  19
TORSDOF 14
ENDMDL
MODEL 2
REMARK VINA RESULT:      -9.7      3.246      7.717
REMARK SMILES CC[C@H](NC(=O)c1ccc(C)nc1)C(=O)OCCOC(=O)c1ccc(-c2c3nc(c(-c4ccccc4)c4ccc([nH]4)c(-c4ccccc4)c4nc(c(-c5ccccc5)c5ccc2[nH]5)C=C4)C=C3)cc1
REMARK SMILES IDX 17 1 16 2 14 3 15 4 3 5 2 6 1 7 4 8 5 9 6 11 7 12 8 13 13 14
REMARK SMILES IDX 9 15 12 16 10 17 11 18 18 19 19 20 20 21 21 22 22 23 23 24
REMARK SMILES IDX 69 25 24 26 68 27 25 28 26 29 27 30 62 31 28 32 67 33 61 34
REMARK SMILES IDX 63 35 29 36 66 37 60 38 59 39 30 41 52 42 37 43 51 44 38 45
REMARK SMILES IDX 41 46 50 47 64 48 39 49 40 50 49 52 65 53 42 54 31 55 32 56
REMARK SMILES IDX 36 57 33 58 35 59 34 60 53 61 54 62 58 63 55 64 57 65 56 66
REMARK SMILES IDX 43 67 44 68 48 69 45 70 47 71 46 72
REMARK H PARENT 4 10 63 40 41 51
REMARK Flexibility Score: inf
ROOT
ATOM      1  C   UNL A   1      32.030  31.456  26.881  1.00  0.00     0.274 C 
ENDROOT
BRANCH   1   2
ATOM      2  O   UNL A   1      32.510  30.205  27.421  1.00  0.00    -0.461 OA
BRANCH   2   3
ATOM      3  C   UNL A   1      33.563  29.656  26.758  1.00  0.00     0.328 C 
ATOM      4  O   UNL A   1      34.738  29.837  27.077  1.00  0.00    -0.250 OA
BRANCH   3   5
ATOM      5  C   UNL A   1      33.175  28.788  25.539  1.00  0.00     0.192 C 
BRANCH   5   6
ATOM      6  C   UNL A   1      34.152  27.587  25.580  1.00  0.00     0.033 C 
ATOM      7  C   UNL A   1      33.510  26.210  25.508  1.00  0.00     0.007 C 
ENDBRANCH   5   6
BRANCH   5   8
ATOM      8  N   UNL A   1      33.109  29.397  24.193  1.00  0.00    -0.339 N 
ATOM      9  C   UNL A   1      32.546  28.695  23.138  1.00  0.00     0.253 C 
ATOM     10  H   UNL A   1      33.463  30.304  24.045  1.00  0.00     0.164 HD
ATOM     11  O   UNL A   1      33.255  28.159  22.293  1.00  0.00    -0.269 OA
BRANCH   9  12
ATOM     12  C   UNL A   1      31.082  28.666  23.001  1.00  0.00     0.058 A 
ATOM     13  C   UNL A   1      30.387  29.738  22.448  1.00  0.00     0.017 A 
ATOM     14  C   UNL A   1      30.355  27.560  23.427  1.00  0.00     0.125 A 
ATOM     15  C   UNL A   1      28.993  29.706  22.432  1.00  0.00     0.024 A 
ATOM     16  N   UNL A   1      28.994  27.507  23.433  1.00  0.00    -0.261 NA
ATOM     17  C   UNL A   1      28.336  28.601  22.975  1.00  0.00     0.037 A 
ATOM     18  C   UNL A   1      26.848  28.644  23.162  1.00  0.00     0.066 C 
ENDBRANCH   9  12
ENDBRANCH   5   8
ENDBRANCH   3   5
ENDBRANCH   2   3
ENDBRANCH   1   2
BRANCH   1  19
ATOM     19  C   UNL A   1      32.908  32.668  27.249  1.00  0.00     0.275 C 
BRANCH  19  20
ATOM     20  O   UNL A   1      32.193  33.839  27.704  1.00  0.00    -0.458 OA
BRANCH  20  21
ATOM     21  C   UNL A   1      32.932  34.653  28.481  1.00  0.00     0.338 C 
ATOM     22  O   UNL A   1      32.655  35.797  28.793  1.00  0.00    -0.246 OA
BRANCH  21  23
ATOM     23  C   UNL A   1      34.133  34.065  29.044  1.00  0.00     0.060 A 
ATOM     24  C   UNL A   1      35.334  34.297  28.363  1.00  0.00     0.016 A 
ATOM     25  C   UNL A   1      34.039  33.102  30.048  1.00  0.00     0.016 A 
ATOM     26  C   UNL A   1      36.468  33.583  28.716  1.00  0.00     0.010 A 
ATOM     27  C   UNL A   1      35.186  32.402  30.417  1.00  0.00     0.010 A 
ATOM     28  C   UNL A   1      36.404  32.653  29.765  1.00  0.00    -0.014 A 
BRANCH  28  29
ATOM     29  C   UNL A   1      37.657  32.098  30.309  1.00  0.00     0.031 A 
ATOM     30  C   UNL A   1      38.306  30.880  29.734  1.00  0.00     0.074 A 
ATOM     31  C   UNL A   1      38.183  32.729  31.373  1.00  0.00     0.049 A 
ATOM     32  N   UNL A   1      39.380  30.259  30.149  1.00  0.00    -0.248 NA
ATOM     33  C   UNL A   1      37.677  30.281  28.548  1.00  0.00     0.031 C 
ATOM     34  C   UNL A   1      37.621  33.932  31.997  1.00  0.00     0.029 A 
ATOM     35  N   UNL A   1      39.294  32.452  32.121  1.00  0.00    -0.354 N 
ATOM     36  C   UNL A   1      39.555  29.188  29.284  1.00  0.00     0.074 A 
ATOM     37  C   UNL A   1      38.471  29.239  28.324  1.00  0.00     0.031 C 
ATOM     38  C   UNL A   1      38.395  34.293  33.029  1.00  0.00     0.029 A 
ATOM     39  C   UNL A   1      39.475  33.326  33.162  1.00  0.00     0.049 A 
ATOM     40  H   UNL A   1      39.901  31.701  31.930  1.00  0.00     0.167 HD
ATOM     41  C   UNL A   1      40.532  28.250  29.303  1.00  0.00     0.031 A 
ATOM     42  C   UNL A   1      40.398  33.333  34.138  1.00  0.00     0.031 A 
ATOM     43  C   UNL A   1      41.595  28.206  30.275  1.00  0.00     0.049 A 
ATOM     44  C   UNL A   1      41.438  32.260  34.156  1.00  0.00     0.074 A 
ATOM     45  C   UNL A   1      42.648  27.311  30.364  1.00  0.00     0.029 A 
ATOM     46  N   UNL A   1      41.735  29.091  31.334  1.00  0.00    -0.354 N 
ATOM     47  N   UNL A   1      41.603  31.264  33.321  1.00  0.00    -0.248 NA
ATOM     48  C   UNL A   1      42.417  32.310  35.247  1.00  0.00     0.031 C 
ATOM     49  C   UNL A   1      43.402  27.632  31.499  1.00  0.00     0.029 A 
ATOM     50  C   UNL A   1      42.840  28.749  32.095  1.00  0.00     0.049 A 
ATOM     51  H   UNL A   1      41.135  29.850  31.517  1.00  0.00     0.167 HD
ATOM     52  C   UNL A   1      42.709  30.567  33.781  1.00  0.00     0.074 A 
ATOM     53  C   UNL A   1      43.183  31.268  34.959  1.00  0.00     0.031 C 
ATOM     54  C   UNL A   1      43.279  29.449  33.274  1.00  0.00     0.031 A 
BRANCH  41  55
ATOM     55  C   UNL A   1      40.485  27.174  28.257  1.00  0.00    -0.014 A 
ATOM     56  C   UNL A   1      39.754  25.994  28.464  1.00  0.00     0.009 A 
ATOM     57  C   UNL A   1      41.126  27.372  27.025  1.00  0.00     0.009 A 
ATOM     58  C   UNL A   1      39.680  25.025  27.460  1.00  0.00     0.001 A 
ATOM     59  C   UNL A   1      41.038  26.408  26.018  1.00  0.00     0.001 A 
ATOM     60  C   UNL A   1      40.319  25.234  26.238  1.00  0.00     0.000 A 
ENDBRANCH  41  55
BRANCH  42  61
ATOM     61  C   UNL A   1      40.348  34.392  35.172  1.00  0.00    -0.014 A 
ATOM     62  C   UNL A   1      39.683  34.169  36.385  1.00  0.00     0.009 A 
ATOM     63  C   UNL A   1      41.025  35.606  34.975  1.00  0.00     0.009 A 
ATOM     64  C   UNL A   1      39.692  35.146  37.381  1.00  0.00     0.001 A 
ATOM     65  C   UNL A   1      41.049  36.573  35.981  1.00  0.00     0.001 A 
ATOM     66  C   UNL A   1      40.379  36.343  37.181  1.00  0.00     0.000 A 
ENDBRANCH  42  61
BRANCH  54  67
ATOM     67  C   UNL A   1      44.484  28.931  34.000  1.00  0.00    -0.014 A 
ATOM     68  C   UNL A   1      45.771  29.375  33.661  1.00  0.00     0.009 A 
ATOM     69  C   UNL A   1      44.328  27.990  35.027  1.00  0.00     0.009 A 
ATOM     70  C   UNL A   1      46.887  28.859  34.321  1.00  0.00     0.001 A 
ATOM     71  C   UNL A   1      45.445  27.490  35.697  1.00  0.00     0.001 A 
ATOM     72  C   UNL A   1      46.723  27.919  35.339  1.00  0.00     0.000 A 
ENDBRANCH  54  67
ENDBRANCH  28  29
ENDBRANCH  21  23
ENDBRANCH  20  21
ENDBRANCH  19  20
ENDBRANCH   1  19
TORSDOF 14
ENDMDL
MODEL 3
REMARK VINA RESULT:      -9.6      3.047      7.441
REMARK SMILES CC[C@H](NC(=O)c1ccc(C)nc1)C(=O)OCCOC(=O)c1ccc(-c2c3nc(c(-c4ccccc4)c4ccc([nH]4)c(-c4ccccc4)c4nc(c(-c5ccccc5)c5ccc2[nH]5)C=C4)C=C3)cc1
REMARK SMILES IDX 17 1 16 2 14 3 15 4 3 5 2 6 1 7 4 8 5 9 6 11 7 12 8 13 13 14
REMARK SMILES IDX 9 15 12 16 10 17 11 18 18 19 19 20 20 21 21 22 22 23 23 24
REMARK SMILES IDX 69 25 24 26 68 27 25 28 26 29 27 30 62 31 28 32 67 33 61 34
REMARK SMILES IDX 63 35 29 36 66 37 60 38 59 39 30 41 52 42 37 43 51 44 38 45
REMARK SMILES IDX 41 46 50 47 64 48 39 49 40 50 49 52 65 53 42 54 31 55 32 56
REMARK SMILES IDX 36 57 33 58 35 59 34 60 53 61 54 62 58 63 55 64 57 65 56 66
REMARK SMILES IDX 43 67 44 68 48 69 45 70 47 71 46 72
REMARK H PARENT 4 10 63 40 41 51
REMARK Flexibility Score: inf
ROOT
ATOM      1  C   UNL A   1      31.511  31.507  26.559  1.00  0.00     0.274 C 
ENDROOT
BRANCH   1   2
ATOM      2  O   UNL A   1      32.148  30.413  25.861  1.00  0.00    -0.461 OA
BRANCH   2   3
ATOM      3  C   UNL A   1      31.814  29.172  26.307  1.00  0.00     0.328 C 
ATOM      4  O   UNL A   1      31.651  28.898  27.496  1.00  0.00    -0.250 OA
BRANCH   3   5
ATOM      5  C   UNL A   1      31.672  28.105  25.198  1.00  0.00     0.192 C 
BRANCH   5   6
ATOM      6  C   UNL A   1      31.453  28.914  23.895  1.00  0.00     0.033 C 
ATOM      7  C   UNL A   1      30.013  29.022  23.419  1.00  0.00     0.007 C 
ENDBRANCH   5   6
BRANCH   5   8
ATOM      8  N   UNL A   1      30.679  27.019  25.345  1.00  0.00    -0.339 N 
ATOM      9  C   UNL A   1      30.964  25.748  24.871  1.00  0.00     0.253 C 
ATOM     10  H   UNL A   1      29.815  27.198  25.782  1.00  0.00     0.164 HD
ATOM     11  O   UNL A   1      30.476  25.348  23.819  1.00  0.00    -0.269 OA
BRANCH   9  12
ATOM     12  C   UNL A   1      31.799  24.853  25.686  1.00  0.00     0.058 A 
ATOM     13  C   UNL A   1      33.189  24.900  25.617  1.00  0.00     0.017 A 
ATOM     14  C   UNL A   1      31.214  23.932  26.548  1.00  0.00     0.125 A 
ATOM     15  C   UNL A   1      33.935  23.964  26.333  1.00  0.00     0.024 A 
ATOM     16  N   UNL A   1      31.917  23.001  27.249  1.00  0.00    -0.261 NA
ATOM     17  C   UNL A   1      33.265  23.005  27.095  1.00  0.00     0.037 A 
ATOM     18  C   UNL A   1      34.036  21.866  27.694  1.00  0.00     0.066 C 
ENDBRANCH   9  12
ENDBRANCH   5   8
ENDBRANCH   3   5
ENDBRANCH   2   3
ENDBRANCH   1   2
BRANCH   1  19
ATOM     19  C   UNL A   1      32.474  32.321  27.446  1.00  0.00     0.275 C 
BRANCH  19  20
ATOM     20  O   UNL A   1      32.326  33.756  27.369  1.00  0.00    -0.458 OA
BRANCH  20  21
ATOM     21  C   UNL A   1      32.960  34.417  28.356  1.00  0.00     0.338 C 
ATOM     22  O   UNL A   1      32.560  35.413  28.929  1.00  0.00    -0.246 OA
BRANCH  21  23
ATOM     23  C   UNL A   1      34.205  33.823  28.810  1.00  0.00     0.060 A 
ATOM     24  C   UNL A   1      34.181  33.163  30.044  1.00  0.00     0.016 A 
ATOM     25  C   UNL A   1      35.406  34.138  28.175  1.00  0.00     0.016 A 
ATOM     26  C   UNL A   1      35.374  32.778  30.636  1.00  0.00     0.010 A 
ATOM     27  C   UNL A   1      36.602  33.729  28.760  1.00  0.00     0.010 A 
ATOM     28  C   UNL A   1      36.588  33.034  29.980  1.00  0.00    -0.014 A 
BRANCH  28  29
ATOM     29  C   UNL A   1      37.820  32.393  30.477  1.00  0.00     0.031 A 
ATOM     30  C   UNL A   1      38.363  31.137  29.877  1.00  0.00     0.074 A 
ATOM     31  C   UNL A   1      38.426  32.984  31.522  1.00  0.00     0.049 A 
ATOM     32  N   UNL A   1      39.407  30.443  30.251  1.00  0.00    -0.248 NA
ATOM     33  C   UNL A   1      37.652  30.586  28.715  1.00  0.00     0.031 C 
ATOM     34  C   UNL A   1      37.969  34.220  32.167  1.00  0.00     0.029 A 
ATOM     35  N   UNL A   1      39.542  32.631  32.228  1.00  0.00    -0.354 N 
ATOM     36  C   UNL A   1      39.479  29.366  29.380  1.00  0.00     0.074 A 
ATOM     37  C   UNL A   1      38.365  29.494  28.460  1.00  0.00     0.031 C 
ATOM     38  C   UNL A   1      38.803  34.524  33.170  1.00  0.00     0.029 A 
ATOM     39  C   UNL A   1      39.820  33.486  33.262  1.00  0.00     0.049 A 
ATOM     40  H   UNL A   1      40.090  31.841  32.013  1.00  0.00     0.167 HD
ATOM     41  C   UNL A   1      40.390  28.365  29.361  1.00  0.00     0.031 A 
ATOM     42  C   UNL A   1      40.777  33.428  34.203  1.00  0.00     0.031 A 
ATOM     43  C   UNL A   1      41.483  28.246  30.293  1.00  0.00     0.049 A 
ATOM     44  C   UNL A   1      41.742  32.287  34.182  1.00  0.00     0.074 A 
ATOM     45  C   UNL A   1      42.476  27.281  30.342  1.00  0.00     0.029 A 
ATOM     46  N   UNL A   1      41.720  29.116  31.347  1.00  0.00    -0.354 N 
ATOM     47  N   UNL A   1      41.808  31.285  33.340  1.00  0.00    -0.248 NA
ATOM     48  C   UNL A   1      42.762  32.268  35.236  1.00  0.00     0.031 C 
ATOM     49  C   UNL A   1      43.290  27.547  31.449  1.00  0.00     0.029 A 
ATOM     50  C   UNL A   1      42.828  28.697  32.066  1.00  0.00     0.049 A 
ATOM     51  H   UNL A   1      41.181  29.913  31.553  1.00  0.00     0.167 HD
ATOM     52  C   UNL A   1      42.881  30.514  33.758  1.00  0.00     0.074 A 
ATOM     53  C   UNL A   1      43.445  31.177  34.919  1.00  0.00     0.031 C 
ATOM     54  C   UNL A   1      43.356  29.363  33.229  1.00  0.00     0.031 A 
BRANCH  41  55
ATOM     55  C   UNL A   1      40.232  27.298  28.317  1.00  0.00    -0.014 A 
ATOM     56  C   UNL A   1      40.855  27.411  27.065  1.00  0.00     0.009 A 
ATOM     57  C   UNL A   1      39.504  26.136  28.613  1.00  0.00     0.009 A 
ATOM     58  C   UNL A   1      40.737  26.386  26.123  1.00  0.00     0.001 A 
ATOM     59  C   UNL A   1      39.399  25.106  27.675  1.00  0.00     0.001 A 
ATOM     60  C   UNL A   1      40.012  25.234  26.430  1.00  0.00     0.000 A 
ENDBRANCH  41  55
BRANCH  42  61
ATOM     61  C   UNL A   1      40.836  34.484  35.240  1.00  0.00    -0.014 A 
ATOM     62  C   UNL A   1      40.149  34.330  36.451  1.00  0.00     0.009 A 
ATOM     63  C   UNL A   1      41.637  35.620  35.046  1.00  0.00     0.009 A 
ATOM     64  C   UNL A   1      40.259  35.299  37.449  1.00  0.00     0.001 A 
ATOM     65  C   UNL A   1      41.761  36.577  36.055  1.00  0.00     0.001 A 
ATOM     66  C   UNL A   1      41.068  36.417  37.253  1.00  0.00     0.000 A 
ENDBRANCH  42  61
BRANCH  54  67
ATOM     67  C   UNL A   1      44.549  28.762  33.909  1.00  0.00    -0.014 A 
ATOM     68  C   UNL A   1      45.850  29.124  33.528  1.00  0.00     0.009 A 
ATOM     69  C   UNL A   1      44.368  27.825  34.936  1.00  0.00     0.009 A 
ATOM     70  C   UNL A   1      46.952  28.532  34.145  1.00  0.00     0.001 A 
ATOM     71  C   UNL A   1      45.473  27.249  35.564  1.00  0.00     0.001 A 
ATOM     72  C   UNL A   1      46.763  27.597  35.163  1.00  0.00     0.000 A 
ENDBRANCH  54  67
ENDBRANCH  28  29
ENDBRANCH  21  23
ENDBRANCH  20  21
ENDBRANCH  19  20
ENDBRANCH   1  19
TORSDOF 14
ENDMDL
