MODEL 1
REMARK VINA RESULT:      -9.4      0.000      0.000
REMARK SMILES Cc1ccc(C(N)=O)c(NCc2ccc(C(=O)OCCOC(=O)c3ccc(-c4c5nc(c(-c6ccccc6)c6ccc([nH]6)c(-c6ccccc6)c6nc(c(-c7ccccc7)c7ccc4[nH]7)C=C6)C=C5)cc3)o2)n1
REMARK SMILES IDX 19 1 18 2 16 3 17 4 15 5 12 6 13 7 72 8 14 9 11 10 10 11
REMARK SMILES IDX 9 13 1 14 2 15 3 16 73 17 4 18 5 19 6 20 7 21 8 22 20 25
REMARK SMILES IDX 21 26 22 27 23 28 24 29 25 30 71 31 26 32 70 33 27 34 28 35
REMARK SMILES IDX 29 36 64 37 30 38 69 39 63 40 65 41 31 42 68 43 62 44 61 45
REMARK SMILES IDX 32 47 54 48 39 49 53 50 40 51 43 52 52 53 66 54 41 55 42 56
REMARK SMILES IDX 51 58 67 59 44 60 33 61 34 62 38 63 35 64 37 65 36 66 55 67
REMARK SMILES IDX 56 68 60 69 57 70 59 71 58 72 45 73 46 74 50 75 47 76 49 77
REMARK SMILES IDX 48 78
REMARK H PARENT 10 12 7 23 7 24 65 46 43 57
REMARK Flexibility Score: inf
ROOT
ATOM      1  C   UNL A   1      33.329  37.281  30.206  1.00  0.00     0.275 C 
ENDROOT
BRANCH   1   2
ATOM      2  O   UNL A   1      32.795  37.476  31.529  1.00  0.00    -0.456 OA
BRANCH   2   3
ATOM      3  C   UNL A   1      33.696  37.374  32.551  1.00  0.00     0.374 C 
ATOM      4  O   UNL A   1      34.111  38.327  33.202  1.00  0.00    -0.242 OA
BRANCH   3   5
ATOM      5  C   UNL A   1      33.996  35.987  32.817  1.00  0.00     0.211 A 
ATOM      6  C   UNL A   1      35.324  34.369  33.531  1.00  0.00     0.124 A 
ATOM      7  C   UNL A   1      34.089  33.794  33.318  1.00  0.00     0.048 A 
ATOM      8  O   UNL A   1      35.285  35.681  33.165  1.00  0.00    -0.452 OA
ATOM      9  C   UNL A   1      33.231  34.836  32.875  1.00  0.00     0.058 A 
BRANCH   6  10
ATOM     10  C   UNL A   1      36.621  33.901  34.104  1.00  0.00     0.190 C 
BRANCH  10  11
ATOM     11  N   UNL A   1      36.668  32.482  34.431  1.00  0.00    -0.362 N 
ATOM     12  H   UNL A   1      35.856  31.930  34.353  1.00  0.00     0.162 HD
BRANCH  11  13
ATOM     13  C   UNL A   1      37.863  31.913  34.854  1.00  0.00     0.139 A 
ATOM     14  C   UNL A   1      40.166  29.422  33.418  1.00  0.00     0.067 C 
ATOM     15  C   UNL A   1      39.605  30.418  34.386  1.00  0.00     0.040 A 
ATOM     16  C   UNL A   1      40.300  30.786  35.525  1.00  0.00     0.024 A 
ATOM     17  N   UNL A   1      38.406  30.958  34.063  1.00  0.00    -0.236 NA
ATOM     18  C   UNL A   1      39.734  31.741  36.362  1.00  0.00     0.019 A 
ATOM     19  C   UNL A   1      38.498  32.314  36.038  1.00  0.00     0.081 A 
BRANCH  19  20
ATOM     20  C   UNL A   1      37.949  33.317  36.991  1.00  0.00     0.252 C 
ATOM     21  N   UNL A   1      38.699  34.425  37.266  1.00  0.00    -0.365 N 
ATOM     22  O   UNL A   1      36.841  33.181  37.497  1.00  0.00    -0.269 OA
ATOM     23  H   UNL A   1      39.589  34.530  36.858  1.00  0.00     0.159 HD
ATOM     24  H   UNL A   1      38.350  35.117  37.873  1.00  0.00     0.159 HD
ENDBRANCH  19  20
ENDBRANCH  11  13
ENDBRANCH  10  11
ENDBRANCH   6  10
ENDBRANCH   3   5
ENDBRANCH   2   3
ENDBRANCH   1   2
BRANCH   1  25
ATOM     25  C   UNL A   1      32.577  36.179  29.449  1.00  0.00     0.275 C 
BRANCH  25  26
ATOM     26  O   UNL A   1      33.364  35.614  28.382  1.00  0.00    -0.458 OA
BRANCH  26  27
ATOM     27  C   UNL A   1      33.370  34.260  28.319  1.00  0.00     0.338 C 
ATOM     28  O   UNL A   1      32.547  33.549  27.767  1.00  0.00    -0.246 OA
BRANCH  27  29
ATOM     29  C   UNL A   1      34.616  33.732  28.906  1.00  0.00     0.060 A 
ATOM     30  C   UNL A   1      35.823  34.128  28.326  1.00  0.00     0.016 A 
ATOM     31  C   UNL A   1      34.610  32.816  29.960  1.00  0.00     0.016 A 
ATOM     32  C   UNL A   1      37.032  33.626  28.798  1.00  0.00     0.010 A 
ATOM     33  C   UNL A   1      35.826  32.299  30.428  1.00  0.00     0.010 A 
ATOM     34  C   UNL A   1      37.043  32.696  29.845  1.00  0.00    -0.014 A 
BRANCH  34  35
ATOM     35  C   UNL A   1      38.334  32.117  30.284  1.00  0.00     0.031 A 
ATOM     36  C   UNL A   1      38.796  30.803  29.725  1.00  0.00     0.074 A 
ATOM     37  C   UNL A   1      39.115  32.796  31.143  1.00  0.00     0.049 A 
ATOM     38  N   UNL A   1      39.892  30.137  29.982  1.00  0.00    -0.248 NA
ATOM     39  C   UNL A   1      37.912  30.157  28.742  1.00  0.00     0.031 C 
ATOM     40  C   UNL A   1      38.804  34.104  31.717  1.00  0.00     0.029 A 
ATOM     41  N   UNL A   1      40.340  32.477  31.675  1.00  0.00    -0.354 N 
ATOM     42  C   UNL A   1      39.828  28.990  29.202  1.00  0.00     0.074 A 
ATOM     43  C   UNL A   1      38.577  29.041  28.476  1.00  0.00     0.031 C 
ATOM     44  C   UNL A   1      39.816  34.481  32.517  1.00  0.00     0.029 A 
ATOM     45  C   UNL A   1      40.827  33.428  32.537  1.00  0.00     0.049 A 
ATOM     46  H   UNL A   1      40.822  31.647  31.459  1.00  0.00     0.167 HD
ATOM     47  C   UNL A   1      40.730  27.983  29.099  1.00  0.00     0.031 A 
ATOM     48  C   UNL A   1      41.954  33.442  33.273  1.00  0.00     0.031 A 
ATOM     49  C   UNL A   1      41.970  27.922  29.826  1.00  0.00     0.049 A 
ATOM     50  C   UNL A   1      42.904  32.279  33.194  1.00  0.00     0.074 A 
ATOM     51  C   UNL A   1      42.948  26.943  29.781  1.00  0.00     0.029 A 
ATOM     52  N   UNL A   1      42.402  28.879  30.729  1.00  0.00    -0.354 N 
ATOM     53  N   UNL A   1      42.831  31.203  32.450  1.00  0.00    -0.248 NA
ATOM     54  C   UNL A   1      44.092  32.337  34.059  1.00  0.00     0.031 C 
ATOM     55  C   UNL A   1      43.953  27.288  30.692  1.00  0.00     0.029 A 
ATOM     56  C   UNL A   1      43.620  28.504  31.269  1.00  0.00     0.049 A 
ATOM     57  H   UNL A   1      41.914  29.704  30.955  1.00  0.00     0.167 HD
ATOM     58  C   UNL A   1      43.969  30.464  32.743  1.00  0.00     0.074 A 
ATOM     59  C   UNL A   1      44.723  31.221  33.720  1.00  0.00     0.031 C 
ATOM     60  C   UNL A   1      44.355  29.263  32.245  1.00  0.00     0.031 A 
BRANCH  47  61
ATOM     61  C   UNL A   1      40.383  26.843  28.188  1.00  0.00    -0.014 A 
ATOM     62  C   UNL A   1      40.908  26.764  26.889  1.00  0.00     0.009 A 
ATOM     63  C   UNL A   1      39.543  25.816  28.648  1.00  0.00     0.009 A 
ATOM     64  C   UNL A   1      40.574  25.693  26.057  1.00  0.00     0.001 A 
ATOM     65  C   UNL A   1      39.228  24.737  27.821  1.00  0.00     0.001 A 
ATOM     66  C   UNL A   1      39.737  24.680  26.525  1.00  0.00     0.000 A 
ENDBRANCH  47  61
BRANCH  48  67
ATOM     67  C   UNL A   1      42.237  34.589  34.172  1.00  0.00    -0.014 A 
ATOM     68  C   UNL A   1      41.847  34.556  35.519  1.00  0.00     0.009 A 
ATOM     69  C   UNL A   1      42.893  35.729  33.681  1.00  0.00     0.009 A 
ATOM     70  C   UNL A   1      42.093  35.651  36.351  1.00  0.00     0.001 A 
ATOM     71  C   UNL A   1      43.160  36.810  34.521  1.00  0.00     0.001 A 
ATOM     72  C   UNL A   1      42.753  36.774  35.854  1.00  0.00     0.000 A 
ENDBRANCH  48  67
BRANCH  60  73
ATOM     73  C   UNL A   1      45.661  28.708  32.735  1.00  0.00    -0.014 A 
ATOM     74  C   UNL A   1      46.868  29.023  32.093  1.00  0.00     0.009 A 
ATOM     75  C   UNL A   1      45.687  27.887  33.873  1.00  0.00     0.009 A 
ATOM     76  C   UNL A   1      48.074  28.503  32.566  1.00  0.00     0.001 A 
ATOM     77  C   UNL A   1      46.896  27.388  34.357  1.00  0.00     0.001 A 
ATOM     78  C   UNL A   1      48.088  27.689  33.700  1.00  0.00     0.000 A 
ENDBRANCH  60  73
ENDBRANCH  34  35
ENDBRANCH  27  29
ENDBRANCH  26  27
ENDBRANCH  25  26
ENDBRANCH   1  25
TORSDOF 15
ENDMDL
MODEL 2
REMARK VINA RESULT:      -9.4      1.109      6.221
REMARK SMILES Cc1ccc(C(N)=O)c(NCc2ccc(C(=O)OCCOC(=O)c3ccc(-c4c5nc(c(-c6ccccc6)c6ccc([nH]6)c(-c6ccccc6)c6nc(c(-c7ccccc7)c7ccc4[nH]7)C=C6)C=C5)cc3)o2)n1
REMARK SMILES IDX 19 1 18 2 16 3 17 4 15 5 12 6 13 7 72 8 14 9 11 10 10 11
REMARK SMILES IDX 9 13 1 14 2 15 3 16 73 17 4 18 5 19 6 20 7 21 8 22 20 25
REMARK SMILES IDX 21 26 22 27 23 28 24 29 25 30 71 31 26 32 70 33 27 34 28 35
REMARK SMILES IDX 29 36 64 37 30 38 69 39 63 40 65 41 31 42 68 43 62 44 61 45
REMARK SMILES IDX 32 47 54 48 39 49 53 50 40 51 43 52 52 53 66 54 41 55 42 56
REMARK SMILES IDX 51 58 67 59 44 60 33 61 34 62 38 63 35 64 37 65 36 66 55 67
REMARK SMILES IDX 56 68 60 69 57 70 59 71 58 72 45 73 46 74 50 75 47 76 49 77
REMARK SMILES IDX 48 78
REMARK H PARENT 10 12 7 23 7 24 65 46 43 57
REMARK Flexibility Score: inf
ROOT
ATOM      1  C   UNL A   1      33.289  36.990  30.990  1.00  0.00     0.275 C 
ENDROOT
BRANCH   1   2
ATOM      2  O   UNL A   1      32.846  36.663  32.320  1.00  0.00    -0.456 OA
BRANCH   2   3
ATOM      3  C   UNL A   1      33.823  36.617  33.274  1.00  0.00     0.374 C 
ATOM      4  O   UNL A   1      34.122  37.557  34.003  1.00  0.00    -0.242 OA
BRANCH   3   5
ATOM      5  C   UNL A   1      34.366  35.282  33.369  1.00  0.00     0.211 A 
ATOM      6  C   UNL A   1      35.914  33.834  34.002  1.00  0.00     0.124 A 
ATOM      7  C   UNL A   1      34.844  33.090  33.550  1.00  0.00     0.048 A 
ATOM      8  O   UNL A   1      35.650  35.160  33.832  1.00  0.00    -0.452 OA
ATOM      9  C   UNL A   1      33.844  34.019  33.159  1.00  0.00     0.058 A 
BRANCH   6  10
ATOM     10  C   UNL A   1      37.215  33.518  34.662  1.00  0.00     0.190 C 
BRANCH  10  11
ATOM     11  N   UNL A   1      37.364  32.133  35.088  1.00  0.00    -0.362 N 
ATOM     12  H   UNL A   1      36.595  31.646  35.464  1.00  0.00     0.162 HD
BRANCH  11  13
ATOM     13  C   UNL A   1      38.596  31.503  34.961  1.00  0.00     0.139 A 
ATOM     14  C   UNL A   1      41.905  32.008  36.500  1.00  0.00     0.067 C 
ATOM     15  C   UNL A   1      40.838  31.408  35.636  1.00  0.00     0.040 A 
ATOM     16  C   UNL A   1      41.072  30.269  34.886  1.00  0.00     0.024 A 
ATOM     17  N   UNL A   1      39.631  32.021  35.663  1.00  0.00    -0.236 NA
ATOM     18  C   UNL A   1      40.026  29.749  34.134  1.00  0.00     0.019 A 
ATOM     19  C   UNL A   1      38.769  30.368  34.157  1.00  0.00     0.081 A 
BRANCH  19  20
ATOM     20  C   UNL A   1      37.704  29.761  33.312  1.00  0.00     0.252 C 
ATOM     21  N   UNL A   1      36.986  30.583  32.491  1.00  0.00    -0.365 N 
ATOM     22  O   UNL A   1      37.489  28.555  33.320  1.00  0.00    -0.269 OA
ATOM     23  H   UNL A   1      37.161  31.552  32.488  1.00  0.00     0.159 HD
ATOM     24  H   UNL A   1      36.292  30.206  31.902  1.00  0.00     0.159 HD
ENDBRANCH  19  20
ENDBRANCH  11  13
ENDBRANCH  10  11
ENDBRANCH   6  10
ENDBRANCH   3   5
ENDBRANCH   2   3
ENDBRANCH   1   2
BRANCH   1  25
ATOM     25  C   UNL A   1      32.463  36.261  29.923  1.00  0.00     0.275 C 
BRANCH  25  26
ATOM     26  O   UNL A   1      33.263  35.861  28.792  1.00  0.00    -0.458 OA
BRANCH  26  27
ATOM     27  C   UNL A   1      33.185  34.549  28.462  1.00  0.00     0.338 C 
ATOM     28  O   UNL A   1      32.244  33.981  27.932  1.00  0.00    -0.246 OA
BRANCH  27  29
ATOM     29  C   UNL A   1      34.481  33.888  28.707  1.00  0.00     0.060 A 
ATOM     30  C   UNL A   1      34.558  32.992  29.776  1.00  0.00     0.016 A 
ATOM     31  C   UNL A   1      35.618  34.181  27.952  1.00  0.00     0.016 A 
ATOM     32  C   UNL A   1      35.764  32.374  30.093  1.00  0.00     0.010 A 
ATOM     33  C   UNL A   1      36.836  33.569  28.279  1.00  0.00     0.010 A 
ATOM     34  C   UNL A   1      36.916  32.668  29.356  1.00  0.00    -0.014 A 
BRANCH  34  35
ATOM     35  C   UNL A   1      38.205  32.056  29.755  1.00  0.00     0.031 A 
ATOM     36  C   UNL A   1      39.122  32.783  30.696  1.00  0.00     0.074 A 
ATOM     37  C   UNL A   1      38.529  30.826  29.316  1.00  0.00     0.049 A 
ATOM     38  N   UNL A   1      40.287  32.414  31.163  1.00  0.00    -0.248 NA
ATOM     39  C   UNL A   1      38.664  34.095  31.180  1.00  0.00     0.031 C 
ATOM     40  C   UNL A   1      37.701  29.996  28.441  1.00  0.00     0.029 A 
ATOM     41  N   UNL A   1      39.641  30.059  29.557  1.00  0.00    -0.354 N 
ATOM     42  C   UNL A   1      40.707  33.449  31.987  1.00  0.00     0.074 A 
ATOM     43  C   UNL A   1      39.681  34.469  31.944  1.00  0.00     0.031 C 
ATOM     44  C   UNL A   1      38.332  28.829  28.225  1.00  0.00     0.029 A 
ATOM     45  C   UNL A   1      39.618  28.845  28.915  1.00  0.00     0.049 A 
ATOM     46  H   UNL A   1      40.383  30.350  30.135  1.00  0.00     0.167 HD
ATOM     47  C   UNL A   1      41.846  33.542  32.717  1.00  0.00     0.031 A 
ATOM     48  C   UNL A   1      40.537  27.863  28.876  1.00  0.00     0.031 A 
ATOM     49  C   UNL A   1      42.873  32.535  32.758  1.00  0.00     0.049 A 
ATOM     50  C   UNL A   1      41.824  28.022  29.638  1.00  0.00     0.074 A 
ATOM     51  C   UNL A   1      44.058  32.541  33.472  1.00  0.00     0.029 A 
ATOM     52  N   UNL A   1      42.837  31.344  32.051  1.00  0.00    -0.354 N 
ATOM     53  N   UNL A   1      42.206  29.005  30.417  1.00  0.00    -0.248 NA
ATOM     54  C   UNL A   1      42.805  26.933  29.515  1.00  0.00     0.031 C 
ATOM     55  C   UNL A   1      44.761  31.371  33.164  1.00  0.00     0.029 A 
ATOM     56  C   UNL A   1      43.990  30.617  32.293  1.00  0.00     0.049 A 
ATOM     57  H   UNL A   1      42.101  31.057  31.464  1.00  0.00     0.167 HD
ATOM     58  C   UNL A   1      43.462  28.646  30.888  1.00  0.00     0.074 A 
ATOM     59  C   UNL A   1      43.770  27.350  30.322  1.00  0.00     0.031 C 
ATOM     60  C   UNL A   1      44.286  29.332  31.718  1.00  0.00     0.031 A 
BRANCH  47  61
ATOM     61  C   UNL A   1      42.054  34.801  33.506  1.00  0.00    -0.014 A 
ATOM     62  C   UNL A   1      42.912  35.812  33.049  1.00  0.00     0.009 A 
ATOM     63  C   UNL A   1      41.356  34.991  34.710  1.00  0.00     0.009 A 
ATOM     64  C   UNL A   1      43.091  36.978  33.798  1.00  0.00     0.001 A 
ATOM     65  C   UNL A   1      41.521  36.165  35.446  1.00  0.00     0.001 A 
ATOM     66  C   UNL A   1      42.393  37.153  34.994  1.00  0.00     0.000 A 
ENDBRANCH  47  61
BRANCH  48  67
ATOM     67  C   UNL A   1      40.287  26.646  28.064  1.00  0.00    -0.014 A 
ATOM     68  C   UNL A   1      40.802  26.534  26.764  1.00  0.00     0.009 A 
ATOM     69  C   UNL A   1      39.520  25.592  28.586  1.00  0.00     0.009 A 
ATOM     70  C   UNL A   1      40.538  25.397  25.997  1.00  0.00     0.001 A 
ATOM     71  C   UNL A   1      39.279  24.447  27.826  1.00  0.00     0.001 A 
ATOM     72  C   UNL A   1      39.782  24.353  26.529  1.00  0.00     0.000 A 
ENDBRANCH  48  67
BRANCH  60  73
ATOM     73  C   UNL A   1      45.590  28.680  32.078  1.00  0.00    -0.014 A 
ATOM     74  C   UNL A   1      45.670  27.752  33.127  1.00  0.00     0.009 A 
ATOM     75  C   UNL A   1      46.744  28.974  31.336  1.00  0.00     0.009 A 
ATOM     76  C   UNL A   1      46.889  27.151  33.444  1.00  0.00     0.001 A 
ATOM     77  C   UNL A   1      47.956  28.354  31.640  1.00  0.00     0.001 A 
ATOM     78  C   UNL A   1      48.030  27.449  32.699  1.00  0.00     0.000 A 
ENDBRANCH  60  73
ENDBRANCH  34  35
ENDBRANCH  27  29
ENDBRANCH  26  27
ENDBRANCH  25  26
ENDBRANCH   1  25
TORSDOF 15
ENDMDL
MODEL 3
REMARK VINA RESULT:      -9.3      5.925     12.005
REMARK SMILES Cc1ccc(C(N)=O)c(NCc2ccc(C(=O)OCCOC(=O)c3ccc(-c4c5nc(c(-c6ccccc6)c6ccc([nH]6)c(-c6ccccc6)c6nc(c(-c7ccccc7)c7ccc4[nH]7)C=C6)C=C5)cc3)o2)n1
REMARK SMILES IDX 19 1 18 2 16 3 17 4 15 5 12 6 13 7 72 8 14 9 11 10 10 11
REMARK SMILES IDX 9 13 1 14 2 15 3 16 73 17 4 18 5 19 6 20 7 21 8 22 20 25
REMARK SMILES IDX 21 26 22 27 23 28 24 29 25 30 71 31 26 32 70 33 27 34 28 35
REMARK SMILES IDX 29 36 64 37 30 38 69 39 63 40 65 41 31 42 68 43 62 44 61 45
REMARK SMILES IDX 32 47 54 48 39 49 53 50 40 51 43 52 52 53 66 54 41 55 42 56
REMARK SMILES IDX 51 58 67 59 44 60 33 61 34 62 38 63 35 64 37 65 36 66 55 67
REMARK SMILES IDX 56 68 60 69 57 70 59 71 58 72 45 73 46 74 50 75 47 76 49 77
REMARK SMILES IDX 48 78
REMARK H PARENT 10 12 7 23 7 24 65 46 43 57
REMARK Flexibility Score: inf
ROOT
ATOM      1  C   UNL A   1      42.961  21.121  26.105  1.00  0.00     0.275 C 
ENDROOT
BRANCH   1   2
ATOM      2  O   UNL A   1      41.582  20.990  25.714  1.00  0.00    -0.456 OA
BRANCH   2   3
ATOM      3  C   UNL A   1      40.667  21.120  26.719  1.00  0.00     0.374 C 
ATOM      4  O   UNL A   1      40.833  20.705  27.861  1.00  0.00    -0.242 OA
BRANCH   3   5
ATOM      5  C   UNL A   1      39.541  21.906  26.273  1.00  0.00     0.211 A 
ATOM      6  C   UNL A   1      37.549  22.125  25.336  1.00  0.00     0.124 A 
ATOM      7  C   UNL A   1      37.859  23.352  25.885  1.00  0.00     0.048 A 
ATOM      8  O   UNL A   1      38.595  21.269  25.514  1.00  0.00    -0.452 OA
ATOM      9  C   UNL A   1      39.131  23.207  26.500  1.00  0.00     0.058 A 
BRANCH   6  10
ATOM     10  C   UNL A   1      36.347  21.541  24.671  1.00  0.00     0.190 C 
BRANCH  10  11
ATOM     11  N   UNL A   1      35.492  20.746  25.541  1.00  0.00    -0.362 N 
ATOM     12  H   UNL A   1      35.636  20.751  26.515  1.00  0.00     0.162 HD
BRANCH  11  13
ATOM     13  C   UNL A   1      34.472  19.979  24.990  1.00  0.00     0.139 A 
ATOM     14  C   UNL A   1      34.313  16.613  23.501  1.00  0.00     0.067 C 
ATOM     15  C   UNL A   1      33.854  17.954  23.987  1.00  0.00     0.040 A 
ATOM     16  C   UNL A   1      32.516  18.307  23.972  1.00  0.00     0.024 A 
ATOM     17  N   UNL A   1      34.815  18.776  24.472  1.00  0.00    -0.236 NA
ATOM     18  C   UNL A   1      32.159  19.554  24.470  1.00  0.00     0.019 A 
ATOM     19  C   UNL A   1      33.140  20.413  24.982  1.00  0.00     0.081 A 
BRANCH  19  20
ATOM     20  C   UNL A   1      32.681  21.739  25.482  1.00  0.00     0.252 C 
ATOM     21  N   UNL A   1      31.462  21.812  26.092  1.00  0.00    -0.365 N 
ATOM     22  O   UNL A   1      33.384  22.738  25.384  1.00  0.00    -0.269 OA
ATOM     23  H   UNL A   1      30.900  21.006  26.168  1.00  0.00     0.159 HD
ATOM     24  H   UNL A   1      31.144  22.670  26.455  1.00  0.00     0.159 HD
ENDBRANCH  19  20
ENDBRANCH  11  13
ENDBRANCH  10  11
ENDBRANCH   6  10
ENDBRANCH   3   5
ENDBRANCH   2   3
ENDBRANCH   1   2
BRANCH   1  25
ATOM     25  C   UNL A   1      43.768  21.922  25.076  1.00  0.00     0.275 C 
BRANCH  25  26
ATOM     26  O   UNL A   1      43.200  23.225  24.832  1.00  0.00    -0.458 OA
BRANCH  26  27
ATOM     27  C   UNL A   1      43.991  24.274  25.166  1.00  0.00     0.338 C 
ATOM     28  O   UNL A   1      45.024  24.618  24.616  1.00  0.00    -0.246 OA
BRANCH  27  29
ATOM     29  C   UNL A   1      43.356  25.066  26.237  1.00  0.00     0.060 A 
ATOM     30  C   UNL A   1      43.724  26.408  26.353  1.00  0.00     0.016 A 
ATOM     31  C   UNL A   1      42.467  24.499  27.152  1.00  0.00     0.016 A 
ATOM     32  C   UNL A   1      43.201  27.197  27.373  1.00  0.00     0.010 A 
ATOM     33  C   UNL A   1      41.950  25.289  28.188  1.00  0.00     0.010 A 
ATOM     34  C   UNL A   1      42.320  26.641  28.307  1.00  0.00    -0.014 A 
BRANCH  34  35
ATOM     35  C   UNL A   1      41.833  27.478  29.429  1.00  0.00     0.031 A 
ATOM     36  C   UNL A   1      42.549  27.457  30.748  1.00  0.00     0.074 A 
ATOM     37  C   UNL A   1      40.780  28.295  29.247  1.00  0.00     0.049 A 
ATOM     38  N   UNL A   1      42.279  28.118  31.844  1.00  0.00    -0.248 NA
ATOM     39  C   UNL A   1      43.730  26.584  30.843  1.00  0.00     0.031 C 
ATOM     40  C   UNL A   1      40.031  28.445  28.000  1.00  0.00     0.029 A 
ATOM     41  N   UNL A   1      40.165  29.161  30.116  1.00  0.00    -0.354 N 
ATOM     42  C   UNL A   1      43.246  27.735  32.763  1.00  0.00     0.074 A 
ATOM     43  C   UNL A   1      44.101  26.772  32.102  1.00  0.00     0.031 C 
ATOM     44  C   UNL A   1      39.060  29.356  28.182  1.00  0.00     0.029 A 
ATOM     45  C   UNL A   1      39.098  29.826  29.564  1.00  0.00     0.049 A 
ATOM     46  H   UNL A   1      40.461  29.294  31.046  1.00  0.00     0.167 HD
ATOM     47  C   UNL A   1      43.410  28.149  34.043  1.00  0.00     0.031 A 
ATOM     48  C   UNL A   1      38.238  30.704  30.113  1.00  0.00     0.031 A 
ATOM     49  C   UNL A   1      42.559  29.099  34.709  1.00  0.00     0.049 A 
ATOM     50  C   UNL A   1      38.400  31.093  31.557  1.00  0.00     0.074 A 
ATOM     51  C   UNL A   1      42.651  29.582  36.003  1.00  0.00     0.029 A 
ATOM     52  N   UNL A   1      41.457  29.709  34.131  1.00  0.00    -0.354 N 
ATOM     53  N   UNL A   1      39.322  30.725  32.413  1.00  0.00    -0.248 NA
ATOM     54  C   UNL A   1      37.399  32.019  32.108  1.00  0.00     0.031 C 
ATOM     55  C   UNL A   1      41.578  30.453  36.222  1.00  0.00     0.029 A 
ATOM     56  C   UNL A   1      40.845  30.546  35.049  1.00  0.00     0.049 A 
ATOM     57  H   UNL A   1      41.154  29.569  33.205  1.00  0.00     0.167 HD
ATOM     58  C   UNL A   1      39.024  31.387  33.597  1.00  0.00     0.074 A 
ATOM     59  C   UNL A   1      37.845  32.190  33.345  1.00  0.00     0.031 C 
ATOM     60  C   UNL A   1      39.670  31.333  34.787  1.00  0.00     0.031 A 
BRANCH  47  61
ATOM     61  C   UNL A   1      44.541  27.542  34.821  1.00  0.00    -0.014 A 
ATOM     62  C   UNL A   1      44.367  26.354  35.548  1.00  0.00     0.009 A 
ATOM     63  C   UNL A   1      45.805  28.152  34.802  1.00  0.00     0.009 A 
ATOM     64  C   UNL A   1      45.433  25.804  36.264  1.00  0.00     0.001 A 
ATOM     65  C   UNL A   1      46.873  27.589  35.502  1.00  0.00     0.001 A 
ATOM     66  C   UNL A   1      46.684  26.421  36.238  1.00  0.00     0.000 A 
ENDBRANCH  47  61
BRANCH  48  67
ATOM     67  C   UNL A   1      37.127  31.260  29.302  1.00  0.00    -0.014 A 
ATOM     68  C   UNL A   1      37.217  32.546  28.750  1.00  0.00     0.009 A 
ATOM     69  C   UNL A   1      35.962  30.505  29.085  1.00  0.00     0.009 A 
ATOM     70  C   UNL A   1      36.155  33.072  28.011  1.00  0.00     0.001 A 
ATOM     71  C   UNL A   1      34.914  31.024  28.325  1.00  0.00     0.001 A 
ATOM     72  C   UNL A   1      35.007  32.310  27.795  1.00  0.00     0.000 A 
ENDBRANCH  48  67
BRANCH  60  73
ATOM     73  C   UNL A   1      39.127  32.183  35.899  1.00  0.00    -0.014 A 
ATOM     74  C   UNL A   1      38.064  31.737  36.698  1.00  0.00     0.009 A 
ATOM     75  C   UNL A   1      39.710  33.431  36.170  1.00  0.00     0.009 A 
ATOM     76  C   UNL A   1      37.577  32.538  37.733  1.00  0.00     0.001 A 
ATOM     77  C   UNL A   1      39.236  34.219  37.219  1.00  0.00     0.001 A 
ATOM     78  C   UNL A   1      38.165  33.776  37.995  1.00  0.00     0.000 A 
ENDBRANCH  60  73
ENDBRANCH  34  35
ENDBRANCH  27  29
ENDBRANCH  26  27
ENDBRANCH  25  26
ENDBRANCH   1  25
TORSDOF 15
ENDMDL
