MODEL 1
REMARK VINA RESULT:      -9.0      0.000      0.000
REMARK SMILES COc1ccc([C@H]2O[C@@H]2C(=O)OCCOC(=O)c2ccc(-c3c4nc(c(-c5ccccc5)c5ccc([nH]5)c(-c5ccccc5)c5nc(c(-c6ccccc6)c6ccc3[nH]6)C=C5)C=C4)cc2)cc1Oc1ccccc1
REMARK SMILES IDX 13 1 12 2 10 3 11 4 9 5 7 6 8 7 6 8 3 9 4 10 67 11 5 12
REMARK SMILES IDX 66 13 2 14 1 15 68 16 69 17 70 18 74 19 71 20 73 21 72 22
REMARK SMILES IDX 14 23 15 24 16 25 17 26 18 27 19 28 65 29 20 30 64 31 21 32
REMARK SMILES IDX 22 33 23 34 58 35 24 36 63 37 57 38 59 39 25 40 62 41 56 42
REMARK SMILES IDX 55 43 26 45 48 46 33 47 47 48 34 49 37 50 46 51 60 52 35 53
REMARK SMILES IDX 36 54 45 56 61 57 38 58 27 59 28 60 32 61 29 62 31 63 30 64
REMARK SMILES IDX 49 65 50 66 54 67 51 68 53 69 52 70 39 71 40 72 44 73 41 74
REMARK SMILES IDX 43 75 42 76
REMARK H PARENT 59 44 37 55
REMARK Flexibility Score: inf
ROOT
ATOM      1  C   UNL A   1      32.584  35.622  30.741  1.00  0.00     0.274 C 
ENDROOT
BRANCH   1   2
ATOM      2  O   UNL A   1      33.705  35.633  31.646  1.00  0.00    -0.460 OA
BRANCH   2   3
ATOM      3  C   UNL A   1      33.749  34.655  32.586  1.00  0.00     0.338 C 
ATOM      4  O   UNL A   1      32.779  34.078  33.065  1.00  0.00    -0.249 OA
BRANCH   3   5
ATOM      5  C   UNL A   1      35.146  34.243  32.866  1.00  0.00     0.262 C 
ATOM      6  C   UNL A   1      35.729  34.540  34.239  1.00  0.00     0.190 C 
ATOM      7  O   UNL A   1      36.115  35.283  33.067  1.00  0.00    -0.352 OA
BRANCH   6   8
ATOM      8  C   UNL A   1      36.755  33.648  34.899  1.00  0.00    -0.012 A 
ATOM      9  C   UNL A   1      38.703  32.092  36.242  1.00  0.00     0.161 A 
ATOM     10  C   UNL A   1      37.687  32.728  36.959  1.00  0.00     0.051 A 
ATOM     11  C   UNL A   1      38.699  32.118  34.844  1.00  0.00     0.169 A 
ATOM     12  C   UNL A   1      36.735  33.499  36.294  1.00  0.00     0.010 A 
ATOM     13  C   UNL A   1      37.720  32.900  34.196  1.00  0.00     0.057 A 
BRANCH   9  14
ATOM     14  O   UNL A   1      39.636  31.433  36.994  1.00  0.00    -0.493 OA
ATOM     15  C   UNL A   1      40.811  32.237  37.132  1.00  0.00     0.278 C 
ENDBRANCH   9  14
BRANCH  11  16
ATOM     16  O   UNL A   1      39.553  31.484  33.960  1.00  0.00    -0.453 OA
BRANCH  16  17
ATOM     17  C   UNL A   1      39.216  30.279  33.398  1.00  0.00     0.127 A 
ATOM     18  C   UNL A   1      40.222  29.320  33.266  1.00  0.00     0.047 A 
ATOM     19  C   UNL A   1      37.935  30.027  32.907  1.00  0.00     0.047 A 
ATOM     20  C   UNL A   1      39.920  28.066  32.733  1.00  0.00     0.004 A 
ATOM     21  C   UNL A   1      37.630  28.766  32.391  1.00  0.00     0.004 A 
ATOM     22  C   UNL A   1      38.619  27.783  32.316  1.00  0.00     0.000 A 
ENDBRANCH  16  17
ENDBRANCH  11  16
ENDBRANCH   6   8
ENDBRANCH   3   5
ENDBRANCH   2   3
ENDBRANCH   1   2
BRANCH   1  23
ATOM     23  C   UNL A   1      32.890  36.502  29.524  1.00  0.00     0.275 C 
BRANCH  23  24
ATOM     24  O   UNL A   1      33.658  35.776  28.541  1.00  0.00    -0.458 OA
BRANCH  24  25
ATOM     25  C   UNL A   1      33.392  34.453  28.472  1.00  0.00     0.338 C 
ATOM     26  O   UNL A   1      32.328  33.922  28.200  1.00  0.00    -0.246 OA
BRANCH  25  27
ATOM     27  C   UNL A   1      34.632  33.676  28.594  1.00  0.00     0.060 A 
ATOM     28  C   UNL A   1      34.721  32.814  29.679  1.00  0.00     0.016 A 
ATOM     29  C   UNL A   1      35.754  33.931  27.812  1.00  0.00     0.016 A 
ATOM     30  C   UNL A   1      35.951  32.315  30.083  1.00  0.00     0.010 A 
ATOM     31  C   UNL A   1      36.974  33.320  28.145  1.00  0.00     0.010 A 
ATOM     32  C   UNL A   1      37.099  32.543  29.314  1.00  0.00    -0.014 A 
BRANCH  32  33
ATOM     33  C   UNL A   1      38.407  31.983  29.767  1.00  0.00     0.031 A 
ATOM     34  C   UNL A   1      38.888  30.641  29.272  1.00  0.00     0.074 A 
ATOM     35  C   UNL A   1      39.200  32.702  30.591  1.00  0.00     0.049 A 
ATOM     36  N   UNL A   1      39.953  29.961  29.628  1.00  0.00    -0.248 NA
ATOM     37  C   UNL A   1      38.060  29.965  28.262  1.00  0.00     0.031 C 
ATOM     38  C   UNL A   1      38.893  34.035  31.118  1.00  0.00     0.029 A 
ATOM     39  N   UNL A   1      40.442  32.424  31.110  1.00  0.00    -0.354 N 
ATOM     40  C   UNL A   1      39.894  28.763  28.923  1.00  0.00     0.074 A 
ATOM     41  C   UNL A   1      38.678  28.799  28.140  1.00  0.00     0.031 C 
ATOM     42  C   UNL A   1      39.939  34.482  31.826  1.00  0.00     0.029 A 
ATOM     43  C   UNL A   1      40.947  33.432  31.895  1.00  0.00     0.049 A 
ATOM     44  H   UNL A   1      40.923  31.583  30.937  1.00  0.00     0.167 HD
ATOM     45  C   UNL A   1      40.771  27.729  28.925  1.00  0.00     0.031 A 
ATOM     46  C   UNL A   1      42.077  33.503  32.625  1.00  0.00     0.031 A 
ATOM     47  C   UNL A   1      41.998  27.703  29.682  1.00  0.00     0.049 A 
ATOM     48  C   UNL A   1      43.003  32.323  32.653  1.00  0.00     0.074 A 
ATOM     49  C   UNL A   1      42.957  26.705  29.737  1.00  0.00     0.029 A 
ATOM     50  N   UNL A   1      42.440  28.723  30.510  1.00  0.00    -0.354 N 
ATOM     51  N   UNL A   1      42.914  31.185  32.009  1.00  0.00    -0.248 NA
ATOM     52  C   UNL A   1      44.185  32.438  33.517  1.00  0.00     0.031 C 
ATOM     53  C   UNL A   1      43.948  27.096  30.645  1.00  0.00     0.029 A 
ATOM     54  C   UNL A   1      43.645  28.369  31.098  1.00  0.00     0.049 A 
ATOM     55  H   UNL A   1      41.969  29.575  30.657  1.00  0.00     0.167 HD
ATOM     56  C   UNL A   1      44.037  30.457  32.373  1.00  0.00     0.074 A 
ATOM     57  C   UNL A   1      44.807  31.294  33.269  1.00  0.00     0.031 C 
ATOM     58  C   UNL A   1      44.398  29.203  32.000  1.00  0.00     0.031 A 
BRANCH  45  59
ATOM     59  C   UNL A   1      40.410  26.510  28.115  1.00  0.00    -0.014 A 
ATOM     60  C   UNL A   1      39.543  25.520  28.607  1.00  0.00     0.009 A 
ATOM     61  C   UNL A   1      40.929  26.365  26.817  1.00  0.00     0.009 A 
ATOM     62  C   UNL A   1      39.244  24.393  27.837  1.00  0.00     0.001 A 
ATOM     63  C   UNL A   1      40.600  25.256  26.037  1.00  0.00     0.001 A 
ATOM     64  C   UNL A   1      39.768  24.265  26.551  1.00  0.00     0.000 A 
ENDBRANCH  45  59
BRANCH  46  65
ATOM     65  C   UNL A   1      42.371  34.721  33.427  1.00  0.00    -0.014 A 
ATOM     66  C   UNL A   1      43.147  35.762  32.894  1.00  0.00     0.009 A 
ATOM     67  C   UNL A   1      41.884  34.845  34.739  1.00  0.00     0.009 A 
ATOM     68  C   UNL A   1      43.447  36.888  33.665  1.00  0.00     0.001 A 
ATOM     69  C   UNL A   1      42.151  35.989  35.492  1.00  0.00     0.001 A 
ATOM     70  C   UNL A   1      42.942  37.004  34.959  1.00  0.00     0.000 A 
ENDBRANCH  46  65
BRANCH  58  71
ATOM     71  C   UNL A   1      45.706  28.687  32.536  1.00  0.00    -0.014 A 
ATOM     72  C   UNL A   1      45.775  27.970  33.741  1.00  0.00     0.009 A 
ATOM     73  C   UNL A   1      46.891  28.934  31.824  1.00  0.00     0.009 A 
ATOM     74  C   UNL A   1      47.010  27.561  34.250  1.00  0.00     0.001 A 
ATOM     75  C   UNL A   1      48.120  28.490  32.316  1.00  0.00     0.001 A 
ATOM     76  C   UNL A   1      48.180  27.819  33.537  1.00  0.00     0.000 A 
ENDBRANCH  58  71
ENDBRANCH  32  33
ENDBRANCH  25  27
ENDBRANCH  24  25
ENDBRANCH  23  24
ENDBRANCH   1  23
TORSDOF 15
ENDMDL
MODEL 2
REMARK VINA RESULT:      -9.0      5.302     11.438
REMARK SMILES COc1ccc([C@H]2O[C@@H]2C(=O)OCCOC(=O)c2ccc(-c3c4nc(c(-c5ccccc5)c5ccc([nH]5)c(-c5ccccc5)c5nc(c(-c6ccccc6)c6ccc3[nH]6)C=C5)C=C4)cc2)cc1Oc1ccccc1
REMARK SMILES IDX 13 1 12 2 10 3 11 4 9 5 7 6 8 7 6 8 3 9 4 10 67 11 5 12
REMARK SMILES IDX 66 13 2 14 1 15 68 16 69 17 70 18 74 19 71 20 73 21 72 22
REMARK SMILES IDX 14 23 15 24 16 25 17 26 18 27 19 28 65 29 20 30 64 31 21 32
REMARK SMILES IDX 22 33 23 34 58 35 24 36 63 37 57 38 59 39 25 40 62 41 56 42
REMARK SMILES IDX 55 43 26 45 48 46 33 47 47 48 34 49 37 50 46 51 60 52 35 53
REMARK SMILES IDX 36 54 45 56 61 57 38 58 27 59 28 60 32 61 29 62 31 63 30 64
REMARK SMILES IDX 49 65 50 66 54 67 51 68 53 69 52 70 39 71 40 72 44 73 41 74
REMARK SMILES IDX 43 75 42 76
REMARK H PARENT 59 44 37 55
REMARK Flexibility Score: inf
ROOT
ATOM      1  C   UNL A   1      42.843  20.697  25.935  1.00  0.00     0.274 C 
ENDROOT
BRANCH   1   2
ATOM      2  O   UNL A   1      41.483  21.129  25.734  1.00  0.00    -0.460 OA
BRANCH   2   3
ATOM      3  C   UNL A   1      40.604  20.892  26.741  1.00  0.00     0.338 C 
ATOM      4  O   UNL A   1      40.783  20.126  27.682  1.00  0.00    -0.249 OA
BRANCH   3   5
ATOM      5  C   UNL A   1      39.434  21.799  26.657  1.00  0.00     0.262 C 
ATOM      6  C   UNL A   1      38.606  21.800  25.382  1.00  0.00     0.190 C 
ATOM      7  O   UNL A   1      39.501  22.879  25.714  1.00  0.00    -0.352 OA
BRANCH   6   8
ATOM      8  C   UNL A   1      37.119  22.072  25.376  1.00  0.00    -0.012 A 
ATOM      9  C   UNL A   1      34.361  22.708  25.456  1.00  0.00     0.161 A 
ATOM     10  C   UNL A   1      35.305  23.688  25.145  1.00  0.00     0.051 A 
ATOM     11  C   UNL A   1      34.756  21.375  25.611  1.00  0.00     0.169 A 
ATOM     12  C   UNL A   1      36.663  23.372  25.115  1.00  0.00     0.010 A 
ATOM     13  C   UNL A   1      36.134  21.081  25.569  1.00  0.00     0.057 A 
BRANCH   9  14
ATOM     14  O   UNL A   1      33.066  23.139  25.544  1.00  0.00    -0.493 OA
ATOM     15  C   UNL A   1      33.035  24.528  25.884  1.00  0.00     0.278 C 
ENDBRANCH   9  14
BRANCH  11  16
ATOM     16  O   UNL A   1      33.973  20.256  25.828  1.00  0.00    -0.453 OA
BRANCH  16  17
ATOM     17  C   UNL A   1      33.606  19.443  24.788  1.00  0.00     0.127 A 
ATOM     18  C   UNL A   1      34.310  18.250  24.613  1.00  0.00     0.047 A 
ATOM     19  C   UNL A   1      32.610  19.809  23.882  1.00  0.00     0.047 A 
ATOM     20  C   UNL A   1      33.950  17.373  23.590  1.00  0.00     0.004 A 
ATOM     21  C   UNL A   1      32.238  18.922  22.870  1.00  0.00     0.004 A 
ATOM     22  C   UNL A   1      32.899  17.701  22.732  1.00  0.00     0.000 A 
ENDBRANCH  16  17
ENDBRANCH  11  16
ENDBRANCH   6   8
ENDBRANCH   3   5
ENDBRANCH   2   3
ENDBRANCH   1   2
BRANCH   1  23
ATOM     23  C   UNL A   1      43.798  21.608  25.159  1.00  0.00     0.275 C 
BRANCH  23  24
ATOM     24  O   UNL A   1      43.132  22.818  24.739  1.00  0.00    -0.458 OA
BRANCH  24  25
ATOM     25  C   UNL A   1      43.793  23.961  25.021  1.00  0.00     0.338 C 
ATOM     26  O   UNL A   1      44.809  24.383  24.492  1.00  0.00    -0.246 OA
BRANCH  25  27
ATOM     27  C   UNL A   1      43.020  24.778  25.965  1.00  0.00     0.060 A 
ATOM     28  C   UNL A   1      43.275  26.143  25.957  1.00  0.00     0.016 A 
ATOM     29  C   UNL A   1      42.238  24.220  26.971  1.00  0.00     0.016 A 
ATOM     30  C   UNL A   1      42.878  26.939  27.024  1.00  0.00     0.010 A 
ATOM     31  C   UNL A   1      41.726  25.051  27.980  1.00  0.00     0.010 A 
ATOM     32  C   UNL A   1      42.080  26.413  28.046  1.00  0.00    -0.014 A 
BRANCH  32  33
ATOM     33  C   UNL A   1      41.659  27.297  29.174  1.00  0.00     0.031 A 
ATOM     34  C   UNL A   1      42.444  27.337  30.462  1.00  0.00     0.074 A 
ATOM     35  C   UNL A   1      40.591  28.112  29.030  1.00  0.00     0.049 A 
ATOM     36  N   UNL A   1      42.175  27.976  31.576  1.00  0.00    -0.248 NA
ATOM     37  C   UNL A   1      43.682  26.545  30.514  1.00  0.00     0.031 C 
ATOM     38  C   UNL A   1      39.759  28.219  27.829  1.00  0.00     0.029 A 
ATOM     39  N   UNL A   1      40.038  29.027  29.894  1.00  0.00    -0.354 N 
ATOM     40  C   UNL A   1      43.180  27.623  32.471  1.00  0.00     0.074 A 
ATOM     41  C   UNL A   1      44.049  26.696  31.778  1.00  0.00     0.031 C 
ATOM     42  C   UNL A   1      38.848  29.187  28.007  1.00  0.00     0.029 A 
ATOM     43  C   UNL A   1      38.959  29.696  29.367  1.00  0.00     0.049 A 
ATOM     44  H   UNL A   1      40.380  29.186  30.803  1.00  0.00     0.167 HD
ATOM     45  C   UNL A   1      43.365  28.034  33.750  1.00  0.00     0.031 A 
ATOM     46  C   UNL A   1      38.122  30.595  29.918  1.00  0.00     0.031 A 
ATOM     47  C   UNL A   1      42.517  28.980  34.433  1.00  0.00     0.049 A 
ATOM     48  C   UNL A   1      38.316  30.990  31.353  1.00  0.00     0.074 A 
ATOM     49  C   UNL A   1      42.632  29.467  35.724  1.00  0.00     0.029 A 
ATOM     50  N   UNL A   1      41.402  29.588  33.878  1.00  0.00    -0.354 N 
ATOM     51  N   UNL A   1      39.250  30.621  32.194  1.00  0.00    -0.248 NA
ATOM     52  C   UNL A   1      37.332  31.926  31.913  1.00  0.00     0.031 C 
ATOM     53  C   UNL A   1      41.553  30.323  35.970  1.00  0.00     0.029 A 
ATOM     54  C   UNL A   1      40.807  30.427  34.808  1.00  0.00     0.049 A 
ATOM     55  H   UNL A   1      41.080  29.447  32.958  1.00  0.00     0.167 HD
ATOM     56  C   UNL A   1      38.979  31.293  33.377  1.00  0.00     0.074 A 
ATOM     57  C   UNL A   1      37.813  32.116  33.134  1.00  0.00     0.031 C 
ATOM     58  C   UNL A   1      39.637  31.232  34.562  1.00  0.00     0.031 A 
BRANCH  45  59
ATOM     59  C   UNL A   1      44.509  27.422  34.517  1.00  0.00    -0.014 A 
ATOM     60  C   UNL A   1      45.784  28.009  34.544  1.00  0.00     0.009 A 
ATOM     61  C   UNL A   1      44.294  26.243  35.253  1.00  0.00     0.009 A 
ATOM     62  C   UNL A   1      46.829  27.405  35.251  1.00  0.00     0.001 A 
ATOM     63  C   UNL A   1      45.330  25.662  35.987  1.00  0.00     0.001 A 
ATOM     64  C   UNL A   1      46.599  26.236  35.975  1.00  0.00     0.000 A 
ENDBRANCH  45  59
BRANCH  46  65
ATOM     65  C   UNL A   1      36.992  31.148  29.122  1.00  0.00    -0.014 A 
ATOM     66  C   UNL A   1      36.987  32.493  28.722  1.00  0.00     0.009 A 
ATOM     67  C   UNL A   1      35.905  30.333  28.766  1.00  0.00     0.009 A 
ATOM     68  C   UNL A   1      35.909  33.013  28.003  1.00  0.00     0.001 A 
ATOM     69  C   UNL A   1      34.848  30.845  28.014  1.00  0.00     0.001 A 
ATOM     70  C   UNL A   1      34.845  32.188  27.642  1.00  0.00     0.000 A 
ENDBRANCH  46  65
BRANCH  58  71
ATOM     71  C   UNL A   1      39.125  32.115  35.668  1.00  0.00    -0.014 A 
ATOM     72  C   UNL A   1      38.174  31.657  36.594  1.00  0.00     0.009 A 
ATOM     73  C   UNL A   1      39.598  33.432  35.776  1.00  0.00     0.009 A 
ATOM     74  C   UNL A   1      37.666  32.518  37.569  1.00  0.00     0.001 A 
ATOM     75  C   UNL A   1      39.116  34.279  36.776  1.00  0.00     0.001 A 
ATOM     76  C   UNL A   1      38.138  33.827  37.661  1.00  0.00     0.000 A 
ENDBRANCH  58  71
ENDBRANCH  32  33
ENDBRANCH  25  27
ENDBRANCH  24  25
ENDBRANCH  23  24
ENDBRANCH   1  23
TORSDOF 15
ENDMDL
MODEL 3
REMARK VINA RESULT:      -8.6      3.551      8.787
REMARK SMILES COc1ccc([C@H]2O[C@@H]2C(=O)OCCOC(=O)c2ccc(-c3c4nc(c(-c5ccccc5)c5ccc([nH]5)c(-c5ccccc5)c5nc(c(-c6ccccc6)c6ccc3[nH]6)C=C5)C=C4)cc2)cc1Oc1ccccc1
REMARK SMILES IDX 13 1 12 2 10 3 11 4 9 5 7 6 8 7 6 8 3 9 4 10 67 11 5 12
REMARK SMILES IDX 66 13 2 14 1 15 68 16 69 17 70 18 74 19 71 20 73 21 72 22
REMARK SMILES IDX 14 23 15 24 16 25 17 26 18 27 19 28 65 29 20 30 64 31 21 32
REMARK SMILES IDX 22 33 23 34 58 35 24 36 63 37 57 38 59 39 25 40 62 41 56 42
REMARK SMILES IDX 55 43 26 45 48 46 33 47 47 48 34 49 37 50 46 51 60 52 35 53
REMARK SMILES IDX 36 54 45 56 61 57 38 58 27 59 28 60 32 61 29 62 31 63 30 64
REMARK SMILES IDX 49 65 50 66 54 67 51 68 53 69 52 70 39 71 40 72 44 73 41 74
REMARK SMILES IDX 43 75 42 76
REMARK H PARENT 59 44 37 55
REMARK Flexibility Score: inf
ROOT
ATOM      1  C   UNL A   1      33.703  35.361  28.533  1.00  0.00     0.274 C 
ENDROOT
BRANCH   1   2
ATOM      2  O   UNL A   1      33.232  34.000  28.508  1.00  0.00    -0.460 OA
BRANCH   2   3
ATOM      3  C   UNL A   1      34.141  33.026  28.767  1.00  0.00     0.338 C 
ATOM      4  O   UNL A   1      34.704  32.840  29.840  1.00  0.00    -0.249 OA
BRANCH   3   5
ATOM      5  C   UNL A   1      34.268  32.093  27.621  1.00  0.00     0.262 C 
ATOM      6  C   UNL A   1      33.585  30.738  27.709  1.00  0.00     0.190 C 
ATOM      7  O   UNL A   1      35.013  30.884  27.831  1.00  0.00    -0.352 OA
BRANCH   6   8
ATOM      8  C   UNL A   1      33.034  30.022  26.498  1.00  0.00    -0.012 A 
ATOM      9  C   UNL A   1      31.864  28.666  24.304  1.00  0.00     0.161 A 
ATOM     10  C   UNL A   1      31.194  29.724  24.923  1.00  0.00     0.051 A 
ATOM     11  C   UNL A   1      33.171  28.345  24.683  1.00  0.00     0.169 A 
ATOM     12  C   UNL A   1      31.770  30.383  26.007  1.00  0.00     0.010 A 
ATOM     13  C   UNL A   1      33.734  29.032  25.779  1.00  0.00     0.057 A 
BRANCH   9  14
ATOM     14  O   UNL A   1      31.177  28.030  23.308  1.00  0.00    -0.493 OA
ATOM     15  C   UNL A   1      30.649  28.990  22.388  1.00  0.00     0.278 C 
ENDBRANCH   9  14
BRANCH  11  16
ATOM     16  O   UNL A   1      34.028  27.405  24.140  1.00  0.00    -0.453 OA
BRANCH  16  17
ATOM     17  C   UNL A   1      33.877  26.071  24.420  1.00  0.00     0.127 A 
ATOM     18  C   UNL A   1      33.687  25.704  25.753  1.00  0.00     0.047 A 
ATOM     19  C   UNL A   1      33.976  25.095  23.429  1.00  0.00     0.047 A 
ATOM     20  C   UNL A   1      33.493  24.362  26.083  1.00  0.00     0.004 A 
ATOM     21  C   UNL A   1      33.763  23.754  23.758  1.00  0.00     0.004 A 
ATOM     22  C   UNL A   1      33.511  23.390  25.081  1.00  0.00     0.000 A 
ENDBRANCH  16  17
ENDBRANCH  11  16
ENDBRANCH   6   8
ENDBRANCH   3   5
ENDBRANCH   2   3
ENDBRANCH   1   2
BRANCH   1  23
ATOM     23  C   UNL A   1      32.935  36.158  29.592  1.00  0.00     0.275 C 
BRANCH  23  24
ATOM     24  O   UNL A   1      32.512  35.304  30.676  1.00  0.00    -0.458 OA
BRANCH  24  25
ATOM     25  C   UNL A   1      32.720  35.807  31.913  1.00  0.00     0.338 C 
ATOM     26  O   UNL A   1      32.039  36.629  32.505  1.00  0.00    -0.246 OA
BRANCH  25  27
ATOM     27  C   UNL A   1      33.813  35.088  32.579  1.00  0.00     0.060 A 
ATOM     28  C   UNL A   1      35.068  35.681  32.527  1.00  0.00     0.016 A 
ATOM     29  C   UNL A   1      33.676  33.785  33.047  1.00  0.00     0.016 A 
ATOM     30  C   UNL A   1      36.209  34.939  32.800  1.00  0.00     0.010 A 
ATOM     31  C   UNL A   1      34.821  33.078  33.449  1.00  0.00     0.010 A 
ATOM     32  C   UNL A   1      36.107  33.629  33.284  1.00  0.00    -0.014 A 
BRANCH  32  33
ATOM     33  C   UNL A   1      37.352  32.859  33.581  1.00  0.00     0.031 A 
ATOM     34  C   UNL A   1      38.076  33.034  34.893  1.00  0.00     0.074 A 
ATOM     35  C   UNL A   1      37.815  31.955  32.690  1.00  0.00     0.049 A 
ATOM     36  N   UNL A   1      39.217  32.516  35.283  1.00  0.00    -0.248 NA
ATOM     37  C   UNL A   1      37.451  33.917  35.889  1.00  0.00     0.031 C 
ATOM     38  C   UNL A   1      37.199  31.641  31.398  1.00  0.00     0.029 A 
ATOM     39  N   UNL A   1      38.900  31.113  32.748  1.00  0.00    -0.354 N 
ATOM     40  C   UNL A   1      39.466  33.048  36.545  1.00  0.00     0.074 A 
ATOM     41  C   UNL A   1      38.371  33.947  36.842  1.00  0.00     0.031 C 
ATOM     42  C   UNL A   1      37.872  30.637  30.819  1.00  0.00     0.029 A 
ATOM     43  C   UNL A   1      39.027  30.306  31.642  1.00  0.00     0.049 A 
ATOM     44  H   UNL A   1      39.526  31.091  33.506  1.00  0.00     0.167 HD
ATOM     45  C   UNL A   1      40.507  32.811  37.380  1.00  0.00     0.031 A 
ATOM     46  C   UNL A   1      39.982  29.421  31.300  1.00  0.00     0.031 A 
ATOM     47  C   UNL A   1      41.584  31.894  37.099  1.00  0.00     0.049 A 
ATOM     48  C   UNL A   1      41.153  29.218  32.217  1.00  0.00     0.074 A 
ATOM     49  C   UNL A   1      42.676  31.577  37.889  1.00  0.00     0.029 A 
ATOM     50  N   UNL A   1      41.702  31.142  35.941  1.00  0.00    -0.354 N 
ATOM     51  N   UNL A   1      41.389  29.755  33.389  1.00  0.00    -0.248 NA
ATOM     52  C   UNL A   1      42.191  28.286  31.758  1.00  0.00     0.031 C 
ATOM     53  C   UNL A   1      43.485  30.679  37.184  1.00  0.00     0.029 A 
ATOM     54  C   UNL A   1      42.860  30.380  35.985  1.00  0.00     0.049 A 
ATOM     55  H   UNL A   1      41.058  31.146  35.196  1.00  0.00     0.167 HD
ATOM     56  C   UNL A   1      42.593  29.212  33.816  1.00  0.00     0.074 A 
ATOM     57  C   UNL A   1      43.019  28.281  32.793  1.00  0.00     0.031 C 
ATOM     58  C   UNL A   1      43.285  29.466  34.955  1.00  0.00     0.031 A 
BRANCH  45  59
ATOM     59  C   UNL A   1      40.559  33.595  38.666  1.00  0.00    -0.014 A 
ATOM     60  C   UNL A   1      41.206  34.838  38.753  1.00  0.00     0.009 A 
ATOM     61  C   UNL A   1      39.920  33.087  39.810  1.00  0.00     0.009 A 
ATOM     62  C   UNL A   1      41.252  35.531  39.967  1.00  0.00     0.001 A 
ATOM     63  C   UNL A   1      39.936  33.798  41.011  1.00  0.00     0.001 A 
ATOM     64  C   UNL A   1      40.612  35.013  41.092  1.00  0.00     0.000 A 
ENDBRANCH  45  59
BRANCH  46  65
ATOM     65  C   UNL A   1      39.895  28.692  30.005  1.00  0.00    -0.014 A 
ATOM     66  C   UNL A   1      39.328  27.410  29.939  1.00  0.00     0.009 A 
ATOM     67  C   UNL A   1      40.389  29.275  28.826  1.00  0.00     0.009 A 
ATOM     68  C   UNL A   1      39.279  26.720  28.726  1.00  0.00     0.001 A 
ATOM     69  C   UNL A   1      40.302  28.599  27.608  1.00  0.00     0.001 A 
ATOM     70  C   UNL A   1      39.757  27.317  27.561  1.00  0.00     0.000 A 
ENDBRANCH  46  65
BRANCH  58  71
ATOM     71  C   UNL A   1      44.556  28.687  35.163  1.00  0.00    -0.014 A 
ATOM     72  C   UNL A   1      44.556  27.440  35.808  1.00  0.00     0.009 A 
ATOM     73  C   UNL A   1      45.774  29.218  34.711  1.00  0.00     0.009 A 
ATOM     74  C   UNL A   1      45.757  26.769  36.048  1.00  0.00     0.001 A 
ATOM     75  C   UNL A   1      46.969  28.526  34.918  1.00  0.00     0.001 A 
ATOM     76  C   UNL A   1      46.962  27.311  35.602  1.00  0.00     0.000 A 
ENDBRANCH  58  71
ENDBRANCH  32  33
ENDBRANCH  25  27
ENDBRANCH  24  25
ENDBRANCH  23  24
ENDBRANCH   1  23
TORSDOF 15
ENDMDL
