MODEL 1
REMARK VINA RESULT:     -10.7      0.000      0.000
REMARK SMILES CCc1cc(OC(F)(F)F)cc2c1O[C@@H](C(F)(F)F)C(C(=O)OCCOC(=O)c1ccc(-c3c4nc(c(-c5ccccc5)c5ccc([nH]5)c(-c5ccccc5)c5nc(c(-c6ccccc6)c6ccc3[nH]6)C=C5)C=C4)cc1)=C2
REMARK SMILES IDX 24 1 23 2 21 3 22 4 20 5 3 6 4 7 13 8 5 9 12 10 14 11 11 12
REMARK SMILES IDX 77 13 15 14 2 15 1 16 6 17 7 18 8 19 9 20 10 21 16 22 17 23
REMARK SMILES IDX 18 24 19 25 25 26 26 27 27 28 28 29 29 30 30 31 76 32 31 33
REMARK SMILES IDX 75 34 32 35 33 36 34 37 69 38 35 39 74 40 68 41 70 42 36 43
REMARK SMILES IDX 73 44 67 45 66 46 37 48 59 49 44 50 58 51 45 52 48 53 57 54
REMARK SMILES IDX 71 55 46 56 47 57 56 59 72 60 49 61 38 62 39 63 43 64 40 65
REMARK SMILES IDX 42 66 41 67 60 68 61 69 65 70 62 71 64 72 63 73 50 74 51 75
REMARK SMILES IDX 55 76 52 77 54 78 53 79
REMARK H PARENT 70 47 48 58
REMARK Flexibility Score: inf
ROOT
ATOM      1  C   UNL A   1      32.066  29.416  25.613  1.00  0.00     0.275 C 
ENDROOT
BRANCH   1   2
ATOM      2  O   UNL A   1      32.445  28.022  25.607  1.00  0.00    -0.459 OA
BRANCH   2   3
ATOM      3  C   UNL A   1      32.923  27.548  24.427  1.00  0.00     0.338 C 
ATOM      4  O   UNL A   1      33.184  28.228  23.454  1.00  0.00    -0.246 OA
BRANCH   3   5
ATOM      5  C   UNL A   1      33.151  26.082  24.464  1.00  0.00     0.087 C 
ATOM      6  C   UNL A   1      33.580  21.923  24.407  1.00  0.00    -0.002 A 
ATOM      7  C   UNL A   1      34.745  21.338  24.922  1.00  0.00     0.054 A 
ATOM      8  C   UNL A   1      33.403  23.306  24.544  1.00  0.00     0.131 A 
ATOM      9  C   UNL A   1      35.719  22.120  25.548  1.00  0.00     0.130 A 
ATOM     10  C   UNL A   1      34.406  24.118  25.083  1.00  0.00     0.021 A 
ATOM     11  O   UNL A   1      32.180  23.816  24.214  1.00  0.00    -0.475 OA
ATOM     12  C   UNL A   1      35.563  23.514  25.586  1.00  0.00     0.058 A 
ATOM     13  C   UNL A   1      34.208  25.568  25.120  1.00  0.00     0.027 C 
ATOM     14  C   UNL A   1      32.173  25.181  23.729  1.00  0.00     0.316 C 
BRANCH   6  15
ATOM     15  C   UNL A   1      32.557  21.062  23.705  1.00  0.00     0.036 C 
ATOM     16  C   UNL A   1      32.386  19.704  24.362  1.00  0.00     0.009 C 
ENDBRANCH   6  15
BRANCH   9  17
ATOM     17  O   UNL A   1      36.858  21.647  26.136  1.00  0.00    -0.406 OA
BRANCH  17  18
ATOM     18  C   UNL A   1      38.042  21.649  25.349  1.00  0.00     0.573 C 
ATOM     19  F   UNL A   1      37.774  21.919  24.052  1.00  0.00    -0.132 F 
ATOM     20  F   UNL A   1      38.931  22.549  25.821  1.00  0.00    -0.132 F 
ATOM     21  F   UNL A   1      38.609  20.425  25.412  1.00  0.00    -0.132 F 
ENDBRANCH  17  18
ENDBRANCH   9  17
BRANCH  14  22
ATOM     22  C   UNL A   1      30.694  25.608  23.622  1.00  0.00     0.430 C 
ATOM     23  F   UNL A   1      30.502  26.548  22.670  1.00  0.00    -0.167 F 
ATOM     24  F   UNL A   1      29.930  24.549  23.239  1.00  0.00    -0.167 F 
ATOM     25  F   UNL A   1      30.190  26.052  24.792  1.00  0.00    -0.167 F 
ENDBRANCH  14  22
ENDBRANCH   3   5
ENDBRANCH   2   3
ENDBRANCH   1   2
BRANCH   1  26
ATOM     26  C   UNL A   1      32.574  30.149  26.859  1.00  0.00     0.275 C 
BRANCH  26  27
ATOM     27  O   UNL A   1      33.955  29.848  27.131  1.00  0.00    -0.458 OA
BRANCH  27  28
ATOM     28  C   UNL A   1      34.566  30.704  27.985  1.00  0.00     0.338 C 
ATOM     29  O   UNL A   1      34.063  31.669  28.540  1.00  0.00    -0.246 OA
BRANCH  28  30
ATOM     30  C   UNL A   1      35.903  30.195  28.344  1.00  0.00     0.060 A 
ATOM     31  C   UNL A   1      36.857  30.184  27.324  1.00  0.00     0.016 A 
ATOM     32  C   UNL A   1      36.236  29.725  29.616  1.00  0.00     0.016 A 
ATOM     33  C   UNL A   1      38.169  29.796  27.583  1.00  0.00     0.010 A 
ATOM     34  C   UNL A   1      37.542  29.276  29.864  1.00  0.00     0.010 A 
ATOM     35  C   UNL A   1      38.521  29.329  28.854  1.00  0.00    -0.014 A 
BRANCH  35  36
ATOM     36  C   UNL A   1      39.895  28.818  29.075  1.00  0.00     0.031 A 
ATOM     37  C   UNL A   1      40.907  29.694  29.754  1.00  0.00     0.074 A 
ATOM     38  C   UNL A   1      40.222  27.557  28.736  1.00  0.00     0.049 A 
ATOM     39  N   UNL A   1      42.153  29.437  30.061  1.00  0.00    -0.248 NA
ATOM     40  C   UNL A   1      40.447  31.032  30.155  1.00  0.00     0.031 C 
ATOM     41  C   UNL A   1      39.312  26.573  28.152  1.00  0.00     0.029 A 
ATOM     42  N   UNL A   1      41.417  26.889  28.847  1.00  0.00    -0.354 N 
ATOM     43  C   UNL A   1      42.627  30.578  30.695  1.00  0.00     0.074 A 
ATOM     44  C   UNL A   1      41.540  31.535  30.711  1.00  0.00     0.031 C 
ATOM     45  C   UNL A   1      39.987  25.428  27.945  1.00  0.00     0.029 A 
ATOM     46  C   UNL A   1      41.380  25.609  28.348  1.00  0.00     0.049 A 
ATOM     47  H   UNL A   1      42.224  27.290  29.245  1.00  0.00     0.167 HD
ATOM     48  C   UNL A   1      43.855  30.810  31.215  1.00  0.00     0.031 A 
ATOM     49  C   UNL A   1      42.363  24.698  28.214  1.00  0.00     0.031 A 
ATOM     50  C   UNL A   1      44.954  29.881  31.162  1.00  0.00     0.049 A 
ATOM     51  C   UNL A   1      43.757  25.032  28.682  1.00  0.00     0.074 A 
ATOM     52  C   UNL A   1      46.241  30.040  31.646  1.00  0.00     0.029 A 
ATOM     53  N   UNL A   1      44.901  28.627  30.574  1.00  0.00    -0.354 N 
ATOM     54  N   UNL A   1      44.192  26.109  29.292  1.00  0.00    -0.248 NA
ATOM     55  C   UNL A   1      44.796  24.018  28.446  1.00  0.00     0.031 C 
ATOM     56  C   UNL A   1      46.986  28.909  31.290  1.00  0.00     0.029 A 
ATOM     57  C   UNL A   1      46.143  28.016  30.649  1.00  0.00     0.049 A 
ATOM     58  H   UNL A   1      44.100  28.229  30.161  1.00  0.00     0.167 HD
ATOM     59  C   UNL A   1      45.542  25.887  29.541  1.00  0.00     0.074 A 
ATOM     60  C   UNL A   1      45.850  24.566  29.033  1.00  0.00     0.031 C 
ATOM     61  C   UNL A   1      46.445  26.703  30.137  1.00  0.00     0.031 A 
BRANCH  48  62
ATOM     62  C   UNL A   1      44.092  32.158  31.837  1.00  0.00    -0.014 A 
ATOM     63  C   UNL A   1      44.547  33.246  31.077  1.00  0.00     0.009 A 
ATOM     64  C   UNL A   1      43.833  32.345  33.205  1.00  0.00     0.009 A 
ATOM     65  C   UNL A   1      44.771  34.485  31.682  1.00  0.00     0.001 A 
ATOM     66  C   UNL A   1      44.031  33.591  33.800  1.00  0.00     0.001 A 
ATOM     67  C   UNL A   1      44.510  34.657  33.041  1.00  0.00     0.000 A 
ENDBRANCH  48  62
BRANCH  49  68
ATOM     68  C   UNL A   1      42.090  23.386  27.565  1.00  0.00    -0.014 A 
ATOM     69  C   UNL A   1      41.548  22.318  28.298  1.00  0.00     0.009 A 
ATOM     70  C   UNL A   1      42.427  23.179  26.218  1.00  0.00     0.009 A 
ATOM     71  C   UNL A   1      41.382  21.064  27.703  1.00  0.00     0.001 A 
ATOM     72  C   UNL A   1      42.228  21.934  25.617  1.00  0.00     0.001 A 
ATOM     73  C   UNL A   1      41.718  20.874  26.364  1.00  0.00     0.000 A 
ENDBRANCH  49  68
BRANCH  61  74
ATOM     74  C   UNL A   1      47.846  26.178  30.313  1.00  0.00    -0.014 A 
ATOM     75  C   UNL A   1      48.776  26.194  29.260  1.00  0.00     0.009 A 
ATOM     76  C   UNL A   1      48.251  25.684  31.563  1.00  0.00     0.009 A 
ATOM     77  C   UNL A   1      50.064  25.689  29.445  1.00  0.00     0.001 A 
ATOM     78  C   UNL A   1      49.550  25.211  31.756  1.00  0.00     0.001 A 
ATOM     79  C   UNL A   1      50.452  25.202  30.693  1.00  0.00     0.000 A 
ENDBRANCH  61  74
ENDBRANCH  35  36
ENDBRANCH  28  30
ENDBRANCH  27  28
ENDBRANCH  26  27
ENDBRANCH   1  26
TORSDOF 15
ENDMDL
MODEL 2
REMARK VINA RESULT:     -10.6      3.397      5.683
REMARK SMILES CCc1cc(OC(F)(F)F)cc2c1O[C@@H](C(F)(F)F)C(C(=O)OCCOC(=O)c1ccc(-c3c4nc(c(-c5ccccc5)c5ccc([nH]5)c(-c5ccccc5)c5nc(c(-c6ccccc6)c6ccc3[nH]6)C=C5)C=C4)cc1)=C2
REMARK SMILES IDX 24 1 23 2 21 3 22 4 20 5 3 6 4 7 13 8 5 9 12 10 14 11 11 12
REMARK SMILES IDX 77 13 15 14 2 15 1 16 6 17 7 18 8 19 9 20 10 21 16 22 17 23
REMARK SMILES IDX 18 24 19 25 25 26 26 27 27 28 28 29 29 30 30 31 76 32 31 33
REMARK SMILES IDX 75 34 32 35 33 36 34 37 69 38 35 39 74 40 68 41 70 42 36 43
REMARK SMILES IDX 73 44 67 45 66 46 37 48 59 49 44 50 58 51 45 52 48 53 57 54
REMARK SMILES IDX 71 55 46 56 47 57 56 59 72 60 49 61 38 62 39 63 43 64 40 65
REMARK SMILES IDX 42 66 41 67 60 68 61 69 65 70 62 71 64 72 63 73 50 74 51 75
REMARK SMILES IDX 55 76 52 77 54 78 53 79
REMARK H PARENT 70 47 48 58
REMARK Flexibility Score: inf
ROOT
ATOM      1  C   UNL A   1      34.366  33.698  30.212  1.00  0.00     0.275 C 
ENDROOT
BRANCH   1   2
ATOM      2  O   UNL A   1      34.307  32.402  29.575  1.00  0.00    -0.459 OA
BRANCH   2   3
ATOM      3  C   UNL A   1      34.647  32.379  28.260  1.00  0.00     0.338 C 
ATOM      4  O   UNL A   1      35.356  33.195  27.705  1.00  0.00    -0.246 OA
BRANCH   3   5
ATOM      5  C   UNL A   1      34.092  31.193  27.561  1.00  0.00     0.087 C 
ATOM      6  C   UNL A   1      32.690  27.697  25.745  1.00  0.00    -0.002 A 
ATOM      7  C   UNL A   1      31.550  27.745  24.932  1.00  0.00     0.054 A 
ATOM      8  C   UNL A   1      33.213  28.896  26.246  1.00  0.00     0.131 A 
ATOM      9  C   UNL A   1      30.935  28.965  24.639  1.00  0.00     0.130 A 
ATOM     10  C   UNL A   1      32.560  30.115  26.041  1.00  0.00     0.021 A 
ATOM     11  O   UNL A   1      34.429  28.838  26.864  1.00  0.00    -0.475 OA
ATOM     12  C   UNL A   1      31.420  30.141  25.232  1.00  0.00     0.058 A 
ATOM     13  C   UNL A   1      33.098  31.327  26.664  1.00  0.00     0.027 C 
ATOM     14  C   UNL A   1      34.660  29.825  27.901  1.00  0.00     0.316 C 
BRANCH   6  15
ATOM     15  C   UNL A   1      33.318  26.363  26.076  1.00  0.00     0.036 C 
ATOM     16  C   UNL A   1      34.068  25.762  24.899  1.00  0.00     0.009 C 
ENDBRANCH   6  15
BRANCH   9  17
ATOM     17  O   UNL A   1      29.859  29.132  23.812  1.00  0.00    -0.406 OA
BRANCH  17  18
ATOM     18  C   UNL A   1      30.066  28.895  22.426  1.00  0.00     0.573 C 
ATOM     19  F   UNL A   1      31.301  29.277  22.036  1.00  0.00    -0.132 F 
ATOM     20  F   UNL A   1      29.884  27.591  22.129  1.00  0.00    -0.132 F 
ATOM     21  F   UNL A   1      29.165  29.615  21.722  1.00  0.00    -0.132 F 
ENDBRANCH  17  18
ENDBRANCH   9  17
BRANCH  14  22
ATOM     22  C   UNL A   1      36.145  29.708  28.303  1.00  0.00     0.430 C 
ATOM     23  F   UNL A   1      36.300  29.525  29.633  1.00  0.00    -0.167 F 
ATOM     24  F   UNL A   1      36.700  28.609  27.724  1.00  0.00    -0.167 F 
ATOM     25  F   UNL A   1      36.880  30.770  27.913  1.00  0.00    -0.167 F 
ENDBRANCH  14  22
ENDBRANCH   3   5
ENDBRANCH   2   3
ENDBRANCH   1   2
BRANCH   1  26
ATOM     26  C   UNL A   1      34.387  33.592  31.740  1.00  0.00     0.275 C 
BRANCH  26  27
ATOM     27  O   UNL A   1      34.875  32.311  32.181  1.00  0.00    -0.458 OA
BRANCH  27  28
ATOM     28  C   UNL A   1      35.977  32.361  32.967  1.00  0.00     0.338 C 
ATOM     29  O   UNL A   1      36.022  32.679  34.145  1.00  0.00    -0.246 OA
BRANCH  28  30
ATOM     30  C   UNL A   1      37.128  31.764  32.265  1.00  0.00     0.060 A 
ATOM     31  C   UNL A   1      37.454  32.318  31.024  1.00  0.00     0.016 A 
ATOM     32  C   UNL A   1      37.870  30.693  32.768  1.00  0.00     0.016 A 
ATOM     33  C   UNL A   1      38.572  31.875  30.322  1.00  0.00     0.010 A 
ATOM     34  C   UNL A   1      38.961  30.206  32.032  1.00  0.00     0.010 A 
ATOM     35  C   UNL A   1      39.330  30.808  30.815  1.00  0.00    -0.014 A 
BRANCH  35  36
ATOM     36  C   UNL A   1      40.448  30.283  29.995  1.00  0.00     0.031 A 
ATOM     37  C   UNL A   1      41.671  31.129  29.789  1.00  0.00     0.074 A 
ATOM     38  C   UNL A   1      40.406  29.036  29.493  1.00  0.00     0.049 A 
ATOM     39  N   UNL A   1      42.766  30.855  29.126  1.00  0.00    -0.248 NA
ATOM     40  C   UNL A   1      41.665  32.453  30.430  1.00  0.00     0.031 C 
ATOM     41  C   UNL A   1      39.319  28.078  29.693  1.00  0.00     0.029 A 
ATOM     42  N   UNL A   1      41.315  28.359  28.716  1.00  0.00    -0.354 N 
ATOM     43  C   UNL A   1      43.582  31.969  29.272  1.00  0.00     0.074 A 
ATOM     44  C   UNL A   1      42.848  32.929  30.071  1.00  0.00     0.031 C 
ATOM     45  C   UNL A   1      39.620  26.939  29.043  1.00  0.00     0.029 A 
ATOM     46  C   UNL A   1      40.900  27.099  28.356  1.00  0.00     0.049 A 
ATOM     47  H   UNL A   1      42.180  28.741  28.442  1.00  0.00     0.167 HD
ATOM     48  C   UNL A   1      44.828  32.177  28.785  1.00  0.00     0.031 A 
ATOM     49  C   UNL A   1      41.479  26.190  27.547  1.00  0.00     0.031 A 
ATOM     50  C   UNL A   1      45.546  31.245  27.954  1.00  0.00     0.049 A 
ATOM     51  C   UNL A   1      42.810  26.500  26.910  1.00  0.00     0.074 A 
ATOM     52  C   UNL A   1      46.807  31.381  27.398  1.00  0.00     0.029 A 
ATOM     53  N   UNL A   1      45.058  30.015  27.541  1.00  0.00    -0.354 N 
ATOM     54  N   UNL A   1      43.579  27.552  27.066  1.00  0.00    -0.248 NA
ATOM     55  C   UNL A   1      43.354  25.492  25.988  1.00  0.00     0.031 C 
ATOM     56  C   UNL A   1      47.053  30.262  26.594  1.00  0.00     0.029 A 
ATOM     57  C   UNL A   1      45.977  29.397  26.708  1.00  0.00     0.049 A 
ATOM     58  H   UNL A   1      44.187  29.637  27.800  1.00  0.00     0.167 HD
ATOM     59  C   UNL A   1      44.708  27.314  26.289  1.00  0.00     0.074 A 
ATOM     60  C   UNL A   1      44.532  26.013  25.679  1.00  0.00     0.031 C 
ATOM     61  C   UNL A   1      45.794  28.104  26.100  1.00  0.00     0.031 A 
BRANCH  48  62
ATOM     62  C   UNL A   1      45.474  33.498  29.095  1.00  0.00    -0.014 A 
ATOM     63  C   UNL A   1      45.293  34.614  28.263  1.00  0.00     0.009 A 
ATOM     64  C   UNL A   1      46.258  33.633  30.253  1.00  0.00     0.009 A 
ATOM     65  C   UNL A   1      45.915  35.828  28.566  1.00  0.00     0.001 A 
ATOM     66  C   UNL A   1      46.853  34.855  30.568  1.00  0.00     0.001 A 
ATOM     67  C   UNL A   1      46.691  35.948  29.719  1.00  0.00     0.000 A 
ENDBRANCH  48  62
BRANCH  49  68
ATOM     68  C   UNL A   1      40.790  24.905  27.246  1.00  0.00    -0.014 A 
ATOM     69  C   UNL A   1      39.671  24.867  26.397  1.00  0.00     0.009 A 
ATOM     70  C   UNL A   1      41.216  23.714  27.855  1.00  0.00     0.009 A 
ATOM     71  C   UNL A   1      38.977  23.672  26.195  1.00  0.00     0.001 A 
ATOM     72  C   UNL A   1      40.540  22.515  27.623  1.00  0.00     0.001 A 
ATOM     73  C   UNL A   1      39.412  22.497  26.804  1.00  0.00     0.000 A 
ENDBRANCH  49  68
BRANCH  61  74
ATOM     74  C   UNL A   1      46.899  27.566  25.228  1.00  0.00    -0.014 A 
ATOM     75  C   UNL A   1      47.881  26.699  25.735  1.00  0.00     0.009 A 
ATOM     76  C   UNL A   1      46.940  27.911  23.867  1.00  0.00     0.009 A 
ATOM     77  C   UNL A   1      48.903  26.226  24.909  1.00  0.00     0.001 A 
ATOM     78  C   UNL A   1      47.942  27.409  23.035  1.00  0.00     0.001 A 
ATOM     79  C   UNL A   1      48.930  26.577  23.560  1.00  0.00     0.000 A 
ENDBRANCH  61  74
ENDBRANCH  35  36
ENDBRANCH  28  30
ENDBRANCH  27  28
ENDBRANCH  26  27
ENDBRANCH   1  26
TORSDOF 15
ENDMDL
MODEL 3
REMARK VINA RESULT:     -10.5      3.423      7.988
REMARK SMILES CCc1cc(OC(F)(F)F)cc2c1O[C@@H](C(F)(F)F)C(C(=O)OCCOC(=O)c1ccc(-c3c4nc(c(-c5ccccc5)c5ccc([nH]5)c(-c5ccccc5)c5nc(c(-c6ccccc6)c6ccc3[nH]6)C=C5)C=C4)cc1)=C2
REMARK SMILES IDX 24 1 23 2 21 3 22 4 20 5 3 6 4 7 13 8 5 9 12 10 14 11 11 12
REMARK SMILES IDX 77 13 15 14 2 15 1 16 6 17 7 18 8 19 9 20 10 21 16 22 17 23
REMARK SMILES IDX 18 24 19 25 25 26 26 27 27 28 28 29 29 30 30 31 76 32 31 33
REMARK SMILES IDX 75 34 32 35 33 36 34 37 69 38 35 39 74 40 68 41 70 42 36 43
REMARK SMILES IDX 73 44 67 45 66 46 37 48 59 49 44 50 58 51 45 52 48 53 57 54
REMARK SMILES IDX 71 55 46 56 47 57 56 59 72 60 49 61 38 62 39 63 43 64 40 65
REMARK SMILES IDX 42 66 41 67 60 68 61 69 65 70 62 71 64 72 63 73 50 74 51 75
REMARK SMILES IDX 55 76 52 77 54 78 53 79
REMARK H PARENT 70 47 48 58
REMARK Flexibility Score: inf
ROOT
ATOM      1  C   UNL A   1      34.399  33.487  30.577  1.00  0.00     0.275 C 
ENDROOT
BRANCH   1   2
ATOM      2  O   UNL A   1      34.447  32.229  29.868  1.00  0.00    -0.459 OA
BRANCH   2   3
ATOM      3  C   UNL A   1      34.779  32.308  28.553  1.00  0.00     0.338 C 
ATOM      4  O   UNL A   1      35.455  33.185  28.053  1.00  0.00    -0.246 OA
BRANCH   3   5
ATOM      5  C   UNL A   1      34.263  31.153  27.777  1.00  0.00     0.087 C 
ATOM      6  C   UNL A   1      32.975  27.741  25.731  1.00  0.00    -0.002 A 
ATOM      7  C   UNL A   1      31.831  27.805  24.924  1.00  0.00     0.054 A 
ATOM      8  C   UNL A   1      33.458  28.921  26.311  1.00  0.00     0.131 A 
ATOM      9  C   UNL A   1      31.174  29.020  24.714  1.00  0.00     0.130 A 
ATOM     10  C   UNL A   1      32.764  30.128  26.189  1.00  0.00     0.021 A 
ATOM     11  O   UNL A   1      34.678  28.864  26.923  1.00  0.00    -0.475 OA
ATOM     12  C   UNL A   1      31.620  30.170  25.384  1.00  0.00     0.058 A 
ATOM     13  C   UNL A   1      33.262  31.313  26.891  1.00  0.00     0.027 C 
ATOM     14  C   UNL A   1      34.878  29.786  28.023  1.00  0.00     0.316 C 
BRANCH   6  15
ATOM     15  C   UNL A   1      33.649  26.410  25.971  1.00  0.00     0.036 C 
ATOM     16  C   UNL A   1      34.003  25.693  24.680  1.00  0.00     0.009 C 
ENDBRANCH   6  15
BRANCH   9  17
ATOM     17  O   UNL A   1      30.091  29.206  23.902  1.00  0.00    -0.406 OA
BRANCH  17  18
ATOM     18  C   UNL A   1      30.324  29.192  22.500  1.00  0.00     0.573 C 
ATOM     19  F   UNL A   1      29.640  30.174  21.873  1.00  0.00    -0.132 F 
ATOM     20  F   UNL A   1      31.641  29.319  22.230  1.00  0.00    -0.132 F 
ATOM     21  F   UNL A   1      29.906  28.008  22.000  1.00  0.00    -0.132 F 
ENDBRANCH  17  18
ENDBRANCH   9  17
BRANCH  14  22
ATOM     22  C   UNL A   1      36.367  29.693  28.416  1.00  0.00     0.430 C 
ATOM     23  F   UNL A   1      36.959  28.586  27.914  1.00  0.00    -0.167 F 
ATOM     24  F   UNL A   1      37.056  30.740  27.884  1.00  0.00    -0.167 F 
ATOM     25  F   UNL A   1      36.562  29.734  29.750  1.00  0.00    -0.167 F 
ENDBRANCH  14  22
ENDBRANCH   3   5
ENDBRANCH   2   3
ENDBRANCH   1   2
BRANCH   1  26
ATOM     26  C   UNL A   1      34.632  33.315  32.081  1.00  0.00     0.275 C 
BRANCH  26  27
ATOM     27  O   UNL A   1      35.327  32.090  32.378  1.00  0.00    -0.458 OA
BRANCH  27  28
ATOM     28  C   UNL A   1      36.449  32.239  33.122  1.00  0.00     0.338 C 
ATOM     29  O   UNL A   1      36.511  32.574  34.295  1.00  0.00    -0.246 OA
BRANCH  28  30
ATOM     30  C   UNL A   1      37.620  31.728  32.384  1.00  0.00     0.060 A 
ATOM     31  C   UNL A   1      37.771  32.180  31.071  1.00  0.00     0.016 A 
ATOM     32  C   UNL A   1      38.542  30.829  32.923  1.00  0.00     0.016 A 
ATOM     33  C   UNL A   1      38.885  31.817  30.319  1.00  0.00     0.010 A 
ATOM     34  C   UNL A   1      39.635  30.415  32.146  1.00  0.00     0.010 A 
ATOM     35  C   UNL A   1      39.822  30.923  30.847  1.00  0.00    -0.014 A 
BRANCH  35  36
ATOM     36  C   UNL A   1      40.941  30.466  29.988  1.00  0.00     0.031 A 
ATOM     37  C   UNL A   1      40.862  29.119  29.330  1.00  0.00     0.074 A 
ATOM     38  C   UNL A   1      41.990  31.271  29.739  1.00  0.00     0.049 A 
ATOM     39  N   UNL A   1      41.717  28.537  28.528  1.00  0.00    -0.248 NA
ATOM     40  C   UNL A   1      39.650  28.331  29.599  1.00  0.00     0.031 C 
ATOM     41  C   UNL A   1      42.150  32.635  30.241  1.00  0.00     0.029 A 
ATOM     42  N   UNL A   1      43.119  31.053  28.987  1.00  0.00    -0.354 N 
ATOM     43  C   UNL A   1      41.146  27.317  28.192  1.00  0.00     0.074 A 
ATOM     44  C   UNL A   1      39.881  27.235  28.892  1.00  0.00     0.031 C 
ATOM     45  C   UNL A   1      43.318  33.128  29.791  1.00  0.00     0.029 A 
ATOM     46  C   UNL A   1      44.001  32.106  29.001  1.00  0.00     0.049 A 
ATOM     47  H   UNL A   1      43.281  30.221  28.486  1.00  0.00     0.167 HD
ATOM     48  C   UNL A   1      41.631  26.350  27.376  1.00  0.00     0.031 A 
ATOM     49  C   UNL A   1      45.229  32.223  28.457  1.00  0.00     0.031 A 
ATOM     50  C   UNL A   1      42.908  26.405  26.714  1.00  0.00     0.049 A 
ATOM     51  C   UNL A   1      45.801  31.077  27.662  1.00  0.00     0.074 A 
ATOM     52  C   UNL A   1      43.489  25.462  25.883  1.00  0.00     0.029 A 
ATOM     53  N   UNL A   1      43.810  27.452  26.820  1.00  0.00    -0.354 N 
ATOM     54  N   UNL A   1      45.247  29.931  27.339  1.00  0.00    -0.248 NA
ATOM     55  C   UNL A   1      47.170  31.244  27.150  1.00  0.00     0.031 C 
ATOM     56  C   UNL A   1      44.771  25.908  25.544  1.00  0.00     0.029 A 
ATOM     57  C   UNL A   1      44.959  27.162  26.102  1.00  0.00     0.049 A 
ATOM     58  H   UNL A   1      43.657  28.279  27.333  1.00  0.00     0.167 HD
ATOM     59  C   UNL A   1      46.186  29.261  26.562  1.00  0.00     0.074 A 
ATOM     60  C   UNL A   1      47.336  30.134  26.446  1.00  0.00     0.031 C 
ATOM     61  C   UNL A   1      46.102  28.033  25.994  1.00  0.00     0.031 A 
BRANCH  48  62
ATOM     62  C   UNL A   1      40.792  25.115  27.205  1.00  0.00    -0.014 A 
ATOM     63  C   UNL A   1      39.602  25.134  26.461  1.00  0.00     0.009 A 
ATOM     64  C   UNL A   1      41.214  23.905  27.782  1.00  0.00     0.009 A 
ATOM     65  C   UNL A   1      38.834  23.975  26.329  1.00  0.00     0.001 A 
ATOM     66  C   UNL A   1      40.459  22.743  27.623  1.00  0.00     0.001 A 
ATOM     67  C   UNL A   1      39.264  22.780  26.906  1.00  0.00     0.000 A 
ENDBRANCH  48  62
BRANCH  49  68
ATOM     68  C   UNL A   1      46.036  33.454  28.676  1.00  0.00    -0.014 A 
ATOM     69  C   UNL A   1      46.858  33.587  29.807  1.00  0.00     0.009 A 
ATOM     70  C   UNL A   1      45.941  34.531  27.780  1.00  0.00     0.009 A 
ATOM     71  C   UNL A   1      47.539  34.782  30.051  1.00  0.00     0.001 A 
ATOM     72  C   UNL A   1      46.649  35.712  28.009  1.00  0.00     0.001 A 
ATOM     73  C   UNL A   1      47.437  35.842  29.151  1.00  0.00     0.000 A 
ENDBRANCH  49  68
BRANCH  61  74
ATOM     74  C   UNL A   1      47.269  27.573  25.161  1.00  0.00    -0.014 A 
ATOM     75  C   UNL A   1      48.340  26.858  25.723  1.00  0.00     0.009 A 
ATOM     76  C   UNL A   1      47.283  27.834  23.781  1.00  0.00     0.009 A 
ATOM     77  C   UNL A   1      49.417  26.454  24.931  1.00  0.00     0.001 A 
ATOM     78  C   UNL A   1      48.344  27.399  22.984  1.00  0.00     0.001 A 
ATOM     79  C   UNL A   1      49.416  26.721  23.562  1.00  0.00     0.000 A 
ENDBRANCH  61  74
ENDBRANCH  35  36
ENDBRANCH  28  30
ENDBRANCH  27  28
ENDBRANCH  26  27
ENDBRANCH   1  26
TORSDOF 15
ENDMDL
