MODEL 1
REMARK VINA RESULT:     -10.7      0.000      0.000
REMARK SMILES O=C(OCCOC(=O)c1cccc(Br)c1O[C@@H]1CCOC2(CCC2)C1)c1ccc(-c2c3nc(c(-c4ccccc4)c4ccc([nH]4)c(-c4ccccc4)c4nc(c(-c5ccccc5)c5ccc2[nH]5)C=C4)C=C3)cc1
REMARK SMILES IDX 4 1 3 2 2 3 1 4 26 5 27 6 73 7 28 8 72 9 29 10 30 11 31 12
REMARK SMILES IDX 66 13 32 14 71 15 65 16 67 17 33 18 70 19 64 20 63 21 34 23
REMARK SMILES IDX 56 24 41 25 55 26 42 27 45 28 54 29 68 30 43 31 44 32 53 34
REMARK SMILES IDX 69 35 46 36 35 37 36 38 40 39 37 40 39 41 38 42 57 43 58 44
REMARK SMILES IDX 62 45 59 46 61 47 60 48 47 49 48 50 52 51 49 52 51 53 50 54
REMARK SMILES IDX 5 55 6 56 7 57 8 58 9 59 10 60 15 61 11 62 13 63 12 64 14 65
REMARK SMILES IDX 16 66 17 67 18 68 25 69 19 70 21 71 20 72 22 73 24 74 23 75
REMARK H PARENT 67 22 45 33
REMARK Flexibility Score: inf
ROOT
ATOM      1  C   UNL A   1      33.011  29.456  26.754  1.00  0.00     0.275 C 
ENDROOT
BRANCH   1   2
ATOM      2  O   UNL A   1      33.918  30.549  26.928  1.00  0.00    -0.458 OA
BRANCH   2   3
ATOM      3  C   UNL A   1      34.612  30.932  28.018  1.00  0.00     0.338 C 
ATOM      4  O   UNL A   1      34.133  31.840  28.699  1.00  0.00    -0.246 OA
BRANCH   3   5
ATOM      5  C   UNL A   1      35.926  30.346  28.470  1.00  0.00     0.060 A 
ATOM      6  C   UNL A   1      36.284  29.802  29.712  1.00  0.00     0.016 A 
ATOM      7  C   UNL A   1      36.915  30.335  27.484  1.00  0.00     0.016 A 
ATOM      8  C   UNL A   1      37.547  29.215  29.939  1.00  0.00     0.010 A 
ATOM      9  C   UNL A   1      38.151  29.730  27.696  1.00  0.00     0.010 A 
ATOM     10  C   UNL A   1      38.492  29.145  28.920  1.00  0.00    -0.014 A 
BRANCH  10  11
ATOM     11  C   UNL A   1      39.864  28.581  29.093  1.00  0.00     0.031 A 
ATOM     12  C   UNL A   1      40.964  29.509  29.543  1.00  0.00     0.074 A 
ATOM     13  C   UNL A   1      40.182  27.318  28.738  1.00  0.00     0.049 A 
ATOM     14  N   UNL A   1      42.261  29.361  29.481  1.00  0.00    -0.248 NA
ATOM     15  C   UNL A   1      40.533  30.822  30.049  1.00  0.00     0.031 C 
ATOM     16  C   UNL A   1      39.249  26.304  28.255  1.00  0.00     0.029 A 
ATOM     17  N   UNL A   1      41.401  26.682  28.701  1.00  0.00    -0.354 N 
ATOM     18  C   UNL A   1      42.786  30.592  29.851  1.00  0.00     0.074 A 
ATOM     19  C   UNL A   1      41.671  31.494  30.020  1.00  0.00     0.031 C 
ATOM     20  C   UNL A   1      39.924  25.180  27.958  1.00  0.00     0.029 A 
ATOM     21  C   UNL A   1      41.344  25.398  28.208  1.00  0.00     0.049 A 
ATOM     22  H   UNL A   1      42.238  27.106  28.998  1.00  0.00     0.167 HD
ATOM     23  C   UNL A   1      44.071  30.935  30.102  1.00  0.00     0.031 A 
ATOM     24  C   UNL A   1      42.324  24.499  27.985  1.00  0.00     0.031 A 
ATOM     25  C   UNL A   1      45.161  30.003  30.066  1.00  0.00     0.049 A 
ATOM     26  C   UNL A   1      43.742  24.862  28.337  1.00  0.00     0.074 A 
ATOM     27  C   UNL A   1      46.477  30.196  30.442  1.00  0.00     0.029 A 
ATOM     28  N   UNL A   1      45.043  28.682  29.661  1.00  0.00    -0.354 N 
ATOM     29  N   UNL A   1      44.219  26.007  28.762  1.00  0.00    -0.248 NA
ATOM     30  C   UNL A   1      44.750  23.797  28.223  1.00  0.00     0.031 C 
ATOM     31  C   UNL A   1      47.160  28.988  30.257  1.00  0.00     0.029 A 
ATOM     32  C   UNL A   1      46.258  28.039  29.798  1.00  0.00     0.049 A 
ATOM     33  H   UNL A   1      44.216  28.264  29.327  1.00  0.00     0.167 HD
ATOM     34  C   UNL A   1      45.566  25.785  29.023  1.00  0.00     0.074 A 
ATOM     35  C   UNL A   1      45.832  24.399  28.698  1.00  0.00     0.031 C 
ATOM     36  C   UNL A   1      46.492  26.648  29.506  1.00  0.00     0.031 A 
BRANCH  23  37
ATOM     37  C   UNL A   1      44.327  32.366  30.490  1.00  0.00    -0.014 A 
ATOM     38  C   UNL A   1      44.647  33.336  29.522  1.00  0.00     0.009 A 
ATOM     39  C   UNL A   1      44.310  32.741  31.840  1.00  0.00     0.009 A 
ATOM     40  C   UNL A   1      45.042  34.618  29.904  1.00  0.00     0.001 A 
ATOM     41  C   UNL A   1      44.657  34.041  32.217  1.00  0.00     0.001 A 
ATOM     42  C   UNL A   1      45.047  34.969  31.253  1.00  0.00     0.000 A 
ENDBRANCH  23  37
BRANCH  24  43
ATOM     43  C   UNL A   1      41.998  23.144  27.465  1.00  0.00    -0.014 A 
ATOM     44  C   UNL A   1      41.488  22.159  28.328  1.00  0.00     0.009 A 
ATOM     45  C   UNL A   1      42.198  22.819  26.115  1.00  0.00     0.009 A 
ATOM     46  C   UNL A   1      41.215  20.872  27.858  1.00  0.00     0.001 A 
ATOM     47  C   UNL A   1      41.902  21.537  25.642  1.00  0.00     0.001 A 
ATOM     48  C   UNL A   1      41.419  20.562  26.514  1.00  0.00     0.000 A 
ENDBRANCH  24  43
BRANCH  36  49
ATOM     49  C   UNL A   1      47.859  26.106  29.805  1.00  0.00    -0.014 A 
ATOM     50  C   UNL A   1      48.835  25.981  28.808  1.00  0.00     0.009 A 
ATOM     51  C   UNL A   1      48.193  25.793  31.133  1.00  0.00     0.009 A 
ATOM     52  C   UNL A   1      50.119  25.538  29.134  1.00  0.00     0.001 A 
ATOM     53  C   UNL A   1      49.483  25.375  31.459  1.00  0.00     0.001 A 
ATOM     54  C   UNL A   1      50.444  25.243  30.458  1.00  0.00     0.000 A 
ENDBRANCH  36  49
ENDBRANCH  10  11
ENDBRANCH   3   5
ENDBRANCH   2   3
ENDBRANCH   1   2
BRANCH   1  55
ATOM     55  C   UNL A   1      33.695  28.099  26.902  1.00  0.00     0.275 C 
BRANCH  55  56
ATOM     56  O   UNL A   1      33.910  27.431  25.645  1.00  0.00    -0.458 OA
BRANCH  56  57
ATOM     57  C   UNL A   1      33.387  26.184  25.483  1.00  0.00     0.342 C 
ATOM     58  O   UNL A   1      33.643  25.211  26.191  1.00  0.00    -0.246 OA
BRANCH  57  59
ATOM     59  C   UNL A   1      32.540  26.156  24.252  1.00  0.00     0.103 A 
ATOM     60  C   UNL A   1      31.352  26.919  24.329  1.00  0.00     0.020 A 
ATOM     61  C   UNL A   1      32.958  25.525  23.038  1.00  0.00     0.148 A 
ATOM     62  C   UNL A   1      30.546  27.078  23.222  1.00  0.00     0.002 A 
ATOM     63  C   UNL A   1      32.176  25.814  21.909  1.00  0.00     0.060 A 
ATOM     64  C   UNL A   1      30.964  26.534  22.022  1.00  0.00     0.019 A 
ATOM     65  Br  UNL A   1      32.608  25.552  20.085  1.00  0.00    -0.047 Br
BRANCH  61  66
ATOM     66  O   UNL A   1      34.043  24.731  23.197  1.00  0.00    -0.488 OA
BRANCH  66  67
ATOM     67  C   UNL A   1      34.362  23.338  23.145  1.00  0.00     0.178 C 
ATOM     68  C   UNL A   1      33.398  22.337  23.766  1.00  0.00     0.074 C 
ATOM     69  C   UNL A   1      35.832  22.927  23.275  1.00  0.00     0.080 C 
ATOM     70  C   UNL A   1      34.109  21.306  24.646  1.00  0.00     0.165 C 
ATOM     71  C   UNL A   1      36.232  22.583  24.705  1.00  0.00     0.072 C 
ATOM     72  O   UNL A   1      35.192  21.848  25.395  1.00  0.00    -0.375 OA
ATOM     73  C   UNL A   1      37.650  21.925  24.802  1.00  0.00     0.036 C 
ATOM     74  C   UNL A   1      36.840  23.769  25.506  1.00  0.00     0.036 C 
ATOM     75  C   UNL A   1      37.956  22.845  25.993  1.00  0.00     0.006 C 
ENDBRANCH  66  67
ENDBRANCH  61  66
ENDBRANCH  57  59
ENDBRANCH  56  57
ENDBRANCH  55  56
ENDBRANCH   1  55
TORSDOF 13
ENDMDL
MODEL 2
REMARK VINA RESULT:     -10.6      1.236      1.782
REMARK SMILES O=C(OCCOC(=O)c1cccc(Br)c1O[C@@H]1CCOC2(CCC2)C1)c1ccc(-c2c3nc(c(-c4ccccc4)c4ccc([nH]4)c(-c4ccccc4)c4nc(c(-c5ccccc5)c5ccc2[nH]5)C=C4)C=C3)cc1
REMARK SMILES IDX 4 1 3 2 2 3 1 4 26 5 27 6 73 7 28 8 72 9 29 10 30 11 31 12
REMARK SMILES IDX 66 13 32 14 71 15 65 16 67 17 33 18 70 19 64 20 63 21 34 23
REMARK SMILES IDX 56 24 41 25 55 26 42 27 45 28 54 29 68 30 43 31 44 32 53 34
REMARK SMILES IDX 69 35 46 36 35 37 36 38 40 39 37 40 39 41 38 42 57 43 58 44
REMARK SMILES IDX 62 45 59 46 61 47 60 48 47 49 48 50 52 51 49 52 51 53 50 54
REMARK SMILES IDX 5 55 6 56 7 57 8 58 9 59 10 60 15 61 11 62 13 63 12 64 14 65
REMARK SMILES IDX 16 66 17 67 18 68 25 69 19 70 21 71 20 72 22 73 24 74 23 75
REMARK H PARENT 67 22 45 33
REMARK Flexibility Score: inf
ROOT
ATOM      1  C   UNL A   1      33.751  28.665  26.279  1.00  0.00     0.275 C 
ENDROOT
BRANCH   1   2
ATOM      2  O   UNL A   1      33.728  30.024  26.728  1.00  0.00    -0.458 OA
BRANCH   2   3
ATOM      3  C   UNL A   1      34.485  30.642  27.655  1.00  0.00     0.338 C 
ATOM      4  O   UNL A   1      34.076  31.721  28.088  1.00  0.00    -0.246 OA
BRANCH   3   5
ATOM      5  C   UNL A   1      35.792  30.127  28.205  1.00  0.00     0.060 A 
ATOM      6  C   UNL A   1      36.085  29.599  29.471  1.00  0.00     0.016 A 
ATOM      7  C   UNL A   1      36.850  30.172  27.295  1.00  0.00     0.016 A 
ATOM      8  C   UNL A   1      37.358  29.081  29.792  1.00  0.00     0.010 A 
ATOM      9  C   UNL A   1      38.099  29.635  27.599  1.00  0.00     0.010 A 
ATOM     10  C   UNL A   1      38.378  29.065  28.846  1.00  0.00    -0.014 A 
BRANCH  10  11
ATOM     11  C   UNL A   1      39.763  28.576  29.121  1.00  0.00     0.031 A 
ATOM     12  C   UNL A   1      40.759  29.547  29.700  1.00  0.00     0.074 A 
ATOM     13  C   UNL A   1      40.188  27.349  28.751  1.00  0.00     0.049 A 
ATOM     14  N   UNL A   1      42.064  29.478  29.750  1.00  0.00    -0.248 NA
ATOM     15  C   UNL A   1      40.206  30.811  30.213  1.00  0.00     0.031 C 
ATOM     16  C   UNL A   1      39.366  26.303  28.150  1.00  0.00     0.029 A 
ATOM     17  N   UNL A   1      41.443  26.787  28.801  1.00  0.00    -0.354 N 
ATOM     18  C   UNL A   1      42.477  30.722  30.210  1.00  0.00     0.074 A 
ATOM     19  C   UNL A   1      41.297  31.549  30.310  1.00  0.00     0.031 C 
ATOM     20  C   UNL A   1      40.132  25.233  27.874  1.00  0.00     0.029 A 
ATOM     21  C   UNL A   1      41.509  25.524  28.259  1.00  0.00     0.049 A 
ATOM     22  H   UNL A   1      42.222  27.248  29.187  1.00  0.00     0.167 HD
ATOM     23  C   UNL A   1      43.711  31.129  30.588  1.00  0.00     0.031 A 
ATOM     24  C   UNL A   1      42.558  24.694  28.093  1.00  0.00     0.031 A 
ATOM     25  C   UNL A   1      44.856  30.265  30.616  1.00  0.00     0.049 A 
ATOM     26  C   UNL A   1      43.915  25.125  28.584  1.00  0.00     0.074 A 
ATOM     27  C   UNL A   1      46.120  30.518  31.115  1.00  0.00     0.029 A 
ATOM     28  N   UNL A   1      44.855  28.956  30.155  1.00  0.00    -0.354 N 
ATOM     29  N   UNL A   1      44.281  26.277  29.090  1.00  0.00    -0.248 NA
ATOM     30  C   UNL A   1      44.993  24.126  28.522  1.00  0.00     0.031 C 
ATOM     31  C   UNL A   1      46.889  29.361  30.950  1.00  0.00     0.029 A 
ATOM     32  C   UNL A   1      46.092  28.380  30.377  1.00  0.00     0.049 A 
ATOM     33  H   UNL A   1      44.089  28.505  29.733  1.00  0.00     0.167 HD
ATOM     34  C   UNL A   1      45.611  26.124  29.463  1.00  0.00     0.074 A 
ATOM     35  C   UNL A   1      45.990  24.771  29.113  1.00  0.00     0.031 C 
ATOM     36  C   UNL A   1      46.436  27.018  30.058  1.00  0.00     0.031 A 
BRANCH  23  37
ATOM     37  C   UNL A   1      43.843  32.555  31.047  1.00  0.00    -0.014 A 
ATOM     38  C   UNL A   1      44.144  33.587  30.141  1.00  0.00     0.009 A 
ATOM     39  C   UNL A   1      43.727  32.867  32.409  1.00  0.00     0.009 A 
ATOM     40  C   UNL A   1      44.425  34.875  30.597  1.00  0.00     0.001 A 
ATOM     41  C   UNL A   1      43.960  34.169  32.858  1.00  0.00     0.001 A 
ATOM     42  C   UNL A   1      44.333  35.165  31.956  1.00  0.00     0.000 A 
ENDBRANCH  23  37
BRANCH  24  43
ATOM     43  C   UNL A   1      42.364  23.344  27.498  1.00  0.00    -0.014 A 
ATOM     44  C   UNL A   1      42.640  23.124  26.138  1.00  0.00     0.009 A 
ATOM     45  C   UNL A   1      41.897  22.272  28.274  1.00  0.00     0.009 A 
ATOM     46  C   UNL A   1      42.424  21.870  25.561  1.00  0.00     0.001 A 
ATOM     47  C   UNL A   1      41.703  21.012  27.700  1.00  0.00     0.001 A 
ATOM     48  C   UNL A   1      41.959  20.813  26.343  1.00  0.00     0.000 A 
ENDBRANCH  24  43
BRANCH  36  49
ATOM     49  C   UNL A   1      47.803  26.545  30.459  1.00  0.00    -0.014 A 
ATOM     50  C   UNL A   1      48.037  25.942  31.701  1.00  0.00     0.009 A 
ATOM     51  C   UNL A   1      48.854  26.635  29.532  1.00  0.00     0.009 A 
ATOM     52  C   UNL A   1      49.306  25.451  32.015  1.00  0.00     0.001 A 
ATOM     53  C   UNL A   1      50.114  26.121  29.838  1.00  0.00     0.001 A 
ATOM     54  C   UNL A   1      50.340  25.533  31.082  1.00  0.00     0.000 A 
ENDBRANCH  36  49
ENDBRANCH  10  11
ENDBRANCH   3   5
ENDBRANCH   2   3
ENDBRANCH   1   2
BRANCH   1  55
ATOM     55  C   UNL A   1      33.671  28.551  24.759  1.00  0.00     0.275 C 
BRANCH  55  56
ATOM     56  O   UNL A   1      34.056  27.255  24.265  1.00  0.00    -0.458 OA
BRANCH  56  57
ATOM     57  C   UNL A   1      33.577  26.861  23.053  1.00  0.00     0.342 C 
ATOM     58  O   UNL A   1      33.804  27.424  21.984  1.00  0.00    -0.246 OA
BRANCH  57  59
ATOM     59  C   UNL A   1      32.649  25.704  23.238  1.00  0.00     0.103 A 
ATOM     60  C   UNL A   1      31.291  26.054  23.428  1.00  0.00     0.020 A 
ATOM     61  C   UNL A   1      33.066  24.344  23.094  1.00  0.00     0.148 A 
ATOM     62  C   UNL A   1      30.316  25.081  23.485  1.00  0.00     0.002 A 
ATOM     63  C   UNL A   1      32.032  23.398  23.035  1.00  0.00     0.060 A 
ATOM     64  C   UNL A   1      30.689  23.766  23.282  1.00  0.00     0.019 A 
ATOM     65  Br  UNL A   1      32.115  21.605  22.436  1.00  0.00    -0.047 Br
BRANCH  61  66
ATOM     66  O   UNL A   1      34.413  24.202  23.059  1.00  0.00    -0.488 OA
BRANCH  66  67
ATOM     67  C   UNL A   1      35.467  23.803  23.939  1.00  0.00     0.178 C 
ATOM     68  C   UNL A   1      36.336  22.613  23.558  1.00  0.00     0.074 C 
ATOM     69  C   UNL A   1      35.235  23.928  25.448  1.00  0.00     0.080 C 
ATOM     70  C   UNL A   1      36.532  21.635  24.719  1.00  0.00     0.165 C 
ATOM     71  C   UNL A   1      34.724  22.640  26.083  1.00  0.00     0.072 C 
ATOM     72  O   UNL A   1      35.370  21.470  25.525  1.00  0.00    -0.375 OA
ATOM     73  C   UNL A   1      34.728  22.687  27.648  1.00  0.00     0.036 C 
ATOM     74  C   UNL A   1      33.176  22.547  26.191  1.00  0.00     0.036 C 
ATOM     75  C   UNL A   1      33.323  22.065  27.635  1.00  0.00     0.006 C 
ENDBRANCH  66  67
ENDBRANCH  61  66
ENDBRANCH  57  59
ENDBRANCH  56  57
ENDBRANCH  55  56
ENDBRANCH   1  55
TORSDOF 13
ENDMDL
MODEL 3
REMARK VINA RESULT:     -10.5      1.357      3.144
REMARK SMILES O=C(OCCOC(=O)c1cccc(Br)c1O[C@@H]1CCOC2(CCC2)C1)c1ccc(-c2c3nc(c(-c4ccccc4)c4ccc([nH]4)c(-c4ccccc4)c4nc(c(-c5ccccc5)c5ccc2[nH]5)C=C4)C=C3)cc1
REMARK SMILES IDX 4 1 3 2 2 3 1 4 26 5 27 6 73 7 28 8 72 9 29 10 30 11 31 12
REMARK SMILES IDX 66 13 32 14 71 15 65 16 67 17 33 18 70 19 64 20 63 21 34 23
REMARK SMILES IDX 56 24 41 25 55 26 42 27 45 28 54 29 68 30 43 31 44 32 53 34
REMARK SMILES IDX 69 35 46 36 35 37 36 38 40 39 37 40 39 41 38 42 57 43 58 44
REMARK SMILES IDX 62 45 59 46 61 47 60 48 47 49 48 50 52 51 49 52 51 53 50 54
REMARK SMILES IDX 5 55 6 56 7 57 8 58 9 59 10 60 15 61 11 62 13 63 12 64 14 65
REMARK SMILES IDX 16 66 17 67 18 68 25 69 19 70 21 71 20 72 22 73 24 74 23 75
REMARK H PARENT 67 22 45 33
REMARK Flexibility Score: inf
ROOT
ATOM      1  C   UNL A   1      33.869  29.007  26.375  1.00  0.00     0.275 C 
ENDROOT
BRANCH   1   2
ATOM      2  O   UNL A   1      33.717  30.189  27.168  1.00  0.00    -0.458 OA
BRANCH   2   3
ATOM      3  C   UNL A   1      34.603  30.815  27.967  1.00  0.00     0.338 C 
ATOM      4  O   UNL A   1      34.317  31.955  28.339  1.00  0.00    -0.246 OA
BRANCH   3   5
ATOM      5  C   UNL A   1      35.914  30.240  28.442  1.00  0.00     0.060 A 
ATOM      6  C   UNL A   1      36.242  29.656  29.674  1.00  0.00     0.016 A 
ATOM      7  C   UNL A   1      36.935  30.287  27.490  1.00  0.00     0.016 A 
ATOM      8  C   UNL A   1      37.510  29.088  29.922  1.00  0.00     0.010 A 
ATOM      9  C   UNL A   1      38.177  29.701  27.721  1.00  0.00     0.010 A 
ATOM     10  C   UNL A   1      38.489  29.077  28.934  1.00  0.00    -0.014 A 
BRANCH  10  11
ATOM     11  C   UNL A   1      39.868  28.536  29.132  1.00  0.00     0.031 A 
ATOM     12  C   UNL A   1      40.937  29.475  29.627  1.00  0.00     0.074 A 
ATOM     13  C   UNL A   1      40.219  27.286  28.762  1.00  0.00     0.049 A 
ATOM     14  N   UNL A   1      42.238  29.353  29.597  1.00  0.00    -0.248 NA
ATOM     15  C   UNL A   1      40.468  30.771  30.147  1.00  0.00     0.031 C 
ATOM     16  C   UNL A   1      39.318  26.263  28.235  1.00  0.00     0.029 A 
ATOM     17  N   UNL A   1      41.450  26.673  28.745  1.00  0.00    -0.354 N 
ATOM     18  C   UNL A   1      42.729  30.587  30.003  1.00  0.00     0.074 A 
ATOM     19  C   UNL A   1      41.593  31.464  30.160  1.00  0.00     0.031 C 
ATOM     20  C   UNL A   1      40.023  25.158  27.935  1.00  0.00     0.029 A 
ATOM     21  C   UNL A   1      41.431  25.398  28.227  1.00  0.00     0.049 A 
ATOM     22  H   UNL A   1      42.271  27.108  29.072  1.00  0.00     0.167 HD
ATOM     23  C   UNL A   1      44.000  30.949  30.295  1.00  0.00     0.031 A 
ATOM     24  C   UNL A   1      42.434  24.523  28.013  1.00  0.00     0.031 A 
ATOM     25  C   UNL A   1      45.109  30.039  30.270  1.00  0.00     0.049 A 
ATOM     26  C   UNL A   1      43.835  24.906  28.409  1.00  0.00     0.074 A 
ATOM     27  C   UNL A   1      46.411  30.248  30.684  1.00  0.00     0.029 A 
ATOM     28  N   UNL A   1      45.027  28.723  29.838  1.00  0.00    -0.354 N 
ATOM     29  N   UNL A   1      44.279  26.051  28.867  1.00  0.00    -0.248 NA
ATOM     30  C   UNL A   1      44.866  23.862  28.301  1.00  0.00     0.031 C 
ATOM     31  C   UNL A   1      47.121  29.058  30.494  1.00  0.00     0.029 A 
ATOM     32  C   UNL A   1      46.251  28.100  29.994  1.00  0.00     0.049 A 
ATOM     33  H   UNL A   1      44.217  28.296  29.474  1.00  0.00     0.167 HD
ATOM     34  C   UNL A   1      45.622  25.850  29.159  1.00  0.00     0.074 A 
ATOM     35  C   UNL A   1      45.923  24.475  28.815  1.00  0.00     0.031 C 
ATOM     36  C   UNL A   1      46.519  26.720  29.683  1.00  0.00     0.031 A 
BRANCH  23  37
ATOM     37  C   UNL A   1      44.218  32.377  30.715  1.00  0.00    -0.014 A 
ATOM     38  C   UNL A   1      44.106  32.764  32.063  1.00  0.00     0.009 A 
ATOM     39  C   UNL A   1      44.478  33.360  29.751  1.00  0.00     0.009 A 
ATOM     40  C   UNL A   1      44.148  34.111  32.422  1.00  0.00     0.001 A 
ATOM     41  C   UNL A   1      44.569  34.705  30.120  1.00  0.00     0.001 A 
ATOM     42  C   UNL A   1      44.379  35.081  31.449  1.00  0.00     0.000 A 
ENDBRANCH  23  37
BRANCH  24  43
ATOM     43  C   UNL A   1      42.147  23.171  27.460  1.00  0.00    -0.014 A 
ATOM     44  C   UNL A   1      41.552  22.188  28.268  1.00  0.00     0.009 A 
ATOM     45  C   UNL A   1      42.469  22.850  26.132  1.00  0.00     0.009 A 
ATOM     46  C   UNL A   1      41.315  20.905  27.769  1.00  0.00     0.001 A 
ATOM     47  C   UNL A   1      42.209  21.572  25.628  1.00  0.00     0.001 A 
ATOM     48  C   UNL A   1      41.640  20.598  26.448  1.00  0.00     0.000 A 
ENDBRANCH  24  43
BRANCH  36  49
ATOM     49  C   UNL A   1      47.888  26.198  30.007  1.00  0.00    -0.014 A 
ATOM     50  C   UNL A   1      48.904  26.150  29.044  1.00  0.00     0.009 A 
ATOM     51  C   UNL A   1      48.180  25.826  31.330  1.00  0.00     0.009 A 
ATOM     52  C   UNL A   1      50.186  25.723  29.397  1.00  0.00     0.001 A 
ATOM     53  C   UNL A   1      49.467  25.425  31.685  1.00  0.00     0.001 A 
ATOM     54  C   UNL A   1      50.468  25.369  30.716  1.00  0.00     0.000 A 
ENDBRANCH  36  49
ENDBRANCH  10  11
ENDBRANCH   3   5
ENDBRANCH   2   3
ENDBRANCH   1   2
BRANCH   1  55
ATOM     55  C   UNL A   1      32.831  27.940  26.713  1.00  0.00     0.275 C 
BRANCH  55  56
ATOM     56  O   UNL A   1      33.126  26.656  26.134  1.00  0.00    -0.458 OA
BRANCH  56  57
ATOM     57  C   UNL A   1      32.184  25.678  26.225  1.00  0.00     0.342 C 
ATOM     58  O   UNL A   1      31.089  25.797  26.773  1.00  0.00    -0.246 OA
BRANCH  57  59
ATOM     59  C   UNL A   1      32.726  24.410  25.650  1.00  0.00     0.103 A 
ATOM     60  C   UNL A   1      33.458  23.609  26.558  1.00  0.00     0.020 A 
ATOM     61  C   UNL A   1      32.416  23.962  24.327  1.00  0.00     0.148 A 
ATOM     62  C   UNL A   1      33.904  22.358  26.190  1.00  0.00     0.002 A 
ATOM     63  C   UNL A   1      32.781  22.639  24.036  1.00  0.00     0.060 A 
ATOM     64  C   UNL A   1      33.560  21.879  24.941  1.00  0.00     0.019 A 
ATOM     65  Br  UNL A   1      32.191  21.546  22.610  1.00  0.00    -0.047 Br
BRANCH  61  66
ATOM     66  O   UNL A   1      31.831  24.918  23.566  1.00  0.00    -0.488 OA
BRANCH  66  67
ATOM     67  C   UNL A   1      32.208  25.855  22.555  1.00  0.00     0.178 C 
ATOM     68  C   UNL A   1      33.633  26.388  22.537  1.00  0.00     0.074 C 
ATOM     69  C   UNL A   1      31.168  26.885  22.099  1.00  0.00     0.080 C 
ATOM     70  C   UNL A   1      33.689  27.908  22.368  1.00  0.00     0.165 C 
ATOM     71  C   UNL A   1      31.276  28.211  22.842  1.00  0.00     0.072 C 
ATOM     72  O   UNL A   1      32.654  28.596  23.063  1.00  0.00    -0.375 OA
ATOM     73  C   UNL A   1      30.392  29.339  22.210  1.00  0.00     0.036 C 
ATOM     74  C   UNL A   1      30.353  28.327  24.088  1.00  0.00     0.036 C 
ATOM     75  C   UNL A   1      29.932  29.722  23.625  1.00  0.00     0.006 C 
ENDBRANCH  66  67
ENDBRANCH  61  66
ENDBRANCH  57  59
ENDBRANCH  56  57
ENDBRANCH  55  56
ENDBRANCH   1  55
TORSDOF 13
ENDMDL
