MODEL 1
REMARK VINA RESULT:     -12.6      0.000      0.000
REMARK SMILES Cc1cc(N2CCCC2)nc2sc3c(=O)n(CC(=O)OCCOC(=O)c4ccc(-c5c6nc(c(-c7ccccc7)c7ccc([nH]7)c(-c7ccccc7)c7nc(c(-c8ccccc8)c8ccc5[nH]8)C=C7)C=C6)cc4)cnc3c12
REMARK SMILES IDX 21 1 20 2 18 3 19 4 17 5 16 6 1 7 2 8 3 9 77 10 4 11 11 12
REMARK SMILES IDX 76 13 10 14 12 15 13 16 75 17 14 18 74 19 15 20 5 21 6 22
REMARK SMILES IDX 9 23 7 24 8 25 22 26 23 27 24 28 25 29 26 30 27 31 73 32
REMARK SMILES IDX 28 33 72 34 29 35 30 36 31 37 66 38 32 39 71 40 65 41 67 42
REMARK SMILES IDX 33 43 70 44 64 45 63 46 34 48 56 49 41 50 55 51 42 52 45 53
REMARK SMILES IDX 54 54 68 55 43 56 44 57 53 59 69 60 46 61 35 62 36 63 40 64
REMARK SMILES IDX 37 65 39 66 38 67 57 68 58 69 62 70 59 71 61 72 60 73 47 74
REMARK SMILES IDX 48 75 52 76 49 77 51 78 50 79
REMARK H PARENT 67 47 45 58
REMARK Flexibility Score: inf
ROOT
ATOM      1  C   UNL A   1      37.042  21.224  25.271  1.00  0.00     0.274 C 
ENDROOT
BRANCH   1   2
ATOM      2  O   UNL A   1      35.813  21.504  25.975  1.00  0.00    -0.461 OA
BRANCH   2   3
ATOM      3  C   UNL A   1      34.692  21.500  25.206  1.00  0.00     0.326 C 
ATOM      4  O   UNL A   1      33.643  20.938  25.508  1.00  0.00    -0.250 OA
BRANCH   3   5
ATOM      5  C   UNL A   1      34.802  22.336  23.936  1.00  0.00     0.249 C 
BRANCH   5   6
ATOM      6  N   UNL A   1      34.112  23.615  23.912  1.00  0.00    -0.287 N 
ATOM      7  C   UNL A   1      32.277  28.221  26.329  1.00  0.00     0.045 C 
ATOM      8  C   UNL A   1      31.689  28.159  24.948  1.00  0.00    -0.035 A 
ATOM      9  C   UNL A   1      30.874  29.204  24.497  1.00  0.00     0.051 A 
ATOM     10  C   UNL A   1      31.949  27.128  24.019  1.00  0.00     0.041 A 
ATOM     11  C   UNL A   1      30.287  29.180  23.233  1.00  0.00     0.130 A 
ATOM     12  C   UNL A   1      31.363  27.237  22.759  1.00  0.00     0.128 A 
ATOM     13  C   UNL A   1      32.701  25.922  24.078  1.00  0.00     0.098 A 
ATOM     14  N   UNL A   1      30.505  28.192  22.349  1.00  0.00    -0.220 NA
ATOM     15  S   UNL A   1      31.859  25.996  21.683  1.00  0.00    -0.108 S 
ATOM     16  C   UNL A   1      32.802  25.270  22.885  1.00  0.00     0.121 A 
ATOM     17  N   UNL A   1      33.287  25.428  25.250  1.00  0.00    -0.236 NA
ATOM     18  C   UNL A   1      33.583  24.075  22.705  1.00  0.00     0.271 A 
ATOM     19  C   UNL A   1      33.917  24.310  25.090  1.00  0.00     0.203 A 
ATOM     20  O   UNL A   1      33.760  23.499  21.646  1.00  0.00    -0.268 OA
BRANCH  11  21
ATOM     21  N   UNL A   1      29.418  30.184  22.901  1.00  0.00    -0.357 N 
ATOM     22  C   UNL A   1      29.073  31.254  23.810  1.00  0.00     0.118 C 
ATOM     23  C   UNL A   1      29.085  30.495  21.526  1.00  0.00     0.118 C 
ATOM     24  C   UNL A   1      27.853  31.851  23.126  1.00  0.00     0.023 C 
ATOM     25  C   UNL A   1      28.186  31.733  21.640  1.00  0.00     0.023 C 
ENDBRANCH  11  21
ENDBRANCH   5   6
ENDBRANCH   3   5
ENDBRANCH   2   3
ENDBRANCH   1   2
BRANCH   1  26
ATOM     26  C   UNL A   1      38.201  22.085  25.778  1.00  0.00     0.275 C 
BRANCH  26  27
ATOM     27  O   UNL A   1      39.442  21.356  25.749  1.00  0.00    -0.458 OA
BRANCH  27  28
ATOM     28  C   UNL A   1      40.207  21.581  26.840  1.00  0.00     0.338 C 
ATOM     29  O   UNL A   1      40.485  20.773  27.713  1.00  0.00    -0.246 OA
BRANCH  28  30
ATOM     30  C   UNL A   1      40.773  22.937  26.873  1.00  0.00     0.060 A 
ATOM     31  C   UNL A   1      41.943  23.281  26.184  1.00  0.00     0.016 A 
ATOM     32  C   UNL A   1      40.231  23.799  27.826  1.00  0.00     0.016 A 
ATOM     33  C   UNL A   1      42.602  24.471  26.499  1.00  0.00     0.010 A 
ATOM     34  C   UNL A   1      40.874  24.993  28.116  1.00  0.00     0.010 A 
ATOM     35  C   UNL A   1      42.064  25.338  27.457  1.00  0.00    -0.014 A 
BRANCH  35  36
ATOM     36  C   UNL A   1      42.684  26.668  27.632  1.00  0.00     0.031 A 
ATOM     37  C   UNL A   1      41.674  27.772  27.555  1.00  0.00     0.074 A 
ATOM     38  C   UNL A   1      43.690  26.896  28.503  1.00  0.00     0.049 A 
ATOM     39  N   UNL A   1      40.910  28.041  28.570  1.00  0.00    -0.248 NA
ATOM     40  C   UNL A   1      41.225  28.387  26.311  1.00  0.00     0.031 C 
ATOM     41  C   UNL A   1      43.914  26.144  29.745  1.00  0.00     0.029 A 
ATOM     42  N   UNL A   1      44.532  27.980  28.604  1.00  0.00    -0.354 N 
ATOM     43  C   UNL A   1      39.817  28.745  28.100  1.00  0.00     0.074 A 
ATOM     44  C   UNL A   1      40.077  28.973  26.697  1.00  0.00     0.031 C 
ATOM     45  C   UNL A   1      44.687  26.889  30.563  1.00  0.00     0.029 A 
ATOM     46  C   UNL A   1      45.127  28.082  29.851  1.00  0.00     0.049 A 
ATOM     47  H   UNL A   1      44.695  28.615  27.869  1.00  0.00     0.167 HD
ATOM     48  C   UNL A   1      38.784  29.081  28.922  1.00  0.00     0.031 A 
ATOM     49  C   UNL A   1      45.617  29.228  30.391  1.00  0.00     0.031 A 
ATOM     50  C   UNL A   1      38.928  28.756  30.325  1.00  0.00     0.049 A 
ATOM     51  C   UNL A   1      44.404  29.768  31.106  1.00  0.00     0.074 A 
ATOM     52  C   UNL A   1      38.163  28.329  31.391  1.00  0.00     0.029 A 
ATOM     53  N   UNL A   1      40.192  28.892  30.823  1.00  0.00    -0.354 N 
ATOM     54  N   UNL A   1      43.914  29.340  32.241  1.00  0.00    -0.248 NA
ATOM     55  C   UNL A   1      43.505  30.673  30.367  1.00  0.00     0.031 C 
ATOM     56  C   UNL A   1      39.016  28.314  32.549  1.00  0.00     0.029 A 
ATOM     57  C   UNL A   1      40.271  28.769  32.174  1.00  0.00     0.049 A 
ATOM     58  H   UNL A   1      40.976  29.065  30.254  1.00  0.00     0.167 HD
ATOM     59  C   UNL A   1      42.559  29.649  32.180  1.00  0.00     0.074 A 
ATOM     60  C   UNL A   1      42.407  30.617  31.113  1.00  0.00     0.031 C 
ATOM     61  C   UNL A   1      41.583  28.895  32.766  1.00  0.00     0.031 A 
BRANCH  48  62
ATOM     62  C   UNL A   1      37.702  30.000  28.503  1.00  0.00    -0.014 A 
ATOM     63  C   UNL A   1      37.829  31.347  28.887  1.00  0.00     0.009 A 
ATOM     64  C   UNL A   1      36.520  29.579  27.886  1.00  0.00     0.009 A 
ATOM     65  C   UNL A   1      36.797  32.257  28.668  1.00  0.00     0.001 A 
ATOM     66  C   UNL A   1      35.484  30.497  27.667  1.00  0.00     0.001 A 
ATOM     67  C   UNL A   1      35.621  31.830  28.061  1.00  0.00     0.000 A 
ENDBRANCH  48  62
BRANCH  49  68
ATOM     68  C   UNL A   1      46.510  30.028  29.493  1.00  0.00    -0.014 A 
ATOM     69  C   UNL A   1      46.770  31.368  29.857  1.00  0.00     0.009 A 
ATOM     70  C   UNL A   1      47.120  29.560  28.322  1.00  0.00     0.009 A 
ATOM     71  C   UNL A   1      47.706  32.151  29.174  1.00  0.00     0.001 A 
ATOM     72  C   UNL A   1      48.080  30.331  27.651  1.00  0.00     0.001 A 
ATOM     73  C   UNL A   1      48.390  31.615  28.091  1.00  0.00     0.000 A 
ENDBRANCH  49  68
BRANCH  61  74
ATOM     74  C   UNL A   1      41.970  28.047  33.918  1.00  0.00    -0.014 A 
ATOM     75  C   UNL A   1      41.633  28.462  35.214  1.00  0.00     0.009 A 
ATOM     76  C   UNL A   1      42.581  26.799  33.734  1.00  0.00     0.009 A 
ATOM     77  C   UNL A   1      41.886  27.639  36.307  1.00  0.00     0.001 A 
ATOM     78  C   UNL A   1      42.833  25.974  34.832  1.00  0.00     0.001 A 
ATOM     79  C   UNL A   1      42.479  26.392  36.115  1.00  0.00     0.000 A 
ENDBRANCH  61  74
ENDBRANCH  35  36
ENDBRANCH  28  30
ENDBRANCH  27  28
ENDBRANCH  26  27
ENDBRANCH   1  26
TORSDOF 13
ENDMDL
MODEL 2
REMARK VINA RESULT:     -12.6      3.284      8.027
REMARK SMILES Cc1cc(N2CCCC2)nc2sc3c(=O)n(CC(=O)OCCOC(=O)c4ccc(-c5c6nc(c(-c7ccccc7)c7ccc([nH]7)c(-c7ccccc7)c7nc(c(-c8ccccc8)c8ccc5[nH]8)C=C7)C=C6)cc4)cnc3c12
REMARK SMILES IDX 21 1 20 2 18 3 19 4 17 5 16 6 1 7 2 8 3 9 77 10 4 11 11 12
REMARK SMILES IDX 76 13 10 14 12 15 13 16 75 17 14 18 74 19 15 20 5 21 6 22
REMARK SMILES IDX 9 23 7 24 8 25 22 26 23 27 24 28 25 29 26 30 27 31 73 32
REMARK SMILES IDX 28 33 72 34 29 35 30 36 31 37 66 38 32 39 71 40 65 41 67 42
REMARK SMILES IDX 33 43 70 44 64 45 63 46 34 48 56 49 41 50 55 51 42 52 45 53
REMARK SMILES IDX 54 54 68 55 43 56 44 57 53 59 69 60 46 61 35 62 36 63 40 64
REMARK SMILES IDX 37 65 39 66 38 67 57 68 58 69 62 70 59 71 61 72 60 73 47 74
REMARK SMILES IDX 48 75 52 76 49 77 51 78 50 79
REMARK H PARENT 67 47 45 58
REMARK Flexibility Score: inf
ROOT
ATOM      1  C   UNL A   1      33.330  30.073  27.157  1.00  0.00     0.274 C 
ENDROOT
BRANCH   1   2
ATOM      2  O   UNL A   1      31.959  29.748  26.843  1.00  0.00    -0.461 OA
BRANCH   2   3
ATOM      3  C   UNL A   1      31.617  28.444  27.024  1.00  0.00     0.326 C 
ATOM      4  O   UNL A   1      31.462  27.911  28.120  1.00  0.00    -0.250 OA
BRANCH   3   5
ATOM      5  C   UNL A   1      31.353  27.681  25.732  1.00  0.00     0.249 C 
BRANCH   5   6
ATOM      6  N   UNL A   1      31.851  26.319  25.641  1.00  0.00    -0.287 N 
ATOM      7  C   UNL A   1      35.791  22.626  24.517  1.00  0.00     0.045 C 
ATOM      8  C   UNL A   1      34.511  21.877  24.757  1.00  0.00    -0.035 A 
ATOM      9  C   UNL A   1      34.511  20.478  24.712  1.00  0.00     0.051 A 
ATOM     10  C   UNL A   1      33.283  22.488  25.093  1.00  0.00     0.041 A 
ATOM     11  C   UNL A   1      33.344  19.740  24.905  1.00  0.00     0.130 A 
ATOM     12  C   UNL A   1      32.194  21.652  25.330  1.00  0.00     0.128 A 
ATOM     13  C   UNL A   1      32.869  23.842  25.239  1.00  0.00     0.098 A 
ATOM     14  N   UNL A   1      32.164  20.311  25.199  1.00  0.00    -0.220 NA
ATOM     15  S   UNL A   1      30.800  22.503  25.856  1.00  0.00    -0.108 S 
ATOM     16  C   UNL A   1      31.601  23.987  25.718  1.00  0.00     0.121 A 
ATOM     17  N   UNL A   1      33.676  24.940  24.916  1.00  0.00    -0.236 NA
ATOM     18  C   UNL A   1      31.014  25.267  26.015  1.00  0.00     0.271 A 
ATOM     19  C   UNL A   1      33.105  26.084  25.111  1.00  0.00     0.203 A 
ATOM     20  O   UNL A   1      29.915  25.443  26.510  1.00  0.00    -0.268 OA
BRANCH  11  21
ATOM     21  N   UNL A   1      33.400  18.382  24.741  1.00  0.00    -0.357 N 
ATOM     22  C   UNL A   1      34.530  17.711  24.141  1.00  0.00     0.118 C 
ATOM     23  C   UNL A   1      32.551  17.478  25.491  1.00  0.00     0.118 C 
ATOM     24  C   UNL A   1      33.953  16.331  23.867  1.00  0.00     0.023 C 
ATOM     25  C   UNL A   1      33.036  16.086  25.064  1.00  0.00     0.023 C 
ENDBRANCH  11  21
ENDBRANCH   5   6
ENDBRANCH   3   5
ENDBRANCH   2   3
ENDBRANCH   1   2
BRANCH   1  26
ATOM     26  C   UNL A   1      33.476  31.509  27.663  1.00  0.00     0.275 C 
BRANCH  26  27
ATOM     27  O   UNL A   1      34.741  32.073  27.270  1.00  0.00    -0.458 OA
BRANCH  27  28
ATOM     28  C   UNL A   1      35.324  32.789  28.257  1.00  0.00     0.338 C 
ATOM     29  O   UNL A   1      35.106  33.958  28.534  1.00  0.00    -0.246 OA
BRANCH  28  30
ATOM     30  C   UNL A   1      36.254  31.991  29.071  1.00  0.00     0.060 A 
ATOM     31  C   UNL A   1      36.463  32.240  30.433  1.00  0.00     0.016 A 
ATOM     32  C   UNL A   1      37.103  31.140  28.365  1.00  0.00     0.016 A 
ATOM     33  C   UNL A   1      37.568  31.675  31.072  1.00  0.00     0.010 A 
ATOM     34  C   UNL A   1      38.184  30.559  29.011  1.00  0.00     0.010 A 
ATOM     35  C   UNL A   1      38.426  30.823  30.368  1.00  0.00    -0.014 A 
BRANCH  35  36
ATOM     36  C   UNL A   1      39.474  30.099  31.118  1.00  0.00     0.031 A 
ATOM     37  C   UNL A   1      39.591  28.671  30.681  1.00  0.00     0.074 A 
ATOM     38  C   UNL A   1      40.646  30.670  31.471  1.00  0.00     0.049 A 
ATOM     39  N   UNL A   1      40.221  28.363  29.587  1.00  0.00    -0.248 NA
ATOM     40  C   UNL A   1      38.773  27.583  31.205  1.00  0.00     0.031 C 
ATOM     41  C   UNL A   1      41.308  31.756  30.734  1.00  0.00     0.029 A 
ATOM     42  N   UNL A   1      41.596  30.236  32.367  1.00  0.00    -0.354 N 
ATOM     43  C   UNL A   1      39.800  27.105  29.198  1.00  0.00     0.074 A 
ATOM     44  C   UNL A   1      38.932  26.643  30.256  1.00  0.00     0.031 C 
ATOM     45  C   UNL A   1      42.613  31.772  31.078  1.00  0.00     0.029 A 
ATOM     46  C   UNL A   1      42.838  30.814  32.152  1.00  0.00     0.049 A 
ATOM     47  H   UNL A   1      41.413  29.587  33.084  1.00  0.00     0.167 HD
ATOM     48  C   UNL A   1      40.211  26.553  28.023  1.00  0.00     0.031 A 
ATOM     49  C   UNL A   1      44.024  30.281  32.544  1.00  0.00     0.031 A 
ATOM     50  C   UNL A   1      41.184  27.298  27.252  1.00  0.00     0.049 A 
ATOM     51  C   UNL A   1      44.388  29.441  31.346  1.00  0.00     0.074 A 
ATOM     52  C   UNL A   1      41.498  27.572  25.937  1.00  0.00     0.029 A 
ATOM     53  N   UNL A   1      42.120  27.963  27.991  1.00  0.00    -0.354 N 
ATOM     54  N   UNL A   1      44.861  29.874  30.205  1.00  0.00    -0.248 NA
ATOM     55  C   UNL A   1      43.935  28.038  31.315  1.00  0.00     0.031 C 
ATOM     56  C   UNL A   1      42.710  28.347  25.941  1.00  0.00     0.029 A 
ATOM     57  C   UNL A   1      43.130  28.496  27.254  1.00  0.00     0.049 A 
ATOM     58  H   UNL A   1      42.067  28.050  28.969  1.00  0.00     0.167 HD
ATOM     59  C   UNL A   1      44.455  28.925  29.272  1.00  0.00     0.074 A 
ATOM     60  C   UNL A   1      44.065  27.750  30.025  1.00  0.00     0.031 C 
ATOM     61  C   UNL A   1      44.151  29.222  27.974  1.00  0.00     0.031 A 
BRANCH  48  62
ATOM     62  C   UNL A   1      39.943  25.140  27.673  1.00  0.00    -0.014 A 
ATOM     63  C   UNL A   1      40.935  24.203  28.011  1.00  0.00     0.009 A 
ATOM     64  C   UNL A   1      38.847  24.722  26.912  1.00  0.00     0.009 A 
ATOM     65  C   UNL A   1      40.843  22.877  27.595  1.00  0.00     0.001 A 
ATOM     66  C   UNL A   1      38.756  23.387  26.496  1.00  0.00     0.001 A 
ATOM     67  C   UNL A   1      39.753  22.470  26.833  1.00  0.00     0.000 A 
ENDBRANCH  48  62
BRANCH  49  68
ATOM     68  C   UNL A   1      44.077  29.815  33.967  1.00  0.00    -0.014 A 
ATOM     69  C   UNL A   1      44.299  30.791  34.965  1.00  0.00     0.009 A 
ATOM     70  C   UNL A   1      43.917  28.493  34.399  1.00  0.00     0.009 A 
ATOM     71  C   UNL A   1      44.216  30.487  36.326  1.00  0.00     0.001 A 
ATOM     72  C   UNL A   1      43.804  28.188  35.763  1.00  0.00     0.001 A 
ATOM     73  C   UNL A   1      43.929  29.187  36.724  1.00  0.00     0.000 A 
ENDBRANCH  49  68
BRANCH  61  74
ATOM     74  C   UNL A   1      44.757  30.441  27.389  1.00  0.00    -0.014 A 
ATOM     75  C   UNL A   1      43.987  31.608  27.296  1.00  0.00     0.009 A 
ATOM     76  C   UNL A   1      46.108  30.478  27.014  1.00  0.00     0.009 A 
ATOM     77  C   UNL A   1      44.557  32.797  26.851  1.00  0.00     0.001 A 
ATOM     78  C   UNL A   1      46.679  31.672  26.571  1.00  0.00     0.001 A 
ATOM     79  C   UNL A   1      45.905  32.830  26.496  1.00  0.00     0.000 A 
ENDBRANCH  61  74
ENDBRANCH  35  36
ENDBRANCH  28  30
ENDBRANCH  27  28
ENDBRANCH  26  27
ENDBRANCH   1  26
TORSDOF 13
ENDMDL
MODEL 3
REMARK VINA RESULT:     -11.5      4.141      8.598
REMARK SMILES Cc1cc(N2CCCC2)nc2sc3c(=O)n(CC(=O)OCCOC(=O)c4ccc(-c5c6nc(c(-c7ccccc7)c7ccc([nH]7)c(-c7ccccc7)c7nc(c(-c8ccccc8)c8ccc5[nH]8)C=C7)C=C6)cc4)cnc3c12
REMARK SMILES IDX 21 1 20 2 18 3 19 4 17 5 16 6 1 7 2 8 3 9 77 10 4 11 11 12
REMARK SMILES IDX 76 13 10 14 12 15 13 16 75 17 14 18 74 19 15 20 5 21 6 22
REMARK SMILES IDX 9 23 7 24 8 25 22 26 23 27 24 28 25 29 26 30 27 31 73 32
REMARK SMILES IDX 28 33 72 34 29 35 30 36 31 37 66 38 32 39 71 40 65 41 67 42
REMARK SMILES IDX 33 43 70 44 64 45 63 46 34 48 56 49 41 50 55 51 42 52 45 53
REMARK SMILES IDX 54 54 68 55 43 56 44 57 53 59 69 60 46 61 35 62 36 63 40 64
REMARK SMILES IDX 37 65 39 66 38 67 57 68 58 69 62 70 59 71 61 72 60 73 47 74
REMARK SMILES IDX 48 75 52 76 49 77 51 78 50 79
REMARK H PARENT 67 47 45 58
REMARK Flexibility Score: inf
ROOT
ATOM      1  C   UNL A   1      44.464  25.229  25.422  1.00  0.00     0.274 C 
ENDROOT
BRANCH   1   2
ATOM      2  O   UNL A   1      44.421  24.553  26.697  1.00  0.00    -0.461 OA
BRANCH   2   3
ATOM      3  C   UNL A   1      44.216  23.210  26.634  1.00  0.00     0.326 C 
ATOM      4  O   UNL A   1      44.817  22.449  25.881  1.00  0.00    -0.250 OA
BRANCH   3   5
ATOM      5  C   UNL A   1      43.210  22.683  27.651  1.00  0.00     0.249 C 
BRANCH   5   6
ATOM      6  N   UNL A   1      41.843  22.481  27.202  1.00  0.00    -0.287 N 
ATOM      7  C   UNL A   1      37.832  19.408  24.992  1.00  0.00     0.045 C 
ATOM      8  C   UNL A   1      37.322  20.816  25.111  1.00  0.00    -0.035 A 
ATOM      9  C   UNL A   1      36.009  21.109  24.724  1.00  0.00     0.051 A 
ATOM     10  C   UNL A   1      38.065  21.887  25.653  1.00  0.00     0.041 A 
ATOM     11  C   UNL A   1      35.499  22.405  24.794  1.00  0.00     0.130 A 
ATOM     12  C   UNL A   1      37.434  23.127  25.737  1.00  0.00     0.128 A 
ATOM     13  C   UNL A   1      39.393  22.007  26.149  1.00  0.00     0.098 A 
ATOM     14  N   UNL A   1      36.204  23.438  25.284  1.00  0.00    -0.220 NA
ATOM     15  S   UNL A   1      38.390  24.310  26.531  1.00  0.00    -0.108 S 
ATOM     16  C   UNL A   1      39.667  23.216  26.718  1.00  0.00     0.121 A 
ATOM     17  N   UNL A   1      40.350  20.989  26.062  1.00  0.00    -0.236 NA
ATOM     18  C   UNL A   1      40.923  23.520  27.351  1.00  0.00     0.271 A 
ATOM     19  C   UNL A   1      41.499  21.306  26.563  1.00  0.00     0.203 A 
ATOM     20  O   UNL A   1      41.188  24.557  27.934  1.00  0.00    -0.268 OA
BRANCH  11  21
ATOM     21  N   UNL A   1      34.243  22.636  24.299  1.00  0.00    -0.357 N 
ATOM     22  C   UNL A   1      33.273  21.583  24.100  1.00  0.00     0.118 C 
ATOM     23  C   UNL A   1      33.638  23.953  24.312  1.00  0.00     0.118 C 
ATOM     24  C   UNL A   1      32.243  22.281  23.225  1.00  0.00     0.023 C 
ATOM     25  C   UNL A   1      32.222  23.707  23.772  1.00  0.00     0.023 C 
ENDBRANCH  11  21
ENDBRANCH   5   6
ENDBRANCH   3   5
ENDBRANCH   2   3
ENDBRANCH   1   2
BRANCH   1  26
ATOM     26  C   UNL A   1      44.162  26.723  25.556  1.00  0.00     0.275 C 
BRANCH  26  27
ATOM     27  O   UNL A   1      42.879  26.941  26.170  1.00  0.00    -0.458 OA
BRANCH  27  28
ATOM     28  C   UNL A   1      42.294  28.090  25.765  1.00  0.00     0.338 C 
ATOM     29  O   UNL A   1      42.277  28.537  24.628  1.00  0.00    -0.246 OA
BRANCH  28  30
ATOM     30  C   UNL A   1      41.575  28.780  26.846  1.00  0.00     0.060 A 
ATOM     31  C   UNL A   1      42.154  29.023  28.098  1.00  0.00     0.016 A 
ATOM     32  C   UNL A   1      40.206  28.956  26.650  1.00  0.00     0.016 A 
ATOM     33  C   UNL A   1      41.340  29.387  29.172  1.00  0.00     0.010 A 
ATOM     34  C   UNL A   1      39.405  29.344  27.713  1.00  0.00     0.010 A 
ATOM     35  C   UNL A   1      39.964  29.561  28.982  1.00  0.00    -0.014 A 
BRANCH  35  36
ATOM     36  C   UNL A   1      39.165  30.125  30.090  1.00  0.00     0.031 A 
ATOM     37  C   UNL A   1      39.437  29.430  31.388  1.00  0.00     0.074 A 
ATOM     38  C   UNL A   1      38.912  31.446  30.209  1.00  0.00     0.049 A 
ATOM     39  N   UNL A   1      40.505  29.706  32.075  1.00  0.00    -0.248 NA
ATOM     40  C   UNL A   1      38.770  28.207  31.820  1.00  0.00     0.031 C 
ATOM     41  C   UNL A   1      39.786  32.518  29.713  1.00  0.00     0.029 A 
ATOM     42  N   UNL A   1      37.998  32.094  31.009  1.00  0.00    -0.354 N 
ATOM     43  C   UNL A   1      40.736  28.651  32.938  1.00  0.00     0.074 A 
ATOM     44  C   UNL A   1      39.609  27.762  32.774  1.00  0.00     0.031 C 
ATOM     45  C   UNL A   1      39.482  33.657  30.370  1.00  0.00     0.029 A 
ATOM     46  C   UNL A   1      38.311  33.429  31.207  1.00  0.00     0.049 A 
ATOM     47  H   UNL A   1      37.206  31.656  31.397  1.00  0.00     0.167 HD
ATOM     48  C   UNL A   1      41.850  28.606  33.720  1.00  0.00     0.031 A 
ATOM     49  C   UNL A   1      37.893  34.181  32.259  1.00  0.00     0.031 A 
ATOM     50  C   UNL A   1      42.728  29.756  33.679  1.00  0.00     0.049 A 
ATOM     51  C   UNL A   1      38.996  33.941  33.259  1.00  0.00     0.074 A 
ATOM     52  C   UNL A   1      44.073  30.056  33.726  1.00  0.00     0.029 A 
ATOM     53  N   UNL A   1      42.096  30.961  33.561  1.00  0.00    -0.354 N 
ATOM     54  N   UNL A   1      40.191  34.473  33.242  1.00  0.00    -0.248 NA
ATOM     55  C   UNL A   1      38.853  32.813  34.197  1.00  0.00     0.031 C 
ATOM     56  C   UNL A   1      44.192  31.489  33.724  1.00  0.00     0.029 A 
ATOM     57  C   UNL A   1      42.916  32.033  33.716  1.00  0.00     0.049 A 
ATOM     58  H   UNL A   1      41.133  31.044  33.379  1.00  0.00     0.167 HD
ATOM     59  C   UNL A   1      40.998  33.549  33.899  1.00  0.00     0.074 A 
ATOM     60  C   UNL A   1      40.105  32.661  34.615  1.00  0.00     0.031 C 
ATOM     61  C   UNL A   1      42.313  33.340  33.594  1.00  0.00     0.031 A 
BRANCH  48  62
ATOM     62  C   UNL A   1      42.029  27.601  34.792  1.00  0.00    -0.014 A 
ATOM     63  C   UNL A   1      42.626  26.382  34.427  1.00  0.00     0.009 A 
ATOM     64  C   UNL A   1      41.515  27.743  36.085  1.00  0.00     0.009 A 
ATOM     65  C   UNL A   1      42.705  25.322  35.326  1.00  0.00     0.001 A 
ATOM     66  C   UNL A   1      41.596  26.675  36.988  1.00  0.00     0.001 A 
ATOM     67  C   UNL A   1      42.185  25.468  36.608  1.00  0.00     0.000 A 
ENDBRANCH  48  62
BRANCH  49  68
ATOM     68  C   UNL A   1      36.428  34.099  32.561  1.00  0.00    -0.014 A 
ATOM     69  C   UNL A   1      35.804  35.255  33.083  1.00  0.00     0.009 A 
ATOM     70  C   UNL A   1      35.616  32.976  32.364  1.00  0.00     0.009 A 
ATOM     71  C   UNL A   1      34.419  35.332  33.255  1.00  0.00     0.001 A 
ATOM     72  C   UNL A   1      34.224  33.057  32.508  1.00  0.00     0.001 A 
ATOM     73  C   UNL A   1      33.624  34.241  32.930  1.00  0.00     0.000 A 
ENDBRANCH  49  68
BRANCH  61  74
ATOM     74  C   UNL A   1      43.050  34.449  32.943  1.00  0.00    -0.014 A 
ATOM     75  C   UNL A   1      43.184  34.452  31.548  1.00  0.00     0.009 A 
ATOM     76  C   UNL A   1      43.534  35.538  33.682  1.00  0.00     0.009 A 
ATOM     77  C   UNL A   1      43.777  35.530  30.898  1.00  0.00     0.001 A 
ATOM     78  C   UNL A   1      44.126  36.619  33.028  1.00  0.00     0.001 A 
ATOM     79  C   UNL A   1      44.241  36.617  31.638  1.00  0.00     0.000 A 
ENDBRANCH  61  74
ENDBRANCH  35  36
ENDBRANCH  28  30
ENDBRANCH  27  28
ENDBRANCH  26  27
ENDBRANCH   1  26
TORSDOF 13
ENDMDL
