MODEL 1
REMARK VINA RESULT:     -11.8      0.000      0.000
REMARK SMILES COc1cccc(-c2c(C(=O)OCCOC(=O)c3ccc(-c4c5nc(c(-c6ccccc6)c6ccc([nH]6)c(-c6ccccc6)c6nc(c(-c7ccccc7)c7ccc4[nH]7)C=C6)C=C5)cc3)nnn2-c2ccc(OC(F)(F)F)cc2)c1
REMARK SMILES IDX 13 1 12 2 10 3 11 4 9 5 8 6 68 7 66 8 67 9 7 10 3 11 4 12
REMARK SMILES IDX 80 13 5 14 6 15 2 16 1 17 69 18 70 19 79 20 71 21 78 22
REMARK SMILES IDX 72 23 73 24 74 25 75 26 76 27 77 28 14 29 15 30 16 31 17 32
REMARK SMILES IDX 18 33 19 34 65 35 20 36 64 37 21 38 22 39 23 40 58 41 24 42
REMARK SMILES IDX 63 43 57 44 59 45 25 46 62 47 56 48 55 49 26 51 48 52 33 53
REMARK SMILES IDX 47 54 34 55 37 56 46 57 60 58 35 59 36 60 45 62 61 63 38 64
REMARK SMILES IDX 27 65 28 66 32 67 29 68 31 69 30 70 49 71 50 72 54 73 51 74
REMARK SMILES IDX 53 75 52 76 39 77 40 78 44 79 41 80 43 81 42 82
REMARK H PARENT 59 50 37 61
REMARK Flexibility Score: inf
ROOT
ATOM      1  C   UNL A   1      32.022  28.307  24.652  1.00  0.00     0.275 C 
ENDROOT
BRANCH   1   2
ATOM      2  O   UNL A   1      32.596  27.028  24.342  1.00  0.00    -0.457 OA
BRANCH   2   3
ATOM      3  C   UNL A   1      32.696  26.120  25.358  1.00  0.00     0.361 C 
ATOM      4  O   UNL A   1      33.016  26.417  26.506  1.00  0.00    -0.244 OA
BRANCH   3   5
ATOM      5  C   UNL A   1      32.312  24.773  24.957  1.00  0.00     0.198 A 
ATOM      6  C   UNL A   1      33.117  23.681  24.654  1.00  0.00     0.109 A 
ATOM      7  N   UNL A   1      32.190  22.669  24.417  1.00  0.00    -0.212 N 
ATOM      8  N   UNL A   1      30.994  24.437  24.729  1.00  0.00    -0.122 NA
ATOM      9  N   UNL A   1      30.950  23.188  24.290  1.00  0.00    -0.061 NA
BRANCH   6  10
ATOM     10  C   UNL A   1      34.570  23.514  24.549  1.00  0.00     0.007 A 
ATOM     11  C   UNL A   1      36.789  23.742  25.528  1.00  0.00     0.119 A 
ATOM     12  C   UNL A   1      37.348  23.318  24.322  1.00  0.00     0.046 A 
ATOM     13  C   UNL A   1      35.400  23.823  25.645  1.00  0.00     0.056 A 
ATOM     14  C   UNL A   1      36.535  22.973  23.243  1.00  0.00     0.005 A 
ATOM     15  C   UNL A   1      35.151  23.083  23.352  1.00  0.00     0.011 A 
BRANCH  11  16
ATOM     16  O   UNL A   1      37.702  24.079  26.489  1.00  0.00    -0.497 OA
ATOM     17  C   UNL A   1      38.886  23.297  26.566  1.00  0.00     0.278 C 
ENDBRANCH  11  16
ENDBRANCH   6  10
BRANCH   7  18
ATOM     18  C   UNL A   1      32.400  21.271  24.426  1.00  0.00     0.067 A 
ATOM     19  C   UNL A   1      32.734  20.611  25.609  1.00  0.00     0.032 A 
ATOM     20  C   UNL A   1      32.289  20.555  23.229  1.00  0.00     0.032 A 
ATOM     21  C   UNL A   1      32.882  19.218  25.591  1.00  0.00     0.049 A 
ATOM     22  C   UNL A   1      32.477  19.173  23.214  1.00  0.00     0.049 A 
ATOM     23  C   UNL A   1      32.752  18.492  24.399  1.00  0.00     0.129 A 
BRANCH  23  24
ATOM     24  O   UNL A   1      32.916  17.143  24.524  1.00  0.00    -0.406 OA
BRANCH  24  25
ATOM     25  C   UNL A   1      34.192  16.608  24.211  1.00  0.00     0.573 C 
ATOM     26  F   UNL A   1      34.511  15.581  25.028  1.00  0.00    -0.132 F 
ATOM     27  F   UNL A   1      34.242  16.194  22.926  1.00  0.00    -0.132 F 
ATOM     28  F   UNL A   1      35.122  17.575  24.376  1.00  0.00    -0.132 F 
ENDBRANCH  24  25
ENDBRANCH  23  24
ENDBRANCH   7  18
ENDBRANCH   3   5
ENDBRANCH   2   3
ENDBRANCH   1   2
BRANCH   1  29
ATOM     29  C   UNL A   1      33.079  29.400  24.595  1.00  0.00     0.275 C 
BRANCH  29  30
ATOM     30  O   UNL A   1      33.707  29.552  25.867  1.00  0.00    -0.458 OA
BRANCH  30  31
ATOM     31  C   UNL A   1      33.202  30.526  26.658  1.00  0.00     0.338 C 
ATOM     32  O   UNL A   1      32.200  31.190  26.449  1.00  0.00    -0.246 OA
BRANCH  31  33
ATOM     33  C   UNL A   1      34.160  30.814  27.732  1.00  0.00     0.060 A 
ATOM     34  C   UNL A   1      34.660  32.119  27.797  1.00  0.00     0.016 A 
ATOM     35  C   UNL A   1      34.773  29.752  28.412  1.00  0.00     0.016 A 
ATOM     36  C   UNL A   1      35.911  32.309  28.343  1.00  0.00     0.010 A 
ATOM     37  C   UNL A   1      36.026  29.941  28.943  1.00  0.00     0.010 A 
ATOM     38  C   UNL A   1      36.615  31.195  28.810  1.00  0.00    -0.014 A 
BRANCH  38  39
ATOM     39  C   UNL A   1      38.017  31.357  29.113  1.00  0.00     0.031 A 
ATOM     40  C   UNL A   1      38.839  30.143  28.985  1.00  0.00     0.074 A 
ATOM     41  C   UNL A   1      38.556  32.554  29.405  1.00  0.00     0.049 A 
ATOM     42  N   UNL A   1      39.440  29.502  29.928  1.00  0.00    -0.248 NA
ATOM     43  C   UNL A   1      38.935  29.522  27.658  1.00  0.00     0.031 C 
ATOM     44  C   UNL A   1      37.956  33.886  29.298  1.00  0.00     0.029 A 
ATOM     45  N   UNL A   1      39.837  32.815  29.770  1.00  0.00    -0.354 N 
ATOM     46  C   UNL A   1      40.110  28.457  29.308  1.00  0.00     0.074 A 
ATOM     47  C   UNL A   1      39.671  28.445  27.932  1.00  0.00     0.031 C 
ATOM     48  C   UNL A   1      38.936  34.816  29.373  1.00  0.00     0.029 A 
ATOM     49  C   UNL A   1      40.193  34.147  29.674  1.00  0.00     0.049 A 
ATOM     50  H   UNL A   1      40.459  32.116  30.078  1.00  0.00     0.167 HD
ATOM     51  C   UNL A   1      41.124  27.788  29.916  1.00  0.00     0.031 A 
ATOM     52  C   UNL A   1      41.450  34.640  29.766  1.00  0.00     0.031 A 
ATOM     53  C   UNL A   1      41.184  28.045  31.329  1.00  0.00     0.049 A 
ATOM     54  C   UNL A   1      42.279  33.635  30.475  1.00  0.00     0.074 A 
ATOM     55  C   UNL A   1      40.337  27.825  32.397  1.00  0.00     0.029 A 
ATOM     56  N   UNL A   1      42.107  28.967  31.767  1.00  0.00    -0.354 N 
ATOM     57  N   UNL A   1      42.123  33.341  31.734  1.00  0.00    -0.248 NA
ATOM     58  C   UNL A   1      42.997  32.639  29.692  1.00  0.00     0.031 C 
ATOM     59  C   UNL A   1      40.503  28.962  33.241  1.00  0.00     0.029 A 
ATOM     60  C   UNL A   1      41.460  29.791  32.652  1.00  0.00     0.049 A 
ATOM     61  H   UNL A   1      43.051  29.023  31.496  1.00  0.00     0.167 HD
ATOM     62  C   UNL A   1      42.325  31.970  31.810  1.00  0.00     0.074 A 
ATOM     63  C   UNL A   1      42.977  31.615  30.552  1.00  0.00     0.031 C 
ATOM     64  C   UNL A   1      41.693  31.214  32.756  1.00  0.00     0.031 A 
BRANCH  51  65
ATOM     65  C   UNL A   1      42.268  27.174  29.165  1.00  0.00    -0.014 A 
ATOM     66  C   UNL A   1      43.224  28.014  28.571  1.00  0.00     0.009 A 
ATOM     67  C   UNL A   1      42.292  25.814  28.802  1.00  0.00     0.009 A 
ATOM     68  C   UNL A   1      44.131  27.520  27.627  1.00  0.00     0.001 A 
ATOM     69  C   UNL A   1      43.223  25.311  27.892  1.00  0.00     0.001 A 
ATOM     70  C   UNL A   1      44.128  26.170  27.286  1.00  0.00     0.000 A 
ENDBRANCH  51  65
BRANCH  52  71
ATOM     71  C   UNL A   1      42.023  35.791  29.042  1.00  0.00    -0.014 A 
ATOM     72  C   UNL A   1      43.070  36.542  29.593  1.00  0.00     0.009 A 
ATOM     73  C   UNL A   1      41.706  35.997  27.687  1.00  0.00     0.009 A 
ATOM     74  C   UNL A   1      43.794  37.446  28.803  1.00  0.00     0.001 A 
ATOM     75  C   UNL A   1      42.425  36.901  26.900  1.00  0.00     0.001 A 
ATOM     76  C   UNL A   1      43.479  37.615  27.457  1.00  0.00     0.000 A 
ENDBRANCH  52  71
BRANCH  64  77
ATOM     77  C   UNL A   1      40.913  31.948  33.821  1.00  0.00    -0.014 A 
ATOM     78  C   UNL A   1      41.483  32.296  35.059  1.00  0.00     0.009 A 
ATOM     79  C   UNL A   1      39.634  32.433  33.519  1.00  0.00     0.009 A 
ATOM     80  C   UNL A   1      40.779  33.075  35.983  1.00  0.00     0.001 A 
ATOM     81  C   UNL A   1      38.939  33.228  34.435  1.00  0.00     0.001 A 
ATOM     82  C   UNL A   1      39.507  33.544  35.667  1.00  0.00     0.000 A 
ENDBRANCH  64  77
ENDBRANCH  38  39
ENDBRANCH  31  33
ENDBRANCH  30  31
ENDBRANCH  29  30
ENDBRANCH   1  29
TORSDOF 16
ENDMDL
MODEL 2
REMARK VINA RESULT:     -11.6      2.912      6.255
REMARK SMILES COc1cccc(-c2c(C(=O)OCCOC(=O)c3ccc(-c4c5nc(c(-c6ccccc6)c6ccc([nH]6)c(-c6ccccc6)c6nc(c(-c7ccccc7)c7ccc4[nH]7)C=C6)C=C5)cc3)nnn2-c2ccc(OC(F)(F)F)cc2)c1
REMARK SMILES IDX 13 1 12 2 10 3 11 4 9 5 8 6 68 7 66 8 67 9 7 10 3 11 4 12
REMARK SMILES IDX 80 13 5 14 6 15 2 16 1 17 69 18 70 19 79 20 71 21 78 22
REMARK SMILES IDX 72 23 73 24 74 25 75 26 76 27 77 28 14 29 15 30 16 31 17 32
REMARK SMILES IDX 18 33 19 34 65 35 20 36 64 37 21 38 22 39 23 40 58 41 24 42
REMARK SMILES IDX 63 43 57 44 59 45 25 46 62 47 56 48 55 49 26 51 48 52 33 53
REMARK SMILES IDX 47 54 34 55 37 56 46 57 60 58 35 59 36 60 45 62 61 63 38 64
REMARK SMILES IDX 27 65 28 66 32 67 29 68 31 69 30 70 49 71 50 72 54 73 51 74
REMARK SMILES IDX 53 75 52 76 39 77 40 78 44 79 41 80 43 81 42 82
REMARK H PARENT 59 50 37 61
REMARK Flexibility Score: inf
ROOT
ATOM      1  C   UNL A   1      32.518  27.817  26.891  1.00  0.00     0.275 C 
ENDROOT
BRANCH   1   2
ATOM      2  O   UNL A   1      32.875  26.501  26.443  1.00  0.00    -0.457 OA
BRANCH   2   3
ATOM      3  C   UNL A   1      32.846  26.264  25.098  1.00  0.00     0.361 C 
ATOM      4  O   UNL A   1      33.203  27.085  24.256  1.00  0.00    -0.244 OA
BRANCH   3   5
ATOM      5  C   UNL A   1      32.418  24.912  24.767  1.00  0.00     0.198 A 
ATOM      6  C   UNL A   1      33.187  23.785  24.498  1.00  0.00     0.109 A 
ATOM      7  N   UNL A   1      32.228  22.790  24.325  1.00  0.00    -0.212 N 
ATOM      8  N   UNL A   1      31.088  24.603  24.579  1.00  0.00    -0.122 NA
ATOM      9  N   UNL A   1      31.001  23.337  24.198  1.00  0.00    -0.061 NA
BRANCH   6  10
ATOM     10  C   UNL A   1      34.632  23.573  24.374  1.00  0.00     0.007 A 
ATOM     11  C   UNL A   1      36.872  23.746  25.317  1.00  0.00     0.119 A 
ATOM     12  C   UNL A   1      37.400  23.290  24.108  1.00  0.00     0.046 A 
ATOM     13  C   UNL A   1      35.488  23.870  25.454  1.00  0.00     0.056 A 
ATOM     14  C   UNL A   1      36.560  22.957  23.045  1.00  0.00     0.005 A 
ATOM     15  C   UNL A   1      35.182  23.110  23.174  1.00  0.00     0.011 A 
BRANCH  11  16
ATOM     16  O   UNL A   1      37.809  24.067  26.260  1.00  0.00    -0.497 OA
ATOM     17  C   UNL A   1      38.782  23.079  26.574  1.00  0.00     0.278 C 
ENDBRANCH  11  16
ENDBRANCH   6  10
BRANCH   7  18
ATOM     18  C   UNL A   1      32.400  21.388  24.395  1.00  0.00     0.067 A 
ATOM     19  C   UNL A   1      32.256  20.598  23.254  1.00  0.00     0.032 A 
ATOM     20  C   UNL A   1      32.694  20.795  25.628  1.00  0.00     0.032 A 
ATOM     21  C   UNL A   1      32.485  19.220  23.349  1.00  0.00     0.049 A 
ATOM     22  C   UNL A   1      32.880  19.417  25.720  1.00  0.00     0.049 A 
ATOM     23  C   UNL A   1      32.800  18.622  24.578  1.00  0.00     0.129 A 
BRANCH  23  24
ATOM     24  O   UNL A   1      33.003  17.273  24.528  1.00  0.00    -0.406 OA
BRANCH  24  25
ATOM     25  C   UNL A   1      34.273  16.820  24.087  1.00  0.00     0.573 C 
ATOM     26  F   UNL A   1      34.692  15.754  24.804  1.00  0.00    -0.132 F 
ATOM     27  F   UNL A   1      34.243  16.497  22.776  1.00  0.00    -0.132 F 
ATOM     28  F   UNL A   1      35.173  17.814  24.254  1.00  0.00    -0.132 F 
ENDBRANCH  24  25
ENDBRANCH  23  24
ENDBRANCH   7  18
ENDBRANCH   3   5
ENDBRANCH   2   3
ENDBRANCH   1   2
BRANCH   1  29
ATOM     29  C   UNL A   1      33.579  28.830  26.487  1.00  0.00     0.275 C 
BRANCH  29  30
ATOM     30  O   UNL A   1      34.594  28.913  27.488  1.00  0.00    -0.458 OA
BRANCH  30  31
ATOM     31  C   UNL A   1      34.858  30.156  27.953  1.00  0.00     0.338 C 
ATOM     32  O   UNL A   1      34.151  31.143  27.842  1.00  0.00    -0.246 OA
BRANCH  31  33
ATOM     33  C   UNL A   1      36.239  30.195  28.452  1.00  0.00     0.060 A 
ATOM     34  C   UNL A   1      37.256  30.163  27.492  1.00  0.00     0.016 A 
ATOM     35  C   UNL A   1      36.490  29.932  29.806  1.00  0.00     0.016 A 
ATOM     36  C   UNL A   1      38.474  29.629  27.853  1.00  0.00     0.010 A 
ATOM     37  C   UNL A   1      37.700  29.386  30.161  1.00  0.00     0.010 A 
ATOM     38  C   UNL A   1      38.635  29.152  29.158  1.00  0.00    -0.014 A 
BRANCH  38  39
ATOM     39  C   UNL A   1      39.799  28.345  29.445  1.00  0.00     0.031 A 
ATOM     40  C   UNL A   1      40.164  28.241  30.866  1.00  0.00     0.074 A 
ATOM     41  C   UNL A   1      40.452  27.661  28.490  1.00  0.00     0.049 A 
ATOM     42  N   UNL A   1      41.223  28.703  31.438  1.00  0.00    -0.248 NA
ATOM     43  C   UNL A   1      39.193  27.621  31.776  1.00  0.00     0.031 C 
ATOM     44  C   UNL A   1      40.065  27.423  27.098  1.00  0.00     0.029 A 
ATOM     45  N   UNL A   1      41.588  26.931  28.629  1.00  0.00    -0.354 N 
ATOM     46  C   UNL A   1      41.131  28.321  32.769  1.00  0.00     0.074 A 
ATOM     47  C   UNL A   1      39.811  27.764  32.947  1.00  0.00     0.031 C 
ATOM     48  C   UNL A   1      40.831  26.427  26.594  1.00  0.00     0.029 A 
ATOM     49  C   UNL A   1      41.840  26.069  27.579  1.00  0.00     0.049 A 
ATOM     50  H   UNL A   1      42.182  27.009  29.411  1.00  0.00     0.167 HD
ATOM     51  C   UNL A   1      42.211  28.315  33.594  1.00  0.00     0.031 A 
ATOM     52  C   UNL A   1      42.771  25.087  27.565  1.00  0.00     0.031 A 
ATOM     53  C   UNL A   1      43.326  29.040  33.048  1.00  0.00     0.049 A 
ATOM     54  C   UNL A   1      43.781  25.407  28.602  1.00  0.00     0.074 A 
ATOM     55  C   UNL A   1      43.551  30.354  32.689  1.00  0.00     0.029 A 
ATOM     56  N   UNL A   1      44.323  28.310  32.446  1.00  0.00    -0.354 N 
ATOM     57  N   UNL A   1      44.601  26.415  28.513  1.00  0.00    -0.248 NA
ATOM     58  C   UNL A   1      43.602  24.873  29.945  1.00  0.00     0.031 C 
ATOM     59  C   UNL A   1      44.369  30.282  31.522  1.00  0.00     0.029 A 
ATOM     60  C   UNL A   1      44.614  28.933  31.260  1.00  0.00     0.049 A 
ATOM     61  H   UNL A   1      44.748  27.495  32.799  1.00  0.00     0.167 HD
ATOM     62  C   UNL A   1      44.700  26.913  29.805  1.00  0.00     0.074 A 
ATOM     63  C   UNL A   1      44.164  25.855  30.658  1.00  0.00     0.031 C 
ATOM     64  C   UNL A   1      44.941  28.238  30.034  1.00  0.00     0.031 A 
BRANCH  51  65
ATOM     65  C   UNL A   1      42.362  27.356  34.738  1.00  0.00    -0.014 A 
ATOM     66  C   UNL A   1      42.777  26.041  34.476  1.00  0.00     0.009 A 
ATOM     67  C   UNL A   1      41.860  27.629  36.024  1.00  0.00     0.009 A 
ATOM     68  C   UNL A   1      42.654  25.039  35.446  1.00  0.00     0.001 A 
ATOM     69  C   UNL A   1      41.776  26.641  37.007  1.00  0.00     0.001 A 
ATOM     70  C   UNL A   1      42.151  25.339  36.708  1.00  0.00     0.000 A 
ENDBRANCH  51  65
BRANCH  52  71
ATOM     71  C   UNL A   1      42.684  23.771  26.904  1.00  0.00    -0.014 A 
ATOM     72  C   UNL A   1      43.374  23.513  25.712  1.00  0.00     0.009 A 
ATOM     73  C   UNL A   1      42.118  22.677  27.588  1.00  0.00     0.009 A 
ATOM     74  C   UNL A   1      43.518  22.202  25.238  1.00  0.00     0.001 A 
ATOM     75  C   UNL A   1      42.259  21.371  27.114  1.00  0.00     0.001 A 
ATOM     76  C   UNL A   1      42.972  21.132  25.944  1.00  0.00     0.000 A 
ENDBRANCH  52  71
BRANCH  64  77
ATOM     77  C   UNL A   1      45.273  29.099  28.839  1.00  0.00    -0.014 A 
ATOM     78  C   UNL A   1      44.275  29.683  28.037  1.00  0.00     0.009 A 
ATOM     79  C   UNL A   1      46.606  29.457  28.605  1.00  0.00     0.009 A 
ATOM     80  C   UNL A   1      44.604  30.569  27.007  1.00  0.00     0.001 A 
ATOM     81  C   UNL A   1      46.934  30.358  27.587  1.00  0.00     0.001 A 
ATOM     82  C   UNL A   1      45.936  30.909  26.786  1.00  0.00     0.000 A 
ENDBRANCH  64  77
ENDBRANCH  38  39
ENDBRANCH  31  33
ENDBRANCH  30  31
ENDBRANCH  29  30
ENDBRANCH   1  29
TORSDOF 16
ENDMDL
MODEL 3
REMARK VINA RESULT:     -11.2      3.389      7.870
REMARK SMILES COc1cccc(-c2c(C(=O)OCCOC(=O)c3ccc(-c4c5nc(c(-c6ccccc6)c6ccc([nH]6)c(-c6ccccc6)c6nc(c(-c7ccccc7)c7ccc4[nH]7)C=C6)C=C5)cc3)nnn2-c2ccc(OC(F)(F)F)cc2)c1
REMARK SMILES IDX 13 1 12 2 10 3 11 4 9 5 8 6 68 7 66 8 67 9 7 10 3 11 4 12
REMARK SMILES IDX 80 13 5 14 6 15 2 16 1 17 69 18 70 19 79 20 71 21 78 22
REMARK SMILES IDX 72 23 73 24 74 25 75 26 76 27 77 28 14 29 15 30 16 31 17 32
REMARK SMILES IDX 18 33 19 34 65 35 20 36 64 37 21 38 22 39 23 40 58 41 24 42
REMARK SMILES IDX 63 43 57 44 59 45 25 46 62 47 56 48 55 49 26 51 48 52 33 53
REMARK SMILES IDX 47 54 34 55 37 56 46 57 60 58 35 59 36 60 45 62 61 63 38 64
REMARK SMILES IDX 27 65 28 66 32 67 29 68 31 69 30 70 49 71 50 72 54 73 51 74
REMARK SMILES IDX 53 75 52 76 39 77 40 78 44 79 41 80 43 81 42 82
REMARK H PARENT 59 50 37 61
REMARK Flexibility Score: inf
ROOT
ATOM      1  C   UNL A   1      44.768  23.680  27.889  1.00  0.00     0.275 C 
ENDROOT
BRANCH   1   2
ATOM      2  O   UNL A   1      43.711  22.713  27.799  1.00  0.00    -0.457 OA
BRANCH   2   3
ATOM      3  C   UNL A   1      43.389  22.247  26.555  1.00  0.00     0.361 C 
ATOM      4  O   UNL A   1      44.203  22.125  25.643  1.00  0.00    -0.244 OA
BRANCH   3   5
ATOM      5  C   UNL A   1      41.995  21.840  26.443  1.00  0.00     0.198 A 
ATOM      6  C   UNL A   1      40.845  22.619  26.460  1.00  0.00     0.109 A 
ATOM      7  N   UNL A   1      39.835  21.687  26.243  1.00  0.00    -0.212 N 
ATOM      8  N   UNL A   1      41.635  20.509  26.396  1.00  0.00    -0.122 NA
ATOM      9  N   UNL A   1      40.312  20.433  26.391  1.00  0.00    -0.061 NA
BRANCH   6  10
ATOM     10  C   UNL A   1      40.618  24.053  26.668  1.00  0.00     0.007 A 
ATOM     11  C   UNL A   1      41.052  26.365  26.036  1.00  0.00     0.119 A 
ATOM     12  C   UNL A   1      40.293  26.790  27.128  1.00  0.00     0.046 A 
ATOM     13  C   UNL A   1      41.197  24.997  25.798  1.00  0.00     0.056 A 
ATOM     14  C   UNL A   1      39.682  25.865  27.974  1.00  0.00     0.005 A 
ATOM     15  C   UNL A   1      39.855  24.501  27.752  1.00  0.00     0.011 A 
BRANCH  11  16
ATOM     16  O   UNL A   1      41.619  27.377  25.311  1.00  0.00    -0.497 OA
ATOM     17  C   UNL A   1      41.617  28.675  25.891  1.00  0.00     0.278 C 
ENDBRANCH  11  16
ENDBRANCH   6  10
BRANCH   7  18
ATOM     18  C   UNL A   1      38.512  21.916  25.797  1.00  0.00     0.067 A 
ATOM     19  C   UNL A   1      37.945  23.187  25.882  1.00  0.00     0.032 A 
ATOM     20  C   UNL A   1      37.767  20.846  25.289  1.00  0.00     0.032 A 
ATOM     21  C   UNL A   1      36.652  23.389  25.382  1.00  0.00     0.049 A 
ATOM     22  C   UNL A   1      36.466  21.049  24.830  1.00  0.00     0.049 A 
ATOM     23  C   UNL A   1      35.907  22.326  24.853  1.00  0.00     0.129 A 
BRANCH  23  24
ATOM     24  O   UNL A   1      34.665  22.661  24.397  1.00  0.00    -0.406 OA
BRANCH  24  25
ATOM     25  C   UNL A   1      34.579  23.245  23.107  1.00  0.00     0.573 C 
ATOM     26  F   UNL A   1      33.546  22.735  22.403  1.00  0.00    -0.132 F 
ATOM     27  F   UNL A   1      34.448  24.587  23.191  1.00  0.00    -0.132 F 
ATOM     28  F   UNL A   1      35.718  22.976  22.430  1.00  0.00    -0.132 F 
ENDBRANCH  24  25
ENDBRANCH  23  24
ENDBRANCH   7  18
ENDBRANCH   3   5
ENDBRANCH   2   3
ENDBRANCH   1   2
BRANCH   1  29
ATOM     29  C   UNL A   1      45.102  23.978  29.344  1.00  0.00     0.275 C 
BRANCH  29  30
ATOM     30  O   UNL A   1      45.447  25.354  29.504  1.00  0.00    -0.458 OA
BRANCH  30  31
ATOM     31  C   UNL A   1      45.324  25.847  30.758  1.00  0.00     0.338 C 
ATOM     32  O   UNL A   1      46.102  25.689  31.684  1.00  0.00    -0.246 OA
BRANCH  31  33
ATOM     33  C   UNL A   1      43.994  26.450  30.905  1.00  0.00     0.060 A 
ATOM     34  C   UNL A   1      43.172  26.447  29.774  1.00  0.00     0.016 A 
ATOM     35  C   UNL A   1      43.728  27.270  32.011  1.00  0.00     0.016 A 
ATOM     36  C   UNL A   1      42.227  27.442  29.654  1.00  0.00     0.010 A 
ATOM     37  C   UNL A   1      42.795  28.271  31.884  1.00  0.00     0.010 A 
ATOM     38  C   UNL A   1      42.131  28.401  30.668  1.00  0.00    -0.014 A 
BRANCH  38  39
ATOM     39  C   UNL A   1      41.349  29.587  30.408  1.00  0.00     0.031 A 
ATOM     40  C   UNL A   1      42.120  30.790  30.056  1.00  0.00     0.074 A 
ATOM     41  C   UNL A   1      40.005  29.574  30.398  1.00  0.00     0.049 A 
ATOM     42  N   UNL A   1      42.230  31.877  30.742  1.00  0.00    -0.248 NA
ATOM     43  C   UNL A   1      42.932  30.747  28.835  1.00  0.00     0.031 C 
ATOM     44  C   UNL A   1      39.093  28.429  30.441  1.00  0.00     0.029 A 
ATOM     45  N   UNL A   1      39.172  30.633  30.235  1.00  0.00    -0.354 N 
ATOM     46  C   UNL A   1      43.024  32.724  29.983  1.00  0.00     0.074 A 
ATOM     47  C   UNL A   1      43.525  31.939  28.878  1.00  0.00     0.031 C 
ATOM     48  C   UNL A   1      37.855  28.840  30.081  1.00  0.00     0.029 A 
ATOM     49  C   UNL A   1      37.869  30.287  29.926  1.00  0.00     0.049 A 
ATOM     50  H   UNL A   1      39.468  31.568  30.329  1.00  0.00     0.167 HD
ATOM     51  C   UNL A   1      43.067  34.064  30.205  1.00  0.00     0.031 A 
ATOM     52  C   UNL A   1      36.902  31.134  29.506  1.00  0.00     0.031 A 
ATOM     53  C   UNL A   1      42.494  34.432  31.470  1.00  0.00     0.049 A 
ATOM     54  C   UNL A   1      37.295  32.506  29.911  1.00  0.00     0.074 A 
ATOM     55  C   UNL A   1      42.791  34.157  32.791  1.00  0.00     0.029 A 
ATOM     56  N   UNL A   1      41.205  34.910  31.468  1.00  0.00    -0.354 N 
ATOM     57  N   UNL A   1      37.333  32.899  31.152  1.00  0.00    -0.248 NA
ATOM     58  C   UNL A   1      38.063  33.320  28.981  1.00  0.00     0.031 C 
ATOM     59  C   UNL A   1      41.524  34.032  33.436  1.00  0.00     0.029 A 
ATOM     60  C   UNL A   1      40.537  34.266  32.477  1.00  0.00     0.049 A 
ATOM     61  H   UNL A   1      40.833  35.587  30.857  1.00  0.00     0.167 HD
ATOM     62  C   UNL A   1      38.447  33.723  31.233  1.00  0.00     0.074 A 
ATOM     63  C   UNL A   1      38.783  34.040  29.848  1.00  0.00     0.031 C 
ATOM     64  C   UNL A   1      39.158  33.836  32.395  1.00  0.00     0.031 A 
BRANCH  51  65
ATOM     65  C   UNL A   1      43.317  35.067  29.118  1.00  0.00    -0.014 A 
ATOM     66  C   UNL A   1      44.330  36.023  29.290  1.00  0.00     0.009 A 
ATOM     67  C   UNL A   1      42.420  35.266  28.051  1.00  0.00     0.009 A 
ATOM     68  C   UNL A   1      44.412  37.146  28.459  1.00  0.00     0.001 A 
ATOM     69  C   UNL A   1      42.525  36.363  27.195  1.00  0.00     0.001 A 
ATOM     70  C   UNL A   1      43.508  37.317  27.415  1.00  0.00     0.000 A 
ENDBRANCH  51  65
BRANCH  52  71
ATOM     71  C   UNL A   1      35.815  30.858  28.547  1.00  0.00    -0.014 A 
ATOM     72  C   UNL A   1      35.678  29.596  27.953  1.00  0.00     0.009 A 
ATOM     73  C   UNL A   1      34.752  31.770  28.409  1.00  0.00     0.009 A 
ATOM     74  C   UNL A   1      34.505  29.251  27.270  1.00  0.00     0.001 A 
ATOM     75  C   UNL A   1      33.583  31.427  27.725  1.00  0.00     0.001 A 
ATOM     76  C   UNL A   1      33.454  30.160  27.167  1.00  0.00     0.000 A 
ENDBRANCH  52  71
BRANCH  64  77
ATOM     77  C   UNL A   1      38.583  33.178  33.626  1.00  0.00    -0.014 A 
ATOM     78  C   UNL A   1      38.769  31.810  33.899  1.00  0.00     0.009 A 
ATOM     79  C   UNL A   1      37.977  33.974  34.606  1.00  0.00     0.009 A 
ATOM     80  C   UNL A   1      38.326  31.248  35.101  1.00  0.00     0.001 A 
ATOM     81  C   UNL A   1      37.553  33.416  35.816  1.00  0.00     0.001 A 
ATOM     82  C   UNL A   1      37.721  32.055  36.061  1.00  0.00     0.000 A 
ENDBRANCH  64  77
ENDBRANCH  38  39
ENDBRANCH  31  33
ENDBRANCH  30  31
ENDBRANCH  29  30
ENDBRANCH   1  29
TORSDOF 16
ENDMDL
