MODEL 1
REMARK VINA RESULT:     -11.4      0.000      0.000
REMARK SMILES Cc1c(Cl)cccc1NC(=O)C[C@](C)(C(=O)OCCOC(=O)c1ccc(-c2c3nc(c(-c4ccccc4)c4ccc([nH]4)c(-c4ccccc4)c4nc(c(-c5ccccc5)c5ccc2[nH]5)C=C4)C=C3)cc1)c1ccccc1
REMARK SMILES IDX 18 1 17 2 15 3 16 4 13 5 14 6 12 7 10 8 9 9 11 11 8 12 1 13
REMARK SMILES IDX 2 14 3 15 4 16 5 17 7 18 6 19 71 20 72 21 76 22 73 23 75 24
REMARK SMILES IDX 74 25 19 26 20 27 21 28 22 29 23 30 24 31 70 32 25 33 69 34
REMARK SMILES IDX 26 35 27 36 28 37 63 38 29 39 68 40 62 41 64 42 30 43 67 44
REMARK SMILES IDX 61 45 60 46 31 48 53 49 38 50 52 51 39 52 42 53 51 54 65 55
REMARK SMILES IDX 40 56 41 57 50 59 66 60 43 61 32 62 33 63 37 64 34 65 36 66
REMARK SMILES IDX 35 67 54 68 55 69 59 70 56 71 58 72 57 73 44 74 45 75 49 76
REMARK SMILES IDX 46 77 48 78 47 79
REMARK H PARENT 9 10 64 47 42 58
REMARK Flexibility Score: inf
ROOT
ATOM      1  C   UNL A   1      34.764  21.149  24.870  1.00  0.00     0.274 C 
ENDROOT
BRANCH   1   2
ATOM      2  O   UNL A   1      34.844  22.557  25.187  1.00  0.00    -0.461 OA
BRANCH   2   3
ATOM      3  C   UNL A   1      34.602  23.446  24.180  1.00  0.00     0.316 C 
ATOM      4  O   UNL A   1      35.327  23.530  23.197  1.00  0.00    -0.251 OA
BRANCH   3   5
ATOM      5  C   UNL A   1      33.378  24.386  24.474  1.00  0.00     0.099 C 
ATOM      6  C   UNL A   1      32.058  23.670  24.058  1.00  0.00     0.029 C 
BRANCH   5   7
ATOM      7  C   UNL A   1      33.294  24.730  25.993  1.00  0.00     0.123 C 
BRANCH   7   8
ATOM      8  C   UNL A   1      31.929  24.716  26.651  1.00  0.00     0.225 C 
ATOM      9  N   UNL A   1      31.022  25.728  26.594  1.00  0.00    -0.326 N 
ATOM     10  H   UNL A   1      30.180  25.500  27.049  1.00  0.00     0.169 HD
ATOM     11  O   UNL A   1      31.576  23.705  27.272  1.00  0.00    -0.275 OA
BRANCH   9  12
ATOM     12  C   UNL A   1      30.995  27.024  26.041  1.00  0.00     0.045 A 
ATOM     13  C   UNL A   1      29.619  26.157  24.036  1.00  0.00     0.048 C 
ATOM     14  C   UNL A   1      30.373  27.233  24.783  1.00  0.00    -0.009 A 
ATOM     15  C   UNL A   1      30.516  28.498  24.160  1.00  0.00     0.046 A 
ATOM     16  Cl  UNL A   1      29.890  28.813  22.576  1.00  0.00    -0.084 Cl
ATOM     17  C   UNL A   1      31.210  29.537  24.776  1.00  0.00     0.021 A 
ATOM     18  C   UNL A   1      31.585  28.116  26.682  1.00  0.00     0.026 A 
ATOM     19  C   UNL A   1      31.719  29.355  26.052  1.00  0.00     0.004 A 
ENDBRANCH   9  12
ENDBRANCH   7   8
ENDBRANCH   5   7
BRANCH   5  20
ATOM     20  C   UNL A   1      33.476  25.747  23.695  1.00  0.00    -0.030 A 
ATOM     21  C   UNL A   1      32.949  25.904  22.394  1.00  0.00     0.005 A 
ATOM     22  C   UNL A   1      34.053  26.892  24.277  1.00  0.00     0.005 A 
ATOM     23  C   UNL A   1      33.071  27.106  21.687  1.00  0.00     0.000 A 
ATOM     24  C   UNL A   1      34.185  28.092  23.566  1.00  0.00     0.000 A 
ATOM     25  C   UNL A   1      33.705  28.196  22.267  1.00  0.00     0.000 A 
ENDBRANCH   5  20
ENDBRANCH   3   5
ENDBRANCH   2   3
ENDBRANCH   1   2
BRANCH   1  26
ATOM     26  C   UNL A   1      36.130  20.482  25.043  1.00  0.00     0.275 C 
BRANCH  26  27
ATOM     27  O   UNL A   1      37.082  21.471  25.465  1.00  0.00    -0.458 OA
BRANCH  27  28
ATOM     28  C   UNL A   1      38.315  20.980  25.736  1.00  0.00     0.338 C 
ATOM     29  O   UNL A   1      38.753  19.880  25.469  1.00  0.00    -0.246 OA
BRANCH  28  30
ATOM     30  C   UNL A   1      39.151  22.121  26.149  1.00  0.00     0.060 A 
ATOM     31  C   UNL A   1      38.636  23.391  25.896  1.00  0.00     0.016 A 
ATOM     32  C   UNL A   1      40.366  21.968  26.817  1.00  0.00     0.016 A 
ATOM     33  C   UNL A   1      39.306  24.520  26.338  1.00  0.00     0.010 A 
ATOM     34  C   UNL A   1      41.058  23.108  27.237  1.00  0.00     0.010 A 
ATOM     35  C   UNL A   1      40.522  24.385  27.007  1.00  0.00    -0.014 A 
BRANCH  35  36
ATOM     36  C   UNL A   1      41.276  25.604  27.351  1.00  0.00     0.031 A 
ATOM     37  C   UNL A   1      40.654  26.588  28.291  1.00  0.00     0.074 A 
ATOM     38  C   UNL A   1      42.530  25.785  26.905  1.00  0.00     0.049 A 
ATOM     39  N   UNL A   1      41.069  27.775  28.640  1.00  0.00    -0.248 NA
ATOM     40  C   UNL A   1      39.402  26.162  28.939  1.00  0.00     0.031 C 
ATOM     41  C   UNL A   1      43.307  24.814  26.135  1.00  0.00     0.029 A 
ATOM     42  N   UNL A   1      43.374  26.855  27.051  1.00  0.00    -0.354 N 
ATOM     43  C   UNL A   1      40.121  28.250  29.536  1.00  0.00     0.074 A 
ATOM     44  C   UNL A   1      39.113  27.222  29.679  1.00  0.00     0.031 C 
ATOM     45  C   UNL A   1      44.515  25.340  25.868  1.00  0.00     0.029 A 
ATOM     46  C   UNL A   1      44.567  26.703  26.390  1.00  0.00     0.049 A 
ATOM     47  H   UNL A   1      43.148  27.654  27.580  1.00  0.00     0.167 HD
ATOM     48  C   UNL A   1      40.088  29.447  30.166  1.00  0.00     0.031 A 
ATOM     49  C   UNL A   1      45.562  27.591  26.191  1.00  0.00     0.031 A 
ATOM     50  C   UNL A   1      41.073  30.475  29.979  1.00  0.00     0.049 A 
ATOM     51  C   UNL A   1      45.405  28.987  26.736  1.00  0.00     0.074 A 
ATOM     52  C   UNL A   1      41.100  31.754  30.504  1.00  0.00     0.029 A 
ATOM     53  N   UNL A   1      42.206  30.340  29.188  1.00  0.00    -0.354 N 
ATOM     54  N   UNL A   1      44.470  29.472  27.518  1.00  0.00    -0.248 NA
ATOM     55  C   UNL A   1      46.429  29.968  26.346  1.00  0.00     0.031 C 
ATOM     56  C   UNL A   1      42.218  32.414  29.980  1.00  0.00     0.029 A 
ATOM     57  C   UNL A   1      42.920  31.524  29.182  1.00  0.00     0.049 A 
ATOM     58  H   UNL A   1      42.463  29.522  28.705  1.00  0.00     0.167 HD
ATOM     59  C   UNL A   1      44.801  30.805  27.728  1.00  0.00     0.074 A 
ATOM     60  C   UNL A   1      46.033  31.048  27.006  1.00  0.00     0.031 C 
ATOM     61  C   UNL A   1      44.144  31.745  28.453  1.00  0.00     0.031 A 
BRANCH  48  62
ATOM     62  C   UNL A   1      38.890  29.724  31.025  1.00  0.00    -0.014 A 
ATOM     63  C   UNL A   1      37.713  30.272  30.493  1.00  0.00     0.009 A 
ATOM     64  C   UNL A   1      38.958  29.462  32.402  1.00  0.00     0.009 A 
ATOM     65  C   UNL A   1      36.643  30.594  31.334  1.00  0.00     0.001 A 
ATOM     66  C   UNL A   1      37.878  29.758  33.235  1.00  0.00     0.001 A 
ATOM     67  C   UNL A   1      36.728  30.335  32.702  1.00  0.00     0.000 A 
ENDBRANCH  48  62
BRANCH  49  68
ATOM     68  C   UNL A   1      46.752  27.225  25.379  1.00  0.00    -0.014 A 
ATOM     69  C   UNL A   1      47.807  26.494  25.946  1.00  0.00     0.009 A 
ATOM     70  C   UNL A   1      46.860  27.639  24.041  1.00  0.00     0.009 A 
ATOM     71  C   UNL A   1      48.953  26.207  25.197  1.00  0.00     0.001 A 
ATOM     72  C   UNL A   1      47.992  27.324  23.286  1.00  0.00     0.001 A 
ATOM     73  C   UNL A   1      49.041  26.617  23.868  1.00  0.00     0.000 A 
ENDBRANCH  49  68
BRANCH  61  74
ATOM     74  C   UNL A   1      44.756  33.115  28.525  1.00  0.00    -0.014 A 
ATOM     75  C   UNL A   1      44.363  34.135  27.645  1.00  0.00     0.009 A 
ATOM     76  C   UNL A   1      45.687  33.407  29.535  1.00  0.00     0.009 A 
ATOM     77  C   UNL A   1      44.906  35.416  27.765  1.00  0.00     0.001 A 
ATOM     78  C   UNL A   1      46.206  34.695  29.670  1.00  0.00     0.001 A 
ATOM     79  C   UNL A   1      45.819  35.697  28.781  1.00  0.00     0.000 A 
ENDBRANCH  61  74
ENDBRANCH  35  36
ENDBRANCH  28  30
ENDBRANCH  27  28
ENDBRANCH  26  27
ENDBRANCH   1  26
TORSDOF 15
ENDMDL
MODEL 2
REMARK VINA RESULT:     -11.3      2.853      6.462
REMARK SMILES Cc1c(Cl)cccc1NC(=O)C[C@](C)(C(=O)OCCOC(=O)c1ccc(-c2c3nc(c(-c4ccccc4)c4ccc([nH]4)c(-c4ccccc4)c4nc(c(-c5ccccc5)c5ccc2[nH]5)C=C4)C=C3)cc1)c1ccccc1
REMARK SMILES IDX 18 1 17 2 15 3 16 4 13 5 14 6 12 7 10 8 9 9 11 11 8 12 1 13
REMARK SMILES IDX 2 14 3 15 4 16 5 17 7 18 6 19 71 20 72 21 76 22 73 23 75 24
REMARK SMILES IDX 74 25 19 26 20 27 21 28 22 29 23 30 24 31 70 32 25 33 69 34
REMARK SMILES IDX 26 35 27 36 28 37 63 38 29 39 68 40 62 41 64 42 30 43 67 44
REMARK SMILES IDX 61 45 60 46 31 48 53 49 38 50 52 51 39 52 42 53 51 54 65 55
REMARK SMILES IDX 40 56 41 57 50 59 66 60 43 61 32 62 33 63 37 64 34 65 36 66
REMARK SMILES IDX 35 67 54 68 55 69 59 70 56 71 58 72 57 73 44 74 45 75 49 76
REMARK SMILES IDX 46 77 48 78 47 79
REMARK H PARENT 9 10 64 47 42 58
REMARK Flexibility Score: inf
ROOT
ATOM      1  C   UNL A   1      36.286  22.540  24.149  1.00  0.00     0.274 C 
ENDROOT
BRANCH   1   2
ATOM      2  O   UNL A   1      35.133  22.808  24.978  1.00  0.00    -0.461 OA
BRANCH   2   3
ATOM      3  C   UNL A   1      33.913  22.413  24.510  1.00  0.00     0.316 C 
ATOM      4  O   UNL A   1      33.747  21.333  23.955  1.00  0.00    -0.251 OA
BRANCH   3   5
ATOM      5  C   UNL A   1      32.807  23.516  24.674  1.00  0.00     0.099 C 
ATOM      6  C   UNL A   1      31.415  22.919  24.308  1.00  0.00     0.029 C 
BRANCH   5   7
ATOM      7  C   UNL A   1      32.751  24.032  26.144  1.00  0.00     0.123 C 
BRANCH   7   8
ATOM      8  C   UNL A   1      31.389  24.256  26.768  1.00  0.00     0.225 C 
ATOM      9  N   UNL A   1      30.660  25.400  26.667  1.00  0.00    -0.326 N 
ATOM     10  H   UNL A   1      29.782  25.323  27.106  1.00  0.00     0.169 HD
ATOM     11  O   UNL A   1      30.863  23.331  27.401  1.00  0.00    -0.275 OA
BRANCH   9  12
ATOM     12  C   UNL A   1      30.856  26.670  26.087  1.00  0.00     0.045 A 
ATOM     13  C   UNL A   1      29.444  25.971  24.042  1.00  0.00     0.048 C 
ATOM     14  C   UNL A   1      30.324  26.938  24.799  1.00  0.00    -0.009 A 
ATOM     15  C   UNL A   1      30.686  28.148  24.157  1.00  0.00     0.046 A 
ATOM     16  Cl  UNL A   1      30.181  28.513  22.541  1.00  0.00    -0.084 Cl
ATOM     17  C   UNL A   1      31.508  29.085  24.781  1.00  0.00     0.021 A 
ATOM     18  C   UNL A   1      31.582  27.675  26.731  1.00  0.00     0.026 A 
ATOM     19  C   UNL A   1      31.931  28.860  26.081  1.00  0.00     0.004 A 
ENDBRANCH   9  12
ENDBRANCH   7   8
ENDBRANCH   5   7
BRANCH   5  20
ATOM     20  C   UNL A   1      33.074  24.763  23.755  1.00  0.00    -0.030 A 
ATOM     21  C   UNL A   1      33.820  25.876  24.203  1.00  0.00     0.005 A 
ATOM     22  C   UNL A   1      32.622  24.810  22.423  1.00  0.00     0.005 A 
ATOM     23  C   UNL A   1      34.024  27.002  23.396  1.00  0.00     0.000 A 
ATOM     24  C   UNL A   1      32.816  25.941  21.618  1.00  0.00     0.000 A 
ATOM     25  C   UNL A   1      33.507  27.042  22.108  1.00  0.00     0.000 A 
ENDBRANCH   5  20
ENDBRANCH   3   5
ENDBRANCH   2   3
ENDBRANCH   1   2
BRANCH   1  26
ATOM     26  C   UNL A   1      37.475  22.108  25.008  1.00  0.00     0.275 C 
BRANCH  26  27
ATOM     27  O   UNL A   1      37.880  23.211  25.834  1.00  0.00    -0.458 OA
BRANCH  27  28
ATOM     28  C   UNL A   1      39.121  23.087  26.365  1.00  0.00     0.338 C 
ATOM     29  O   UNL A   1      39.899  22.165  26.230  1.00  0.00    -0.246 OA
BRANCH  28  30
ATOM     30  C   UNL A   1      39.495  24.407  26.898  1.00  0.00     0.060 A 
ATOM     31  C   UNL A   1      39.123  24.675  28.214  1.00  0.00     0.016 A 
ATOM     32  C   UNL A   1      40.238  25.336  26.168  1.00  0.00     0.016 A 
ATOM     33  C   UNL A   1      39.518  25.851  28.829  1.00  0.00     0.010 A 
ATOM     34  C   UNL A   1      40.612  26.537  26.779  1.00  0.00     0.010 A 
ATOM     35  C   UNL A   1      40.261  26.790  28.115  1.00  0.00    -0.014 A 
BRANCH  35  36
ATOM     36  C   UNL A   1      40.557  28.086  28.751  1.00  0.00     0.031 A 
ATOM     37  C   UNL A   1      41.941  28.331  29.264  1.00  0.00     0.074 A 
ATOM     38  C   UNL A   1      39.633  29.060  28.788  1.00  0.00     0.049 A 
ATOM     39  N   UNL A   1      42.398  29.336  29.962  1.00  0.00    -0.248 NA
ATOM     40  C   UNL A   1      42.948  27.313  28.925  1.00  0.00     0.031 C 
ATOM     41  C   UNL A   1      38.312  29.003  28.161  1.00  0.00     0.029 A 
ATOM     42  N   UNL A   1      39.675  30.298  29.376  1.00  0.00    -0.354 N 
ATOM     43  C   UNL A   1      43.744  29.063  30.163  1.00  0.00     0.074 A 
ATOM     44  C   UNL A   1      44.029  27.804  29.511  1.00  0.00     0.031 C 
ATOM     45  C   UNL A   1      37.666  30.157  28.406  1.00  0.00     0.029 A 
ATOM     46  C   UNL A   1      38.500  30.998  29.260  1.00  0.00     0.049 A 
ATOM     47  H   UNL A   1      40.471  30.651  29.835  1.00  0.00     0.167 HD
ATOM     48  C   UNL A   1      44.654  29.792  30.849  1.00  0.00     0.031 A 
ATOM     49  C   UNL A   1      38.132  32.163  29.828  1.00  0.00     0.031 A 
ATOM     50  C   UNL A   1      44.346  31.019  31.530  1.00  0.00     0.049 A 
ATOM     51  C   UNL A   1      39.100  32.855  30.753  1.00  0.00     0.074 A 
ATOM     52  C   UNL A   1      45.168  31.801  32.319  1.00  0.00     0.029 A 
ATOM     53  N   UNL A   1      43.102  31.635  31.507  1.00  0.00    -0.354 N 
ATOM     54  N   UNL A   1      40.351  32.561  31.016  1.00  0.00    -0.248 NA
ATOM     55  C   UNL A   1      38.593  34.026  31.485  1.00  0.00     0.031 C 
ATOM     56  C   UNL A   1      44.403  32.858  32.826  1.00  0.00     0.029 A 
ATOM     57  C   UNL A   1      43.124  32.769  32.300  1.00  0.00     0.049 A 
ATOM     58  H   UNL A   1      42.320  31.313  31.003  1.00  0.00     0.167 HD
ATOM     59  C   UNL A   1      40.785  33.517  31.925  1.00  0.00     0.074 A 
ATOM     60  C   UNL A   1      39.670  34.411  32.156  1.00  0.00     0.031 C 
ATOM     61  C   UNL A   1      41.999  33.644  32.517  1.00  0.00     0.031 A 
BRANCH  48  62
ATOM     62  C   UNL A   1      46.032  29.211  30.971  1.00  0.00    -0.014 A 
ATOM     63  C   UNL A   1      47.040  29.504  30.039  1.00  0.00     0.009 A 
ATOM     64  C   UNL A   1      46.312  28.325  32.022  1.00  0.00     0.009 A 
ATOM     65  C   UNL A   1      48.289  28.883  30.135  1.00  0.00     0.001 A 
ATOM     66  C   UNL A   1      47.569  27.729  32.132  1.00  0.00     0.001 A 
ATOM     67  C   UNL A   1      48.551  27.998  31.181  1.00  0.00     0.000 A 
ENDBRANCH  48  62
BRANCH  49  68
ATOM     68  C   UNL A   1      36.768  32.713  29.611  1.00  0.00    -0.014 A 
ATOM     69  C   UNL A   1      36.493  33.529  28.502  1.00  0.00     0.009 A 
ATOM     70  C   UNL A   1      35.739  32.460  30.534  1.00  0.00     0.009 A 
ATOM     71  C   UNL A   1      35.226  34.095  28.336  1.00  0.00     0.001 A 
ATOM     72  C   UNL A   1      34.466  33.002  30.349  1.00  0.00     0.001 A 
ATOM     73  C   UNL A   1      34.213  33.827  29.256  1.00  0.00     0.000 A 
ENDBRANCH  49  68
BRANCH  61  74
ATOM     74  C   UNL A   1      42.195  34.804  33.451  1.00  0.00    -0.014 A 
ATOM     75  C   UNL A   1      41.825  34.722  34.803  1.00  0.00     0.009 A 
ATOM     76  C   UNL A   1      42.825  35.970  32.987  1.00  0.00     0.009 A 
ATOM     77  C   UNL A   1      42.065  35.793  35.665  1.00  0.00     0.001 A 
ATOM     78  C   UNL A   1      43.090  37.027  33.858  1.00  0.00     0.001 A 
ATOM     79  C   UNL A   1      42.705  36.941  35.195  1.00  0.00     0.000 A 
ENDBRANCH  61  74
ENDBRANCH  35  36
ENDBRANCH  28  30
ENDBRANCH  27  28
ENDBRANCH  26  27
ENDBRANCH   1  26
TORSDOF 15
ENDMDL
MODEL 3
REMARK VINA RESULT:     -11.2      3.837      8.603
REMARK SMILES Cc1c(Cl)cccc1NC(=O)C[C@](C)(C(=O)OCCOC(=O)c1ccc(-c2c3nc(c(-c4ccccc4)c4ccc([nH]4)c(-c4ccccc4)c4nc(c(-c5ccccc5)c5ccc2[nH]5)C=C4)C=C3)cc1)c1ccccc1
REMARK SMILES IDX 18 1 17 2 15 3 16 4 13 5 14 6 12 7 10 8 9 9 11 11 8 12 1 13
REMARK SMILES IDX 2 14 3 15 4 16 5 17 7 18 6 19 71 20 72 21 76 22 73 23 75 24
REMARK SMILES IDX 74 25 19 26 20 27 21 28 22 29 23 30 24 31 70 32 25 33 69 34
REMARK SMILES IDX 26 35 27 36 28 37 63 38 29 39 68 40 62 41 64 42 30 43 67 44
REMARK SMILES IDX 61 45 60 46 31 48 53 49 38 50 52 51 39 52 42 53 51 54 65 55
REMARK SMILES IDX 40 56 41 57 50 59 66 60 43 61 32 62 33 63 37 64 34 65 36 66
REMARK SMILES IDX 35 67 54 68 55 69 59 70 56 71 58 72 57 73 44 74 45 75 49 76
REMARK SMILES IDX 46 77 48 78 47 79
REMARK H PARENT 9 10 64 47 42 58
REMARK Flexibility Score: inf
ROOT
ATOM      1  C   UNL A   1      32.150  29.172  23.768  1.00  0.00     0.274 C 
ENDROOT
BRANCH   1   2
ATOM      2  O   UNL A   1      33.359  28.398  23.944  1.00  0.00    -0.461 OA
BRANCH   2   3
ATOM      3  C   UNL A   1      33.520  27.292  23.160  1.00  0.00     0.316 C 
ATOM      4  O   UNL A   1      33.957  27.362  22.018  1.00  0.00    -0.251 OA
BRANCH   3   5
ATOM      5  C   UNL A   1      33.000  25.976  23.843  1.00  0.00     0.099 C 
ATOM      6  C   UNL A   1      32.301  26.329  25.191  1.00  0.00     0.029 C 
BRANCH   5   7
ATOM      7  C   UNL A   1      31.970  25.246  22.929  1.00  0.00     0.123 C 
BRANCH   7   8
ATOM      8  C   UNL A   1      30.719  24.686  23.575  1.00  0.00     0.225 C 
ATOM      9  N   UNL A   1      30.652  23.520  24.272  1.00  0.00    -0.326 N 
ATOM     10  H   UNL A   1      29.757  23.362  24.649  1.00  0.00     0.169 HD
ATOM     11  O   UNL A   1      29.666  25.334  23.499  1.00  0.00    -0.275 OA
BRANCH   9  12
ATOM     12  C   UNL A   1      31.554  22.484  24.588  1.00  0.00     0.045 A 
ATOM     13  C   UNL A   1      31.763  23.380  27.001  1.00  0.00     0.048 C 
ATOM     14  C   UNL A   1      32.140  22.439  25.880  1.00  0.00    -0.009 A 
ATOM     15  C   UNL A   1      33.178  21.505  26.119  1.00  0.00     0.046 A 
ATOM     16  Cl  UNL A   1      34.031  21.450  27.626  1.00  0.00    -0.084 Cl
ATOM     17  C   UNL A   1      33.595  20.613  25.132  1.00  0.00     0.021 A 
ATOM     18  C   UNL A   1      31.913  21.505  23.659  1.00  0.00     0.026 A 
ATOM     19  C   UNL A   1      32.941  20.594  23.911  1.00  0.00     0.004 A 
ENDBRANCH   9  12
ENDBRANCH   7   8
ENDBRANCH   5   7
BRANCH   5  20
ATOM     20  C   UNL A   1      34.164  24.961  24.134  1.00  0.00    -0.030 A 
ATOM     21  C   UNL A   1      34.630  24.057  23.154  1.00  0.00     0.005 A 
ATOM     22  C   UNL A   1      34.830  24.935  25.374  1.00  0.00     0.005 A 
ATOM     23  C   UNL A   1      35.641  23.127  23.427  1.00  0.00     0.000 A 
ATOM     24  C   UNL A   1      35.834  23.998  25.652  1.00  0.00     0.000 A 
ATOM     25  C   UNL A   1      36.231  23.086  24.682  1.00  0.00     0.000 A 
ENDBRANCH   5  20
ENDBRANCH   3   5
ENDBRANCH   2   3
ENDBRANCH   1   2
BRANCH   1  26
ATOM     26  C   UNL A   1      31.841  29.977  25.031  1.00  0.00     0.275 C 
BRANCH  26  27
ATOM     27  O   UNL A   1      33.001  29.981  25.878  1.00  0.00    -0.458 OA
BRANCH  27  28
ATOM     28  C   UNL A   1      33.062  31.027  26.737  1.00  0.00     0.338 C 
ATOM     29  O   UNL A   1      32.180  31.812  27.017  1.00  0.00    -0.246 OA
BRANCH  28  30
ATOM     30  C   UNL A   1      34.304  30.873  27.514  1.00  0.00     0.060 A 
ATOM     31  C   UNL A   1      34.609  29.585  27.949  1.00  0.00     0.016 A 
ATOM     32  C   UNL A   1      35.180  31.930  27.760  1.00  0.00     0.016 A 
ATOM     33  C   UNL A   1      35.804  29.329  28.599  1.00  0.00     0.010 A 
ATOM     34  C   UNL A   1      36.373  31.679  28.444  1.00  0.00     0.010 A 
ATOM     35  C   UNL A   1      36.692  30.374  28.854  1.00  0.00    -0.014 A 
BRANCH  35  36
ATOM     36  C   UNL A   1      37.894  30.097  29.660  1.00  0.00     0.031 A 
ATOM     37  C   UNL A   1      39.000  29.301  29.044  1.00  0.00     0.074 A 
ATOM     38  C   UNL A   1      38.033  30.624  30.888  1.00  0.00     0.049 A 
ATOM     39  N   UNL A   1      40.088  28.834  29.594  1.00  0.00    -0.248 NA
ATOM     40  C   UNL A   1      38.868  29.012  27.607  1.00  0.00     0.031 C 
ATOM     41  C   UNL A   1      37.106  31.562  31.521  1.00  0.00     0.029 A 
ATOM     42  N   UNL A   1      39.025  30.448  31.818  1.00  0.00    -0.354 N 
ATOM     43  C   UNL A   1      40.764  28.178  28.575  1.00  0.00     0.074 A 
ATOM     44  C   UNL A   1      39.967  28.311  27.375  1.00  0.00     0.031 C 
ATOM     45  C   UNL A   1      37.572  31.872  32.744  1.00  0.00     0.029 A 
ATOM     46  C   UNL A   1      38.788  31.105  33.000  1.00  0.00     0.049 A 
ATOM     47  H   UNL A   1      39.829  29.905  31.654  1.00  0.00     0.167 HD
ATOM     48  C   UNL A   1      41.938  27.508  28.642  1.00  0.00     0.031 A 
ATOM     49  C   UNL A   1      39.456  31.044  34.169  1.00  0.00     0.031 A 
ATOM     50  C   UNL A   1      42.696  27.346  29.851  1.00  0.00     0.049 A 
ATOM     51  C   UNL A   1      40.649  30.129  34.274  1.00  0.00     0.074 A 
ATOM     52  C   UNL A   1      43.857  26.623  30.055  1.00  0.00     0.029 A 
ATOM     53  N   UNL A   1      42.355  27.913  31.072  1.00  0.00    -0.354 N 
ATOM     54  N   UNL A   1      41.250  29.438  33.334  1.00  0.00    -0.248 NA
ATOM     55  C   UNL A   1      41.238  29.962  35.611  1.00  0.00     0.031 C 
ATOM     56  C   UNL A   1      44.183  26.701  31.414  1.00  0.00     0.029 A 
ATOM     57  C   UNL A   1      43.262  27.525  32.041  1.00  0.00     0.049 A 
ATOM     58  H   UNL A   1      41.582  28.503  31.224  1.00  0.00     0.167 HD
ATOM     59  C   UNL A   1      42.295  28.771  33.960  1.00  0.00     0.074 A 
ATOM     60  C   UNL A   1      42.258  29.153  35.356  1.00  0.00     0.031 C 
ATOM     61  C   UNL A   1      43.204  27.917  33.428  1.00  0.00     0.031 A 
BRANCH  48  62
ATOM     62  C   UNL A   1      42.397  26.822  27.390  1.00  0.00    -0.014 A 
ATOM     63  C   UNL A   1      41.992  25.515  27.075  1.00  0.00     0.009 A 
ATOM     64  C   UNL A   1      43.280  27.488  26.527  1.00  0.00     0.009 A 
ATOM     65  C   UNL A   1      42.501  24.875  25.942  1.00  0.00     0.001 A 
ATOM     66  C   UNL A   1      43.764  26.856  25.381  1.00  0.00     0.001 A 
ATOM     67  C   UNL A   1      43.384  25.546  25.097  1.00  0.00     0.000 A 
ENDBRANCH  48  62
BRANCH  49  68
ATOM     68  C   UNL A   1      38.978  31.803  35.354  1.00  0.00    -0.014 A 
ATOM     69  C   UNL A   1      38.157  31.189  36.313  1.00  0.00     0.009 A 
ATOM     70  C   UNL A   1      39.305  33.160  35.515  1.00  0.00     0.009 A 
ATOM     71  C   UNL A   1      37.657  31.924  37.392  1.00  0.00     0.001 A 
ATOM     72  C   UNL A   1      38.830  33.882  36.611  1.00  0.00     0.001 A 
ATOM     73  C   UNL A   1      37.999  33.267  37.543  1.00  0.00     0.000 A 
ENDBRANCH  49  68
BRANCH  61  74
ATOM     74  C   UNL A   1      44.251  27.358  34.349  1.00  0.00    -0.014 A 
ATOM     75  C   UNL A   1      44.069  26.126  34.996  1.00  0.00     0.009 A 
ATOM     76  C   UNL A   1      45.466  28.042  34.515  1.00  0.00     0.009 A 
ATOM     77  C   UNL A   1      45.077  25.600  35.806  1.00  0.00     0.001 A 
ATOM     78  C   UNL A   1      46.483  27.500  35.302  1.00  0.00     0.001 A 
ATOM     79  C   UNL A   1      46.286  26.283  35.951  1.00  0.00     0.000 A 
ENDBRANCH  61  74
ENDBRANCH  35  36
ENDBRANCH  28  30
ENDBRANCH  27  28
ENDBRANCH  26  27
ENDBRANCH   1  26
TORSDOF 15
ENDMDL
