MODEL 1
REMARK VINA RESULT:      -9.5      0.000      0.000
REMARK SMILES C[C@H](Cc1cccs1)N(C)C(=O)N1CC[C@@H](CC(=O)OCCOC(=O)c2ccc(-c3c4nc(c(-c5ccccc5)c5ccc([nH]5)c(-c5ccccc5)c5nc(c(-c6ccccc6)c6ccc3[nH]6)C=C5)C=C4)cc2)C1
REMARK SMILES IDX 18 1 19 2 17 3 16 4 13 5 14 6 74 7 15 8 11 9 12 10 9 11
REMARK SMILES IDX 10 12 2 13 1 14 3 15 4 16 5 17 8 18 6 19 7 20 20 21 21 22
REMARK SMILES IDX 22 23 23 24 24 25 25 26 26 27 27 28 73 29 28 30 72 31 29 32
REMARK SMILES IDX 30 33 31 34 66 35 32 36 71 37 65 38 67 39 33 40 70 41 64 42
REMARK SMILES IDX 63 43 34 45 56 46 41 47 55 48 42 49 45 50 54 51 68 52 43 53
REMARK SMILES IDX 44 54 53 56 69 57 46 58 35 59 36 60 40 61 37 62 39 63 38 64
REMARK SMILES IDX 57 65 58 66 62 67 59 68 61 69 60 70 47 71 48 72 52 73 49 74
REMARK SMILES IDX 51 75 50 76
REMARK H PARENT 67 44 45 55
REMARK Flexibility Score: inf
ROOT
ATOM      1  C   UNL A   1      34.957  33.922  28.111  1.00  0.00     0.306 C 
ATOM      2  O   UNL A   1      34.971  34.551  27.060  1.00  0.00    -0.252 OA
ENDROOT
BRANCH   1   3
ATOM      3  C   UNL A   1      35.795  32.677  28.339  1.00  0.00     0.128 C 
BRANCH   3   4
ATOM      4  C   UNL A   1      35.142  31.290  28.382  1.00  0.00     0.021 C 
ATOM      5  N   UNL A   1      33.737  29.754  27.223  1.00  0.00    -0.324 N 
ATOM      6  C   UNL A   1      35.052  29.143  27.217  1.00  0.00     0.122 C 
ATOM      7  C   UNL A   1      33.846  31.154  27.597  1.00  0.00     0.125 C 
ATOM      8  C   UNL A   1      35.986  30.088  27.970  1.00  0.00     0.027 C 
BRANCH   5   9
ATOM      9  C   UNL A   1      32.562  29.345  26.632  1.00  0.00     0.320 C 
ATOM     10  O   UNL A   1      31.521  29.381  27.296  1.00  0.00    -0.248 OA
BRANCH   9  11
ATOM     11  N   UNL A   1      32.538  28.877  25.324  1.00  0.00    -0.325 N 
ATOM     12  C   UNL A   1      33.459  29.268  24.272  1.00  0.00     0.149 C 
BRANCH  11  13
ATOM     13  C   UNL A   1      31.642  27.727  25.007  1.00  0.00     0.088 C 
ATOM     14  C   UNL A   1      32.245  26.385  25.444  1.00  0.00     0.031 C 
BRANCH  13  15
ATOM     15  C   UNL A   1      31.093  27.836  23.560  1.00  0.00     0.071 C 
BRANCH  15  16
ATOM     16  C   UNL A   1      29.760  28.500  23.378  1.00  0.00     0.007 A 
ATOM     17  C   UNL A   1      29.488  29.821  23.078  1.00  0.00     0.015 A 
ATOM     18  S   UNL A   1      28.324  27.562  23.430  1.00  0.00    -0.149 S 
ATOM     19  C   UNL A   1      28.095  30.053  22.878  1.00  0.00     0.012 A 
ATOM     20  C   UNL A   1      27.350  28.908  23.047  1.00  0.00     0.065 A 
ENDBRANCH  15  16
ENDBRANCH  13  15
ENDBRANCH  11  13
ENDBRANCH   9  11
ENDBRANCH   5   9
ENDBRANCH   3   4
ENDBRANCH   1   3
BRANCH   1  21
ATOM     21  O   UNL A   1      34.109  34.173  29.141  1.00  0.00    -0.462 OA
BRANCH  21  22
ATOM     22  C   UNL A   1      33.023  35.091  28.897  1.00  0.00     0.274 C 
BRANCH  22  23
ATOM     23  C   UNL A   1      32.736  35.997  30.100  1.00  0.00     0.275 C 
BRANCH  23  24
ATOM     24  O   UNL A   1      32.418  35.237  31.282  1.00  0.00    -0.458 OA
BRANCH  24  25
ATOM     25  C   UNL A   1      32.907  35.764  32.422  1.00  0.00     0.338 C 
ATOM     26  O   UNL A   1      32.419  36.690  33.059  1.00  0.00    -0.246 OA
BRANCH  25  27
ATOM     27  C   UNL A   1      34.096  35.047  32.892  1.00  0.00     0.060 A 
ATOM     28  C   UNL A   1      35.351  35.605  32.644  1.00  0.00     0.016 A 
ATOM     29  C   UNL A   1      33.983  33.756  33.409  1.00  0.00     0.016 A 
ATOM     30  C   UNL A   1      36.502  34.861  32.863  1.00  0.00     0.010 A 
ATOM     31  C   UNL A   1      35.144  33.020  33.667  1.00  0.00     0.010 A 
ATOM     32  C   UNL A   1      36.408  33.562  33.378  1.00  0.00    -0.014 A 
BRANCH  32  33
ATOM     33  C   UNL A   1      37.651  32.811  33.659  1.00  0.00     0.031 A 
ATOM     34  C   UNL A   1      38.390  32.994  34.952  1.00  0.00     0.074 A 
ATOM     35  C   UNL A   1      38.095  31.939  32.735  1.00  0.00     0.049 A 
ATOM     36  N   UNL A   1      39.519  32.450  35.331  1.00  0.00    -0.248 NA
ATOM     37  C   UNL A   1      37.799  33.909  35.938  1.00  0.00     0.031 C 
ATOM     38  C   UNL A   1      37.437  31.662  31.455  1.00  0.00     0.029 A 
ATOM     39  N   UNL A   1      39.188  31.115  32.736  1.00  0.00    -0.354 N 
ATOM     40  C   UNL A   1      39.801  32.996  36.575  1.00  0.00     0.074 A 
ATOM     41  C   UNL A   1      38.715  33.899  36.899  1.00  0.00     0.031 C 
ATOM     42  C   UNL A   1      38.123  30.707  30.810  1.00  0.00     0.029 A 
ATOM     43  C   UNL A   1      39.291  30.343  31.606  1.00  0.00     0.049 A 
ATOM     44  H   UNL A   1      39.837  31.079  33.475  1.00  0.00     0.167 HD
ATOM     45  C   UNL A   1      40.876  32.767  37.366  1.00  0.00     0.031 A 
ATOM     46  C   UNL A   1      40.227  29.449  31.243  1.00  0.00     0.031 A 
ATOM     47  C   UNL A   1      41.910  31.810  37.079  1.00  0.00     0.049 A 
ATOM     48  C   UNL A   1      41.382  29.188  32.162  1.00  0.00     0.074 A 
ATOM     49  C   UNL A   1      42.996  31.454  37.861  1.00  0.00     0.029 A 
ATOM     50  N   UNL A   1      41.981  31.048  35.924  1.00  0.00    -0.354 N 
ATOM     51  N   UNL A   1      41.627  29.701  33.343  1.00  0.00    -0.248 NA
ATOM     52  C   UNL A   1      42.392  28.228  31.697  1.00  0.00     0.031 C 
ATOM     53  C   UNL A   1      43.740  30.495  37.165  1.00  0.00     0.029 A 
ATOM     54  C   UNL A   1      43.104  30.238  35.961  1.00  0.00     0.049 A 
ATOM     55  H   UNL A   1      41.329  31.076  35.186  1.00  0.00     0.167 HD
ATOM     56  C   UNL A   1      42.810  29.116  33.769  1.00  0.00     0.074 A 
ATOM     57  C   UNL A   1      43.225  28.197  32.728  1.00  0.00     0.031 C 
ATOM     58  C   UNL A   1      43.494  29.326  34.919  1.00  0.00     0.031 A 
BRANCH  45  59
ATOM     59  C   UNL A   1      41.013  33.590  38.613  1.00  0.00    -0.014 A 
ATOM     60  C   UNL A   1      41.663  34.829  38.602  1.00  0.00     0.009 A 
ATOM     61  C   UNL A   1      40.415  33.143  39.802  1.00  0.00     0.009 A 
ATOM     62  C   UNL A   1      41.732  35.599  39.766  1.00  0.00     0.001 A 
ATOM     63  C   UNL A   1      40.473  33.921  40.959  1.00  0.00     0.001 A 
ATOM     64  C   UNL A   1      41.136  35.146  40.942  1.00  0.00     0.000 A 
ENDBRANCH  45  59
BRANCH  46  65
ATOM     65  C   UNL A   1      40.104  28.742  29.945  1.00  0.00    -0.014 A 
ATOM     66  C   UNL A   1      39.492  27.483  29.877  1.00  0.00     0.009 A 
ATOM     67  C   UNL A   1      40.575  29.338  28.763  1.00  0.00     0.009 A 
ATOM     68  C   UNL A   1      39.364  26.826  28.651  1.00  0.00     0.001 A 
ATOM     69  C   UNL A   1      40.424  28.690  27.537  1.00  0.00     0.001 A 
ATOM     70  C   UNL A   1      39.825  27.432  27.482  1.00  0.00     0.000 A 
ENDBRANCH  46  65
BRANCH  58  71
ATOM     71  C   UNL A   1      44.748  28.529  35.115  1.00  0.00    -0.014 A 
ATOM     72  C   UNL A   1      45.991  29.027  34.696  1.00  0.00     0.009 A 
ATOM     73  C   UNL A   1      44.689  27.279  35.749  1.00  0.00     0.009 A 
ATOM     74  C   UNL A   1      47.149  28.271  34.882  1.00  0.00     0.001 A 
ATOM     75  C   UNL A   1      45.852  26.535  35.952  1.00  0.00     0.001 A 
ATOM     76  C   UNL A   1      47.079  27.028  35.512  1.00  0.00     0.000 A 
ENDBRANCH  58  71
ENDBRANCH  32  33
ENDBRANCH  25  27
ENDBRANCH  24  25
ENDBRANCH  23  24
ENDBRANCH  22  23
ENDBRANCH  21  22
ENDBRANCH   1  21
TORSDOF 17
ENDMDL
MODEL 2
REMARK VINA RESULT:      -9.5      5.677     10.431
REMARK SMILES C[C@H](Cc1cccs1)N(C)C(=O)N1CC[C@@H](CC(=O)OCCOC(=O)c2ccc(-c3c4nc(c(-c5ccccc5)c5ccc([nH]5)c(-c5ccccc5)c5nc(c(-c6ccccc6)c6ccc3[nH]6)C=C5)C=C4)cc2)C1
REMARK SMILES IDX 18 1 19 2 17 3 16 4 13 5 14 6 74 7 15 8 11 9 12 10 9 11
REMARK SMILES IDX 10 12 2 13 1 14 3 15 4 16 5 17 8 18 6 19 7 20 20 21 21 22
REMARK SMILES IDX 22 23 23 24 24 25 25 26 26 27 27 28 73 29 28 30 72 31 29 32
REMARK SMILES IDX 30 33 31 34 66 35 32 36 71 37 65 38 67 39 33 40 70 41 64 42
REMARK SMILES IDX 63 43 34 45 56 46 41 47 55 48 42 49 45 50 54 51 68 52 43 53
REMARK SMILES IDX 44 54 53 56 69 57 46 58 35 59 36 60 40 61 37 62 39 63 38 64
REMARK SMILES IDX 57 65 58 66 62 67 59 68 61 69 60 70 47 71 48 72 52 73 49 74
REMARK SMILES IDX 51 75 50 76
REMARK H PARENT 67 44 45 55
REMARK Flexibility Score: inf
ROOT
ATOM      1  C   UNL A   1      36.528  21.278  24.547  1.00  0.00     0.306 C 
ATOM      2  O   UNL A   1      36.963  22.213  23.886  1.00  0.00    -0.252 OA
ENDROOT
BRANCH   1   3
ATOM      3  C   UNL A   1      35.085  21.199  25.014  1.00  0.00     0.128 C 
BRANCH   3   4
ATOM      4  C   UNL A   1      34.522  22.237  25.994  1.00  0.00     0.021 C 
ATOM      5  N   UNL A   1      32.539  23.262  26.829  1.00  0.00    -0.324 N 
ATOM      6  C   UNL A   1      33.061  22.487  27.938  1.00  0.00     0.122 C 
ATOM      7  C   UNL A   1      33.190  22.856  25.594  1.00  0.00     0.125 C 
ATOM      8  C   UNL A   1      34.348  21.824  27.452  1.00  0.00     0.027 C 
BRANCH   5   9
ATOM      9  C   UNL A   1      31.377  23.994  26.722  1.00  0.00     0.320 C 
ATOM     10  O   UNL A   1      30.331  23.512  27.170  1.00  0.00    -0.248 OA
BRANCH   9  11
ATOM     11  N   UNL A   1      31.364  25.238  26.106  1.00  0.00    -0.325 N 
ATOM     12  C   UNL A   1      30.399  25.677  25.114  1.00  0.00     0.149 C 
BRANCH  11  13
ATOM     13  C   UNL A   1      32.270  26.297  26.641  1.00  0.00     0.088 C 
ATOM     14  C   UNL A   1      31.541  27.630  26.852  1.00  0.00     0.031 C 
BRANCH  13  15
ATOM     15  C   UNL A   1      33.613  26.321  25.865  1.00  0.00     0.071 C 
BRANCH  15  16
ATOM     16  C   UNL A   1      33.605  26.927  24.493  1.00  0.00     0.007 A 
ATOM     17  C   UNL A   1      33.798  28.247  24.132  1.00  0.00     0.015 A 
ATOM     18  S   UNL A   1      33.443  25.919  23.114  1.00  0.00    -0.149 S 
ATOM     19  C   UNL A   1      33.825  28.421  22.717  1.00  0.00     0.012 A 
ATOM     20  C   UNL A   1      33.636  27.234  22.046  1.00  0.00     0.065 A 
ENDBRANCH  15  16
ENDBRANCH  13  15
ENDBRANCH  11  13
ENDBRANCH   9  11
ENDBRANCH   5   9
ENDBRANCH   3   4
ENDBRANCH   1   3
BRANCH   1  21
ATOM     21  O   UNL A   1      37.293  20.277  25.052  1.00  0.00    -0.462 OA
BRANCH  21  22
ATOM     22  C   UNL A   1      38.677  20.575  25.329  1.00  0.00     0.274 C 
BRANCH  22  23
ATOM     23  C   UNL A   1      39.489  19.324  25.684  1.00  0.00     0.275 C 
BRANCH  23  24
ATOM     24  O   UNL A   1      40.838  19.399  25.181  1.00  0.00    -0.458 OA
BRANCH  24  25
ATOM     25  C   UNL A   1      41.778  19.492  26.142  1.00  0.00     0.338 C 
ATOM     26  O   UNL A   1      42.516  18.590  26.522  1.00  0.00    -0.246 OA
BRANCH  25  27
ATOM     27  C   UNL A   1      41.892  20.855  26.668  1.00  0.00     0.060 A 
ATOM     28  C   UNL A   1      42.244  21.880  25.789  1.00  0.00     0.016 A 
ATOM     29  C   UNL A   1      41.828  21.089  28.042  1.00  0.00     0.016 A 
ATOM     30  C   UNL A   1      42.584  23.134  26.279  1.00  0.00     0.010 A 
ATOM     31  C   UNL A   1      42.133  22.362  28.534  1.00  0.00     0.010 A 
ATOM     32  C   UNL A   1      42.530  23.386  27.656  1.00  0.00    -0.014 A 
BRANCH  32  33
ATOM     33  C   UNL A   1      42.840  24.746  28.149  1.00  0.00     0.031 A 
ATOM     34  C   UNL A   1      44.251  25.155  28.453  1.00  0.00     0.074 A 
ATOM     35  C   UNL A   1      41.827  25.618  28.299  1.00  0.00     0.049 A 
ATOM     36  N   UNL A   1      44.685  26.291  28.939  1.00  0.00    -0.248 NA
ATOM     37  C   UNL A   1      45.307  24.167  28.191  1.00  0.00     0.031 C 
ATOM     38  C   UNL A   1      40.420  25.334  28.005  1.00  0.00     0.029 A 
ATOM     39  N   UNL A   1      41.825  26.922  28.718  1.00  0.00    -0.354 N 
ATOM     40  C   UNL A   1      46.056  26.135  29.093  1.00  0.00     0.074 A 
ATOM     41  C   UNL A   1      46.387  24.804  28.629  1.00  0.00     0.031 C 
ATOM     42  C   UNL A   1      39.696  26.442  28.221  1.00  0.00     0.029 A 
ATOM     43  C   UNL A   1      40.578  27.495  28.713  1.00  0.00     0.049 A 
ATOM     44  H   UNL A   1      42.639  27.403  28.994  1.00  0.00     0.167 HD
ATOM     45  C   UNL A   1      46.949  27.025  29.586  1.00  0.00     0.031 A 
ATOM     46  C   UNL A   1      40.185  28.729  29.076  1.00  0.00     0.031 A 
ATOM     47  C   UNL A   1      46.629  28.374  29.970  1.00  0.00     0.049 A 
ATOM     48  C   UNL A   1      41.206  29.703  29.577  1.00  0.00     0.074 A 
ATOM     49  C   UNL A   1      47.485  29.371  30.406  1.00  0.00     0.029 A 
ATOM     50  N   UNL A   1      45.355  28.918  29.953  1.00  0.00    -0.354 N 
ATOM     51  N   UNL A   1      42.502  29.547  29.702  1.00  0.00    -0.248 NA
ATOM     52  C   UNL A   1      40.712  31.023  29.992  1.00  0.00     0.031 C 
ATOM     53  C   UNL A   1      46.723  30.512  30.680  1.00  0.00     0.029 A 
ATOM     54  C   UNL A   1      45.397  30.231  30.391  1.00  0.00     0.049 A 
ATOM     55  H   UNL A   1      44.541  28.442  29.669  1.00  0.00     0.167 HD
ATOM     56  C   UNL A   1      42.980  30.752  30.196  1.00  0.00     0.074 A 
ATOM     57  C   UNL A   1      41.839  31.634  30.331  1.00  0.00     0.031 C 
ATOM     58  C   UNL A   1      44.252  31.093  30.513  1.00  0.00     0.031 A 
BRANCH  45  59
ATOM     59  C   UNL A   1      48.364  26.563  29.773  1.00  0.00    -0.014 A 
ATOM     60  C   UNL A   1      49.336  26.771  28.788  1.00  0.00     0.009 A 
ATOM     61  C   UNL A   1      48.741  25.974  30.991  1.00  0.00     0.009 A 
ATOM     62  C   UNL A   1      50.658  26.378  29.008  1.00  0.00     0.001 A 
ATOM     63  C   UNL A   1      50.066  25.595  31.213  1.00  0.00     0.001 A 
ATOM     64  C   UNL A   1      51.023  25.792  30.220  1.00  0.00     0.000 A 
ENDBRANCH  45  59
BRANCH  46  65
ATOM     65  C   UNL A   1      38.752  29.101  28.977  1.00  0.00    -0.014 A 
ATOM     66  C   UNL A   1      37.908  28.978  30.089  1.00  0.00     0.009 A 
ATOM     67  C   UNL A   1      38.229  29.606  27.775  1.00  0.00     0.009 A 
ATOM     68  C   UNL A   1      36.563  29.342  29.998  1.00  0.00     0.001 A 
ATOM     69  C   UNL A   1      36.891  29.992  27.695  1.00  0.00     0.001 A 
ATOM     70  C   UNL A   1      36.057  29.854  28.804  1.00  0.00     0.000 A 
ENDBRANCH  46  65
BRANCH  58  71
ATOM     71  C   UNL A   1      44.472  32.489  31.014  1.00  0.00    -0.014 A 
ATOM     72  C   UNL A   1      44.832  33.521  30.136  1.00  0.00     0.009 A 
ATOM     73  C   UNL A   1      44.292  32.778  32.375  1.00  0.00     0.009 A 
ATOM     74  C   UNL A   1      45.038  34.814  30.618  1.00  0.00     0.001 A 
ATOM     75  C   UNL A   1      44.478  34.076  32.850  1.00  0.00     0.001 A 
ATOM     76  C   UNL A   1      44.858  35.091  31.974  1.00  0.00     0.000 A 
ENDBRANCH  58  71
ENDBRANCH  32  33
ENDBRANCH  25  27
ENDBRANCH  24  25
ENDBRANCH  23  24
ENDBRANCH  22  23
ENDBRANCH  21  22
ENDBRANCH   1  21
TORSDOF 17
ENDMDL
MODEL 3
REMARK VINA RESULT:      -9.4      5.678     10.309
REMARK SMILES C[C@H](Cc1cccs1)N(C)C(=O)N1CC[C@@H](CC(=O)OCCOC(=O)c2ccc(-c3c4nc(c(-c5ccccc5)c5ccc([nH]5)c(-c5ccccc5)c5nc(c(-c6ccccc6)c6ccc3[nH]6)C=C5)C=C4)cc2)C1
REMARK SMILES IDX 18 1 19 2 17 3 16 4 13 5 14 6 74 7 15 8 11 9 12 10 9 11
REMARK SMILES IDX 10 12 2 13 1 14 3 15 4 16 5 17 8 18 6 19 7 20 20 21 21 22
REMARK SMILES IDX 22 23 23 24 24 25 25 26 26 27 27 28 73 29 28 30 72 31 29 32
REMARK SMILES IDX 30 33 31 34 66 35 32 36 71 37 65 38 67 39 33 40 70 41 64 42
REMARK SMILES IDX 63 43 34 45 56 46 41 47 55 48 42 49 45 50 54 51 68 52 43 53
REMARK SMILES IDX 44 54 53 56 69 57 46 58 35 59 36 60 40 61 37 62 39 63 38 64
REMARK SMILES IDX 57 65 58 66 62 67 59 68 61 69 60 70 47 71 48 72 52 73 49 74
REMARK SMILES IDX 51 75 50 76
REMARK H PARENT 67 44 45 55
REMARK Flexibility Score: inf
ROOT
ATOM      1  C   UNL A   1      36.633  22.267  23.912  1.00  0.00     0.306 C 
ATOM      2  O   UNL A   1      36.597  22.989  22.923  1.00  0.00    -0.252 OA
ENDROOT
BRANCH   1   3
ATOM      3  C   UNL A   1      35.383  21.742  24.596  1.00  0.00     0.128 C 
BRANCH   3   4
ATOM      4  C   UNL A   1      34.628  22.604  25.616  1.00  0.00     0.021 C 
ATOM      5  N   UNL A   1      32.484  23.172  26.489  1.00  0.00    -0.324 N 
ATOM      6  C   UNL A   1      33.160  22.475  27.566  1.00  0.00     0.122 C 
ATOM      7  C   UNL A   1      33.195  22.955  25.240  1.00  0.00     0.125 C 
ATOM      8  C   UNL A   1      34.552  22.106  27.056  1.00  0.00     0.027 C 
BRANCH   5   9
ATOM      9  C   UNL A   1      31.198  23.656  26.410  1.00  0.00     0.320 C 
ATOM     10  O   UNL A   1      30.393  23.346  27.296  1.00  0.00    -0.248 OA
BRANCH   9  11
ATOM     11  N   UNL A   1      30.793  24.458  25.351  1.00  0.00    -0.325 N 
ATOM     12  C   UNL A   1      30.674  24.032  23.969  1.00  0.00     0.149 C 
BRANCH  11  13
ATOM     13  C   UNL A   1      30.230  25.804  25.665  1.00  0.00     0.088 C 
ATOM     14  C   UNL A   1      29.354  26.345  24.527  1.00  0.00     0.031 C 
BRANCH  13  15
ATOM     15  C   UNL A   1      31.323  26.741  26.245  1.00  0.00     0.071 C 
BRANCH  15  16
ATOM     16  C   UNL A   1      32.172  27.497  25.266  1.00  0.00     0.007 A 
ATOM     17  C   UNL A   1      32.069  28.818  24.875  1.00  0.00     0.015 A 
ATOM     18  S   UNL A   1      33.540  26.740  24.558  1.00  0.00    -0.149 S 
ATOM     19  C   UNL A   1      33.127  29.207  24.002  1.00  0.00     0.012 A 
ATOM     20  C   UNL A   1      33.993  28.168  23.743  1.00  0.00     0.065 A 
ENDBRANCH  15  16
ENDBRANCH  13  15
ENDBRANCH  11  13
ENDBRANCH   9  11
ENDBRANCH   5   9
ENDBRANCH   3   4
ENDBRANCH   1   3
BRANCH   1  21
ATOM     21  O   UNL A   1      37.766  21.957  24.591  1.00  0.00    -0.462 OA
BRANCH  21  22
ATOM     22  C   UNL A   1      37.790  20.702  25.303  1.00  0.00     0.274 C 
BRANCH  22  23
ATOM     23  C   UNL A   1      39.069  19.899  25.041  1.00  0.00     0.275 C 
BRANCH  23  24
ATOM     24  O   UNL A   1      39.790  19.625  26.258  1.00  0.00    -0.458 OA
BRANCH  24  25
ATOM     25  C   UNL A   1      41.131  19.685  26.128  1.00  0.00     0.338 C 
ATOM     26  O   UNL A   1      41.845  18.834  25.610  1.00  0.00    -0.246 OA
BRANCH  25  27
ATOM     27  C   UNL A   1      41.675  20.952  26.623  1.00  0.00     0.060 A 
ATOM     28  C   UNL A   1      41.596  21.221  27.990  1.00  0.00     0.016 A 
ATOM     29  C   UNL A   1      42.093  21.938  25.728  1.00  0.00     0.016 A 
ATOM     30  C   UNL A   1      41.886  22.491  28.469  1.00  0.00     0.010 A 
ATOM     31  C   UNL A   1      42.423  23.207  26.216  1.00  0.00     0.010 A 
ATOM     32  C   UNL A   1      42.303  23.494  27.586  1.00  0.00    -0.014 A 
BRANCH  32  33
ATOM     33  C   UNL A   1      42.663  24.823  28.129  1.00  0.00     0.031 A 
ATOM     34  C   UNL A   1      41.612  25.857  28.404  1.00  0.00     0.074 A 
ATOM     35  C   UNL A   1      43.958  25.078  28.390  1.00  0.00     0.049 A 
ATOM     36  N   UNL A   1      41.765  27.085  28.831  1.00  0.00    -0.248 NA
ATOM     37  C   UNL A   1      40.213  25.473  28.160  1.00  0.00     0.031 C 
ATOM     38  C   UNL A   1      45.060  24.134  28.187  1.00  0.00     0.029 A 
ATOM     39  N   UNL A   1      44.564  26.196  28.899  1.00  0.00    -0.354 N 
ATOM     40  C   UNL A   1      40.492  27.637  28.856  1.00  0.00     0.074 A 
ATOM     41  C   UNL A   1      39.573  26.606  28.421  1.00  0.00     0.031 C 
ATOM     42  C   UNL A   1      46.203  24.701  28.600  1.00  0.00     0.029 A 
ATOM     43  C   UNL A   1      45.921  26.061  29.048  1.00  0.00     0.049 A 
ATOM     44  H   UNL A   1      44.073  27.016  29.137  1.00  0.00     0.167 HD
ATOM     45  C   UNL A   1      40.132  28.895  29.202  1.00  0.00     0.031 A 
ATOM     46  C   UNL A   1      46.841  26.938  29.486  1.00  0.00     0.031 A 
ATOM     47  C   UNL A   1      41.037  29.892  29.710  1.00  0.00     0.049 A 
ATOM     48  C   UNL A   1      46.403  28.309  29.902  1.00  0.00     0.074 A 
ATOM     49  C   UNL A   1      40.747  31.168  30.161  1.00  0.00     0.029 A 
ATOM     50  N   UNL A   1      42.405  29.719  29.845  1.00  0.00    -0.354 N 
ATOM     51  N   UNL A   1      45.193  28.813  29.935  1.00  0.00    -0.248 NA
ATOM     52  C   UNL A   1      47.457  29.236  30.338  1.00  0.00     0.031 C 
ATOM     53  C   UNL A   1      41.948  31.779  30.543  1.00  0.00     0.029 A 
ATOM     54  C   UNL A   1      42.978  30.873  30.352  1.00  0.00     0.049 A 
ATOM     55  H   UNL A   1      42.897  28.897  29.616  1.00  0.00     0.167 HD
ATOM     56  C   UNL A   1      45.337  30.108  30.408  1.00  0.00     0.074 A 
ATOM     57  C   UNL A   1      46.749  30.308  30.665  1.00  0.00     0.031 C 
ATOM     58  C   UNL A   1      44.383  31.050  30.607  1.00  0.00     0.031 A 
BRANCH  45  59
ATOM     59  C   UNL A   1      38.696  29.288  29.015  1.00  0.00    -0.014 A 
ATOM     60  C   UNL A   1      38.221  29.755  27.784  1.00  0.00     0.009 A 
ATOM     61  C   UNL A   1      37.792  29.115  30.075  1.00  0.00     0.009 A 
ATOM     62  C   UNL A   1      36.869  30.064  27.622  1.00  0.00     0.001 A 
ATOM     63  C   UNL A   1      36.439  29.411  29.905  1.00  0.00     0.001 A 
ATOM     64  C   UNL A   1      35.978  29.891  28.681  1.00  0.00     0.000 A 
ENDBRANCH  45  59
BRANCH  46  65
ATOM     65  C   UNL A   1      48.268  26.537  29.546  1.00  0.00    -0.014 A 
ATOM     66  C   UNL A   1      49.131  26.820  28.478  1.00  0.00     0.009 A 
ATOM     67  C   UNL A   1      48.779  25.893  30.685  1.00  0.00     0.009 A 
ATOM     68  C   UNL A   1      50.477  26.453  28.543  1.00  0.00     0.001 A 
ATOM     69  C   UNL A   1      50.129  25.550  30.756  1.00  0.00     0.001 A 
ATOM     70  C   UNL A   1      50.977  25.825  29.683  1.00  0.00     0.000 A 
ENDBRANCH  46  65
BRANCH  58  71
ATOM     71  C   UNL A   1      44.840  32.371  31.149  1.00  0.00    -0.014 A 
ATOM     72  C   UNL A   1      45.204  33.415  30.287  1.00  0.00     0.009 A 
ATOM     73  C   UNL A   1      44.881  32.579  32.535  1.00  0.00     0.009 A 
ATOM     74  C   UNL A   1      45.631  34.638  30.806  1.00  0.00     0.001 A 
ATOM     75  C   UNL A   1      45.289  33.810  33.051  1.00  0.00     0.001 A 
ATOM     76  C   UNL A   1      45.670  34.836  32.187  1.00  0.00     0.000 A 
ENDBRANCH  58  71
ENDBRANCH  32  33
ENDBRANCH  25  27
ENDBRANCH  24  25
ENDBRANCH  23  24
ENDBRANCH  22  23
ENDBRANCH  21  22
ENDBRANCH   1  21
TORSDOF 17
ENDMDL
