MODEL 1
REMARK VINA RESULT:     -13.6      0.000      0.000
REMARK SMILES Cc1ccc(NC(=O)c2cnn3c2NC2=C(C(=O)CCC2)[C@H]3c2ccc(C(=O)OCCOC(=O)c3ccc(-c4c5nc(c(-c6ccccc6)c6ccc([nH]6)c(-c6ccccc6)c6nc(c(-c7ccccc7)c7ccc4[nH]7)C=C6)C=C5)cc3)cc2)cc1
REMARK SMILES IDX 30 1 29 2 27 3 28 4 26 5 23 6 24 7 84 8 25 9 83 10 22 11
REMARK SMILES IDX 9 12 10 13 13 14 11 15 12 16 14 17 15 18 16 20 21 21 17 22
REMARK SMILES IDX 20 23 18 24 19 25 7 26 6 27 8 29 5 30 1 31 2 32 3 33 86 34
REMARK SMILES IDX 4 35 85 36 31 37 32 38 33 39 34 40 35 41 36 42 82 43 37 44
REMARK SMILES IDX 81 45 38 46 39 47 40 48 75 49 41 50 80 51 74 52 76 53 42 54
REMARK SMILES IDX 79 55 73 56 72 57 43 59 65 60 50 61 64 62 51 63 54 64 63 65
REMARK SMILES IDX 77 66 52 67 53 68 62 70 78 71 55 72 44 73 45 74 49 75 46 76
REMARK SMILES IDX 48 77 47 78 66 79 67 80 71 81 68 82 70 83 69 84 56 85 57 86
REMARK SMILES IDX 61 87 58 88 60 89 59 90
REMARK H PARENT 14 19 6 28 76 58 54 69
REMARK Flexibility Score: inf
ROOT
ATOM      1  C   UNL A   1      39.989  22.204  26.520  1.00  0.00     0.275 C 
ENDROOT
BRANCH   1   2
ATOM      2  O   UNL A   1      38.560  22.265  26.465  1.00  0.00    -0.458 OA
BRANCH   2   3
ATOM      3  C   UNL A   1      37.922  21.783  25.371  1.00  0.00     0.338 C 
ATOM      4  O   UNL A   1      38.146  20.756  24.784  1.00  0.00    -0.246 OA
BRANCH   3   5
ATOM      5  C   UNL A   1      36.837  22.723  25.021  1.00  0.00     0.060 A 
ATOM      6  C   UNL A   1      34.958  24.671  24.152  1.00  0.00    -0.019 A 
ATOM      7  C   UNL A   1      35.534  24.743  25.433  1.00  0.00     0.007 A 
ATOM      8  C   UNL A   1      35.320  23.554  23.366  1.00  0.00     0.007 A 
ATOM      9  C   UNL A   1      36.474  23.781  25.861  1.00  0.00     0.016 A 
ATOM     10  C   UNL A   1      36.239  22.594  23.778  1.00  0.00     0.016 A 
BRANCH   6  11
ATOM     11  C   UNL A   1      33.924  25.744  23.663  1.00  0.00     0.175 C 
ATOM     12  C   UNL A   1      31.014  24.469  25.212  1.00  0.00     0.102 A 
ATOM     13  C   UNL A   1      30.668  24.455  23.828  1.00  0.00     0.151 A 
ATOM     14  C   UNL A   1      32.071  25.357  25.266  1.00  0.00     0.142 A 
ATOM     15  N   UNL A   1      31.632  24.965  23.053  1.00  0.00    -0.178 NA
ATOM     16  N   UNL A   1      32.547  25.332  23.961  1.00  0.00    -0.237 N 
ATOM     17  N   UNL A   1      32.809  26.062  26.188  1.00  0.00    -0.343 N 
ATOM     18  C   UNL A   1      33.720  27.044  25.739  1.00  0.00     0.026 C 
ATOM     19  H   UNL A   1      32.703  25.885  27.150  1.00  0.00     0.168 HD
ATOM     20  C   UNL A   1      34.059  27.039  24.425  1.00  0.00     0.044 C 
ATOM     21  C   UNL A   1      33.949  28.308  26.521  1.00  0.00     0.055 C 
ATOM     22  C   UNL A   1      33.502  28.256  23.737  1.00  0.00     0.163 C 
ATOM     23  C   UNL A   1      33.226  29.499  25.883  1.00  0.00     0.014 C 
ATOM     24  O   UNL A   1      33.670  28.423  22.533  1.00  0.00    -0.294 OA
ATOM     25  C   UNL A   1      32.559  29.130  24.562  1.00  0.00     0.081 C 
BRANCH  12  26
ATOM     26  C   UNL A   1      30.412  23.721  26.284  1.00  0.00     0.261 C 
ATOM     27  N   UNL A   1      30.799  22.405  26.492  1.00  0.00    -0.322 N 
ATOM     28  H   UNL A   1      30.157  21.892  27.034  1.00  0.00     0.170 HD
ATOM     29  O   UNL A   1      29.557  24.216  27.019  1.00  0.00    -0.269 OA
BRANCH  27  30
ATOM     30  C   UNL A   1      31.927  21.643  26.088  1.00  0.00     0.041 A 
ATOM     31  C   UNL A   1      35.237  19.204  24.687  1.00  0.00     0.044 C 
ATOM     32  C   UNL A   1      34.077  20.028  25.161  1.00  0.00    -0.051 A 
ATOM     33  C   UNL A   1      34.220  20.819  26.296  1.00  0.00     0.005 A 
ATOM     34  C   UNL A   1      32.850  20.038  24.494  1.00  0.00     0.005 A 
ATOM     35  C   UNL A   1      33.152  21.598  26.753  1.00  0.00     0.026 A 
ATOM     36  C   UNL A   1      31.785  20.830  24.959  1.00  0.00     0.026 A 
ENDBRANCH  27  30
ENDBRANCH  12  26
ENDBRANCH   6  11
ENDBRANCH   3   5
ENDBRANCH   2   3
ENDBRANCH   1   2
BRANCH   1  37
ATOM     37  C   UNL A   1      40.824  23.502  26.520  1.00  0.00     0.275 C 
BRANCH  37  38
ATOM     38  O   UNL A   1      40.263  24.834  26.302  1.00  0.00    -0.458 OA
BRANCH  38  39
ATOM     39  C   UNL A   1      40.827  26.056  26.202  1.00  0.00     0.338 C 
ATOM     40  O   UNL A   1      41.712  26.325  25.399  1.00  0.00    -0.246 OA
BRANCH  39  41
ATOM     41  C   UNL A   1      40.332  27.083  27.112  1.00  0.00     0.060 A 
ATOM     42  C   UNL A   1      40.976  28.331  27.172  1.00  0.00     0.016 A 
ATOM     43  C   UNL A   1      39.190  26.807  27.851  1.00  0.00     0.016 A 
ATOM     44  C   UNL A   1      40.416  29.352  27.929  1.00  0.00     0.010 A 
ATOM     45  C   UNL A   1      38.572  27.842  28.499  1.00  0.00     0.010 A 
ATOM     46  C   UNL A   1      39.213  29.090  28.585  1.00  0.00    -0.014 A 
BRANCH  46  47
ATOM     47  C   UNL A   1      38.741  29.868  29.714  1.00  0.00     0.031 A 
ATOM     48  C   UNL A   1      38.013  31.132  29.587  1.00  0.00     0.074 A 
ATOM     49  C   UNL A   1      38.860  29.185  30.873  1.00  0.00     0.049 A 
ATOM     50  N   UNL A   1      37.970  32.013  30.526  1.00  0.00    -0.248 NA
ATOM     51  C   UNL A   1      37.283  31.532  28.386  1.00  0.00     0.031 C 
ATOM     52  C   UNL A   1      38.193  29.379  32.144  1.00  0.00     0.029 A 
ATOM     53  N   UNL A   1      39.770  28.148  31.123  1.00  0.00    -0.354 N 
ATOM     54  C   UNL A   1      36.952  32.884  30.209  1.00  0.00     0.074 A 
ATOM     55  C   UNL A   1      36.657  32.638  28.815  1.00  0.00     0.031 C 
ATOM     56  C   UNL A   1      38.893  28.722  33.090  1.00  0.00     0.029 A 
ATOM     57  C   UNL A   1      40.119  28.233  32.464  1.00  0.00     0.049 A 
ATOM     58  H   UNL A   1      40.099  27.487  30.472  1.00  0.00     0.167 HD
ATOM     59  C   UNL A   1      36.321  33.561  31.209  1.00  0.00     0.031 A 
ATOM     60  C   UNL A   1      41.396  28.538  32.839  1.00  0.00     0.031 A 
ATOM     61  C   UNL A   1      36.847  33.166  32.514  1.00  0.00     0.049 A 
ATOM     62  C   UNL A   1      41.404  29.836  33.606  1.00  0.00     0.074 A 
ATOM     63  C   UNL A   1      36.384  32.247  33.441  1.00  0.00     0.029 A 
ATOM     64  N   UNL A   1      38.162  33.452  32.854  1.00  0.00    -0.354 N 
ATOM     65  N   UNL A   1      40.546  30.799  33.405  1.00  0.00    -0.248 NA
ATOM     66  C   UNL A   1      42.358  30.136  34.665  1.00  0.00     0.031 C 
ATOM     67  C   UNL A   1      37.456  31.926  34.308  1.00  0.00     0.029 A 
ATOM     68  C   UNL A   1      38.557  32.668  33.920  1.00  0.00     0.049 A 
ATOM     69  H   UNL A   1      38.731  34.115  32.401  1.00  0.00     0.167 HD
ATOM     70  C   UNL A   1      40.732  31.764  34.356  1.00  0.00     0.074 A 
ATOM     71  C   UNL A   1      41.910  31.331  35.088  1.00  0.00     0.031 C 
ATOM     72  C   UNL A   1      39.881  32.819  34.503  1.00  0.00     0.031 A 
BRANCH  59  73
ATOM     73  C   UNL A   1      35.011  34.297  31.058  1.00  0.00    -0.014 A 
ATOM     74  C   UNL A   1      34.405  34.369  29.786  1.00  0.00     0.009 A 
ATOM     75  C   UNL A   1      34.328  34.938  32.103  1.00  0.00     0.009 A 
ATOM     76  C   UNL A   1      33.238  35.103  29.550  1.00  0.00     0.001 A 
ATOM     77  C   UNL A   1      33.166  35.694  31.871  1.00  0.00     0.001 A 
ATOM     78  C   UNL A   1      32.628  35.785  30.592  1.00  0.00     0.000 A 
ENDBRANCH  59  73
BRANCH  60  79
ATOM     79  C   UNL A   1      42.463  28.123  31.874  1.00  0.00    -0.014 A 
ATOM     80  C   UNL A   1      42.756  28.972  30.784  1.00  0.00     0.009 A 
ATOM     81  C   UNL A   1      43.385  27.110  32.184  1.00  0.00     0.009 A 
ATOM     82  C   UNL A   1      43.964  28.864  30.084  1.00  0.00     0.001 A 
ATOM     83  C   UNL A   1      44.589  26.997  31.471  1.00  0.00     0.001 A 
ATOM     84  C   UNL A   1      44.888  27.886  30.440  1.00  0.00     0.000 A 
ENDBRANCH  60  79
BRANCH  72  85
ATOM     85  C   UNL A   1      40.146  34.062  35.308  1.00  0.00    -0.014 A 
ATOM     86  C   UNL A   1      40.738  35.215  34.785  1.00  0.00     0.009 A 
ATOM     87  C   UNL A   1      39.623  34.148  36.620  1.00  0.00     0.009 A 
ATOM     88  C   UNL A   1      40.837  36.386  35.548  1.00  0.00     0.001 A 
ATOM     89  C   UNL A   1      39.671  35.327  37.362  1.00  0.00     0.001 A 
ATOM     90  C   UNL A   1      40.291  36.445  36.827  1.00  0.00     0.000 A 
ENDBRANCH  72  85
ENDBRANCH  46  47
ENDBRANCH  39  41
ENDBRANCH  38  39
ENDBRANCH  37  38
ENDBRANCH   1  37
TORSDOF 14
ENDMDL
MODEL 2
REMARK VINA RESULT:     -13.5      2.569      7.866
REMARK SMILES Cc1ccc(NC(=O)c2cnn3c2NC2=C(C(=O)CCC2)[C@H]3c2ccc(C(=O)OCCOC(=O)c3ccc(-c4c5nc(c(-c6ccccc6)c6ccc([nH]6)c(-c6ccccc6)c6nc(c(-c7ccccc7)c7ccc4[nH]7)C=C6)C=C5)cc3)cc2)cc1
REMARK SMILES IDX 30 1 29 2 27 3 28 4 26 5 23 6 24 7 84 8 25 9 83 10 22 11
REMARK SMILES IDX 9 12 10 13 13 14 11 15 12 16 14 17 15 18 16 20 21 21 17 22
REMARK SMILES IDX 20 23 18 24 19 25 7 26 6 27 8 29 5 30 1 31 2 32 3 33 86 34
REMARK SMILES IDX 4 35 85 36 31 37 32 38 33 39 34 40 35 41 36 42 82 43 37 44
REMARK SMILES IDX 81 45 38 46 39 47 40 48 75 49 41 50 80 51 74 52 76 53 42 54
REMARK SMILES IDX 79 55 73 56 72 57 43 59 65 60 50 61 64 62 51 63 54 64 63 65
REMARK SMILES IDX 77 66 52 67 53 68 62 70 78 71 55 72 44 73 45 74 49 75 46 76
REMARK SMILES IDX 48 77 47 78 66 79 67 80 71 81 68 82 70 83 69 84 56 85 57 86
REMARK SMILES IDX 61 87 58 88 60 89 59 90
REMARK H PARENT 14 19 6 28 76 58 54 69
REMARK Flexibility Score: inf
ROOT
ATOM      1  C   UNL A   1      31.383  32.013  26.756  1.00  0.00     0.275 C 
ENDROOT
BRANCH   1   2
ATOM      2  O   UNL A   1      31.862  30.768  27.274  1.00  0.00    -0.458 OA
BRANCH   2   3
ATOM      3  C   UNL A   1      33.097  30.338  26.921  1.00  0.00     0.338 C 
ATOM      4  O   UNL A   1      34.112  30.985  26.869  1.00  0.00    -0.246 OA
BRANCH   3   5
ATOM      5  C   UNL A   1      33.018  28.889  26.641  1.00  0.00     0.060 A 
ATOM      6  C   UNL A   1      32.889  26.059  26.419  1.00  0.00    -0.019 A 
ATOM      7  C   UNL A   1      34.052  26.761  26.051  1.00  0.00     0.007 A 
ATOM      8  C   UNL A   1      31.792  26.844  26.839  1.00  0.00     0.007 A 
ATOM      9  C   UNL A   1      34.118  28.166  26.170  1.00  0.00     0.016 A 
ATOM     10  C   UNL A   1      31.842  28.229  26.953  1.00  0.00     0.016 A 
BRANCH   6  11
ATOM     11  C   UNL A   1      32.812  24.497  26.304  1.00  0.00     0.175 C 
ATOM     12  C   UNL A   1      32.413  24.210  22.804  1.00  0.00     0.102 A 
ATOM     13  C   UNL A   1      31.238  23.579  23.309  1.00  0.00     0.151 A 
ATOM     14  C   UNL A   1      33.273  24.194  23.885  1.00  0.00     0.142 A 
ATOM     15  N   UNL A   1      31.218  23.525  24.646  1.00  0.00    -0.178 NA
ATOM     16  N   UNL A   1      32.397  24.082  24.958  1.00  0.00    -0.237 N 
ATOM     17  N   UNL A   1      34.600  24.398  24.179  1.00  0.00    -0.343 N 
ATOM     18  C   UNL A   1      35.082  24.068  25.465  1.00  0.00     0.026 C 
ATOM     19  H   UNL A   1      35.208  24.771  23.501  1.00  0.00     0.168 HD
ATOM     20  C   UNL A   1      34.171  23.857  26.448  1.00  0.00     0.044 C 
ATOM     21  C   UNL A   1      36.467  23.513  25.658  1.00  0.00     0.055 C 
ATOM     22  C   UNL A   1      34.164  22.407  26.853  1.00  0.00     0.163 C 
ATOM     23  C   UNL A   1      36.434  22.000  25.900  1.00  0.00     0.014 C 
ATOM     24  O   UNL A   1      33.383  22.002  27.708  1.00  0.00    -0.294 OA
ATOM     25  C   UNL A   1      35.011  21.462  26.003  1.00  0.00     0.081 C 
BRANCH  12  26
ATOM     26  C   UNL A   1      32.635  24.746  21.487  1.00  0.00     0.261 C 
ATOM     27  N   UNL A   1      32.084  25.977  21.156  1.00  0.00    -0.322 N 
ATOM     28  H   UNL A   1      32.035  26.133  20.185  1.00  0.00     0.170 HD
ATOM     29  O   UNL A   1      33.295  24.141  20.643  1.00  0.00    -0.269 OA
BRANCH  27  30
ATOM     30  C   UNL A   1      31.576  27.057  21.924  1.00  0.00     0.041 A 
ATOM     31  C   UNL A   1      30.252  30.439  24.308  1.00  0.00     0.044 C 
ATOM     32  C   UNL A   1      30.733  29.273  23.497  1.00  0.00    -0.051 A 
ATOM     33  C   UNL A   1      29.828  28.293  23.106  1.00  0.00     0.005 A 
ATOM     34  C   UNL A   1      32.068  29.137  23.108  1.00  0.00     0.005 A 
ATOM     35  C   UNL A   1      30.254  27.199  22.345  1.00  0.00     0.026 A 
ATOM     36  C   UNL A   1      32.485  28.037  22.338  1.00  0.00     0.026 A 
ENDBRANCH  27  30
ENDBRANCH  12  26
ENDBRANCH   6  11
ENDBRANCH   3   5
ENDBRANCH   2   3
ENDBRANCH   1   2
BRANCH   1  37
ATOM     37  C   UNL A   1      32.242  33.289  26.878  1.00  0.00     0.275 C 
BRANCH  37  38
ATOM     38  O   UNL A   1      32.330  34.100  28.091  1.00  0.00    -0.458 OA
BRANCH  38  39
ATOM     39  C   UNL A   1      33.372  34.662  28.738  1.00  0.00     0.338 C 
ATOM     40  O   UNL A   1      33.381  35.827  29.117  1.00  0.00    -0.246 OA
BRANCH  39  41
ATOM     41  C   UNL A   1      34.531  33.809  28.981  1.00  0.00     0.060 A 
ATOM     42  C   UNL A   1      34.427  32.730  29.875  1.00  0.00     0.016 A 
ATOM     43  C   UNL A   1      35.691  34.063  28.263  1.00  0.00     0.016 A 
ATOM     44  C   UNL A   1      35.484  31.837  29.992  1.00  0.00     0.010 A 
ATOM     45  C   UNL A   1      36.685  33.121  28.285  1.00  0.00     0.010 A 
ATOM     46  C   UNL A   1      36.605  32.047  29.188  1.00  0.00    -0.014 A 
BRANCH  46  47
ATOM     47  C   UNL A   1      37.909  31.488  29.486  1.00  0.00     0.031 A 
ATOM     48  C   UNL A   1      38.417  30.245  28.903  1.00  0.00     0.074 A 
ATOM     49  C   UNL A   1      38.674  32.355  30.185  1.00  0.00     0.049 A 
ATOM     50  N   UNL A   1      39.341  29.538  29.456  1.00  0.00    -0.248 NA
ATOM     51  C   UNL A   1      37.917  29.668  27.657  1.00  0.00     0.031 C 
ATOM     52  C   UNL A   1      40.111  32.401  30.360  1.00  0.00     0.029 A 
ATOM     53  N   UNL A   1      38.199  33.390  31.003  1.00  0.00    -0.354 N 
ATOM     54  C   UNL A   1      39.795  28.658  28.500  1.00  0.00     0.074 A 
ATOM     55  C   UNL A   1      38.793  28.672  27.459  1.00  0.00     0.031 C 
ATOM     56  C   UNL A   1      40.379  33.187  31.421  1.00  0.00     0.029 A 
ATOM     57  C   UNL A   1      39.103  33.524  32.048  1.00  0.00     0.049 A 
ATOM     58  H   UNL A   1      37.382  33.920  30.863  1.00  0.00     0.167 HD
ATOM     59  C   UNL A   1      41.069  28.181  28.588  1.00  0.00     0.031 A 
ATOM     60  C   UNL A   1      38.736  33.248  33.333  1.00  0.00     0.031 A 
ATOM     61  C   UNL A   1      41.768  28.776  29.725  1.00  0.00     0.049 A 
ATOM     62  C   UNL A   1      39.558  32.100  33.861  1.00  0.00     0.074 A 
ATOM     63  C   UNL A   1      42.636  29.853  29.796  1.00  0.00     0.029 A 
ATOM     64  N   UNL A   1      41.348  28.511  31.021  1.00  0.00    -0.354 N 
ATOM     65  N   UNL A   1      40.032  31.144  33.108  1.00  0.00    -0.248 NA
ATOM     66  C   UNL A   1      39.927  31.955  35.263  1.00  0.00     0.031 C 
ATOM     67  C   UNL A   1      42.684  30.284  31.144  1.00  0.00     0.029 A 
ATOM     68  C   UNL A   1      41.866  29.453  31.889  1.00  0.00     0.049 A 
ATOM     69  H   UNL A   1      40.765  27.763  31.283  1.00  0.00     0.167 HD
ATOM     70  C   UNL A   1      40.850  30.349  33.864  1.00  0.00     0.074 A 
ATOM     71  C   UNL A   1      40.711  30.864  35.215  1.00  0.00     0.031 C 
ATOM     72  C   UNL A   1      41.616  29.362  33.318  1.00  0.00     0.031 A 
BRANCH  59  73
ATOM     73  C   UNL A   1      41.802  27.471  27.474  1.00  0.00    -0.014 A 
ATOM     74  C   UNL A   1      42.027  28.150  26.258  1.00  0.00     0.009 A 
ATOM     75  C   UNL A   1      42.285  26.156  27.545  1.00  0.00     0.009 A 
ATOM     76  C   UNL A   1      42.620  27.532  25.151  1.00  0.00     0.001 A 
ATOM     77  C   UNL A   1      42.865  25.522  26.432  1.00  0.00     0.001 A 
ATOM     78  C   UNL A   1      43.022  26.207  25.232  1.00  0.00     0.000 A 
ENDBRANCH  59  73
BRANCH  60  79
ATOM     79  C   UNL A   1      37.287  33.459  33.645  1.00  0.00    -0.014 A 
ATOM     80  C   UNL A   1      36.803  34.781  33.750  1.00  0.00     0.009 A 
ATOM     81  C   UNL A   1      36.347  32.424  33.517  1.00  0.00     0.009 A 
ATOM     82  C   UNL A   1      35.436  35.064  33.648  1.00  0.00     0.001 A 
ATOM     83  C   UNL A   1      34.976  32.711  33.427  1.00  0.00     0.001 A 
ATOM     84  C   UNL A   1      34.523  34.029  33.469  1.00  0.00     0.000 A 
ENDBRANCH  60  79
BRANCH  72  85
ATOM     85  C   UNL A   1      42.316  28.267  34.075  1.00  0.00    -0.014 A 
ATOM     86  C   UNL A   1      41.659  27.169  34.639  1.00  0.00     0.009 A 
ATOM     87  C   UNL A   1      43.730  28.242  34.085  1.00  0.00     0.009 A 
ATOM     88  C   UNL A   1      42.378  26.115  35.216  1.00  0.00     0.001 A 
ATOM     89  C   UNL A   1      44.450  27.170  34.610  1.00  0.00     0.001 A 
ATOM     90  C   UNL A   1      43.770  26.109  35.187  1.00  0.00     0.000 A 
ENDBRANCH  72  85
ENDBRANCH  46  47
ENDBRANCH  39  41
ENDBRANCH  38  39
ENDBRANCH  37  38
ENDBRANCH   1  37
TORSDOF 14
ENDMDL
MODEL 3
REMARK VINA RESULT:     -13.4      3.569      9.713
REMARK SMILES Cc1ccc(NC(=O)c2cnn3c2NC2=C(C(=O)CCC2)[C@H]3c2ccc(C(=O)OCCOC(=O)c3ccc(-c4c5nc(c(-c6ccccc6)c6ccc([nH]6)c(-c6ccccc6)c6nc(c(-c7ccccc7)c7ccc4[nH]7)C=C6)C=C5)cc3)cc2)cc1
REMARK SMILES IDX 30 1 29 2 27 3 28 4 26 5 23 6 24 7 84 8 25 9 83 10 22 11
REMARK SMILES IDX 9 12 10 13 13 14 11 15 12 16 14 17 15 18 16 20 21 21 17 22
REMARK SMILES IDX 20 23 18 24 19 25 7 26 6 27 8 29 5 30 1 31 2 32 3 33 86 34
REMARK SMILES IDX 4 35 85 36 31 37 32 38 33 39 34 40 35 41 36 42 82 43 37 44
REMARK SMILES IDX 81 45 38 46 39 47 40 48 75 49 41 50 80 51 74 52 76 53 42 54
REMARK SMILES IDX 79 55 73 56 72 57 43 59 65 60 50 61 64 62 51 63 54 64 63 65
REMARK SMILES IDX 77 66 52 67 53 68 62 70 78 71 55 72 44 73 45 74 49 75 46 76
REMARK SMILES IDX 48 77 47 78 66 79 67 80 71 81 68 82 70 83 69 84 56 85 57 86
REMARK SMILES IDX 61 87 58 88 60 89 59 90
REMARK H PARENT 14 19 6 28 76 58 54 69
REMARK Flexibility Score: inf
ROOT
ATOM      1  C   UNL A   1      34.740  31.596  27.998  1.00  0.00     0.275 C 
ENDROOT
BRANCH   1   2
ATOM      2  O   UNL A   1      34.284  30.747  26.940  1.00  0.00    -0.458 OA
BRANCH   2   3
ATOM      3  C   UNL A   1      32.978  30.390  26.899  1.00  0.00     0.338 C 
ATOM      4  O   UNL A   1      32.018  31.117  26.858  1.00  0.00    -0.246 OA
BRANCH   3   5
ATOM      5  C   UNL A   1      32.905  28.914  26.864  1.00  0.00     0.060 A 
ATOM      6  C   UNL A   1      32.773  26.101  26.479  1.00  0.00    -0.019 A 
ATOM      7  C   UNL A   1      31.640  26.829  26.885  1.00  0.00     0.007 A 
ATOM      8  C   UNL A   1      33.971  26.837  26.338  1.00  0.00     0.007 A 
ATOM      9  C   UNL A   1      31.703  28.228  27.067  1.00  0.00     0.016 A 
ATOM     10  C   UNL A   1      34.049  28.213  26.523  1.00  0.00     0.016 A 
BRANCH   6  11
ATOM     11  C   UNL A   1      32.707  24.549  26.260  1.00  0.00     0.175 C 
ATOM     12  C   UNL A   1      32.360  24.491  22.743  1.00  0.00     0.102 A 
ATOM     13  C   UNL A   1      31.182  23.822  23.188  1.00  0.00     0.151 A 
ATOM     14  C   UNL A   1      33.204  24.409  23.834  1.00  0.00     0.142 A 
ATOM     15  N   UNL A   1      31.143  23.681  24.518  1.00  0.00    -0.178 NA
ATOM     16  N   UNL A   1      32.314  24.222  24.884  1.00  0.00    -0.237 N 
ATOM     17  N   UNL A   1      34.526  24.600  24.161  1.00  0.00    -0.343 N 
ATOM     18  C   UNL A   1      34.991  24.188  25.428  1.00  0.00     0.026 C 
ATOM     19  H   UNL A   1      35.142  25.020  23.517  1.00  0.00     0.168 HD
ATOM     20  C   UNL A   1      34.067  23.909  26.382  1.00  0.00     0.044 C 
ATOM     21  C   UNL A   1      36.377  23.629  25.605  1.00  0.00     0.055 C 
ATOM     22  C   UNL A   1      34.063  22.436  26.690  1.00  0.00     0.163 C 
ATOM     23  C   UNL A   1      36.350  22.104  25.748  1.00  0.00     0.014 C 
ATOM     24  O   UNL A   1      33.272  21.971  27.506  1.00  0.00    -0.294 OA
ATOM     25  C   UNL A   1      34.929  21.553  25.793  1.00  0.00     0.081 C 
BRANCH  12  26
ATOM     26  C   UNL A   1      32.598  25.115  21.467  1.00  0.00     0.261 C 
ATOM     27  N   UNL A   1      32.040  26.359  21.208  1.00  0.00    -0.322 N 
ATOM     28  H   UNL A   1      32.006  26.577  20.249  1.00  0.00     0.170 HD
ATOM     29  O   UNL A   1      33.278  24.571  20.598  1.00  0.00    -0.269 OA
BRANCH  27  30
ATOM     30  C   UNL A   1      31.509  27.383  22.036  1.00  0.00     0.041 A 
ATOM     31  C   UNL A   1      30.113  30.578  24.626  1.00  0.00     0.044 C 
ATOM     32  C   UNL A   1      30.618  29.474  23.746  1.00  0.00    -0.051 A 
ATOM     33  C   UNL A   1      29.716  28.566  23.203  1.00  0.00     0.005 A 
ATOM     34  C   UNL A   1      31.973  29.328  23.439  1.00  0.00     0.005 A 
ATOM     35  C   UNL A   1      30.164  27.532  22.375  1.00  0.00     0.026 A 
ATOM     36  C   UNL A   1      32.413  28.288  22.601  1.00  0.00     0.026 A 
ENDBRANCH  27  30
ENDBRANCH  12  26
ENDBRANCH   6  11
ENDBRANCH   3   5
ENDBRANCH   2   3
ENDBRANCH   1   2
BRANCH   1  37
ATOM     37  C   UNL A   1      35.952  31.182  28.860  1.00  0.00     0.275 C 
BRANCH  37  38
ATOM     38  O   UNL A   1      36.163  29.832  29.376  1.00  0.00    -0.458 OA
BRANCH  38  39
ATOM     39  C   UNL A   1      37.025  29.327  30.283  1.00  0.00     0.338 C 
ATOM     40  O   UNL A   1      36.879  29.451  31.493  1.00  0.00    -0.246 OA
BRANCH  39  41
ATOM     41  C   UNL A   1      38.178  28.602  29.760  1.00  0.00     0.060 A 
ATOM     42  C   UNL A   1      39.244  28.276  30.616  1.00  0.00     0.016 A 
ATOM     43  C   UNL A   1      38.152  28.204  28.430  1.00  0.00     0.016 A 
ATOM     44  C   UNL A   1      40.269  27.462  30.150  1.00  0.00     0.010 A 
ATOM     45  C   UNL A   1      39.094  27.306  28.004  1.00  0.00     0.010 A 
ATOM     46  C   UNL A   1      40.176  26.985  28.842  1.00  0.00    -0.014 A 
BRANCH  46  47
ATOM     47  C   UNL A   1      41.320  26.504  28.092  1.00  0.00     0.031 A 
ATOM     48  C   UNL A   1      41.734  25.101  28.045  1.00  0.00     0.074 A 
ATOM     49  C   UNL A   1      41.820  27.460  27.278  1.00  0.00     0.049 A 
ATOM     50  N   UNL A   1      42.935  24.733  27.759  1.00  0.00    -0.248 NA
ATOM     51  C   UNL A   1      40.842  23.981  28.336  1.00  0.00     0.031 C 
ATOM     52  C   UNL A   1      42.664  27.342  26.107  1.00  0.00     0.029 A 
ATOM     53  N   UNL A   1      41.689  28.844  27.464  1.00  0.00    -0.354 N 
ATOM     54  C   UNL A   1      42.883  23.386  27.477  1.00  0.00     0.074 A 
ATOM     55  C   UNL A   1      41.609  22.937  27.989  1.00  0.00     0.031 C 
ATOM     56  C   UNL A   1      43.206  28.550  25.858  1.00  0.00     0.029 A 
ATOM     57  C   UNL A   1      42.848  29.427  26.970  1.00  0.00     0.049 A 
ATOM     58  H   UNL A   1      40.923  29.312  27.868  1.00  0.00     0.167 HD
ATOM     59  C   UNL A   1      43.822  22.844  26.651  1.00  0.00     0.031 A 
ATOM     60  C   UNL A   1      43.715  30.077  27.800  1.00  0.00     0.031 A 
ATOM     61  C   UNL A   1      44.728  23.874  26.150  1.00  0.00     0.049 A 
ATOM     62  C   UNL A   1      45.050  29.374  27.790  1.00  0.00     0.074 A 
ATOM     63  C   UNL A   1      44.730  24.585  24.961  1.00  0.00     0.029 A 
ATOM     64  N   UNL A   1      45.572  24.549  27.022  1.00  0.00    -0.354 N 
ATOM     65  N   UNL A   1      45.190  28.092  27.589  1.00  0.00    -0.248 NA
ATOM     66  C   UNL A   1      46.320  30.062  27.980  1.00  0.00     0.031 C 
ATOM     67  C   UNL A   1      45.530  25.738  25.144  1.00  0.00     0.029 A 
ATOM     68  C   UNL A   1      46.031  25.711  26.434  1.00  0.00     0.049 A 
ATOM     69  H   UNL A   1      45.807  24.244  27.928  1.00  0.00     0.167 HD
ATOM     70  C   UNL A   1      46.523  27.802  27.494  1.00  0.00     0.074 A 
ATOM     71  C   UNL A   1      47.192  29.055  27.797  1.00  0.00     0.031 C 
ATOM     72  C   UNL A   1      46.978  26.570  27.126  1.00  0.00     0.031 A 
BRANCH  59  73
ATOM     73  C   UNL A   1      43.720  21.480  26.011  1.00  0.00    -0.014 A 
ATOM     74  C   UNL A   1      42.568  20.698  26.238  1.00  0.00     0.009 A 
ATOM     75  C   UNL A   1      44.704  20.905  25.191  1.00  0.00     0.009 A 
ATOM     76  C   UNL A   1      42.439  19.393  25.751  1.00  0.00     0.001 A 
ATOM     77  C   UNL A   1      44.590  19.588  24.714  1.00  0.00     0.001 A 
ATOM     78  C   UNL A   1      43.462  18.828  25.004  1.00  0.00     0.000 A 
ENDBRANCH  59  73
BRANCH  60  79
ATOM     79  C   UNL A   1      43.098  30.694  29.016  1.00  0.00    -0.014 A 
ATOM     80  C   UNL A   1      43.002  29.919  30.193  1.00  0.00     0.009 A 
ATOM     81  C   UNL A   1      42.914  32.081  29.126  1.00  0.00     0.009 A 
ATOM     82  C   UNL A   1      42.811  30.518  31.443  1.00  0.00     0.001 A 
ATOM     83  C   UNL A   1      42.710  32.677  30.381  1.00  0.00     0.001 A 
ATOM     84  C   UNL A   1      42.683  31.901  31.539  1.00  0.00     0.000 A 
ENDBRANCH  60  79
BRANCH  72  85
ATOM     85  C   UNL A   1      48.391  26.073  27.266  1.00  0.00    -0.014 A 
ATOM     86  C   UNL A   1      49.367  26.216  26.276  1.00  0.00     0.009 A 
ATOM     87  C   UNL A   1      48.819  25.581  28.521  1.00  0.00     0.009 A 
ATOM     88  C   UNL A   1      50.698  25.854  26.516  1.00  0.00     0.001 A 
ATOM     89  C   UNL A   1      50.152  25.269  28.781  1.00  0.00     0.001 A 
ATOM     90  C   UNL A   1      51.092  25.395  27.770  1.00  0.00     0.000 A 
ENDBRANCH  72  85
ENDBRANCH  46  47
ENDBRANCH  39  41
ENDBRANCH  38  39
ENDBRANCH  37  38
ENDBRANCH   1  37
TORSDOF 14
ENDMDL
