MODEL 1
REMARK VINA RESULT:      -8.5      0.000      0.000
REMARK SMILES C[C@H]1C[NH2+]C[C@@H](CC(=O)OCCOC(=O)c2ccc(-c3c4nc(c(-c5ccccc5)c5ccc([nH]5)c(-c5ccccc5)c5nc(c(-c6ccccc6)c6ccc3[nH]6)C=C5)C=C4)cc2)C1
REMARK SMILES IDX 12 1 11 2 10 3 8 4 9 5 7 6 6 7 1 8 2 9 3 10 64 11 4 12 5 13
REMARK SMILES IDX 13 16 14 17 15 18 16 19 17 20 63 21 18 22 62 23 19 24 20 25
REMARK SMILES IDX 21 26 56 27 22 28 61 29 55 30 57 31 23 32 60 33 54 34 53 35
REMARK SMILES IDX 24 37 46 38 31 39 45 40 32 41 35 42 44 43 58 44 33 45 34 46
REMARK SMILES IDX 43 48 59 49 36 50 25 51 26 52 30 53 27 54 29 55 28 56 47 57
REMARK SMILES IDX 48 58 52 59 49 60 51 61 50 62 37 63 38 64 42 65 39 66 41 67
REMARK SMILES IDX 40 68
REMARK H PARENT 4 14 4 15 57 36 35 47
REMARK Flexibility Score: inf
ROOT
ATOM      1  C   UNL A   1      32.678  35.328  31.036  1.00  0.00     0.275 C 
ENDROOT
BRANCH   1   2
ATOM      2  C   UNL A   1      33.607  36.004  32.046  1.00  0.00     0.274 C 
BRANCH   2   3
ATOM      3  O   UNL A   1      34.819  35.251  32.231  1.00  0.00    -0.462 OA
BRANCH   3   4
ATOM      4  C   UNL A   1      34.874  34.428  33.305  1.00  0.00     0.306 C 
ATOM      5  O   UNL A   1      34.004  33.623  33.616  1.00  0.00    -0.252 OA
BRANCH   4   6
ATOM      6  C   UNL A   1      36.110  34.659  34.147  1.00  0.00     0.132 C 
BRANCH   6   7
ATOM      7  C   UNL A   1      36.682  33.418  34.859  1.00  0.00     0.056 C 
ATOM      8  C   UNL A   1      38.225  30.132  33.463  1.00  0.00     0.013 C 
ATOM      9  C   UNL A   1      37.804  31.153  34.520  1.00  0.00     0.041 C 
ATOM     10  C   UNL A   1      39.022  31.708  35.263  1.00  0.00     0.263 C 
ATOM     11  C   UNL A   1      37.010  32.290  33.866  1.00  0.00     0.019 C 
ATOM     12  N   UNL A   1      38.617  32.687  36.272  1.00  0.00    -0.346 N 
ATOM     13  C   UNL A   1      37.942  33.825  35.648  1.00  0.00     0.264 C 
ATOM     14  H   UNL A   1      39.444  33.019  36.768  1.00  0.00     0.346 HD
ATOM     15  H   UNL A   1      37.971  32.239  36.923  1.00  0.00     0.346 HD
ENDBRANCH   6   7
ENDBRANCH   4   6
ENDBRANCH   3   4
ENDBRANCH   2   3
ENDBRANCH   1   2
BRANCH   1  16
ATOM     16  O   UNL A   1      33.131  35.547  29.687  1.00  0.00    -0.458 OA
BRANCH  16  17
ATOM     17  C   UNL A   1      33.273  34.434  28.932  1.00  0.00     0.338 C 
ATOM     18  O   UNL A   1      32.517  34.015  28.074  1.00  0.00    -0.246 OA
BRANCH  17  19
ATOM     19  C   UNL A   1      34.584  33.827  29.212  1.00  0.00     0.060 A 
ATOM     20  C   UNL A   1      34.642  32.745  30.095  1.00  0.00     0.016 A 
ATOM     21  C   UNL A   1      35.750  34.356  28.655  1.00  0.00     0.016 A 
ATOM     22  C   UNL A   1      35.872  32.181  30.424  1.00  0.00     0.010 A 
ATOM     23  C   UNL A   1      36.984  33.791  28.989  1.00  0.00     0.010 A 
ATOM     24  C   UNL A   1      37.052  32.705  29.880  1.00  0.00    -0.014 A 
BRANCH  24  25
ATOM     25  C   UNL A   1      38.364  32.146  30.279  1.00  0.00     0.031 A 
ATOM     26  C   UNL A   1      38.815  30.829  29.717  1.00  0.00     0.074 A 
ATOM     27  C   UNL A   1      39.153  32.822  31.134  1.00  0.00     0.049 A 
ATOM     28  N   UNL A   1      39.888  30.134  29.999  1.00  0.00    -0.248 NA
ATOM     29  C   UNL A   1      37.944  30.212  28.704  1.00  0.00     0.031 C 
ATOM     30  C   UNL A   1      38.848  34.129  31.715  1.00  0.00     0.029 A 
ATOM     31  N   UNL A   1      40.375  32.494  31.667  1.00  0.00    -0.354 N 
ATOM     32  C   UNL A   1      39.820  28.997  29.206  1.00  0.00     0.074 A 
ATOM     33  C   UNL A   1      38.590  29.083  28.447  1.00  0.00     0.031 C 
ATOM     34  C   UNL A   1      39.853  34.490  32.530  1.00  0.00     0.029 A 
ATOM     35  C   UNL A   1      40.852  33.424  32.557  1.00  0.00     0.049 A 
ATOM     36  H   UNL A   1      40.862  31.671  31.432  1.00  0.00     0.167 HD
ATOM     37  C   UNL A   1      40.704  27.976  29.114  1.00  0.00     0.031 A 
ATOM     38  C   UNL A   1      41.955  33.405  33.328  1.00  0.00     0.031 A 
ATOM     39  C   UNL A   1      41.921  27.881  29.877  1.00  0.00     0.049 A 
ATOM     40  C   UNL A   1      42.885  32.226  33.259  1.00  0.00     0.074 A 
ATOM     41  C   UNL A   1      42.870  26.874  29.865  1.00  0.00     0.029 A 
ATOM     42  N   UNL A   1      42.356  28.833  30.785  1.00  0.00    -0.354 N 
ATOM     43  N   UNL A   1      42.803  31.151  32.512  1.00  0.00    -0.248 NA
ATOM     44  C   UNL A   1      44.062  32.258  34.140  1.00  0.00     0.031 C 
ATOM     45  C   UNL A   1      43.864  27.200  30.795  1.00  0.00     0.029 A 
ATOM     46  C   UNL A   1      43.554  28.431  31.349  1.00  0.00     0.049 A 
ATOM     47  H   UNL A   1      41.883  29.669  30.997  1.00  0.00     0.167 HD
ATOM     48  C   UNL A   1      43.924  30.391  32.817  1.00  0.00     0.074 A 
ATOM     49  C   UNL A   1      44.681  31.134  33.803  1.00  0.00     0.031 C 
ATOM     50  C   UNL A   1      44.294  29.185  32.327  1.00  0.00     0.031 A 
BRANCH  37  51
ATOM     51  C   UNL A   1      40.373  26.860  28.166  1.00  0.00    -0.014 A 
ATOM     52  C   UNL A   1      40.918  26.823  26.874  1.00  0.00     0.009 A 
ATOM     53  C   UNL A   1      39.540  25.810  28.585  1.00  0.00     0.009 A 
ATOM     54  C   UNL A   1      40.616  25.767  26.011  1.00  0.00     0.001 A 
ATOM     55  C   UNL A   1      39.259  24.746  27.729  1.00  0.00     0.001 A 
ATOM     56  C   UNL A   1      39.791  24.728  26.440  1.00  0.00     0.000 A 
ENDBRANCH  37  51
BRANCH  38  57
ATOM     57  C   UNL A   1      42.227  34.525  34.267  1.00  0.00    -0.014 A 
ATOM     58  C   UNL A   1      41.772  34.475  35.593  1.00  0.00     0.009 A 
ATOM     59  C   UNL A   1      42.922  35.662  33.828  1.00  0.00     0.009 A 
ATOM     60  C   UNL A   1      41.985  35.555  36.453  1.00  0.00     0.001 A 
ATOM     61  C   UNL A   1      43.158  36.728  34.698  1.00  0.00     0.001 A 
ATOM     62  C   UNL A   1      42.680  36.679  36.006  1.00  0.00     0.000 A 
ENDBRANCH  38  57
BRANCH  50  63
ATOM     63  C   UNL A   1      45.590  28.611  32.824  1.00  0.00    -0.014 A 
ATOM     64  C   UNL A   1      45.626  27.764  33.943  1.00  0.00     0.009 A 
ATOM     65  C   UNL A   1      46.783  28.895  32.143  1.00  0.00     0.009 A 
ATOM     66  C   UNL A   1      46.841  27.238  34.387  1.00  0.00     0.001 A 
ATOM     67  C   UNL A   1      47.991  28.348  32.575  1.00  0.00     0.001 A 
ATOM     68  C   UNL A   1      48.020  27.527  33.702  1.00  0.00     0.000 A 
ENDBRANCH  50  63
ENDBRANCH  24  25
ENDBRANCH  17  19
ENDBRANCH  16  17
ENDBRANCH   1  16
TORSDOF 12
ENDMDL
MODEL 2
REMARK VINA RESULT:      -8.4      3.901      8.285
REMARK SMILES C[C@H]1C[NH2+]C[C@@H](CC(=O)OCCOC(=O)c2ccc(-c3c4nc(c(-c5ccccc5)c5ccc([nH]5)c(-c5ccccc5)c5nc(c(-c6ccccc6)c6ccc3[nH]6)C=C5)C=C4)cc2)C1
REMARK SMILES IDX 12 1 11 2 10 3 8 4 9 5 7 6 6 7 1 8 2 9 3 10 64 11 4 12 5 13
REMARK SMILES IDX 13 16 14 17 15 18 16 19 17 20 63 21 18 22 62 23 19 24 20 25
REMARK SMILES IDX 21 26 56 27 22 28 61 29 55 30 57 31 23 32 60 33 54 34 53 35
REMARK SMILES IDX 24 37 46 38 31 39 45 40 32 41 35 42 44 43 58 44 33 45 34 46
REMARK SMILES IDX 43 48 59 49 36 50 25 51 26 52 30 53 27 54 29 55 28 56 47 57
REMARK SMILES IDX 48 58 52 59 49 60 51 61 50 62 37 63 38 64 42 65 39 66 41 67
REMARK SMILES IDX 40 68
REMARK H PARENT 4 14 4 15 57 36 35 47
REMARK Flexibility Score: inf
ROOT
ATOM      1  C   UNL A   1      34.399  34.060  32.476  1.00  0.00     0.275 C 
ENDROOT
BRANCH   1   2
ATOM      2  C   UNL A   1      34.009  34.673  31.129  1.00  0.00     0.274 C 
BRANCH   2   3
ATOM      3  O   UNL A   1      34.078  33.701  30.069  1.00  0.00    -0.462 OA
BRANCH   3   4
ATOM      4  C   UNL A   1      34.421  34.154  28.841  1.00  0.00     0.306 C 
ATOM      5  O   UNL A   1      34.120  35.253  28.389  1.00  0.00    -0.252 OA
BRANCH   4   6
ATOM      6  C   UNL A   1      35.168  33.117  28.031  1.00  0.00     0.132 C 
BRANCH   6   7
ATOM      7  C   UNL A   1      34.649  31.671  28.144  1.00  0.00     0.056 C 
ATOM      8  C   UNL A   1      31.793  29.807  26.274  1.00  0.00     0.013 C 
ATOM      9  C   UNL A   1      32.982  29.976  27.218  1.00  0.00     0.041 C 
ATOM     10  C   UNL A   1      34.177  29.140  26.753  1.00  0.00     0.263 C 
ATOM     11  C   UNL A   1      33.369  31.457  27.318  1.00  0.00     0.019 C 
ATOM     12  N   UNL A   1      35.315  29.305  27.657  1.00  0.00    -0.346 N 
ATOM     13  C   UNL A   1      35.755  30.700  27.686  1.00  0.00     0.264 C 
ATOM     14  H   UNL A   1      36.085  28.718  27.338  1.00  0.00     0.346 HD
ATOM     15  H   UNL A   1      35.029  29.033  28.598  1.00  0.00     0.346 HD
ENDBRANCH   6   7
ENDBRANCH   4   6
ENDBRANCH   3   4
ENDBRANCH   2   3
ENDBRANCH   1   2
BRANCH   1  16
ATOM     16  O   UNL A   1      34.969  32.750  32.304  1.00  0.00    -0.458 OA
BRANCH  16  17
ATOM     17  C   UNL A   1      36.022  32.463  33.102  1.00  0.00     0.338 C 
ATOM     18  O   UNL A   1      36.085  32.564  34.315  1.00  0.00    -0.246 OA
BRANCH  17  19
ATOM     19  C   UNL A   1      37.094  31.870  32.290  1.00  0.00     0.060 A 
ATOM     20  C   UNL A   1      38.081  31.118  32.934  1.00  0.00     0.016 A 
ATOM     21  C   UNL A   1      37.159  32.099  30.914  1.00  0.00     0.016 A 
ATOM     22  C   UNL A   1      39.140  30.586  32.203  1.00  0.00     0.010 A 
ATOM     23  C   UNL A   1      38.224  31.568  30.182  1.00  0.00     0.010 A 
ATOM     24  C   UNL A   1      39.224  30.815  30.823  1.00  0.00    -0.014 A 
BRANCH  24  25
ATOM     25  C   UNL A   1      40.383  30.303  30.057  1.00  0.00     0.031 A 
ATOM     26  C   UNL A   1      41.572  31.189  29.822  1.00  0.00     0.074 A 
ATOM     27  C   UNL A   1      40.375  29.044  29.583  1.00  0.00     0.049 A 
ATOM     28  N   UNL A   1      42.648  30.957  29.113  1.00  0.00    -0.248 NA
ATOM     29  C   UNL A   1      41.547  32.510  30.470  1.00  0.00     0.031 C 
ATOM     30  C   UNL A   1      39.299  28.071  29.781  1.00  0.00     0.029 A 
ATOM     31  N   UNL A   1      41.303  28.370  28.830  1.00  0.00    -0.354 N 
ATOM     32  C   UNL A   1      43.425  32.103  29.223  1.00  0.00     0.074 A 
ATOM     33  C   UNL A   1      42.689  33.037  30.049  1.00  0.00     0.031 C 
ATOM     34  C   UNL A   1      39.627  26.927  29.158  1.00  0.00     0.029 A 
ATOM     35  C   UNL A   1      40.913  27.099  28.488  1.00  0.00     0.049 A 
ATOM     36  H   UNL A   1      42.166  28.761  28.561  1.00  0.00     0.167 HD
ATOM     37  C   UNL A   1      44.644  32.352  28.689  1.00  0.00     0.031 A 
ATOM     38  C   UNL A   1      41.512  26.187  27.700  1.00  0.00     0.031 A 
ATOM     39  C   UNL A   1      45.372  31.430  27.858  1.00  0.00     0.049 A 
ATOM     40  C   UNL A   1      42.833  26.515  27.061  1.00  0.00     0.074 A 
ATOM     41  C   UNL A   1      46.607  31.603  27.255  1.00  0.00     0.029 A 
ATOM     42  N   UNL A   1      44.932  30.162  27.516  1.00  0.00    -0.354 N 
ATOM     43  N   UNL A   1      43.552  27.607  27.165  1.00  0.00    -0.248 NA
ATOM     44  C   UNL A   1      43.425  25.483  26.197  1.00  0.00     0.031 C 
ATOM     45  C   UNL A   1      46.898  30.449  26.518  1.00  0.00     0.029 A 
ATOM     46  C   UNL A   1      45.865  29.544  26.701  1.00  0.00     0.049 A 
ATOM     47  H   UNL A   1      44.082  29.761  27.809  1.00  0.00     0.167 HD
ATOM     48  C   UNL A   1      44.688  27.386  26.398  1.00  0.00     0.074 A 
ATOM     49  C   UNL A   1      44.573  26.050  25.849  1.00  0.00     0.031 C 
ATOM     50  C   UNL A   1      45.734  28.215  26.167  1.00  0.00     0.031 A 
BRANCH  37  51
ATOM     51  C   UNL A   1      45.260  33.692  28.971  1.00  0.00    -0.014 A 
ATOM     52  C   UNL A   1      46.094  33.886  30.082  1.00  0.00     0.009 A 
ATOM     53  C   UNL A   1      45.037  34.762  28.091  1.00  0.00     0.009 A 
ATOM     54  C   UNL A   1      46.676  35.133  30.319  1.00  0.00     0.001 A 
ATOM     55  C   UNL A   1      45.638  36.001  28.317  1.00  0.00     0.001 A 
ATOM     56  C   UNL A   1      46.451  36.188  29.435  1.00  0.00     0.000 A 
ENDBRANCH  37  51
BRANCH  38  57
ATOM     57  C   UNL A   1      40.851  24.882  27.434  1.00  0.00    -0.014 A 
ATOM     58  C   UNL A   1      41.354  23.697  27.991  1.00  0.00     0.009 A 
ATOM     59  C   UNL A   1      39.727  24.817  26.596  1.00  0.00     0.009 A 
ATOM     60  C   UNL A   1      40.758  22.469  27.692  1.00  0.00     0.001 A 
ATOM     61  C   UNL A   1      39.118  23.592  26.321  1.00  0.00     0.001 A 
ATOM     62  C   UNL A   1      39.640  22.417  26.860  1.00  0.00     0.000 A 
ENDBRANCH  38  57
BRANCH  50  63
ATOM     63  C   UNL A   1      46.850  27.687  25.311  1.00  0.00    -0.014 A 
ATOM     64  C   UNL A   1      47.858  26.875  25.853  1.00  0.00     0.009 A 
ATOM     65  C   UNL A   1      46.872  27.981  23.939  1.00  0.00     0.009 A 
ATOM     66  C   UNL A   1      48.885  26.392  25.039  1.00  0.00     0.001 A 
ATOM     67  C   UNL A   1      47.887  27.477  23.125  1.00  0.00     0.001 A 
ATOM     68  C   UNL A   1      48.897  26.690  23.677  1.00  0.00     0.000 A 
ENDBRANCH  50  63
ENDBRANCH  24  25
ENDBRANCH  17  19
ENDBRANCH  16  17
ENDBRANCH   1  16
TORSDOF 12
ENDMDL
MODEL 3
REMARK VINA RESULT:      -8.3      5.289     11.236
REMARK SMILES C[C@H]1C[NH2+]C[C@@H](CC(=O)OCCOC(=O)c2ccc(-c3c4nc(c(-c5ccccc5)c5ccc([nH]5)c(-c5ccccc5)c5nc(c(-c6ccccc6)c6ccc3[nH]6)C=C5)C=C4)cc2)C1
REMARK SMILES IDX 12 1 11 2 10 3 8 4 9 5 7 6 6 7 1 8 2 9 3 10 64 11 4 12 5 13
REMARK SMILES IDX 13 16 14 17 15 18 16 19 17 20 63 21 18 22 62 23 19 24 20 25
REMARK SMILES IDX 21 26 56 27 22 28 61 29 55 30 57 31 23 32 60 33 54 34 53 35
REMARK SMILES IDX 24 37 46 38 31 39 45 40 32 41 35 42 44 43 58 44 33 45 34 46
REMARK SMILES IDX 43 48 59 49 36 50 25 51 26 52 30 53 27 54 29 55 28 56 47 57
REMARK SMILES IDX 48 58 52 59 49 60 51 61 50 62 37 63 38 64 42 65 39 66 41 67
REMARK SMILES IDX 40 68
REMARK H PARENT 4 14 4 15 57 36 35 47
REMARK Flexibility Score: inf
ROOT
ATOM      1  C   UNL A   1      44.530  21.506  24.700  1.00  0.00     0.275 C 
ENDROOT
BRANCH   1   2
ATOM      2  C   UNL A   1      44.346  20.093  25.256  1.00  0.00     0.274 C 
BRANCH   2   3
ATOM      3  O   UNL A   1      42.994  19.630  25.079  1.00  0.00    -0.462 OA
BRANCH   3   4
ATOM      4  C   UNL A   1      42.467  18.877  26.074  1.00  0.00     0.306 C 
ATOM      5  O   UNL A   1      42.823  17.739  26.355  1.00  0.00    -0.252 OA
BRANCH   4   6
ATOM      6  C   UNL A   1      41.318  19.569  26.775  1.00  0.00     0.132 C 
BRANCH   6   7
ATOM      7  C   UNL A   1      40.360  20.368  25.872  1.00  0.00     0.056 C 
ATOM      8  C   UNL A   1      36.675  19.712  24.813  1.00  0.00     0.013 C 
ATOM      9  C   UNL A   1      37.994  20.475  24.922  1.00  0.00     0.041 C 
ATOM     10  C   UNL A   1      37.808  21.788  25.687  1.00  0.00     0.263 C 
ATOM     11  C   UNL A   1      39.053  19.601  25.607  1.00  0.00     0.019 C 
ATOM     12  N   UNL A   1      39.073  22.516  25.793  1.00  0.00    -0.346 N 
ATOM     13  C   UNL A   1      40.062  21.730  26.529  1.00  0.00     0.264 C 
ATOM     14  H   UNL A   1      38.914  23.396  26.282  1.00  0.00     0.346 HD
ATOM     15  H   UNL A   1      39.429  22.693  24.853  1.00  0.00     0.346 HD
ENDBRANCH   6   7
ENDBRANCH   4   6
ENDBRANCH   3   4
ENDBRANCH   2   3
ENDBRANCH   1   2
BRANCH   1  16
ATOM     16  O   UNL A   1      44.041  22.495  25.625  1.00  0.00    -0.458 OA
BRANCH  16  17
ATOM     17  C   UNL A   1      44.344  23.778  25.321  1.00  0.00     0.338 C 
ATOM     18  O   UNL A   1      44.941  24.189  24.343  1.00  0.00    -0.246 OA
BRANCH  17  19
ATOM     19  C   UNL A   1      43.722  24.667  26.315  1.00  0.00     0.060 A 
ATOM     20  C   UNL A   1      44.152  25.995  26.380  1.00  0.00     0.016 A 
ATOM     21  C   UNL A   1      42.768  24.181  27.211  1.00  0.00     0.016 A 
ATOM     22  C   UNL A   1      43.623  26.851  27.343  1.00  0.00     0.010 A 
ATOM     23  C   UNL A   1      42.241  25.040  28.179  1.00  0.00     0.010 A 
ATOM     24  C   UNL A   1      42.670  26.377  28.255  1.00  0.00    -0.014 A 
BRANCH  24  25
ATOM     25  C   UNL A   1      42.155  27.269  29.319  1.00  0.00     0.031 A 
ATOM     26  C   UNL A   1      42.875  27.355  30.634  1.00  0.00     0.074 A 
ATOM     27  C   UNL A   1      41.052  28.009  29.103  1.00  0.00     0.049 A 
ATOM     28  N   UNL A   1      42.544  28.014  31.716  1.00  0.00    -0.248 NA
ATOM     29  C   UNL A   1      44.134  26.602  30.746  1.00  0.00     0.031 C 
ATOM     30  C   UNL A   1      40.289  28.047  27.856  1.00  0.00     0.029 A 
ATOM     31  N   UNL A   1      40.379  28.868  29.936  1.00  0.00    -0.354 N 
ATOM     32  C   UNL A   1      43.547  27.750  32.639  1.00  0.00     0.074 A 
ATOM     33  C   UNL A   1      44.488  26.855  31.998  1.00  0.00     0.031 C 
ATOM     34  C   UNL A   1      39.247  28.881  28.007  1.00  0.00     0.029 A 
ATOM     35  C   UNL A   1      39.249  29.405  29.371  1.00  0.00     0.049 A 
ATOM     36  H   UNL A   1      40.679  29.079  30.849  1.00  0.00     0.167 HD
ATOM     37  C   UNL A   1      43.675  28.215  33.904  1.00  0.00     0.031 A 
ATOM     38  C   UNL A   1      38.307  30.206  29.902  1.00  0.00     0.031 A 
ATOM     39  C   UNL A   1      42.736  29.095  34.547  1.00  0.00     0.049 A 
ATOM     40  C   UNL A   1      38.437  30.652  31.332  1.00  0.00     0.074 A 
ATOM     41  C   UNL A   1      42.773  29.604  35.834  1.00  0.00     0.029 A 
ATOM     42  N   UNL A   1      41.592  29.597  33.949  1.00  0.00    -0.354 N 
ATOM     43  N   UNL A   1      39.385  30.386  32.198  1.00  0.00    -0.248 NA
ATOM     44  C   UNL A   1      37.365  31.511  31.858  1.00  0.00     0.031 C 
ATOM     45  C   UNL A   1      41.629  30.388  36.026  1.00  0.00     0.029 A 
ATOM     46  C   UNL A   1      40.908  30.401  34.844  1.00  0.00     0.049 A 
ATOM     47  H   UNL A   1      41.308  29.409  33.025  1.00  0.00     0.167 HD
ATOM     48  C   UNL A   1      39.036  31.060  33.361  1.00  0.00     0.074 A 
ATOM     49  C   UNL A   1      37.799  31.761  33.086  1.00  0.00     0.031 C 
ATOM     50  C   UNL A   1      39.680  31.093  34.551  1.00  0.00     0.031 A 
BRANCH  37  51
ATOM     51  C   UNL A   1      44.872  27.759  34.688  1.00  0.00    -0.014 A 
ATOM     52  C   UNL A   1      46.061  28.503  34.691  1.00  0.00     0.009 A 
ATOM     53  C   UNL A   1      44.794  26.595  35.468  1.00  0.00     0.009 A 
ATOM     54  C   UNL A   1      47.159  28.076  35.442  1.00  0.00     0.001 A 
ATOM     55  C   UNL A   1      45.884  26.183  36.235  1.00  0.00     0.001 A 
ATOM     56  C   UNL A   1      47.068  26.920  36.216  1.00  0.00     0.000 A 
ENDBRANCH  37  51
BRANCH  38  57
ATOM     57  C   UNL A   1      37.130  30.612  29.090  1.00  0.00    -0.014 A 
ATOM     58  C   UNL A   1      36.990  31.934  28.641  1.00  0.00     0.009 A 
ATOM     59  C   UNL A   1      36.125  29.680  28.787  1.00  0.00     0.009 A 
ATOM     60  C   UNL A   1      35.854  32.319  27.925  1.00  0.00     0.001 A 
ATOM     61  C   UNL A   1      35.005  30.062  28.048  1.00  0.00     0.001 A 
ATOM     62  C   UNL A   1      34.864  31.383  27.627  1.00  0.00     0.000 A 
ENDBRANCH  38  57
BRANCH  50  63
ATOM     63  C   UNL A   1      39.076  31.942  35.633  1.00  0.00    -0.014 A 
ATOM     64  C   UNL A   1      39.344  33.318  35.710  1.00  0.00     0.009 A 
ATOM     65  C   UNL A   1      38.203  31.362  36.566  1.00  0.00     0.009 A 
ATOM     66  C   UNL A   1      38.770  34.091  36.722  1.00  0.00     0.001 A 
ATOM     67  C   UNL A   1      37.613  32.142  37.561  1.00  0.00     0.001 A 
ATOM     68  C   UNL A   1      37.903  33.503  37.643  1.00  0.00     0.000 A 
ENDBRANCH  50  63
ENDBRANCH  24  25
ENDBRANCH  17  19
ENDBRANCH  16  17
ENDBRANCH   1  16
TORSDOF 12
ENDMDL
