MODEL 1
REMARK VINA RESULT:     -13.3      0.000      0.000
REMARK SMILES Cc1ccc(C)c(S(=O)(=O)N[C@H](CC2=c3ccccc3=NC2)C(=O)OCCOC(=O)c2ccc(-c3c4nc(c(-c5ccccc5)c5ccc([nH]5)c(-c5ccccc5)c5nc(c(-c6ccccc6)c6ccc3[nH]6)C=C5)C=C4)cc2)c1
REMARK SMILES IDX 26 1 25 2 23 3 24 4 12 5 11 6 8 8 9 9 10 10 7 11 1 12 2 13
REMARK SMILES IDX 3 14 79 15 4 16 5 17 6 18 13 19 14 20 15 21 22 22 16 23
REMARK SMILES IDX 20 24 21 25 17 26 19 27 18 28 27 29 28 30 29 31 30 32 31 33
REMARK SMILES IDX 32 34 78 35 33 36 77 37 34 38 35 39 36 40 71 41 37 42 76 43
REMARK SMILES IDX 70 44 72 45 38 46 75 47 69 48 68 49 39 51 61 52 46 53 60 54
REMARK SMILES IDX 47 55 50 56 59 57 73 58 48 59 49 60 58 62 74 63 51 64 40 65
REMARK SMILES IDX 41 66 45 67 42 68 44 69 43 70 62 71 63 72 67 73 64 74 66 75
REMARK SMILES IDX 65 76 52 77 53 78 57 79 54 80 56 81 55 82
REMARK H PARENT 11 7 72 50 50 61
REMARK Flexibility Score: inf
ROOT
ATOM      1  C   UNL A   1      37.959  22.346  25.634  1.00  0.00     0.274 C 
ENDROOT
BRANCH   1   2
ATOM      2  O   UNL A   1      37.160  21.824  24.564  1.00  0.00    -0.461 OA
BRANCH   2   3
ATOM      3  C   UNL A   1      35.718  22.030  24.682  1.00  0.00     0.324 C 
ATOM      4  O   UNL A   1      35.304  20.928  25.127  1.00  0.00    -0.250 OA
BRANCH   3   5
ATOM      5  C   UNL A   1      34.724  23.940  24.207  1.00  0.00     0.183 C 
BRANCH   5   6
ATOM      6  N   UNL A   1      34.379  24.738  22.767  1.00  0.00    -0.197 NA
ATOM      7  H   UNL A   1      34.806  25.657  22.871  1.00  0.00     0.142 HD
BRANCH   6   8
ATOM      8  S   UNL A   1      32.819  25.046  22.084  1.00  0.00     0.241 S 
ATOM      9  O   UNL A   1      31.991  23.901  22.392  1.00  0.00    -0.207 OA
ATOM     10  O   UNL A   1      33.131  25.382  20.706  1.00  0.00    -0.207 OA
BRANCH   8  11
ATOM     11  C   UNL A   1      31.839  26.492  22.647  1.00  0.00     0.085 A 
ATOM     12  C   UNL A   1      28.273  27.633  23.579  1.00  0.00     0.044 C 
ATOM     13  C   UNL A   1      29.751  27.627  23.295  1.00  0.00    -0.050 A 
ATOM     14  C   UNL A   1      30.408  28.857  23.356  1.00  0.00     0.004 A 
ATOM     15  C   UNL A   1      30.475  26.444  22.975  1.00  0.00     0.025 A 
ATOM     16  C   UNL A   1      31.768  28.918  23.112  1.00  0.00     0.005 A 
ATOM     17  C   UNL A   1      32.500  27.757  22.765  1.00  0.00    -0.031 A 
ATOM     18  C   UNL A   1      33.976  28.011  22.579  1.00  0.00     0.046 C 
ENDBRANCH   8  11
ENDBRANCH   6   8
ENDBRANCH   5   6
BRANCH   5  19
ATOM     19  C   UNL A   1      34.651  25.555  25.199  1.00  0.00     0.065 C 
BRANCH  19  20
ATOM     20  C   UNL A   1      33.544  26.208  26.069  1.00  0.00    -0.037 C 
ATOM     21  C   UNL A   1      33.456  27.460  26.547  1.00  0.00     0.001 A 
ATOM     22  C   UNL A   1      32.229  25.504  26.307  1.00  0.00     0.174 C 
ATOM     23  C   UNL A   1      34.325  28.583  26.713  1.00  0.00     0.010 A 
ATOM     24  C   UNL A   1      31.984  27.642  26.644  1.00  0.00     0.065 A 
ATOM     25  N   UNL A   1      31.237  26.590  26.499  1.00  0.00    -0.280 NA
ATOM     26  C   UNL A   1      33.796  29.804  26.920  1.00  0.00     0.001 A 
ATOM     27  C   UNL A   1      31.480  29.034  26.736  1.00  0.00     0.028 A 
ATOM     28  C   UNL A   1      32.364  30.036  26.861  1.00  0.00     0.002 A 
ENDBRANCH  19  20
ENDBRANCH   5  19
ENDBRANCH   3   5
ENDBRANCH   2   3
ENDBRANCH   1   2
BRANCH   1  29
ATOM     29  C   UNL A   1      39.127  21.405  25.986  1.00  0.00     0.275 C 
BRANCH  29  30
ATOM     30  O   UNL A   1      39.980  21.788  27.109  1.00  0.00    -0.458 OA
BRANCH  30  31
ATOM     31  C   UNL A   1      41.327  21.616  27.207  1.00  0.00     0.338 C 
ATOM     32  O   UNL A   1      41.877  20.574  27.520  1.00  0.00    -0.246 OA
BRANCH  31  33
ATOM     33  C   UNL A   1      42.089  22.864  27.195  1.00  0.00     0.060 A 
ATOM     34  C   UNL A   1      43.086  23.255  28.657  1.00  0.00     0.016 A 
ATOM     35  C   UNL A   1      41.416  24.218  26.211  1.00  0.00     0.016 A 
ATOM     36  C   UNL A   1      43.227  24.998  29.175  1.00  0.00     0.010 A 
ATOM     37  C   UNL A   1      41.678  25.942  26.692  1.00  0.00     0.010 A 
ATOM     38  C   UNL A   1      42.386  26.307  28.280  1.00  0.00    -0.014 A 
BRANCH  38  39
ATOM     39  C   UNL A   1      41.637  27.548  28.941  1.00  0.00     0.031 A 
ATOM     40  C   UNL A   1      42.459  28.677  28.490  1.00  0.00     0.074 A 
ATOM     41  C   UNL A   1      40.448  27.899  29.590  1.00  0.00     0.049 A 
ATOM     42  N   UNL A   1      43.591  28.946  29.045  1.00  0.00    -0.248 NA
ATOM     43  C   UNL A   1      42.278  29.270  27.156  1.00  0.00     0.031 C 
ATOM     44  C   UNL A   1      39.274  27.105  30.015  1.00  0.00     0.029 A 
ATOM     45  N   UNL A   1      40.009  29.178  30.031  1.00  0.00    -0.354 N 
ATOM     46  C   UNL A   1      44.106  29.971  28.292  1.00  0.00     0.074 A 
ATOM     47  C   UNL A   1      43.470  29.859  27.005  1.00  0.00     0.031 C 
ATOM     48  C   UNL A   1      38.237  27.897  30.436  1.00  0.00     0.029 A 
ATOM     49  C   UNL A   1      38.642  29.300  30.456  1.00  0.00     0.049 A 
ATOM     50  H   UNL A   1      40.619  29.950  30.045  1.00  0.00     0.167 HD
ATOM     51  C   UNL A   1      44.671  31.041  28.909  1.00  0.00     0.031 A 
ATOM     52  C   UNL A   1      37.964  30.360  31.054  1.00  0.00     0.031 A 
ATOM     53  C   UNL A   1      44.733  30.825  30.341  1.00  0.00     0.049 A 
ATOM     54  C   UNL A   1      38.990  31.223  31.654  1.00  0.00     0.074 A 
ATOM     55  C   UNL A   1      45.353  29.920  31.179  1.00  0.00     0.029 A 
ATOM     56  N   UNL A   1      43.655  31.325  31.029  1.00  0.00    -0.354 N 
ATOM     57  N   UNL A   1      39.695  30.888  32.688  1.00  0.00    -0.248 NA
ATOM     58  C   UNL A   1      39.515  32.281  30.818  1.00  0.00     0.031 C 
ATOM     59  C   UNL A   1      44.425  29.674  32.234  1.00  0.00     0.029 A 
ATOM     60  C   UNL A   1      43.330  30.524  32.089  1.00  0.00     0.049 A 
ATOM     61  H   UNL A   1      43.176  32.151  30.790  1.00  0.00     0.167 HD
ATOM     62  C   UNL A   1      40.970  31.277  32.327  1.00  0.00     0.074 A 
ATOM     63  C   UNL A   1      40.785  32.217  31.217  1.00  0.00     0.031 C 
ATOM     64  C   UNL A   1      42.040  30.546  32.746  1.00  0.00     0.031 A 
BRANCH  51  65
ATOM     65  C   UNL A   1      44.716  32.417  28.309  1.00  0.00    -0.014 A 
ATOM     66  C   UNL A   1      45.822  32.952  27.620  1.00  0.00     0.009 A 
ATOM     67  C   UNL A   1      43.528  33.160  28.269  1.00  0.00     0.009 A 
ATOM     68  C   UNL A   1      45.770  34.190  26.978  1.00  0.00     0.001 A 
ATOM     69  C   UNL A   1      43.458  34.383  27.593  1.00  0.00     0.001 A 
ATOM     70  C   UNL A   1      44.583  34.904  26.961  1.00  0.00     0.000 A 
ENDBRANCH  51  65
BRANCH  52  71
ATOM     71  C   UNL A   1      36.611  31.054  30.858  1.00  0.00    -0.014 A 
ATOM     72  C   UNL A   1      36.143  31.327  29.566  1.00  0.00     0.009 A 
ATOM     73  C   UNL A   1      35.987  31.806  31.904  1.00  0.00     0.009 A 
ATOM     74  C   UNL A   1      35.169  32.324  29.316  1.00  0.00     0.001 A 
ATOM     75  C   UNL A   1      35.007  32.799  31.655  1.00  0.00     0.001 A 
ATOM     76  C   UNL A   1      34.614  33.072  30.352  1.00  0.00     0.000 A 
ENDBRANCH  52  71
BRANCH  64  77
ATOM     77  C   UNL A   1      41.836  29.559  33.880  1.00  0.00    -0.014 A 
ATOM     78  C   UNL A   1      42.098  30.029  35.176  1.00  0.00     0.009 A 
ATOM     79  C   UNL A   1      41.563  28.187  33.719  1.00  0.00     0.009 A 
ATOM     80  C   UNL A   1      42.151  29.161  36.266  1.00  0.00     0.001 A 
ATOM     81  C   UNL A   1      41.586  27.319  34.820  1.00  0.00     0.001 A 
ATOM     82  C   UNL A   1      41.900  27.804  36.089  1.00  0.00     0.000 A 
ENDBRANCH  64  77
ENDBRANCH  38  39
ENDBRANCH  31  33
ENDBRANCH  30  31
ENDBRANCH  29  30
ENDBRANCH   1  29
TORSDOF 16
ENDMDL
MODEL 2
REMARK VINA RESULT:     -13.0      1.853      3.325
REMARK SMILES Cc1ccc(C)c(S(=O)(=O)N[C@H](CC2=c3ccccc3=NC2)C(=O)OCCOC(=O)c2ccc(-c3c4nc(c(-c5ccccc5)c5ccc([nH]5)c(-c5ccccc5)c5nc(c(-c6ccccc6)c6ccc3[nH]6)C=C5)C=C4)cc2)c1
REMARK SMILES IDX 26 1 25 2 23 3 24 4 12 5 11 6 8 8 9 9 10 10 7 11 1 12 2 13
REMARK SMILES IDX 3 14 79 15 4 16 5 17 6 18 13 19 14 20 15 21 22 22 16 23
REMARK SMILES IDX 20 24 21 25 17 26 19 27 18 28 27 29 28 30 29 31 30 32 31 33
REMARK SMILES IDX 32 34 78 35 33 36 77 37 34 38 35 39 36 40 71 41 37 42 76 43
REMARK SMILES IDX 70 44 72 45 38 46 75 47 69 48 68 49 39 51 61 52 46 53 60 54
REMARK SMILES IDX 47 55 50 56 59 57 73 58 48 59 49 60 58 62 74 63 51 64 40 65
REMARK SMILES IDX 41 66 45 67 42 68 44 69 43 70 62 71 63 72 67 73 64 74 66 75
REMARK SMILES IDX 65 76 52 77 53 78 57 79 54 80 56 81 55 82
REMARK H PARENT 11 7 72 50 50 61
REMARK Flexibility Score: inf
ROOT
ATOM      1  C   UNL A   1      38.054  22.522  25.562  1.00  0.00     0.274 C 
ENDROOT
BRANCH   1   2
ATOM      2  O   UNL A   1      37.196  21.951  24.565  1.00  0.00    -0.461 OA
BRANCH   2   3
ATOM      3  C   UNL A   1      36.345  22.891  23.839  1.00  0.00     0.324 C 
ATOM      4  O   UNL A   1      36.952  23.047  22.747  1.00  0.00    -0.250 OA
BRANCH   3   5
ATOM      5  C   UNL A   1      34.440  23.667  24.636  1.00  0.00     0.183 C 
BRANCH   5   6
ATOM      6  N   UNL A   1      32.868  23.071  24.661  1.00  0.00    -0.197 NA
ATOM      7  H   UNL A   1      32.305  23.837  25.026  1.00  0.00     0.142 HD
BRANCH   6   8
ATOM      8  S   UNL A   1      32.291  21.663  25.486  1.00  0.00     0.241 S 
ATOM      9  O   UNL A   1      30.862  21.824  25.644  1.00  0.00    -0.207 OA
ATOM     10  O   UNL A   1      33.158  21.592  26.648  1.00  0.00    -0.207 OA
BRANCH   8  11
ATOM     11  C   UNL A   1      32.489  20.005  24.725  1.00  0.00     0.085 A 
ATOM     12  C   UNL A   1      33.422  16.341  25.498  1.00  0.00     0.044 C 
ATOM     13  C   UNL A   1      33.032  17.603  24.775  1.00  0.00    -0.050 A 
ATOM     14  C   UNL A   1      32.925  17.522  23.385  1.00  0.00     0.004 A 
ATOM     15  C   UNL A   1      32.780  18.834  25.442  1.00  0.00     0.025 A 
ATOM     16  C   UNL A   1      32.564  18.645  22.663  1.00  0.00     0.005 A 
ATOM     17  C   UNL A   1      32.336  19.885  23.305  1.00  0.00    -0.031 A 
ATOM     18  C   UNL A   1      31.911  20.983  22.361  1.00  0.00     0.046 C 
ENDBRANCH   8  11
ENDBRANCH   6   8
ENDBRANCH   5   6
BRANCH   5  19
ATOM     19  C   UNL A   1      33.838  25.456  24.825  1.00  0.00     0.065 C 
BRANCH  19  20
ATOM     20  C   UNL A   1      33.090  26.201  25.963  1.00  0.00    -0.037 C 
ATOM     21  C   UNL A   1      33.340  27.402  26.509  1.00  0.00     0.001 A 
ATOM     22  C   UNL A   1      31.757  25.705  26.469  1.00  0.00     0.174 C 
ATOM     23  C   UNL A   1      34.413  28.348  26.519  1.00  0.00     0.010 A 
ATOM     24  C   UNL A   1      31.985  27.815  26.959  1.00  0.00     0.065 A 
ATOM     25  N   UNL A   1      31.046  26.917  26.942  1.00  0.00    -0.280 NA
ATOM     26  C   UNL A   1      34.174  29.615  26.906  1.00  0.00     0.001 A 
ATOM     27  C   UNL A   1      31.775  29.257  27.235  1.00  0.00     0.028 A 
ATOM     28  C   UNL A   1      32.831  30.084  27.197  1.00  0.00     0.002 A 
ENDBRANCH  19  20
ENDBRANCH   5  19
ENDBRANCH   3   5
ENDBRANCH   2   3
ENDBRANCH   1   2
BRANCH   1  29
ATOM     29  C   UNL A   1      39.188  21.558  25.960  1.00  0.00     0.275 C 
BRANCH  29  30
ATOM     30  O   UNL A   1      40.383  22.143  26.566  1.00  0.00    -0.458 OA
BRANCH  30  31
ATOM     31  C   UNL A   1      41.650  22.105  26.071  1.00  0.00     0.338 C 
ATOM     32  O   UNL A   1      42.193  21.114  25.614  1.00  0.00    -0.246 OA
BRANCH  31  33
ATOM     33  C   UNL A   1      42.450  23.287  26.392  1.00  0.00     0.060 A 
ATOM     34  C   UNL A   1      43.174  23.388  28.050  1.00  0.00     0.016 A 
ATOM     35  C   UNL A   1      42.023  24.816  25.532  1.00  0.00     0.016 A 
ATOM     36  C   UNL A   1      43.285  25.022  28.855  1.00  0.00     0.010 A 
ATOM     37  C   UNL A   1      42.259  26.426  26.319  1.00  0.00     0.010 A 
ATOM     38  C   UNL A   1      42.675  26.503  28.045  1.00  0.00    -0.014 A 
BRANCH  38  39
ATOM     39  C   UNL A   1      41.867  27.680  28.752  1.00  0.00     0.031 A 
ATOM     40  C   UNL A   1      42.673  28.856  28.408  1.00  0.00     0.074 A 
ATOM     41  C   UNL A   1      40.643  27.958  29.371  1.00  0.00     0.049 A 
ATOM     42  N   UNL A   1      43.774  29.117  29.025  1.00  0.00    -0.248 NA
ATOM     43  C   UNL A   1      42.529  29.529  27.108  1.00  0.00     0.031 C 
ATOM     44  C   UNL A   1      39.476  27.107  29.696  1.00  0.00     0.029 A 
ATOM     45  N   UNL A   1      40.151  29.193  29.875  1.00  0.00    -0.354 N 
ATOM     46  C   UNL A   1      44.290  30.201  28.361  1.00  0.00     0.074 A 
ATOM     47  C   UNL A   1      43.709  30.156  27.044  1.00  0.00     0.031 C 
ATOM     48  C   UNL A   1      38.401  27.844  30.124  1.00  0.00     0.029 A 
ATOM     49  C   UNL A   1      38.766  29.253  30.250  1.00  0.00     0.049 A 
ATOM     50  H   UNL A   1      40.739  29.978  29.963  1.00  0.00     0.167 HD
ATOM     51  C   UNL A   1      44.800  31.242  29.068  1.00  0.00     0.031 A 
ATOM     52  C   UNL A   1      38.035  30.255  30.885  1.00  0.00     0.031 A 
ATOM     53  C   UNL A   1      44.812  30.936  30.484  1.00  0.00     0.049 A 
ATOM     54  C   UNL A   1      39.012  31.103  31.581  1.00  0.00     0.074 A 
ATOM     55  C   UNL A   1      45.423  29.995  31.288  1.00  0.00     0.029 A 
ATOM     56  N   UNL A   1      43.693  31.363  31.158  1.00  0.00    -0.354 N 
ATOM     57  N   UNL A   1      39.684  30.719  32.620  1.00  0.00    -0.248 NA
ATOM     58  C   UNL A   1      39.540  32.225  30.837  1.00  0.00     0.031 C 
ATOM     59  C   UNL A   1      44.461  29.657  32.286  1.00  0.00     0.029 A 
ATOM     60  C   UNL A   1      43.350  30.487  32.150  1.00  0.00     0.049 A 
ATOM     61  H   UNL A   1      43.202  32.191  30.952  1.00  0.00     0.167 HD
ATOM     62  C   UNL A   1      40.962  31.163  32.338  1.00  0.00     0.074 A 
ATOM     63  C   UNL A   1      40.794  32.167  31.283  1.00  0.00     0.031 C 
ATOM     64  C   UNL A   1      42.034  30.433  32.754  1.00  0.00     0.031 A 
BRANCH  51  65
ATOM     65  C   UNL A   1      44.831  32.655  28.559  1.00  0.00    -0.014 A 
ATOM     66  C   UNL A   1      45.970  33.287  28.024  1.00  0.00     0.009 A 
ATOM     67  C   UNL A   1      43.614  33.341  28.439  1.00  0.00     0.009 A 
ATOM     68  C   UNL A   1      45.916  34.560  27.454  1.00  0.00     0.001 A 
ATOM     69  C   UNL A   1      43.547  34.600  27.833  1.00  0.00     0.001 A 
ATOM     70  C   UNL A   1      44.700  35.215  27.355  1.00  0.00     0.000 A 
ENDBRANCH  51  65
BRANCH  52  71
ATOM     71  C   UNL A   1      36.672  30.925  30.678  1.00  0.00    -0.014 A 
ATOM     72  C   UNL A   1      36.303  31.386  29.408  1.00  0.00     0.009 A 
ATOM     73  C   UNL A   1      35.927  31.478  31.768  1.00  0.00     0.009 A 
ATOM     74  C   UNL A   1      35.307  32.377  29.230  1.00  0.00     0.001 A 
ATOM     75  C   UNL A   1      34.925  32.465  31.589  1.00  0.00     0.001 A 
ATOM     76  C   UNL A   1      34.631  32.931  30.316  1.00  0.00     0.000 A 
ENDBRANCH  52  71
BRANCH  64  77
ATOM     77  C   UNL A   1      41.812  29.371  33.813  1.00  0.00    -0.014 A 
ATOM     78  C   UNL A   1      42.030  29.756  35.144  1.00  0.00     0.009 A 
ATOM     79  C   UNL A   1      41.566  28.009  33.553  1.00  0.00     0.009 A 
ATOM     80  C   UNL A   1      42.065  28.819  36.176  1.00  0.00     0.001 A 
ATOM     81  C   UNL A   1      41.571  27.069  34.594  1.00  0.00     0.001 A 
ATOM     82  C   UNL A   1      41.840  27.473  35.901  1.00  0.00     0.000 A 
ENDBRANCH  64  77
ENDBRANCH  38  39
ENDBRANCH  31  33
ENDBRANCH  30  31
ENDBRANCH  29  30
ENDBRANCH   1  29
TORSDOF 16
ENDMDL
MODEL 3
REMARK VINA RESULT:     -12.6      3.086      8.277
REMARK SMILES Cc1ccc(C)c(S(=O)(=O)N[C@H](CC2=c3ccccc3=NC2)C(=O)OCCOC(=O)c2ccc(-c3c4nc(c(-c5ccccc5)c5ccc([nH]5)c(-c5ccccc5)c5nc(c(-c6ccccc6)c6ccc3[nH]6)C=C5)C=C4)cc2)c1
REMARK SMILES IDX 26 1 25 2 23 3 24 4 12 5 11 6 8 8 9 9 10 10 7 11 1 12 2 13
REMARK SMILES IDX 3 14 79 15 4 16 5 17 6 18 13 19 14 20 15 21 22 22 16 23
REMARK SMILES IDX 20 24 21 25 17 26 19 27 18 28 27 29 28 30 29 31 30 32 31 33
REMARK SMILES IDX 32 34 78 35 33 36 77 37 34 38 35 39 36 40 71 41 37 42 76 43
REMARK SMILES IDX 70 44 72 45 38 46 75 47 69 48 68 49 39 51 61 52 46 53 60 54
REMARK SMILES IDX 47 55 50 56 59 57 73 58 48 59 49 60 58 62 74 63 51 64 40 65
REMARK SMILES IDX 41 66 45 67 42 68 44 69 43 70 62 71 63 72 67 73 64 74 66 75
REMARK SMILES IDX 65 76 52 77 53 78 57 79 54 80 56 81 55 82
REMARK H PARENT 11 7 72 50 50 61
REMARK Flexibility Score: inf
ROOT
ATOM      1  C   UNL A   1      33.731  28.669  25.724  1.00  0.00     0.274 C 
ENDROOT
BRANCH   1   2
ATOM      2  O   UNL A   1      33.413  27.359  26.213  1.00  0.00    -0.461 OA
BRANCH   2   3
ATOM      3  C   UNL A   1      33.255  26.318  25.201  1.00  0.00     0.324 C 
ATOM      4  O   UNL A   1      32.375  26.790  24.435  1.00  0.00    -0.250 OA
BRANCH   3   5
ATOM      5  C   UNL A   1      34.444  24.461  25.175  1.00  0.00     0.183 C 
BRANCH   5   6
ATOM      6  N   UNL A   1      34.109  22.879  24.717  1.00  0.00    -0.197 NA
ATOM      7  H   UNL A   1      33.785  22.950  23.753  1.00  0.00     0.142 HD
BRANCH   6   8
ATOM      8  S   UNL A   1      33.010  21.775  25.474  1.00  0.00     0.241 S 
ATOM      9  O   UNL A   1      31.700  22.385  25.422  1.00  0.00    -0.207 OA
ATOM     10  O   UNL A   1      33.650  21.508  26.749  1.00  0.00    -0.207 OA
BRANCH   8  11
ATOM     11  C   UNL A   1      32.769  20.095  24.776  1.00  0.00     0.085 A 
ATOM     12  C   UNL A   1      33.011  16.337  25.615  1.00  0.00     0.044 C 
ATOM     13  C   UNL A   1      32.806  17.635  24.880  1.00  0.00    -0.050 A 
ATOM     14  C   UNL A   1      32.517  17.546  23.517  1.00  0.00     0.004 A 
ATOM     15  C   UNL A   1      32.895  18.907  25.512  1.00  0.00     0.025 A 
ATOM     16  C   UNL A   1      32.312  18.702  22.787  1.00  0.00     0.005 A 
ATOM     17  C   UNL A   1      32.424  19.977  23.390  1.00  0.00    -0.031 A 
ATOM     18  C   UNL A   1      32.123  21.117  22.448  1.00  0.00     0.046 C 
ENDBRANCH   8  11
ENDBRANCH   6   8
ENDBRANCH   5   6
BRANCH   5  19
ATOM     19  C   UNL A   1      35.857  23.905  26.312  1.00  0.00     0.065 C 
BRANCH  19  20
ATOM     20  C   UNL A   1      37.310  23.433  26.034  1.00  0.00    -0.037 C 
ATOM     21  C   UNL A   1      38.470  23.895  26.528  1.00  0.00     0.001 A 
ATOM     22  C   UNL A   1      37.579  22.152  25.282  1.00  0.00     0.174 C 
ATOM     23  C   UNL A   1      38.923  25.053  27.236  1.00  0.00     0.010 A 
ATOM     24  C   UNL A   1      39.326  22.682  26.468  1.00  0.00     0.065 A 
ATOM     25  N   UNL A   1      38.877  21.661  25.802  1.00  0.00    -0.280 NA
ATOM     26  C   UNL A   1      40.109  25.017  27.872  1.00  0.00     0.001 A 
ATOM     27  C   UNL A   1      40.550  22.676  27.306  1.00  0.00     0.028 A 
ATOM     28  C   UNL A   1      40.890  23.796  27.963  1.00  0.00     0.002 A 
ENDBRANCH  19  20
ENDBRANCH   5  19
ENDBRANCH   3   5
ENDBRANCH   2   3
ENDBRANCH   1   2
BRANCH   1  29
ATOM     29  C   UNL A   1      33.574  29.741  26.818  1.00  0.00     0.275 C 
BRANCH  29  30
ATOM     30  O   UNL A   1      34.711  30.630  27.053  1.00  0.00    -0.458 OA
BRANCH  30  31
ATOM     31  C   UNL A   1      34.793  31.621  27.981  1.00  0.00     0.338 C 
ATOM     32  O   UNL A   1      34.249  32.709  27.892  1.00  0.00    -0.246 OA
BRANCH  31  33
ATOM     33  C   UNL A   1      35.836  31.413  28.985  1.00  0.00     0.060 A 
ATOM     34  C   UNL A   1      37.159  32.647  29.093  1.00  0.00     0.016 A 
ATOM     35  C   UNL A   1      36.199  29.703  29.437  1.00  0.00     0.016 A 
ATOM     36  C   UNL A   1      38.848  32.082  29.489  1.00  0.00     0.010 A 
ATOM     37  C   UNL A   1      37.863  29.204  29.940  1.00  0.00     0.010 A 
ATOM     38  C   UNL A   1      39.213  30.344  29.747  1.00  0.00    -0.014 A 
BRANCH  38  39
ATOM     39  C   UNL A   1      40.504  29.579  29.214  1.00  0.00     0.031 A 
ATOM     40  C   UNL A   1      41.156  29.169  30.462  1.00  0.00     0.074 A 
ATOM     41  C   UNL A   1      41.065  29.048  28.047  1.00  0.00     0.049 A 
ATOM     42  N   UNL A   1      41.832  30.007  31.171  1.00  0.00    -0.248 NA
ATOM     43  C   UNL A   1      40.731  27.961  31.186  1.00  0.00     0.031 C 
ATOM     44  C   UNL A   1      40.615  29.045  26.637  1.00  0.00     0.029 A 
ATOM     45  N   UNL A   1      42.276  28.319  27.883  1.00  0.00    -0.354 N 
ATOM     46  C   UNL A   1      42.179  29.301  32.295  1.00  0.00     0.074 A 
ATOM     47  C   UNL A   1      41.204  28.248  32.405  1.00  0.00     0.031 C 
ATOM     48  C   UNL A   1      41.382  28.225  25.850  1.00  0.00     0.029 A 
ATOM     49  C   UNL A   1      42.502  27.684  26.615  1.00  0.00     0.049 A 
ATOM     50  H   UNL A   1      42.934  28.253  28.613  1.00  0.00     0.167 HD
ATOM     51  C   UNL A   1      43.446  29.387  32.778  1.00  0.00     0.031 A 
ATOM     52  C   UNL A   1      43.622  27.026  26.111  1.00  0.00     0.031 A 
ATOM     53  C   UNL A   1      44.208  30.367  32.031  1.00  0.00     0.049 A 
ATOM     54  C   UNL A   1      44.768  27.492  26.903  1.00  0.00     0.074 A 
ATOM     55  C   UNL A   1      44.121  31.727  31.808  1.00  0.00     0.029 A 
ATOM     56  N   UNL A   1      44.920  29.841  30.980  1.00  0.00    -0.354 N 
ATOM     57  N   UNL A   1      45.249  28.693  26.834  1.00  0.00    -0.248 NA
ATOM     58  C   UNL A   1      45.089  26.726  28.088  1.00  0.00     0.031 C 
ATOM     59  C   UNL A   1      44.517  31.922  30.452  1.00  0.00     0.029 A 
ATOM     60  C   UNL A   1      44.958  30.710  29.925  1.00  0.00     0.049 A 
ATOM     61  H   UNL A   1      45.345  28.953  30.986  1.00  0.00     0.167 HD
ATOM     62  C   UNL A   1      45.443  29.022  28.161  1.00  0.00     0.074 A 
ATOM     63  C   UNL A   1      45.425  27.744  28.879  1.00  0.00     0.031 C 
ATOM     64  C   UNL A   1      45.265  30.310  28.567  1.00  0.00     0.031 A 
BRANCH  51  65
ATOM     65  C   UNL A   1      44.112  28.292  33.562  1.00  0.00    -0.014 A 
ATOM     66  C   UNL A   1      44.095  28.192  34.966  1.00  0.00     0.009 A 
ATOM     67  C   UNL A   1      44.633  27.197  32.857  1.00  0.00     0.009 A 
ATOM     68  C   UNL A   1      44.625  27.091  35.640  1.00  0.00     0.001 A 
ATOM     69  C   UNL A   1      45.129  26.073  33.526  1.00  0.00     0.001 A 
ATOM     70  C   UNL A   1      45.139  26.027  34.917  1.00  0.00     0.000 A 
ENDBRANCH  51  65
BRANCH  52  71
ATOM     71  C   UNL A   1      43.885  25.720  25.353  1.00  0.00    -0.014 A 
ATOM     72  C   UNL A   1      42.874  24.757  25.242  1.00  0.00     0.009 A 
ATOM     73  C   UNL A   1      45.211  25.242  25.106  1.00  0.00     0.009 A 
ATOM     74  C   UNL A   1      43.159  23.398  24.968  1.00  0.00     0.001 A 
ATOM     75  C   UNL A   1      45.497  23.882  24.826  1.00  0.00     0.001 A 
ATOM     76  C   UNL A   1      44.467  22.954  24.779  1.00  0.00     0.000 A 
ENDBRANCH  52  71
BRANCH  64  77
ATOM     77  C   UNL A   1      45.223  31.397  27.510  1.00  0.00    -0.014 A 
ATOM     78  C   UNL A   1      46.388  32.162  27.349  1.00  0.00     0.009 A 
ATOM     79  C   UNL A   1      44.071  31.794  26.804  1.00  0.00     0.009 A 
ATOM     80  C   UNL A   1      46.397  33.316  26.567  1.00  0.00     0.001 A 
ATOM     81  C   UNL A   1      44.088  32.937  25.992  1.00  0.00     0.001 A 
ATOM     82  C   UNL A   1      45.245  33.708  25.890  1.00  0.00     0.000 A 
ENDBRANCH  64  77
ENDBRANCH  38  39
ENDBRANCH  31  33
ENDBRANCH  30  31
ENDBRANCH  29  30
ENDBRANCH   1  29
TORSDOF 16
ENDMDL
