MODEL 1
REMARK VINA RESULT:     -11.0      0.000      0.000
REMARK SMILES O=C(C[C@@H]([NH2+]Cc1cccnc1)C(=O)OCCOC(=O)c1ccc(-c2c3nc(c(-c4ccccc4)c4ccc([nH]4)c(-c4ccccc4)c4nc(c(-c5ccccc5)c5ccc2[nH]5)C=C4)C=C3)cc1)Nc1ccc2ccccc2c1
REMARK SMILES IDX 16 1 15 2 13 3 14 4 4 5 3 6 2 7 1 8 69 9 70 11 71 12 79 13
REMARK SMILES IDX 72 14 78 15 73 16 77 17 74 18 76 19 75 20 5 21 6 24 7 25
REMARK SMILES IDX 8 26 12 27 9 28 11 29 10 30 17 31 18 32 19 33 20 34 21 35
REMARK SMILES IDX 22 36 68 37 23 38 67 39 24 40 25 41 26 42 61 43 27 44 66 45
REMARK SMILES IDX 60 46 62 47 28 48 65 49 59 50 58 51 29 53 51 54 36 55 50 56
REMARK SMILES IDX 37 57 40 58 49 59 63 60 38 61 39 62 48 64 64 65 41 66 30 67
REMARK SMILES IDX 31 68 35 69 32 70 34 71 33 72 52 73 53 74 57 75 54 76 56 77
REMARK SMILES IDX 55 78 42 79 43 80 47 81 44 82 46 83 45 84
REMARK H PARENT 69 10 5 22 5 23 62 52 40 63
REMARK Flexibility Score: inf
ROOT
ATOM      1  C   UNL A   1      35.744  23.827  25.924  1.00  0.00     0.274 C 
ENDROOT
BRANCH   1   2
ATOM      2  O   UNL A   1      35.065  22.565  26.091  1.00  0.00    -0.458 OA
BRANCH   2   3
ATOM      3  C   UNL A   1      34.809  21.877  24.946  1.00  0.00     0.365 C 
ATOM      4  O   UNL A   1      35.510  20.958  24.537  1.00  0.00    -0.245 OA
BRANCH   3   5
ATOM      5  C   UNL A   1      33.521  22.325  24.225  1.00  0.00     0.303 C 
BRANCH   5   6
ATOM      6  C   UNL A   1      33.790  23.129  22.930  1.00  0.00     0.177 C 
BRANCH   6   7
ATOM      7  C   UNL A   1      33.525  24.621  23.110  1.00  0.00     0.231 C 
ATOM      8  O   UNL A   1      33.895  25.455  22.292  1.00  0.00    -0.274 OA
ATOM      9  N   UNL A   1      32.913  24.882  24.321  1.00  0.00    -0.326 N 
ATOM     10  H   UNL A   1      32.578  24.101  24.818  1.00  0.00     0.169 HD
BRANCH   9  11
ATOM     11  C   UNL A   1      32.714  26.132  24.922  1.00  0.00     0.041 A 
ATOM     12  C   UNL A   1      31.515  26.784  24.621  1.00  0.00     0.027 A 
ATOM     13  C   UNL A   1      33.655  26.750  25.743  1.00  0.00     0.034 A 
ATOM     14  C   UNL A   1      31.239  28.038  25.158  1.00  0.00     0.011 A 
ATOM     15  C   UNL A   1      33.432  28.063  26.205  1.00  0.00    -0.016 A 
ATOM     16  C   UNL A   1      32.199  28.702  25.926  1.00  0.00    -0.018 A 
ATOM     17  C   UNL A   1      34.415  28.776  26.909  1.00  0.00     0.009 A 
ATOM     18  C   UNL A   1      31.966  30.004  26.389  1.00  0.00     0.009 A 
ATOM     19  C   UNL A   1      34.185  30.091  27.326  1.00  0.00     0.001 A 
ATOM     20  C   UNL A   1      32.959  30.700  27.076  1.00  0.00     0.001 A 
ENDBRANCH   9  11
ENDBRANCH   6   7
ENDBRANCH   5   6
BRANCH   5  21
ATOM     21  N   UNL A   1      32.539  21.221  23.971  1.00  0.00    -0.330 N 
ATOM     22  H   UNL A   1      32.883  20.697  23.166  1.00  0.00     0.347 HD
ATOM     23  H   UNL A   1      31.651  21.711  23.859  1.00  0.00     0.347 HD
BRANCH  21  24
ATOM     24  C   UNL A   1      32.262  20.244  25.031  1.00  0.00     0.299 C 
BRANCH  24  25
ATOM     25  C   UNL A   1      32.624  18.806  24.745  1.00  0.00     0.024 A 
ATOM     26  C   UNL A   1      32.716  17.787  25.695  1.00  0.00     0.013 A 
ATOM     27  C   UNL A   1      32.929  18.452  23.429  1.00  0.00     0.120 A 
ATOM     28  C   UNL A   1      33.091  16.498  25.311  1.00  0.00     0.021 A 
ATOM     29  N   UNL A   1      33.286  17.211  23.023  1.00  0.00    -0.264 NA
ATOM     30  C   UNL A   1      33.365  16.262  23.976  1.00  0.00     0.111 A 
ENDBRANCH  24  25
ENDBRANCH  21  24
ENDBRANCH   5  21
ENDBRANCH   3   5
ENDBRANCH   2   3
ENDBRANCH   1   2
BRANCH   1  31
ATOM     31  C   UNL A   1      37.222  23.667  25.535  1.00  0.00     0.275 C 
BRANCH  31  32
ATOM     32  O   UNL A   1      37.939  22.767  26.405  1.00  0.00    -0.458 OA
BRANCH  32  33
ATOM     33  C   UNL A   1      39.285  22.886  26.366  1.00  0.00     0.338 C 
ATOM     34  O   UNL A   1      40.071  22.135  25.804  1.00  0.00    -0.246 OA
BRANCH  33  35
ATOM     35  C   UNL A   1      39.705  24.183  26.924  1.00  0.00     0.060 A 
ATOM     36  C   UNL A   1      39.336  24.445  28.243  1.00  0.00     0.016 A 
ATOM     37  C   UNL A   1      40.376  25.154  26.180  1.00  0.00     0.016 A 
ATOM     38  C   UNL A   1      39.648  25.654  28.845  1.00  0.00     0.010 A 
ATOM     39  C   UNL A   1      40.684  26.384  26.782  1.00  0.00     0.010 A 
ATOM     40  C   UNL A   1      40.329  26.634  28.119  1.00  0.00    -0.014 A 
BRANCH  40  41
ATOM     41  C   UNL A   1      40.636  27.915  28.792  1.00  0.00     0.031 A 
ATOM     42  C   UNL A   1      42.004  28.162  29.354  1.00  0.00     0.074 A 
ATOM     43  C   UNL A   1      39.711  28.892  28.808  1.00  0.00     0.049 A 
ATOM     44  N   UNL A   1      42.445  29.201  30.016  1.00  0.00    -0.248 NA
ATOM     45  C   UNL A   1      43.011  27.115  29.123  1.00  0.00     0.031 C 
ATOM     46  C   UNL A   1      38.387  28.815  28.189  1.00  0.00     0.029 A 
ATOM     47  N   UNL A   1      39.754  30.148  29.358  1.00  0.00    -0.354 N 
ATOM     48  C   UNL A   1      43.778  28.929  30.292  1.00  0.00     0.074 A 
ATOM     49  C   UNL A   1      44.072  27.627  29.730  1.00  0.00     0.031 C 
ATOM     50  C   UNL A   1      37.739  29.972  28.400  1.00  0.00     0.029 A 
ATOM     51  C   UNL A   1      38.581  30.847  29.213  1.00  0.00     0.049 A 
ATOM     52  H   UNL A   1      40.547  30.513  29.811  1.00  0.00     0.167 HD
ATOM     53  C   UNL A   1      44.673  29.697  30.959  1.00  0.00     0.031 A 
ATOM     54  C   UNL A   1      38.210  32.037  29.719  1.00  0.00     0.031 A 
ATOM     55  C   UNL A   1      44.375  30.983  31.530  1.00  0.00     0.049 A 
ATOM     56  C   UNL A   1      39.173  32.798  30.586  1.00  0.00     0.074 A 
ATOM     57  C   UNL A   1      45.211  31.828  32.240  1.00  0.00     0.029 A 
ATOM     58  N   UNL A   1      43.140  31.608  31.462  1.00  0.00    -0.354 N 
ATOM     59  N   UNL A   1      40.420  32.518  30.877  1.00  0.00    -0.248 NA
ATOM     60  C   UNL A   1      38.669  34.030  31.211  1.00  0.00     0.031 C 
ATOM     61  C   UNL A   1      44.465  32.939  32.649  1.00  0.00     0.029 A 
ATOM     62  C   UNL A   1      43.178  32.808  32.151  1.00  0.00     0.049 A 
ATOM     63  H   UNL A   1      42.351  31.250  30.993  1.00  0.00     0.167 HD
ATOM     64  C   UNL A   1      40.852  33.539  31.712  1.00  0.00     0.074 A 
ATOM     65  C   UNL A   1      39.741  34.457  31.864  1.00  0.00     0.031 C 
ATOM     66  C   UNL A   1      42.060  33.700  32.306  1.00  0.00     0.031 A 
BRANCH  53  67
ATOM     67  C   UNL A   1      46.047  29.130  31.161  1.00  0.00    -0.014 A 
ATOM     68  C   UNL A   1      46.361  28.357  32.288  1.00  0.00     0.009 A 
ATOM     69  C   UNL A   1      47.034  29.352  30.187  1.00  0.00     0.009 A 
ATOM     70  C   UNL A   1      47.648  27.838  32.449  1.00  0.00     0.001 A 
ATOM     71  C   UNL A   1      48.312  28.815  30.341  1.00  0.00     0.001 A 
ATOM     72  C   UNL A   1      48.621  28.065  31.475  1.00  0.00     0.000 A 
ENDBRANCH  53  67
BRANCH  54  73
ATOM     73  C   UNL A   1      36.835  32.547  29.488  1.00  0.00    -0.014 A 
ATOM     74  C   UNL A   1      35.804  32.272  30.398  1.00  0.00     0.009 A 
ATOM     75  C   UNL A   1      36.545  33.297  28.336  1.00  0.00     0.009 A 
ATOM     76  C   UNL A   1      34.506  32.725  30.150  1.00  0.00     0.001 A 
ATOM     77  C   UNL A   1      35.253  33.770  28.105  1.00  0.00     0.001 A 
ATOM     78  C   UNL A   1      34.233  33.477  29.008  1.00  0.00     0.000 A 
ENDBRANCH  54  73
BRANCH  66  79
ATOM     79  C   UNL A   1      42.240  34.915  33.167  1.00  0.00    -0.014 A 
ATOM     80  C   UNL A   1      42.975  36.020  32.710  1.00  0.00     0.009 A 
ATOM     81  C   UNL A   1      41.639  34.971  34.435  1.00  0.00     0.009 A 
ATOM     82  C   UNL A   1      43.125  37.149  33.518  1.00  0.00     0.001 A 
ATOM     83  C   UNL A   1      41.772  36.111  35.229  1.00  0.00     0.001 A 
ATOM     84  C   UNL A   1      42.521  37.195  34.774  1.00  0.00     0.000 A 
ENDBRANCH  66  79
ENDBRANCH  40  41
ENDBRANCH  33  35
ENDBRANCH  32  33
ENDBRANCH  31  32
ENDBRANCH   1  31
TORSDOF 17
ENDMDL
MODEL 2
REMARK VINA RESULT:     -11.0      2.951      8.666
REMARK SMILES O=C(C[C@@H]([NH2+]Cc1cccnc1)C(=O)OCCOC(=O)c1ccc(-c2c3nc(c(-c4ccccc4)c4ccc([nH]4)c(-c4ccccc4)c4nc(c(-c5ccccc5)c5ccc2[nH]5)C=C4)C=C3)cc1)Nc1ccc2ccccc2c1
REMARK SMILES IDX 16 1 15 2 13 3 14 4 4 5 3 6 2 7 1 8 69 9 70 11 71 12 79 13
REMARK SMILES IDX 72 14 78 15 73 16 77 17 74 18 76 19 75 20 5 21 6 24 7 25
REMARK SMILES IDX 8 26 12 27 9 28 11 29 10 30 17 31 18 32 19 33 20 34 21 35
REMARK SMILES IDX 22 36 68 37 23 38 67 39 24 40 25 41 26 42 61 43 27 44 66 45
REMARK SMILES IDX 60 46 62 47 28 48 65 49 59 50 58 51 29 53 51 54 36 55 50 56
REMARK SMILES IDX 37 57 40 58 49 59 63 60 38 61 39 62 48 64 64 65 41 66 30 67
REMARK SMILES IDX 31 68 35 69 32 70 34 71 33 72 52 73 53 74 57 75 54 76 56 77
REMARK SMILES IDX 55 78 42 79 43 80 47 81 44 82 46 83 45 84
REMARK H PARENT 69 10 5 22 5 23 62 52 40 63
REMARK Flexibility Score: inf
ROOT
ATOM      1  C   UNL A   1      32.000  28.617  27.279  1.00  0.00     0.274 C 
ENDROOT
BRANCH   1   2
ATOM      2  O   UNL A   1      32.387  27.554  26.383  1.00  0.00    -0.458 OA
BRANCH   2   3
ATOM      3  C   UNL A   1      31.527  27.303  25.360  1.00  0.00     0.365 C 
ATOM      4  O   UNL A   1      30.513  26.622  25.480  1.00  0.00    -0.245 OA
BRANCH   3   5
ATOM      5  C   UNL A   1      31.913  27.994  24.037  1.00  0.00     0.303 C 
BRANCH   5   6
ATOM      6  C   UNL A   1      31.869  27.047  22.814  1.00  0.00     0.177 C 
BRANCH   6   7
ATOM      7  C   UNL A   1      33.106  26.158  22.724  1.00  0.00     0.231 C 
ATOM      8  O   UNL A   1      33.754  26.039  21.692  1.00  0.00    -0.274 OA
ATOM      9  N   UNL A   1      33.319  25.471  23.905  1.00  0.00    -0.326 N 
ATOM     10  H   UNL A   1      32.781  25.757  24.679  1.00  0.00     0.169 HD
BRANCH   9  11
ATOM     11  C   UNL A   1      34.213  24.417  24.126  1.00  0.00     0.041 A 
ATOM     12  C   UNL A   1      33.742  23.130  23.847  1.00  0.00     0.027 A 
ATOM     13  C   UNL A   1      35.497  24.590  24.640  1.00  0.00     0.034 A 
ATOM     14  C   UNL A   1      34.556  22.020  24.053  1.00  0.00     0.011 A 
ATOM     15  C   UNL A   1      36.288  23.467  24.953  1.00  0.00    -0.016 A 
ATOM     16  C   UNL A   1      35.818  22.170  24.634  1.00  0.00    -0.018 A 
ATOM     17  C   UNL A   1      37.523  23.591  25.609  1.00  0.00     0.009 A 
ATOM     18  C   UNL A   1      36.602  21.048  24.933  1.00  0.00     0.009 A 
ATOM     19  C   UNL A   1      38.275  22.460  25.942  1.00  0.00     0.001 A 
ATOM     20  C   UNL A   1      37.821  21.191  25.594  1.00  0.00     0.001 A 
ENDBRANCH   9  11
ENDBRANCH   6   7
ENDBRANCH   5   6
BRANCH   5  21
ATOM     21  N   UNL A   1      31.160  29.260  23.757  1.00  0.00    -0.330 N 
ATOM     22  H   UNL A   1      31.683  29.765  23.042  1.00  0.00     0.347 HD
ATOM     23  H   UNL A   1      31.085  29.701  24.674  1.00  0.00     0.347 HD
BRANCH  21  24
ATOM     24  C   UNL A   1      29.768  29.185  23.296  1.00  0.00     0.299 C 
BRANCH  24  25
ATOM     25  C   UNL A   1      29.167  30.453  22.738  1.00  0.00     0.024 A 
ATOM     26  C   UNL A   1      28.987  31.646  23.442  1.00  0.00     0.013 A 
ATOM     27  C   UNL A   1      28.714  30.443  21.417  1.00  0.00     0.120 A 
ATOM     28  C   UNL A   1      28.390  32.745  22.822  1.00  0.00     0.021 A 
ATOM     29  N   UNL A   1      28.139  31.493  20.786  1.00  0.00    -0.264 NA
ATOM     30  C   UNL A   1      27.984  32.621  21.506  1.00  0.00     0.111 A 
ENDBRANCH  24  25
ENDBRANCH  21  24
ENDBRANCH   5  21
ENDBRANCH   3   5
ENDBRANCH   2   3
ENDBRANCH   1   2
BRANCH   1  31
ATOM     31  C   UNL A   1      32.696  29.950  26.965  1.00  0.00     0.275 C 
BRANCH  31  32
ATOM     32  O   UNL A   1      34.133  29.871  27.062  1.00  0.00    -0.458 OA
BRANCH  32  33
ATOM     33  C   UNL A   1      34.693  30.723  27.952  1.00  0.00     0.338 C 
ATOM     34  O   UNL A   1      34.150  31.674  28.497  1.00  0.00    -0.246 OA
BRANCH  33  35
ATOM     35  C   UNL A   1      36.022  30.239  28.363  1.00  0.00     0.060 A 
ATOM     36  C   UNL A   1      37.023  30.255  27.391  1.00  0.00     0.016 A 
ATOM     37  C   UNL A   1      36.286  29.715  29.629  1.00  0.00     0.016 A 
ATOM     38  C   UNL A   1      38.295  29.782  27.669  1.00  0.00     0.010 A 
ATOM     39  C   UNL A   1      37.571  29.225  29.911  1.00  0.00     0.010 A 
ATOM     40  C   UNL A   1      38.581  29.265  28.934  1.00  0.00    -0.014 A 
BRANCH  40  41
ATOM     41  C   UNL A   1      39.948  28.761  29.190  1.00  0.00     0.031 A 
ATOM     42  C   UNL A   1      40.940  29.611  29.925  1.00  0.00     0.074 A 
ATOM     43  C   UNL A   1      40.262  27.498  28.847  1.00  0.00     0.049 A 
ATOM     44  N   UNL A   1      42.194  29.358  30.202  1.00  0.00    -0.248 NA
ATOM     45  C   UNL A   1      40.454  30.902  30.433  1.00  0.00     0.031 C 
ATOM     46  C   UNL A   1      39.346  26.533  28.236  1.00  0.00     0.029 A 
ATOM     47  N   UNL A   1      41.440  26.808  28.977  1.00  0.00    -0.354 N 
ATOM     48  C   UNL A   1      42.651  30.463  30.906  1.00  0.00     0.074 A 
ATOM     49  C   UNL A   1      41.543  31.390  31.010  1.00  0.00     0.031 C 
ATOM     50  C   UNL A   1      39.999  25.377  28.037  1.00  0.00     0.029 A 
ATOM     51  C   UNL A   1      41.389  25.538  28.456  1.00  0.00     0.049 A 
ATOM     52  H   UNL A   1      42.243  27.184  29.403  1.00  0.00     0.167 HD
ATOM     53  C   UNL A   1      43.887  30.686  31.414  1.00  0.00     0.031 A 
ATOM     54  C   UNL A   1      42.364  24.626  28.291  1.00  0.00     0.031 A 
ATOM     55  C   UNL A   1      44.991  29.771  31.296  1.00  0.00     0.049 A 
ATOM     56  C   UNL A   1      43.763  24.961  28.726  1.00  0.00     0.074 A 
ATOM     57  C   UNL A   1      46.286  29.916  31.762  1.00  0.00     0.029 A 
ATOM     58  N   UNL A   1      44.931  28.542  30.658  1.00  0.00    -0.354 N 
ATOM     59  N   UNL A   1      44.199  26.025  29.356  1.00  0.00    -0.248 NA
ATOM     60  C   UNL A   1      44.808  23.977  28.408  1.00  0.00     0.031 C 
ATOM     61  C   UNL A   1      47.025  28.797  31.358  1.00  0.00     0.029 A 
ATOM     62  C   UNL A   1      46.175  27.935  30.683  1.00  0.00     0.049 A 
ATOM     63  H   UNL A   1      44.123  28.157  30.248  1.00  0.00     0.167 HD
ATOM     64  C   UNL A   1      45.565  25.836  29.516  1.00  0.00     0.074 A 
ATOM     65  C   UNL A   1      45.883  24.547  28.936  1.00  0.00     0.031 C 
ATOM     66  C   UNL A   1      46.477  26.661  30.087  1.00  0.00     0.031 A 
BRANCH  53  67
ATOM     67  C   UNL A   1      44.124  32.003  32.091  1.00  0.00    -0.014 A 
ATOM     68  C   UNL A   1      43.934  32.158  33.472  1.00  0.00     0.009 A 
ATOM     69  C   UNL A   1      44.572  33.097  31.335  1.00  0.00     0.009 A 
ATOM     70  C   UNL A   1      44.165  33.396  34.079  1.00  0.00     0.001 A 
ATOM     71  C   UNL A   1      44.821  34.326  31.947  1.00  0.00     0.001 A 
ATOM     72  C   UNL A   1      44.610  34.477  33.318  1.00  0.00     0.000 A 
ENDBRANCH  53  67
BRANCH  54  73
ATOM     73  C   UNL A   1      42.072  23.339  27.611  1.00  0.00    -0.014 A 
ATOM     74  C   UNL A   1      41.541  22.255  28.324  1.00  0.00     0.009 A 
ATOM     75  C   UNL A   1      42.346  23.186  26.243  1.00  0.00     0.009 A 
ATOM     76  C   UNL A   1      41.306  21.037  27.681  1.00  0.00     0.001 A 
ATOM     77  C   UNL A   1      42.086  21.977  25.598  1.00  0.00     0.001 A 
ATOM     78  C   UNL A   1      41.574  20.900  26.319  1.00  0.00     0.000 A 
ENDBRANCH  54  73
BRANCH  66  79
ATOM     79  C   UNL A   1      47.901  26.188  30.115  1.00  0.00    -0.014 A 
ATOM     80  C   UNL A   1      48.454  25.636  31.281  1.00  0.00     0.009 A 
ATOM     81  C   UNL A   1      48.687  26.262  28.954  1.00  0.00     0.009 A 
ATOM     82  C   UNL A   1      49.777  25.189  31.289  1.00  0.00     0.001 A 
ATOM     83  C   UNL A   1      50.002  25.792  28.961  1.00  0.00     0.001 A 
ATOM     84  C   UNL A   1      50.547  25.264  30.130  1.00  0.00     0.000 A 
ENDBRANCH  66  79
ENDBRANCH  40  41
ENDBRANCH  33  35
ENDBRANCH  32  33
ENDBRANCH  31  32
ENDBRANCH   1  31
TORSDOF 17
ENDMDL
MODEL 3
REMARK VINA RESULT:     -11.0      2.810      6.219
REMARK SMILES O=C(C[C@@H]([NH2+]Cc1cccnc1)C(=O)OCCOC(=O)c1ccc(-c2c3nc(c(-c4ccccc4)c4ccc([nH]4)c(-c4ccccc4)c4nc(c(-c5ccccc5)c5ccc2[nH]5)C=C4)C=C3)cc1)Nc1ccc2ccccc2c1
REMARK SMILES IDX 16 1 15 2 13 3 14 4 4 5 3 6 2 7 1 8 69 9 70 11 71 12 79 13
REMARK SMILES IDX 72 14 78 15 73 16 77 17 74 18 76 19 75 20 5 21 6 24 7 25
REMARK SMILES IDX 8 26 12 27 9 28 11 29 10 30 17 31 18 32 19 33 20 34 21 35
REMARK SMILES IDX 22 36 68 37 23 38 67 39 24 40 25 41 26 42 61 43 27 44 66 45
REMARK SMILES IDX 60 46 62 47 28 48 65 49 59 50 58 51 29 53 51 54 36 55 50 56
REMARK SMILES IDX 37 57 40 58 49 59 63 60 38 61 39 62 48 64 64 65 41 66 30 67
REMARK SMILES IDX 31 68 35 69 32 70 34 71 33 72 52 73 53 74 57 75 54 76 56 77
REMARK SMILES IDX 55 78 42 79 43 80 47 81 44 82 46 83 45 84
REMARK H PARENT 69 10 5 22 5 23 62 52 40 63
REMARK Flexibility Score: inf
ROOT
ATOM      1  C   UNL A   1      35.379  22.969  24.361  1.00  0.00     0.274 C 
ENDROOT
BRANCH   1   2
ATOM      2  O   UNL A   1      35.030  23.135  22.971  1.00  0.00    -0.458 OA
BRANCH   2   3
ATOM      3  C   UNL A   1      33.737  23.474  22.724  1.00  0.00     0.365 C 
ATOM      4  O   UNL A   1      33.383  24.133  21.751  1.00  0.00    -0.245 OA
BRANCH   3   5
ATOM      5  C   UNL A   1      32.736  22.914  23.755  1.00  0.00     0.303 C 
BRANCH   5   6
ATOM      6  C   UNL A   1      31.504  23.824  23.974  1.00  0.00     0.177 C 
BRANCH   6   7
ATOM      7  C   UNL A   1      31.707  24.809  25.121  1.00  0.00     0.231 C 
ATOM      8  O   UNL A   1      31.220  24.631  26.231  1.00  0.00    -0.274 OA
ATOM      9  N   UNL A   1      32.414  25.923  24.710  1.00  0.00    -0.326 N 
ATOM     10  H   UNL A   1      32.833  25.869  23.820  1.00  0.00     0.169 HD
BRANCH   9  11
ATOM     11  C   UNL A   1      32.603  27.118  25.414  1.00  0.00     0.041 A 
ATOM     12  C   UNL A   1      31.557  28.044  25.364  1.00  0.00     0.027 A 
ATOM     13  C   UNL A   1      33.774  27.430  26.102  1.00  0.00     0.034 A 
ATOM     14  C   UNL A   1      31.663  29.267  26.020  1.00  0.00     0.011 A 
ATOM     15  C   UNL A   1      33.935  28.706  26.678  1.00  0.00    -0.016 A 
ATOM     16  C   UNL A   1      32.856  29.624  26.654  1.00  0.00    -0.018 A 
ATOM     17  C   UNL A   1      35.151  29.113  27.249  1.00  0.00     0.009 A 
ATOM     18  C   UNL A   1      33.004  30.892  27.233  1.00  0.00     0.009 A 
ATOM     19  C   UNL A   1      35.298  30.397  27.782  1.00  0.00     0.001 A 
ATOM     20  C   UNL A   1      34.223  31.281  27.785  1.00  0.00     0.001 A 
ENDBRANCH   9  11
ENDBRANCH   6   7
ENDBRANCH   5   6
BRANCH   5  21
ATOM     21  N   UNL A   1      32.314  21.498  23.501  1.00  0.00    -0.330 N 
ATOM     22  H   UNL A   1      32.835  21.175  22.685  1.00  0.00     0.347 HD
ATOM     23  H   UNL A   1      31.301  21.563  23.406  1.00  0.00     0.347 HD
BRANCH  21  24
ATOM     24  C   UNL A   1      32.497  20.490  24.552  1.00  0.00     0.299 C 
BRANCH  24  25
ATOM     25  C   UNL A   1      33.079  19.162  24.129  1.00  0.00     0.024 A 
ATOM     26  C   UNL A   1      34.172  18.527  24.723  1.00  0.00     0.013 A 
ATOM     27  C   UNL A   1      32.510  18.512  23.033  1.00  0.00     0.120 A 
ATOM     28  C   UNL A   1      34.637  17.311  24.222  1.00  0.00     0.021 A 
ATOM     29  N   UNL A   1      32.931  17.328  22.529  1.00  0.00    -0.264 NA
ATOM     30  C   UNL A   1      33.991  16.756  23.132  1.00  0.00     0.111 A 
ENDBRANCH  24  25
ENDBRANCH  21  24
ENDBRANCH   5  21
ENDBRANCH   3   5
ENDBRANCH   2   3
ENDBRANCH   1   2
BRANCH   1  31
ATOM     31  C   UNL A   1      36.195  21.696  24.628  1.00  0.00     0.275 C 
BRANCH  31  32
ATOM     32  O   UNL A   1      36.866  21.715  25.905  1.00  0.00    -0.458 OA
BRANCH  32  33
ATOM     33  C   UNL A   1      38.187  21.425  25.861  1.00  0.00     0.338 C 
ATOM     34  O   UNL A   1      38.702  20.437  25.355  1.00  0.00    -0.246 OA
BRANCH  33  35
ATOM     35  C   UNL A   1      38.983  22.573  26.325  1.00  0.00     0.060 A 
ATOM     36  C   UNL A   1      38.601  23.831  25.858  1.00  0.00     0.016 A 
ATOM     37  C   UNL A   1      40.112  22.442  27.134  1.00  0.00     0.016 A 
ATOM     38  C   UNL A   1      39.312  24.968  26.206  1.00  0.00     0.010 A 
ATOM     39  C   UNL A   1      40.842  23.591  27.479  1.00  0.00     0.010 A 
ATOM     40  C   UNL A   1      40.438  24.858  27.023  1.00  0.00    -0.014 A 
BRANCH  40  41
ATOM     41  C   UNL A   1      41.178  26.093  27.365  1.00  0.00     0.031 A 
ATOM     42  C   UNL A   1      40.570  27.103  28.291  1.00  0.00     0.074 A 
ATOM     43  C   UNL A   1      42.437  26.255  26.919  1.00  0.00     0.049 A 
ATOM     44  N   UNL A   1      41.046  28.261  28.669  1.00  0.00    -0.248 NA
ATOM     45  C   UNL A   1      39.271  26.756  28.885  1.00  0.00     0.031 C 
ATOM     46  C   UNL A   1      43.180  25.287  26.110  1.00  0.00     0.029 A 
ATOM     47  N   UNL A   1      43.316  27.292  27.096  1.00  0.00    -0.354 N 
ATOM     48  C   UNL A   1      40.099  28.789  29.537  1.00  0.00     0.074 A 
ATOM     49  C   UNL A   1      39.021  27.826  29.626  1.00  0.00     0.031 C 
ATOM     50  C   UNL A   1      44.403  25.780  25.854  1.00  0.00     0.029 A 
ATOM     51  C   UNL A   1      44.507  27.116  26.434  1.00  0.00     0.049 A 
ATOM     52  H   UNL A   1      43.115  28.084  27.643  1.00  0.00     0.167 HD
ATOM     53  C   UNL A   1      40.127  29.973  30.194  1.00  0.00     0.031 A 
ATOM     54  C   UNL A   1      45.544  27.958  26.273  1.00  0.00     0.031 A 
ATOM     55  C   UNL A   1      41.192  30.934  30.094  1.00  0.00     0.049 A 
ATOM     56  C   UNL A   1      45.480  29.328  26.888  1.00  0.00     0.074 A 
ATOM     57  C   UNL A   1      41.301  32.170  30.708  1.00  0.00     0.029 A 
ATOM     58  N   UNL A   1      42.330  30.771  29.320  1.00  0.00    -0.354 N 
ATOM     59  N   UNL A   1      44.564  29.837  27.676  1.00  0.00    -0.248 NA
ATOM     60  C   UNL A   1      46.585  30.246  26.576  1.00  0.00     0.031 C 
ATOM     61  C   UNL A   1      42.481  32.777  30.262  1.00  0.00     0.029 A 
ATOM     62  C   UNL A   1      43.128  31.898  29.409  1.00  0.00     0.049 A 
ATOM     63  H   UNL A   1      42.540  29.970  28.786  1.00  0.00     0.167 HD
ATOM     64  C   UNL A   1      44.984  31.130  27.957  1.00  0.00     0.074 A 
ATOM     65  C   UNL A   1      46.247  31.320  27.275  1.00  0.00     0.031 C 
ATOM     66  C   UNL A   1      44.374  32.078  28.710  1.00  0.00     0.031 A 
BRANCH  53  67
ATOM     67  C   UNL A   1      38.934  30.318  31.036  1.00  0.00    -0.014 A 
ATOM     68  C   UNL A   1      38.938  30.123  32.425  1.00  0.00     0.009 A 
ATOM     69  C   UNL A   1      37.798  30.875  30.427  1.00  0.00     0.009 A 
ATOM     70  C   UNL A   1      37.815  30.456  33.186  1.00  0.00     0.001 A 
ATOM     71  C   UNL A   1      36.686  31.226  31.192  1.00  0.00     0.001 A 
ATOM     72  C   UNL A   1      36.691  31.009  32.570  1.00  0.00     0.000 A 
ENDBRANCH  53  67
BRANCH  54  73
ATOM     73  C   UNL A   1      46.699  27.563  25.427  1.00  0.00    -0.014 A 
ATOM     74  C   UNL A   1      46.709  27.839  24.053  1.00  0.00     0.009 A 
ATOM     75  C   UNL A   1      47.788  26.882  25.994  1.00  0.00     0.009 A 
ATOM     76  C   UNL A   1      47.784  27.428  23.260  1.00  0.00     0.001 A 
ATOM     77  C   UNL A   1      48.872  26.496  25.204  1.00  0.00     0.001 A 
ATOM     78  C   UNL A   1      48.865  26.762  23.836  1.00  0.00     0.000 A 
ENDBRANCH  54  73
BRANCH  66  79
ATOM     79  C   UNL A   1      45.070  33.401  28.837  1.00  0.00    -0.014 A 
ATOM     80  C   UNL A   1      45.988  33.636  29.871  1.00  0.00     0.009 A 
ATOM     81  C   UNL A   1      44.831  34.411  27.891  1.00  0.00     0.009 A 
ATOM     82  C   UNL A   1      46.638  34.868  29.970  1.00  0.00     0.001 A 
ATOM     83  C   UNL A   1      45.501  35.633  27.980  1.00  0.00     0.001 A 
ATOM     84  C   UNL A   1      46.396  35.863  29.023  1.00  0.00     0.000 A 
ENDBRANCH  66  79
ENDBRANCH  40  41
ENDBRANCH  33  35
ENDBRANCH  32  33
ENDBRANCH  31  32
ENDBRANCH   1  31
TORSDOF 17
ENDMDL
