MODEL 1
REMARK VINA RESULT:     -10.2      0.000      0.000
REMARK SMILES CC(=O)Nc1c(C)nn([C@H](C)C(=O)OCCOC(=O)c2ccc(-c3c4nc(c(-c5ccccc5)c5ccc([nH]5)c(-c5ccccc5)c5nc(c(-c6ccccc6)c6ccc3[nH]6)C=C5)C=C4)cc2)c1C
REMARK SMILES IDX 15 1 14 2 12 3 13 4 10 5 11 6 9 7 5 8 6 9 68 10 7 11 8 12
REMARK SMILES IDX 69 13 4 14 1 15 2 16 3 17 16 19 17 20 18 21 19 22 20 23
REMARK SMILES IDX 21 24 67 25 22 26 66 27 23 28 24 29 25 30 60 31 26 32 65 33
REMARK SMILES IDX 59 34 61 35 27 36 64 37 58 38 57 39 28 41 50 42 35 43 49 44
REMARK SMILES IDX 36 45 39 46 48 47 62 48 37 49 38 50 47 52 63 53 40 54 29 55
REMARK SMILES IDX 30 56 34 57 31 58 33 59 32 60 51 61 52 62 56 63 53 64 55 65
REMARK SMILES IDX 54 66 41 67 42 68 46 69 43 70 45 71 44 72
REMARK H PARENT 4 18 61 40 39 51
REMARK Flexibility Score: inf
ROOT
ATOM      1  C   UNL A   1      37.257  20.447  24.970  1.00  0.00     0.274 C 
ENDROOT
BRANCH   1   2
ATOM      2  O   UNL A   1      37.413  21.698  24.276  1.00  0.00    -0.460 OA
BRANCH   2   3
ATOM      3  C   UNL A   1      37.200  22.838  24.997  1.00  0.00     0.330 C 
ATOM      4  O   UNL A   1      37.782  23.127  26.040  1.00  0.00    -0.250 OA
BRANCH   3   5
ATOM      5  C   UNL A   1      36.070  23.659  24.437  1.00  0.00     0.214 C 
ATOM      6  C   UNL A   1      35.683  23.172  23.036  1.00  0.00     0.046 C 
BRANCH   5   7
ATOM      7  N   UNL A   1      34.987  23.739  25.416  1.00  0.00    -0.253 N 
ATOM      8  C   UNL A   1      33.062  24.173  26.388  1.00  0.00     0.085 A 
ATOM      9  C   UNL A   1      33.676  23.015  26.923  1.00  0.00     0.083 A 
ATOM     10  C   UNL A   1      33.993  24.697  25.514  1.00  0.00     0.060 A 
ATOM     11  C   UNL A   1      33.189  22.096  27.978  1.00  0.00     0.071 C 
ATOM     12  N   UNL A   1      34.823  22.735  26.299  1.00  0.00    -0.175 NA
ATOM     13  C   UNL A   1      34.064  26.045  24.881  1.00  0.00     0.069 C 
BRANCH   8  14
ATOM     14  N   UNL A   1      31.864  24.744  26.770  1.00  0.00    -0.323 N 
ATOM     15  C   UNL A   1      30.582  24.284  24.686  1.00  0.00     0.114 C 
ATOM     16  C   UNL A   1      30.774  25.023  25.992  1.00  0.00     0.221 C 
ATOM     17  O   UNL A   1      29.915  25.805  26.405  1.00  0.00    -0.275 OA
ATOM     18  H   UNL A   1      31.784  24.979  27.723  1.00  0.00     0.170 HD
ENDBRANCH   8  14
ENDBRANCH   5   7
ENDBRANCH   3   5
ENDBRANCH   2   3
ENDBRANCH   1   2
BRANCH   1  19
ATOM     19  C   UNL A   1      38.562  19.670  25.052  1.00  0.00     0.275 C 
BRANCH  19  20
ATOM     20  O   UNL A   1      39.428  20.251  26.022  1.00  0.00    -0.458 OA
BRANCH  20  21
ATOM     21  C   UNL A   1      40.716  19.845  25.969  1.00  0.00     0.338 C 
ATOM     22  O   UNL A   1      41.142  18.783  25.556  1.00  0.00    -0.246 OA
BRANCH  21  23
ATOM     23  C   UNL A   1      41.561  20.862  26.598  1.00  0.00     0.060 A 
ATOM     24  C   UNL A   1      41.641  20.869  27.995  1.00  0.00     0.016 A 
ATOM     25  C   UNL A   1      42.014  21.932  25.818  1.00  0.00     0.016 A 
ATOM     26  C   UNL A   1      41.983  22.044  28.626  1.00  0.00     0.010 A 
ATOM     27  C   UNL A   1      42.321  23.110  26.445  1.00  0.00     0.010 A 
ATOM     28  C   UNL A   1      42.220  23.169  27.834  1.00  0.00    -0.014 A 
BRANCH  28  29
ATOM     29  C   UNL A   1      42.374  24.455  28.471  1.00  0.00     0.031 A 
ATOM     30  C   UNL A   1      41.306  25.422  28.159  1.00  0.00     0.074 A 
ATOM     31  C   UNL A   1      43.307  24.651  29.420  1.00  0.00     0.049 A 
ATOM     32  N   UNL A   1      41.425  26.564  27.573  1.00  0.00    -0.248 NA
ATOM     33  C   UNL A   1      39.917  25.014  28.429  1.00  0.00     0.031 C 
ATOM     34  C   UNL A   1      44.199  23.653  30.019  1.00  0.00     0.029 A 
ATOM     35  N   UNL A   1      43.548  25.767  30.156  1.00  0.00    -0.354 N 
ATOM     36  C   UNL A   1      40.147  27.107  27.567  1.00  0.00     0.074 A 
ATOM     37  C   UNL A   1      39.242  26.046  27.926  1.00  0.00     0.031 C 
ATOM     38  C   UNL A   1      44.703  24.148  31.171  1.00  0.00     0.029 A 
ATOM     39  C   UNL A   1      44.262  25.526  31.321  1.00  0.00     0.049 A 
ATOM     40  H   UNL A   1      43.243  26.664  29.889  1.00  0.00     0.167 HD
ATOM     41  C   UNL A   1      39.948  28.450  27.544  1.00  0.00     0.031 A 
ATOM     42  C   UNL A   1      44.408  26.377  32.366  1.00  0.00     0.031 A 
ATOM     43  C   UNL A   1      41.126  29.169  27.138  1.00  0.00     0.049 A 
ATOM     44  C   UNL A   1      44.052  27.737  31.897  1.00  0.00     0.074 A 
ATOM     45  C   UNL A   1      41.933  29.154  26.017  1.00  0.00     0.029 A 
ATOM     46  N   UNL A   1      41.857  29.790  28.123  1.00  0.00    -0.354 N 
ATOM     47  N   UNL A   1      44.780  28.425  31.067  1.00  0.00    -0.248 NA
ATOM     48  C   UNL A   1      42.671  28.180  32.022  1.00  0.00     0.031 C 
ATOM     49  C   UNL A   1      43.257  29.347  26.510  1.00  0.00     0.029 A 
ATOM     50  C   UNL A   1      43.181  29.518  27.893  1.00  0.00     0.049 A 
ATOM     51  H   UNL A   1      41.494  30.331  28.861  1.00  0.00     0.167 HD
ATOM     52  C   UNL A   1      43.866  29.067  30.245  1.00  0.00     0.074 A 
ATOM     53  C   UNL A   1      42.596  28.992  30.963  1.00  0.00     0.031 C 
ATOM     54  C   UNL A   1      44.165  29.332  28.938  1.00  0.00     0.031 A 
BRANCH  41  55
ATOM     55  C   UNL A   1      38.816  29.105  28.291  1.00  0.00    -0.014 A 
ATOM     56  C   UNL A   1      38.699  28.889  29.671  1.00  0.00     0.009 A 
ATOM     57  C   UNL A   1      37.717  29.706  27.644  1.00  0.00     0.009 A 
ATOM     58  C   UNL A   1      37.522  29.216  30.356  1.00  0.00     0.001 A 
ATOM     59  C   UNL A   1      36.562  30.078  28.331  1.00  0.00     0.001 A 
ATOM     60  C   UNL A   1      36.456  29.809  29.686  1.00  0.00     0.000 A 
ENDBRANCH  41  55
BRANCH  42  61
ATOM     61  C   UNL A   1      44.616  26.066  33.794  1.00  0.00    -0.014 A 
ATOM     62  C   UNL A   1      43.527  25.755  34.622  1.00  0.00     0.009 A 
ATOM     63  C   UNL A   1      45.909  25.828  34.294  1.00  0.00     0.009 A 
ATOM     64  C   UNL A   1      43.726  25.190  35.889  1.00  0.00     0.001 A 
ATOM     65  C   UNL A   1      46.108  25.273  35.562  1.00  0.00     0.001 A 
ATOM     66  C   UNL A   1      45.015  24.938  36.352  1.00  0.00     0.000 A 
ENDBRANCH  42  61
BRANCH  54  67
ATOM     67  C   UNL A   1      45.597  29.138  28.498  1.00  0.00    -0.014 A 
ATOM     68  C   UNL A   1      46.130  27.882  28.153  1.00  0.00     0.009 A 
ATOM     69  C   UNL A   1      46.404  30.270  28.311  1.00  0.00     0.009 A 
ATOM     70  C   UNL A   1      47.441  27.756  27.686  1.00  0.00     0.001 A 
ATOM     71  C   UNL A   1      47.706  30.149  27.820  1.00  0.00     0.001 A 
ATOM     72  C   UNL A   1      48.228  28.892  27.517  1.00  0.00     0.000 A 
ENDBRANCH  54  67
ENDBRANCH  28  29
ENDBRANCH  21  23
ENDBRANCH  20  21
ENDBRANCH  19  20
ENDBRANCH   1  19
TORSDOF 13
ENDMDL
MODEL 2
REMARK VINA RESULT:     -10.1      4.878      9.522
REMARK SMILES CC(=O)Nc1c(C)nn([C@H](C)C(=O)OCCOC(=O)c2ccc(-c3c4nc(c(-c5ccccc5)c5ccc([nH]5)c(-c5ccccc5)c5nc(c(-c6ccccc6)c6ccc3[nH]6)C=C5)C=C4)cc2)c1C
REMARK SMILES IDX 15 1 14 2 12 3 13 4 10 5 11 6 9 7 5 8 6 9 68 10 7 11 8 12
REMARK SMILES IDX 69 13 4 14 1 15 2 16 3 17 16 19 17 20 18 21 19 22 20 23
REMARK SMILES IDX 21 24 67 25 22 26 66 27 23 28 24 29 25 30 60 31 26 32 65 33
REMARK SMILES IDX 59 34 61 35 27 36 64 37 58 38 57 39 28 41 50 42 35 43 49 44
REMARK SMILES IDX 36 45 39 46 48 47 62 48 37 49 38 50 47 52 63 53 40 54 29 55
REMARK SMILES IDX 30 56 34 57 31 58 33 59 32 60 51 61 52 62 56 63 53 64 55 65
REMARK SMILES IDX 54 66 41 67 42 68 46 69 43 70 45 71 44 72
REMARK H PARENT 4 18 61 40 39 51
REMARK Flexibility Score: inf
ROOT
ATOM      1  C   UNL A   1      34.311  34.434  29.752  1.00  0.00     0.274 C 
ENDROOT
BRANCH   1   2
ATOM      2  O   UNL A   1      33.392  34.561  30.852  1.00  0.00    -0.460 OA
BRANCH   2   3
ATOM      3  C   UNL A   1      33.881  34.308  32.101  1.00  0.00     0.330 C 
ATOM      4  O   UNL A   1      33.491  33.405  32.838  1.00  0.00    -0.250 OA
BRANCH   3   5
ATOM      5  C   UNL A   1      34.881  35.344  32.539  1.00  0.00     0.214 C 
ATOM      6  C   UNL A   1      34.257  36.307  33.557  1.00  0.00     0.046 C 
BRANCH   5   7
ATOM      7  N   UNL A   1      36.122  34.690  32.947  1.00  0.00    -0.253 N 
ATOM      8  C   UNL A   1      37.566  33.321  33.887  1.00  0.00     0.085 A 
ATOM      9  C   UNL A   1      38.058  33.858  32.672  1.00  0.00     0.083 A 
ATOM     10  C   UNL A   1      36.373  33.980  34.109  1.00  0.00     0.060 A 
ATOM     11  C   UNL A   1      39.344  33.597  31.984  1.00  0.00     0.071 C 
ATOM     12  N   UNL A   1      37.160  34.654  32.088  1.00  0.00    -0.175 NA
ATOM     13  C   UNL A   1      35.545  34.077  35.344  1.00  0.00     0.069 C 
BRANCH   8  14
ATOM     14  N   UNL A   1      38.206  32.448  34.743  1.00  0.00    -0.323 N 
ATOM     15  C   UNL A   1      37.837  30.356  33.446  1.00  0.00     0.114 C 
ATOM     16  C   UNL A   1      38.190  31.080  34.726  1.00  0.00     0.221 C 
ATOM     17  O   UNL A   1      38.549  30.454  35.726  1.00  0.00    -0.275 OA
ATOM     18  H   UNL A   1      38.744  32.863  35.456  1.00  0.00     0.170 HD
ENDBRANCH   8  14
ENDBRANCH   5   7
ENDBRANCH   3   5
ENDBRANCH   2   3
ENDBRANCH   1   2
BRANCH   1  19
ATOM     19  C   UNL A   1      34.449  32.993  29.283  1.00  0.00     0.275 C 
BRANCH  19  20
ATOM     20  O   UNL A   1      35.815  32.588  29.313  1.00  0.00    -0.458 OA
BRANCH  20  21
ATOM     21  C   UNL A   1      36.109  31.599  30.185  1.00  0.00     0.338 C 
ATOM     22  O   UNL A   1      35.640  31.424  31.294  1.00  0.00    -0.246 OA
BRANCH  21  23
ATOM     23  C   UNL A   1      37.191  30.783  29.631  1.00  0.00     0.060 A 
ATOM     24  C   UNL A   1      36.977  29.404  29.523  1.00  0.00     0.016 A 
ATOM     25  C   UNL A   1      38.462  31.354  29.500  1.00  0.00     0.016 A 
ATOM     26  C   UNL A   1      38.073  28.571  29.496  1.00  0.00     0.010 A 
ATOM     27  C   UNL A   1      39.551  30.526  29.507  1.00  0.00     0.010 A 
ATOM     28  C   UNL A   1      39.340  29.150  29.589  1.00  0.00    -0.014 A 
BRANCH  28  29
ATOM     29  C   UNL A   1      40.489  28.297  29.773  1.00  0.00     0.031 A 
ATOM     30  C   UNL A   1      41.011  28.264  31.151  1.00  0.00     0.074 A 
ATOM     31  C   UNL A   1      40.894  27.461  28.799  1.00  0.00     0.049 A 
ATOM     32  N   UNL A   1      42.181  28.622  31.558  1.00  0.00    -0.248 NA
ATOM     33  C   UNL A   1      40.075  27.898  32.226  1.00  0.00     0.031 C 
ATOM     34  C   UNL A   1      40.238  27.198  27.514  1.00  0.00     0.029 A 
ATOM     35  N   UNL A   1      41.908  26.557  28.824  1.00  0.00    -0.354 N 
ATOM     36  C   UNL A   1      42.193  28.350  32.919  1.00  0.00     0.074 A 
ATOM     37  C   UNL A   1      40.830  28.090  33.304  1.00  0.00     0.031 C 
ATOM     38  C   UNL A   1      40.727  26.049  26.998  1.00  0.00     0.029 A 
ATOM     39  C   UNL A   1      41.800  25.570  27.855  1.00  0.00     0.049 A 
ATOM     40  H   UNL A   1      42.649  26.598  29.470  1.00  0.00     0.167 HD
ATOM     41  C   UNL A   1      43.350  28.078  33.577  1.00  0.00     0.031 A 
ATOM     42  C   UNL A   1      42.493  24.406  27.813  1.00  0.00     0.031 A 
ATOM     43  C   UNL A   1      44.510  28.487  32.830  1.00  0.00     0.049 A 
ATOM     44  C   UNL A   1      43.667  24.543  28.708  1.00  0.00     0.074 A 
ATOM     45  C   UNL A   1      44.954  29.686  32.308  1.00  0.00     0.029 A 
ATOM     46  N   UNL A   1      45.222  27.505  32.183  1.00  0.00    -0.354 N 
ATOM     47  N   UNL A   1      44.685  25.309  28.446  1.00  0.00    -0.248 NA
ATOM     48  C   UNL A   1      43.532  24.149  30.102  1.00  0.00     0.031 C 
ATOM     49  C   UNL A   1      45.567  29.347  31.066  1.00  0.00     0.029 A 
ATOM     50  C   UNL A   1      45.507  27.959  30.921  1.00  0.00     0.049 A 
ATOM     51  H   UNL A   1      45.481  26.632  32.559  1.00  0.00     0.167 HD
ATOM     52  C   UNL A   1      45.037  25.857  29.671  1.00  0.00     0.074 A 
ATOM     53  C   UNL A   1      44.390  25.005  30.665  1.00  0.00     0.031 C 
ATOM     54  C   UNL A   1      45.570  27.114  29.749  1.00  0.00     0.031 A 
BRANCH  41  55
ATOM     55  C   UNL A   1      43.420  27.072  34.694  1.00  0.00    -0.014 A 
ATOM     56  C   UNL A   1      43.326  25.707  34.385  1.00  0.00     0.009 A 
ATOM     57  C   UNL A   1      43.307  27.427  36.053  1.00  0.00     0.009 A 
ATOM     58  C   UNL A   1      43.085  24.755  35.384  1.00  0.00     0.001 A 
ATOM     59  C   UNL A   1      43.116  26.477  37.057  1.00  0.00     0.001 A 
ATOM     60  C   UNL A   1      42.979  25.141  36.717  1.00  0.00     0.000 A 
ENDBRANCH  41  55
BRANCH  42  61
ATOM     61  C   UNL A   1      42.094  23.109  27.231  1.00  0.00    -0.014 A 
ATOM     62  C   UNL A   1      42.980  22.393  26.411  1.00  0.00     0.009 A 
ATOM     63  C   UNL A   1      40.935  22.449  27.678  1.00  0.00     0.009 A 
ATOM     64  C   UNL A   1      42.733  21.053  26.086  1.00  0.00     0.001 A 
ATOM     65  C   UNL A   1      40.684  21.115  27.345  1.00  0.00     0.001 A 
ATOM     66  C   UNL A   1      41.592  20.411  26.563  1.00  0.00     0.000 A 
ENDBRANCH  42  61
BRANCH  54  67
ATOM     67  C   UNL A   1      45.995  27.771  28.456  1.00  0.00    -0.014 A 
ATOM     68  C   UNL A   1      45.106  28.487  27.632  1.00  0.00     0.009 A 
ATOM     69  C   UNL A   1      47.355  27.772  28.117  1.00  0.00     0.009 A 
ATOM     70  C   UNL A   1      45.556  29.138  26.479  1.00  0.00     0.001 A 
ATOM     71  C   UNL A   1      47.810  28.443  26.979  1.00  0.00     0.001 A 
ATOM     72  C   UNL A   1      46.910  29.117  26.155  1.00  0.00     0.000 A 
ENDBRANCH  54  67
ENDBRANCH  28  29
ENDBRANCH  21  23
ENDBRANCH  20  21
ENDBRANCH  19  20
ENDBRANCH   1  19
TORSDOF 13
ENDMDL
MODEL 3
REMARK VINA RESULT:      -9.9      3.420      7.556
REMARK SMILES CC(=O)Nc1c(C)nn([C@H](C)C(=O)OCCOC(=O)c2ccc(-c3c4nc(c(-c5ccccc5)c5ccc([nH]5)c(-c5ccccc5)c5nc(c(-c6ccccc6)c6ccc3[nH]6)C=C5)C=C4)cc2)c1C
REMARK SMILES IDX 15 1 14 2 12 3 13 4 10 5 11 6 9 7 5 8 6 9 68 10 7 11 8 12
REMARK SMILES IDX 69 13 4 14 1 15 2 16 3 17 16 19 17 20 18 21 19 22 20 23
REMARK SMILES IDX 21 24 67 25 22 26 66 27 23 28 24 29 25 30 60 31 26 32 65 33
REMARK SMILES IDX 59 34 61 35 27 36 64 37 58 38 57 39 28 41 50 42 35 43 49 44
REMARK SMILES IDX 36 45 39 46 48 47 62 48 37 49 38 50 47 52 63 53 40 54 29 55
REMARK SMILES IDX 30 56 34 57 31 58 33 59 32 60 51 61 52 62 56 63 53 64 55 65
REMARK SMILES IDX 54 66 41 67 42 68 46 69 43 70 45 71 44 72
REMARK H PARENT 4 18 61 40 39 51
REMARK Flexibility Score: inf
ROOT
ATOM      1  C   UNL A   1      33.738  31.894  27.718  1.00  0.00     0.274 C 
ENDROOT
BRANCH   1   2
ATOM      2  O   UNL A   1      33.796  30.553  27.199  1.00  0.00    -0.460 OA
BRANCH   2   3
ATOM      3  C   UNL A   1      32.724  30.123  26.473  1.00  0.00     0.330 C 
ATOM      4  O   UNL A   1      31.857  30.854  26.000  1.00  0.00    -0.250 OA
BRANCH   3   5
ATOM      5  C   UNL A   1      32.645  28.621  26.414  1.00  0.00     0.214 C 
ATOM      6  C   UNL A   1      31.967  28.062  27.671  1.00  0.00     0.046 C 
BRANCH   5   7
ATOM      7  N   UNL A   1      32.074  28.207  25.134  1.00  0.00    -0.253 N 
ATOM      8  C   UNL A   1      31.827  27.348  23.124  1.00  0.00     0.085 A 
ATOM      9  C   UNL A   1      30.606  27.377  23.841  1.00  0.00     0.083 A 
ATOM     10  C   UNL A   1      32.728  28.014  23.929  1.00  0.00     0.060 A 
ATOM     11  C   UNL A   1      29.266  26.897  23.433  1.00  0.00     0.071 C 
ATOM     12  N   UNL A   1      30.773  27.861  25.074  1.00  0.00    -0.175 NA
ATOM     13  C   UNL A   1      34.074  28.569  23.610  1.00  0.00     0.069 C 
BRANCH   8  14
ATOM     14  N   UNL A   1      32.037  26.896  21.836  1.00  0.00    -0.323 N 
ATOM     15  C   UNL A   1      32.822  24.602  22.400  1.00  0.00     0.114 C 
ATOM     16  C   UNL A   1      32.679  25.756  21.434  1.00  0.00     0.221 C 
ATOM     17  O   UNL A   1      33.054  25.650  20.264  1.00  0.00    -0.275 OA
ATOM     18  H   UNL A   1      31.678  27.464  21.117  1.00  0.00     0.170 HD
ENDBRANCH   8  14
ENDBRANCH   5   7
ENDBRANCH   3   5
ENDBRANCH   2   3
ENDBRANCH   1   2
BRANCH   1  19
ATOM     19  C   UNL A   1      35.122  32.478  27.958  1.00  0.00     0.275 C 
BRANCH  19  20
ATOM     20  O   UNL A   1      35.261  32.887  29.315  1.00  0.00    -0.458 OA
BRANCH  20  21
ATOM     21  C   UNL A   1      35.648  31.921  30.177  1.00  0.00     0.338 C 
ATOM     22  O   UNL A   1      35.201  31.695  31.286  1.00  0.00    -0.246 OA
BRANCH  21  23
ATOM     23  C   UNL A   1      36.798  31.213  29.613  1.00  0.00     0.060 A 
ATOM     24  C   UNL A   1      36.691  29.827  29.446  1.00  0.00     0.016 A 
ATOM     25  C   UNL A   1      38.024  31.883  29.531  1.00  0.00     0.016 A 
ATOM     26  C   UNL A   1      37.848  29.081  29.408  1.00  0.00     0.010 A 
ATOM     27  C   UNL A   1      39.173  31.139  29.526  1.00  0.00     0.010 A 
ATOM     28  C   UNL A   1      39.065  29.750  29.549  1.00  0.00    -0.014 A 
BRANCH  28  29
ATOM     29  C   UNL A   1      40.273  28.978  29.721  1.00  0.00     0.031 A 
ATOM     30  C   UNL A   1      40.711  28.835  31.121  1.00  0.00     0.074 A 
ATOM     31  C   UNL A   1      40.809  28.292  28.696  1.00  0.00     0.049 A 
ATOM     32  N   UNL A   1      41.817  29.240  31.645  1.00  0.00    -0.248 NA
ATOM     33  C   UNL A   1      39.747  28.276  32.084  1.00  0.00     0.031 C 
ATOM     34  C   UNL A   1      40.258  28.120  27.347  1.00  0.00     0.029 A 
ATOM     35  N   UNL A   1      41.896  27.477  28.695  1.00  0.00    -0.354 N 
ATOM     36  C   UNL A   1      41.771  28.820  32.967  1.00  0.00     0.074 A 
ATOM     37  C   UNL A   1      40.416  28.408  33.227  1.00  0.00     0.031 C 
ATOM     38  C   UNL A   1      40.878  27.080  26.748  1.00  0.00     0.029 A 
ATOM     39  C   UNL A   1      41.936  26.599  27.623  1.00  0.00     0.049 A 
ATOM     40  H   UNL A   1      42.590  27.506  29.392  1.00  0.00     0.167 HD
ATOM     41  C   UNL A   1      42.906  28.573  33.672  1.00  0.00     0.031 A 
ATOM     42  C   UNL A   1      42.731  25.507  27.506  1.00  0.00     0.031 A 
ATOM     43  C   UNL A   1      44.068  29.156  33.056  1.00  0.00     0.049 A 
ATOM     44  C   UNL A   1      43.831  25.639  28.491  1.00  0.00     0.074 A 
ATOM     45  C   UNL A   1      44.434  30.438  32.696  1.00  0.00     0.029 A 
ATOM     46  N   UNL A   1      44.903  28.314  32.361  1.00  0.00    -0.354 N 
ATOM     47  N   UNL A   1      44.791  26.511  28.383  1.00  0.00    -0.248 NA
ATOM     48  C   UNL A   1      43.648  25.083  29.823  1.00  0.00     0.031 C 
ATOM     49  C   UNL A   1      45.149  30.291  31.471  1.00  0.00     0.029 A 
ATOM     50  C   UNL A   1      45.222  28.928  31.177  1.00  0.00     0.049 A 
ATOM     51  H   UNL A   1      45.215  27.429  32.659  1.00  0.00     0.167 HD
ATOM     52  C   UNL A   1      45.018  26.946  29.681  1.00  0.00     0.074 A 
ATOM     53  C   UNL A   1      44.390  25.939  30.532  1.00  0.00     0.031 C 
ATOM     54  C   UNL A   1      45.431  28.226  29.929  1.00  0.00     0.031 A 
BRANCH  41  55
ATOM     55  C   UNL A   1      42.997  27.457  34.679  1.00  0.00    -0.014 A 
ATOM     56  C   UNL A   1      43.004  26.131  34.223  1.00  0.00     0.009 A 
ATOM     57  C   UNL A   1      42.808  27.655  36.061  1.00  0.00     0.009 A 
ATOM     58  C   UNL A   1      42.787  25.063  35.104  1.00  0.00     0.001 A 
ATOM     59  C   UNL A   1      42.639  26.592  36.949  1.00  0.00     0.001 A 
ATOM     60  C   UNL A   1      42.604  25.295  36.464  1.00  0.00     0.000 A 
ENDBRANCH  41  55
BRANCH  42  61
ATOM     61  C   UNL A   1      42.486  24.255  26.764  1.00  0.00    -0.014 A 
ATOM     62  C   UNL A   1      43.375  23.833  25.763  1.00  0.00     0.009 A 
ATOM     63  C   UNL A   1      41.512  23.340  27.204  1.00  0.00     0.009 A 
ATOM     64  C   UNL A   1      43.315  22.530  25.252  1.00  0.00     0.001 A 
ATOM     65  C   UNL A   1      41.446  22.043  26.688  1.00  0.00     0.001 A 
ATOM     66  C   UNL A   1      42.359  21.632  25.724  1.00  0.00     0.000 A 
ENDBRANCH  42  61
BRANCH  54  67
ATOM     67  C   UNL A   1      45.873  29.056  28.746  1.00  0.00    -0.014 A 
ATOM     68  C   UNL A   1      44.976  29.784  27.942  1.00  0.00     0.009 A 
ATOM     69  C   UNL A   1      47.246  29.206  28.504  1.00  0.00     0.009 A 
ATOM     70  C   UNL A   1      45.435  30.593  26.899  1.00  0.00     0.001 A 
ATOM     71  C   UNL A   1      47.707  30.035  27.478  1.00  0.00     0.001 A 
ATOM     72  C   UNL A   1      46.802  30.720  26.669  1.00  0.00     0.000 A 
ENDBRANCH  54  67
ENDBRANCH  28  29
ENDBRANCH  21  23
ENDBRANCH  20  21
ENDBRANCH  19  20
ENDBRANCH   1  19
TORSDOF 13
ENDMDL
