MODEL 1
REMARK VINA RESULT:      -9.2      0.000      0.000
REMARK SMILES C=Cc1cncc(-c2ccc([C@@H](C)C(=O)OCCOC(=O)c3ccc(-c4c5nc(c(-c6ccccc6)c6ccc([nH]6)c(-c6ccccc6)c6nc(c(-c7ccccc7)c7ccc4[nH]7)C=C6)C=C5)cc3)cc2)c1
REMARK SMILES IDX 17 1 16 2 14 3 15 4 12 5 13 6 11 7 8 8 9 9 71 10 10 11 70 12
REMARK SMILES IDX 7 13 3 14 4 15 72 16 5 17 6 18 2 19 1 20 18 21 19 22 20 23
REMARK SMILES IDX 21 24 22 25 23 26 69 27 24 28 68 29 25 30 26 31 27 32 62 33
REMARK SMILES IDX 28 34 67 35 61 36 63 37 29 38 66 39 60 40 59 41 30 43 52 44
REMARK SMILES IDX 37 45 51 46 38 47 41 48 50 49 64 50 39 51 40 52 49 54 65 55
REMARK SMILES IDX 42 56 31 57 32 58 36 59 33 60 35 61 34 62 53 63 54 64 58 65
REMARK SMILES IDX 55 66 57 67 56 68 43 69 44 70 48 71 45 72 47 73 46 74
REMARK H PARENT 63 42 41 53
REMARK Flexibility Score: inf
ROOT
ATOM      1  C   UNL A   1      33.830  34.237  29.045  1.00  0.00     0.274 C 
ENDROOT
BRANCH   1   2
ATOM      2  O   UNL A   1      33.711  33.668  30.362  1.00  0.00    -0.462 OA
BRANCH   2   3
ATOM      3  C   UNL A   1      34.593  34.095  31.302  1.00  0.00     0.313 C 
ATOM      4  O   UNL A   1      34.505  35.163  31.899  1.00  0.00    -0.252 OA
BRANCH   3   5
ATOM      5  C   UNL A   1      35.751  33.131  31.536  1.00  0.00     0.126 C 
ATOM      6  C   UNL A   1      35.812  32.743  33.011  1.00  0.00     0.025 C 
BRANCH   5   7
ATOM      7  C   UNL A   1      37.099  33.574  30.988  1.00  0.00    -0.034 A 
ATOM      8  C   UNL A   1      39.612  34.377  29.930  1.00  0.00    -0.017 A 
ATOM      9  C   UNL A   1      39.303  34.558  31.287  1.00  0.00     0.009 A 
ATOM     10  C   UNL A   1      38.636  33.798  29.107  1.00  0.00     0.009 A 
ATOM     11  C   UNL A   1      38.070  34.160  31.809  1.00  0.00     0.005 A 
ATOM     12  C   UNL A   1      37.398  33.402  29.627  1.00  0.00     0.005 A 
BRANCH   8  13
ATOM     13  C   UNL A   1      40.926  34.764  29.406  1.00  0.00     0.001 A 
ATOM     14  C   UNL A   1      42.351  36.074  27.929  1.00  0.00    -0.007 A 
ATOM     15  C   UNL A   1      43.441  35.438  28.520  1.00  0.00     0.119 A 
ATOM     16  C   UNL A   1      41.077  35.709  28.380  1.00  0.00     0.020 A 
ATOM     17  N   UNL A   1      43.350  34.517  29.505  1.00  0.00    -0.263 NA
ATOM     18  C   UNL A   1      42.099  34.210  29.922  1.00  0.00     0.119 A 
BRANCH  14  19
ATOM     19  C   UNL A   1      42.574  37.044  26.851  1.00  0.00     0.002 C 
ATOM     20  C   UNL A   1      42.180  38.322  26.894  1.00  0.00     0.009 C 
ENDBRANCH  14  19
ENDBRANCH   8  13
ENDBRANCH   5   7
ENDBRANCH   3   5
ENDBRANCH   2   3
ENDBRANCH   1   2
BRANCH   1  21
ATOM     21  C   UNL A   1      34.143  33.154  28.014  1.00  0.00     0.275 C 
BRANCH  21  22
ATOM     22  O   UNL A   1      34.180  31.857  28.636  1.00  0.00    -0.458 OA
BRANCH  22  23
ATOM     23  C   UNL A   1      34.602  30.842  27.848  1.00  0.00     0.338 C 
ATOM     24  O   UNL A   1      34.071  30.392  26.851  1.00  0.00    -0.246 OA
BRANCH  23  25
ATOM     25  C   UNL A   1      35.902  30.376  28.345  1.00  0.00     0.060 A 
ATOM     26  C   UNL A   1      37.013  30.458  27.505  1.00  0.00     0.016 A 
ATOM     27  C   UNL A   1      36.006  29.805  29.613  1.00  0.00     0.016 A 
ATOM     28  C   UNL A   1      38.244  29.965  27.928  1.00  0.00     0.010 A 
ATOM     29  C   UNL A   1      37.244  29.325  30.044  1.00  0.00     0.010 A 
ATOM     30  C   UNL A   1      38.369  29.396  29.201  1.00  0.00    -0.014 A 
BRANCH  30  31
ATOM     31  C   UNL A   1      39.671  28.860  29.655  1.00  0.00     0.031 A 
ATOM     32  C   UNL A   1      40.510  29.645  30.619  1.00  0.00     0.074 A 
ATOM     33  C   UNL A   1      40.104  27.674  29.187  1.00  0.00     0.049 A 
ATOM     34  N   UNL A   1      41.727  29.411  31.035  1.00  0.00    -0.248 NA
ATOM     35  C   UNL A   1      39.896  30.853  31.192  1.00  0.00     0.031 C 
ATOM     36  C   UNL A   1      39.356  26.794  28.288  1.00  0.00     0.029 A 
ATOM     37  N   UNL A   1      41.285  27.012  29.401  1.00  0.00    -0.354 N 
ATOM     38  C   UNL A   1      42.036  30.452  31.900  1.00  0.00     0.074 A 
ATOM     39  C   UNL A   1      40.882  31.325  31.942  1.00  0.00     0.031 C 
ATOM     40  C   UNL A   1      40.099  25.706  28.027  1.00  0.00     0.029 A 
ATOM     41  C   UNL A   1      41.391  25.841  28.693  1.00  0.00     0.049 A 
ATOM     42  H   UNL A   1      41.990  27.344  30.003  1.00  0.00     0.167 HD
ATOM     43  C   UNL A   1      43.180  30.661  32.592  1.00  0.00     0.031 A 
ATOM     44  C   UNL A   1      42.425  24.989  28.566  1.00  0.00     0.031 A 
ATOM     45  C   UNL A   1      44.327  29.794  32.545  1.00  0.00     0.049 A 
ATOM     46  C   UNL A   1      43.715  25.291  29.275  1.00  0.00     0.074 A 
ATOM     47  C   UNL A   1      45.532  29.917  33.215  1.00  0.00     0.029 A 
ATOM     48  N   UNL A   1      44.410  28.642  31.779  1.00  0.00    -0.354 N 
ATOM     49  N   UNL A   1      44.002  26.287  30.078  1.00  0.00    -0.248 NA
ATOM     50  C   UNL A   1      44.827  24.356  29.050  1.00  0.00     0.031 C 
ATOM     51  C   UNL A   1      46.361  28.862  32.819  1.00  0.00     0.029 A 
ATOM     52  C   UNL A   1      45.656  28.057  31.939  1.00  0.00     0.049 A 
ATOM     53  H   UNL A   1      43.691  28.291  31.206  1.00  0.00     0.167 HD
ATOM     54  C   UNL A   1      45.320  26.091  30.467  1.00  0.00     0.074 A 
ATOM     55  C   UNL A   1      45.772  24.874  29.823  1.00  0.00     0.031 C 
ATOM     56  C   UNL A   1      46.087  26.851  31.285  1.00  0.00     0.031 A 
BRANCH  43  57
ATOM     57  C   UNL A   1      43.259  31.904  33.432  1.00  0.00    -0.014 A 
ATOM     58  C   UNL A   1      42.837  31.909  34.770  1.00  0.00     0.009 A 
ATOM     59  C   UNL A   1      43.789  33.080  32.880  1.00  0.00     0.009 A 
ATOM     60  C   UNL A   1      42.917  33.078  35.530  1.00  0.00     0.001 A 
ATOM     61  C   UNL A   1      43.888  34.242  33.648  1.00  0.00     0.001 A 
ATOM     62  C   UNL A   1      43.444  34.242  34.970  1.00  0.00     0.000 A 
ENDBRANCH  43  57
BRANCH  44  63
ATOM     63  C   UNL A   1      42.298  23.793  27.697  1.00  0.00    -0.014 A 
ATOM     64  C   UNL A   1      41.814  22.583  28.215  1.00  0.00     0.009 A 
ATOM     65  C   UNL A   1      42.659  23.856  26.342  1.00  0.00     0.009 A 
ATOM     66  C   UNL A   1      41.708  21.456  27.398  1.00  0.00     0.001 A 
ATOM     67  C   UNL A   1      42.528  22.735  25.520  1.00  0.00     0.001 A 
ATOM     68  C   UNL A   1      42.059  21.534  26.050  1.00  0.00     0.000 A 
ENDBRANCH  44  63
BRANCH  56  69
ATOM     69  C   UNL A   1      47.487  26.373  31.547  1.00  0.00    -0.014 A 
ATOM     70  C   UNL A   1      48.550  26.760  30.718  1.00  0.00     0.009 A 
ATOM     71  C   UNL A   1      47.746  25.558  32.659  1.00  0.00     0.009 A 
ATOM     72  C   UNL A   1      49.847  26.316  30.986  1.00  0.00     0.001 A 
ATOM     73  C   UNL A   1      49.048  25.137  32.937  1.00  0.00     0.001 A 
ATOM     74  C   UNL A   1      50.095  25.510  32.097  1.00  0.00     0.000 A 
ENDBRANCH  56  69
ENDBRANCH  30  31
ENDBRANCH  23  25
ENDBRANCH  22  23
ENDBRANCH  21  22
ENDBRANCH   1  21
TORSDOF 14
ENDMDL
MODEL 2
REMARK VINA RESULT:      -9.1      4.907     11.531
REMARK SMILES C=Cc1cncc(-c2ccc([C@@H](C)C(=O)OCCOC(=O)c3ccc(-c4c5nc(c(-c6ccccc6)c6ccc([nH]6)c(-c6ccccc6)c6nc(c(-c7ccccc7)c7ccc4[nH]7)C=C6)C=C5)cc3)cc2)c1
REMARK SMILES IDX 17 1 16 2 14 3 15 4 12 5 13 6 11 7 8 8 9 9 71 10 10 11 70 12
REMARK SMILES IDX 7 13 3 14 4 15 72 16 5 17 6 18 2 19 1 20 18 21 19 22 20 23
REMARK SMILES IDX 21 24 22 25 23 26 69 27 24 28 68 29 25 30 26 31 27 32 62 33
REMARK SMILES IDX 28 34 67 35 61 36 63 37 29 38 66 39 60 40 59 41 30 43 52 44
REMARK SMILES IDX 37 45 51 46 38 47 41 48 50 49 64 50 39 51 40 52 49 54 65 55
REMARK SMILES IDX 42 56 31 57 32 58 36 59 33 60 35 61 34 62 53 63 54 64 58 65
REMARK SMILES IDX 55 66 57 67 56 68 43 69 44 70 48 71 45 72 47 73 46 74
REMARK H PARENT 63 42 41 53
REMARK Flexibility Score: inf
ROOT
ATOM      1  C   UNL A   1      44.733  19.757  25.083  1.00  0.00     0.274 C 
ENDROOT
BRANCH   1   2
ATOM      2  O   UNL A   1      43.351  19.630  24.699  1.00  0.00    -0.462 OA
BRANCH   2   3
ATOM      3  C   UNL A   1      42.504  19.086  25.611  1.00  0.00     0.313 C 
ATOM      4  O   UNL A   1      42.331  17.880  25.760  1.00  0.00    -0.252 OA
BRANCH   3   5
ATOM      5  C   UNL A   1      41.740  20.120  26.430  1.00  0.00     0.126 C 
ATOM      6  C   UNL A   1      41.906  19.827  27.919  1.00  0.00     0.025 C 
BRANCH   5   7
ATOM      7  C   UNL A   1      40.289  20.337  26.030  1.00  0.00    -0.034 A 
ATOM      8  C   UNL A   1      37.576  20.777  25.306  1.00  0.00    -0.017 A 
ATOM      9  C   UNL A   1      38.161  19.507  25.193  1.00  0.00     0.009 A 
ATOM     10  C   UNL A   1      38.376  21.828  25.776  1.00  0.00     0.009 A 
ATOM     11  C   UNL A   1      39.493  19.288  25.553  1.00  0.00     0.005 A 
ATOM     12  C   UNL A   1      39.712  21.612  26.133  1.00  0.00     0.005 A 
BRANCH   8  13
ATOM     13  C   UNL A   1      36.164  20.981  24.962  1.00  0.00     0.001 A 
ATOM     14  C   UNL A   1      33.931  20.150  24.460  1.00  0.00    -0.007 A 
ATOM     15  C   UNL A   1      33.530  21.479  24.348  1.00  0.00     0.119 A 
ATOM     16  C   UNL A   1      35.279  19.912  24.757  1.00  0.00     0.020 A 
ATOM     17  N   UNL A   1      34.344  22.544  24.528  1.00  0.00    -0.263 NA
ATOM     18  C   UNL A   1      35.633  22.266  24.832  1.00  0.00     0.119 A 
BRANCH  14  19
ATOM     19  C   UNL A   1      32.960  19.077  24.221  1.00  0.00     0.002 C 
ATOM     20  C   UNL A   1      32.514  18.240  25.167  1.00  0.00     0.009 C 
ENDBRANCH  14  19
ENDBRANCH   8  13
ENDBRANCH   5   7
ENDBRANCH   3   5
ENDBRANCH   2   3
ENDBRANCH   1   2
BRANCH   1  21
ATOM     21  C   UNL A   1      45.241  21.173  24.816  1.00  0.00     0.275 C 
BRANCH  21  22
ATOM     22  O   UNL A   1      44.694  22.096  25.776  1.00  0.00    -0.458 OA
BRANCH  22  23
ATOM     23  C   UNL A   1      43.768  22.957  25.296  1.00  0.00     0.338 C 
ATOM     24  O   UNL A   1      43.228  22.953  24.207  1.00  0.00    -0.246 OA
BRANCH  23  25
ATOM     25  C   UNL A   1      43.426  23.912  26.358  1.00  0.00     0.060 A 
ATOM     26  C   UNL A   1      42.620  23.486  27.414  1.00  0.00     0.016 A 
ATOM     27  C   UNL A   1      43.851  25.237  26.273  1.00  0.00     0.016 A 
ATOM     28  C   UNL A   1      42.229  24.387  28.399  1.00  0.00     0.010 A 
ATOM     29  C   UNL A   1      43.472  26.138  27.270  1.00  0.00     0.010 A 
ATOM     30  C   UNL A   1      42.654  25.720  28.335  1.00  0.00    -0.014 A 
BRANCH  30  31
ATOM     31  C   UNL A   1      42.234  26.688  29.373  1.00  0.00     0.031 A 
ATOM     32  C   UNL A   1      42.993  26.778  30.664  1.00  0.00     0.074 A 
ATOM     33  C   UNL A   1      41.162  27.473  29.159  1.00  0.00     0.049 A 
ATOM     34  N   UNL A   1      42.710  27.464  31.741  1.00  0.00    -0.248 NA
ATOM     35  C   UNL A   1      44.234  25.994  30.753  1.00  0.00     0.031 C 
ATOM     36  C   UNL A   1      40.375  27.515  27.926  1.00  0.00     0.029 A 
ATOM     37  N   UNL A   1      40.547  28.382  29.981  1.00  0.00    -0.354 N 
ATOM     38  C   UNL A   1      43.724  27.178  32.646  1.00  0.00     0.074 A 
ATOM     39  C   UNL A   1      44.623  26.249  31.995  1.00  0.00     0.031 C 
ATOM     40  C   UNL A   1      39.380  28.404  28.074  1.00  0.00     0.029 A 
ATOM     41  C   UNL A   1      39.428  28.950  29.426  1.00  0.00     0.049 A 
ATOM     42  H   UNL A   1      40.875  28.605  30.882  1.00  0.00     0.167 HD
ATOM     43  C   UNL A   1      43.887  27.647  33.905  1.00  0.00     0.031 A 
ATOM     44  C   UNL A   1      38.520  29.788  29.960  1.00  0.00     0.031 A 
ATOM     45  C   UNL A   1      42.989  28.567  34.551  1.00  0.00     0.049 A 
ATOM     46  C   UNL A   1      38.676  30.224  31.390  1.00  0.00     0.074 A 
ATOM     47  C   UNL A   1      43.071  29.104  35.823  1.00  0.00     0.029 A 
ATOM     48  N   UNL A   1      41.841  29.083  33.970  1.00  0.00    -0.354 N 
ATOM     49  N   UNL A   1      39.630  29.935  32.241  1.00  0.00    -0.248 NA
ATOM     50  C   UNL A   1      37.621  31.092  31.935  1.00  0.00     0.031 C 
ATOM     51  C   UNL A   1      41.947  29.912  36.028  1.00  0.00     0.029 A 
ATOM     52  C   UNL A   1      41.191  29.913  34.868  1.00  0.00     0.049 A 
ATOM     53  H   UNL A   1      41.533  28.887  33.056  1.00  0.00     0.167 HD
ATOM     54  C   UNL A   1      39.301  30.597  33.417  1.00  0.00     0.074 A 
ATOM     55  C   UNL A   1      38.066  31.313  33.164  1.00  0.00     0.031 C 
ATOM     56  C   UNL A   1      39.961  30.611  34.599  1.00  0.00     0.031 A 
BRANCH  43  57
ATOM     57  C   UNL A   1      45.065  27.134  34.682  1.00  0.00    -0.014 A 
ATOM     58  C   UNL A   1      46.297  27.807  34.670  1.00  0.00     0.009 A 
ATOM     59  C   UNL A   1      44.931  25.974  35.461  1.00  0.00     0.009 A 
ATOM     60  C   UNL A   1      47.379  27.310  35.398  1.00  0.00     0.001 A 
ATOM     61  C   UNL A   1      46.008  25.492  36.205  1.00  0.00     0.001 A 
ATOM     62  C   UNL A   1      47.234  26.155  36.167  1.00  0.00     0.000 A 
ENDBRANCH  43  57
BRANCH  44  63
ATOM     63  C   UNL A   1      37.359  30.237  29.152  1.00  0.00    -0.014 A 
ATOM     64  C   UNL A   1      36.355  29.330  28.782  1.00  0.00     0.009 A 
ATOM     65  C   UNL A   1      37.248  31.576  28.747  1.00  0.00     0.009 A 
ATOM     66  C   UNL A   1      35.270  29.754  28.010  1.00  0.00     0.001 A 
ATOM     67  C   UNL A   1      36.151  32.003  27.997  1.00  0.00     0.001 A 
ATOM     68  C   UNL A   1      35.166  31.089  27.623  1.00  0.00     0.000 A 
ENDBRANCH  44  63
BRANCH  56  69
ATOM     69  C   UNL A   1      39.374  31.446  35.700  1.00  0.00    -0.014 A 
ATOM     70  C   UNL A   1      38.283  30.988  36.452  1.00  0.00     0.009 A 
ATOM     71  C   UNL A   1      39.947  32.689  36.011  1.00  0.00     0.009 A 
ATOM     72  C   UNL A   1      37.759  31.773  37.482  1.00  0.00     0.001 A 
ATOM     73  C   UNL A   1      39.435  33.461  37.055  1.00  0.00     0.001 A 
ATOM     74  C   UNL A   1      38.338  33.005  37.785  1.00  0.00     0.000 A 
ENDBRANCH  56  69
ENDBRANCH  30  31
ENDBRANCH  23  25
ENDBRANCH  22  23
ENDBRANCH  21  22
ENDBRANCH   1  21
TORSDOF 14
ENDMDL
MODEL 3
REMARK VINA RESULT:      -9.0      3.823      7.113
REMARK SMILES C=Cc1cncc(-c2ccc([C@@H](C)C(=O)OCCOC(=O)c3ccc(-c4c5nc(c(-c6ccccc6)c6ccc([nH]6)c(-c6ccccc6)c6nc(c(-c7ccccc7)c7ccc4[nH]7)C=C6)C=C5)cc3)cc2)c1
REMARK SMILES IDX 17 1 16 2 14 3 15 4 12 5 13 6 11 7 8 8 9 9 71 10 10 11 70 12
REMARK SMILES IDX 7 13 3 14 4 15 72 16 5 17 6 18 2 19 1 20 18 21 19 22 20 23
REMARK SMILES IDX 21 24 22 25 23 26 69 27 24 28 68 29 25 30 26 31 27 32 62 33
REMARK SMILES IDX 28 34 67 35 61 36 63 37 29 38 66 39 60 40 59 41 30 43 52 44
REMARK SMILES IDX 37 45 51 46 38 47 41 48 50 49 64 50 39 51 40 52 49 54 65 55
REMARK SMILES IDX 42 56 31 57 32 58 36 59 33 60 35 61 34 62 53 63 54 64 58 65
REMARK SMILES IDX 55 66 57 67 56 68 43 69 44 70 48 71 45 72 47 73 46 74
REMARK H PARENT 63 42 41 53
REMARK Flexibility Score: inf
ROOT
ATOM      1  C   UNL A   1      33.168  35.240  28.759  1.00  0.00     0.274 C 
ENDROOT
BRANCH   1   2
ATOM      2  O   UNL A   1      34.584  34.989  28.676  1.00  0.00    -0.462 OA
BRANCH   2   3
ATOM      3  C   UNL A   1      34.969  33.775  28.204  1.00  0.00     0.313 C 
ATOM      4  O   UNL A   1      35.855  33.606  27.372  1.00  0.00    -0.252 OA
BRANCH   3   5
ATOM      5  C   UNL A   1      34.169  32.613  28.781  1.00  0.00     0.126 C 
ATOM      6  C   UNL A   1      34.655  32.300  30.194  1.00  0.00     0.025 C 
BRANCH   5   7
ATOM      7  C   UNL A   1      34.077  31.375  27.902  1.00  0.00    -0.034 A 
ATOM      8  C   UNL A   1      33.866  29.069  26.255  1.00  0.00    -0.017 A 
ATOM      9  C   UNL A   1      34.945  29.235  27.136  1.00  0.00     0.009 A 
ATOM     10  C   UNL A   1      32.900  30.083  26.201  1.00  0.00     0.009 A 
ATOM     11  C   UNL A   1      35.048  30.366  27.950  1.00  0.00     0.005 A 
ATOM     12  C   UNL A   1      33.003  31.219  27.013  1.00  0.00     0.005 A 
BRANCH   8  13
ATOM     13  C   UNL A   1      33.753  27.856  25.436  1.00  0.00     0.001 A 
ATOM     14  C   UNL A   1      33.768  25.437  25.163  1.00  0.00    -0.007 A 
ATOM     15  C   UNL A   1      33.489  25.651  23.815  1.00  0.00     0.119 A 
ATOM     16  C   UNL A   1      33.915  26.570  25.972  1.00  0.00     0.020 A 
ATOM     17  N   UNL A   1      33.331  26.868  23.248  1.00  0.00    -0.263 NA
ATOM     18  C   UNL A   1      33.463  27.933  24.072  1.00  0.00     0.119 A 
BRANCH  14  19
ATOM     19  C   UNL A   1      33.939  24.067  25.660  1.00  0.00     0.002 C 
ATOM     20  C   UNL A   1      35.101  23.564  26.095  1.00  0.00     0.009 C 
ENDBRANCH  14  19
ENDBRANCH   8  13
ENDBRANCH   5   7
ENDBRANCH   3   5
ENDBRANCH   2   3
ENDBRANCH   1   2
BRANCH   1  21
ATOM     21  C   UNL A   1      32.845  36.121  29.965  1.00  0.00     0.275 C 
BRANCH  21  22
ATOM     22  O   UNL A   1      32.550  35.312  31.118  1.00  0.00    -0.458 OA
BRANCH  22  23
ATOM     23  C   UNL A   1      33.007  35.789  32.298  1.00  0.00     0.338 C 
ATOM     24  O   UNL A   1      32.534  36.671  32.989  1.00  0.00    -0.246 OA
BRANCH  23  25
ATOM     25  C   UNL A   1      34.182  35.002  32.694  1.00  0.00     0.060 A 
ATOM     26  C   UNL A   1      35.451  35.459  32.337  1.00  0.00     0.016 A 
ATOM     27  C   UNL A   1      34.021  33.788  33.361  1.00  0.00     0.016 A 
ATOM     28  C   UNL A   1      36.576  34.700  32.644  1.00  0.00     0.010 A 
ATOM     29  C   UNL A   1      35.151  33.034  33.683  1.00  0.00     0.010 A 
ATOM     30  C   UNL A   1      36.435  33.483  33.321  1.00  0.00    -0.014 A 
BRANCH  30  31
ATOM     31  C   UNL A   1      37.625  32.665  33.642  1.00  0.00     0.031 A 
ATOM     32  C   UNL A   1      38.372  32.899  34.922  1.00  0.00     0.074 A 
ATOM     33  C   UNL A   1      38.041  31.722  32.776  1.00  0.00     0.049 A 
ATOM     34  N   UNL A   1      39.504  32.380  35.324  1.00  0.00    -0.248 NA
ATOM     35  C   UNL A   1      37.765  33.840  35.875  1.00  0.00     0.031 C 
ATOM     36  C   UNL A   1      37.368  31.365  31.526  1.00  0.00     0.029 A 
ATOM     37  N   UNL A   1      39.136  30.899  32.816  1.00  0.00    -0.354 N 
ATOM     38  C   UNL A   1      39.758  32.948  36.565  1.00  0.00     0.074 A 
ATOM     39  C   UNL A   1      38.667  33.858  36.846  1.00  0.00     0.031 C 
ATOM     40  C   UNL A   1      38.068  30.394  30.917  1.00  0.00     0.029 A 
ATOM     41  C   UNL A   1      39.262  30.102  31.705  1.00  0.00     0.049 A 
ATOM     42  H   UNL A   1      39.772  30.880  33.568  1.00  0.00     0.167 HD
ATOM     43  C   UNL A   1      40.806  32.731  37.392  1.00  0.00     0.031 A 
ATOM     44  C   UNL A   1      40.247  29.259  31.344  1.00  0.00     0.031 A 
ATOM     45  C   UNL A   1      41.891  31.829  37.108  1.00  0.00     0.049 A 
ATOM     46  C   UNL A   1      41.444  29.104  32.238  1.00  0.00     0.074 A 
ATOM     47  C   UNL A   1      42.997  31.537  37.885  1.00  0.00     0.029 A 
ATOM     48  N   UNL A   1      42.004  31.076  35.950  1.00  0.00    -0.354 N 
ATOM     49  N   UNL A   1      41.681  29.657  33.403  1.00  0.00    -0.248 NA
ATOM     50  C   UNL A   1      42.514  28.215  31.762  1.00  0.00     0.031 C 
ATOM     51  C   UNL A   1      43.803  30.639  37.177  1.00  0.00     0.029 A 
ATOM     52  C   UNL A   1      43.175  30.338  35.980  1.00  0.00     0.049 A 
ATOM     53  H   UNL A   1      41.349  31.068  35.215  1.00  0.00     0.167 HD
ATOM     54  C   UNL A   1      42.918  29.173  33.807  1.00  0.00     0.074 A 
ATOM     55  C   UNL A   1      43.375  28.270  32.769  1.00  0.00     0.031 C 
ATOM     56  C   UNL A   1      43.613  29.451  34.935  1.00  0.00     0.031 A 
BRANCH  43  57
ATOM     57  C   UNL A   1      40.849  33.519  38.670  1.00  0.00    -0.014 A 
ATOM     58  C   UNL A   1      41.481  34.770  38.736  1.00  0.00     0.009 A 
ATOM     59  C   UNL A   1      40.223  33.012  39.819  1.00  0.00     0.009 A 
ATOM     60  C   UNL A   1      41.511  35.483  39.935  1.00  0.00     0.001 A 
ATOM     61  C   UNL A   1      40.236  33.736  41.012  1.00  0.00     0.001 A 
ATOM     62  C   UNL A   1      40.887  34.968  41.072  1.00  0.00     0.000 A 
ENDBRANCH  43  57
BRANCH  44  63
ATOM     63  C   UNL A   1      40.163  28.531  30.053  1.00  0.00    -0.014 A 
ATOM     64  C   UNL A   1      39.548  27.273  29.983  1.00  0.00     0.009 A 
ATOM     65  C   UNL A   1      40.697  29.093  28.883  1.00  0.00     0.009 A 
ATOM     66  C   UNL A   1      39.483  26.585  28.769  1.00  0.00     0.001 A 
ATOM     67  C   UNL A   1      40.608  28.415  27.666  1.00  0.00     0.001 A 
ATOM     68  C   UNL A   1      40.007  27.158  27.611  1.00  0.00     0.000 A 
ENDBRANCH  44  63
BRANCH  56  69
ATOM     69  C   UNL A   1      44.930  28.751  35.116  1.00  0.00    -0.014 A 
ATOM     70  C   UNL A   1      46.122  29.321  34.647  1.00  0.00     0.009 A 
ATOM     71  C   UNL A   1      44.978  27.526  35.799  1.00  0.00     0.009 A 
ATOM     72  C   UNL A   1      47.339  28.661  34.837  1.00  0.00     0.001 A 
ATOM     73  C   UNL A   1      46.198  26.882  36.007  1.00  0.00     0.001 A 
ATOM     74  C   UNL A   1      47.376  27.446  35.520  1.00  0.00     0.000 A 
ENDBRANCH  56  69
ENDBRANCH  30  31
ENDBRANCH  23  25
ENDBRANCH  22  23
ENDBRANCH  21  22
ENDBRANCH   1  21
TORSDOF 14
ENDMDL
