MODEL 1
REMARK VINA RESULT:     -10.6      0.000      0.000
REMARK SMILES CCc1ccc(CNc2ccc(Cl)c(C(=O)OCCOC(=O)c3ccc(-c4c5nc(c(-c6ccccc6)c6ccc([nH]6)c(-c6ccccc6)c6nc(c(-c7ccccc7)c7ccc4[nH]7)C=C6)C=C5)cc3)c2)cc1
REMARK SMILES IDX 18 1 17 2 15 3 16 4 14 5 9 6 10 7 71 8 11 9 12 10 13 11 8 12
REMARK SMILES IDX 7 14 6 15 3 16 4 17 73 18 5 19 72 20 2 21 1 22 19 23 20 24
REMARK SMILES IDX 21 25 22 26 23 27 24 28 70 29 25 30 69 31 26 32 27 33 28 34
REMARK SMILES IDX 63 35 29 36 68 37 62 38 64 39 30 40 67 41 61 42 60 43 31 45
REMARK SMILES IDX 53 46 38 47 52 48 39 49 42 50 51 51 65 52 40 53 41 54 50 56
REMARK SMILES IDX 66 57 43 58 32 59 33 60 37 61 34 62 36 63 35 64 54 65 55 66
REMARK SMILES IDX 59 67 56 68 58 69 57 70 44 71 45 72 49 73 46 74 48 75 47 76
REMARK H PARENT 8 13 64 44 42 55
REMARK Flexibility Score: inf
ROOT
ATOM      1  C   UNL A   1      45.832  20.892  25.004  1.00  0.00     0.275 C 
ENDROOT
BRANCH   1   2
ATOM      2  O   UNL A   1      44.582  20.539  24.378  1.00  0.00    -0.458 OA
BRANCH   2   3
ATOM      3  C   UNL A   1      43.896  19.495  24.922  1.00  0.00     0.339 C 
ATOM      4  O   UNL A   1      44.159  18.322  24.749  1.00  0.00    -0.246 OA
BRANCH   3   5
ATOM      5  C   UNL A   1      42.810  20.012  25.810  1.00  0.00     0.080 A 
ATOM      6  C   UNL A   1      41.238  21.816  26.351  1.00  0.00     0.035 A 
ATOM      7  C   UNL A   1      40.925  21.163  27.542  1.00  0.00     0.027 A 
ATOM      8  C   UNL A   1      42.217  21.255  25.521  1.00  0.00     0.043 A 
ATOM      9  C   UNL A   1      41.472  19.913  27.829  1.00  0.00     0.023 A 
ATOM     10  C   UNL A   1      42.370  19.310  26.940  1.00  0.00     0.055 A 
ATOM     11  Cl  UNL A   1      42.881  17.711  27.354  1.00  0.00    -0.083 Cl
BRANCH   6  12
ATOM     12  N   UNL A   1      40.505  22.929  25.970  1.00  0.00    -0.381 N 
ATOM     13  H   UNL A   1      40.775  23.453  25.181  1.00  0.00     0.160 HD
BRANCH  12  14
ATOM     14  C   UNL A   1      39.334  23.321  26.744  1.00  0.00     0.148 C 
BRANCH  14  15
ATOM     15  C   UNL A   1      38.066  23.006  25.983  1.00  0.00    -0.029 A 
ATOM     16  C   UNL A   1      35.670  22.359  24.622  1.00  0.00    -0.048 A 
ATOM     17  C   UNL A   1      35.768  23.537  25.373  1.00  0.00     0.004 A 
ATOM     18  C   UNL A   1      36.790  21.521  24.544  1.00  0.00     0.004 A 
ATOM     19  C   UNL A   1      36.948  23.853  26.053  1.00  0.00     0.006 A 
ATOM     20  C   UNL A   1      37.970  21.836  25.222  1.00  0.00     0.006 A 
BRANCH  16  21
ATOM     21  C   UNL A   1      34.400  22.047  23.865  1.00  0.00     0.032 C 
ATOM     22  C   UNL A   1      33.628  23.279  23.406  1.00  0.00     0.009 C 
ENDBRANCH  16  21
ENDBRANCH  14  15
ENDBRANCH  12  14
ENDBRANCH   6  12
ENDBRANCH   3   5
ENDBRANCH   2   3
ENDBRANCH   1   2
BRANCH   1  23
ATOM     23  C   UNL A   1      46.094  22.398  24.899  1.00  0.00     0.275 C 
BRANCH  23  24
ATOM     24  O   UNL A   1      45.124  23.153  25.652  1.00  0.00    -0.458 OA
BRANCH  24  25
ATOM     25  C   UNL A   1      45.209  24.494  25.490  1.00  0.00     0.338 C 
ATOM     26  O   UNL A   1      45.814  25.095  24.616  1.00  0.00    -0.246 OA
BRANCH  25  27
ATOM     27  C   UNL A   1      44.303  25.181  26.429  1.00  0.00     0.060 A 
ATOM     28  C   UNL A   1      44.534  26.542  26.624  1.00  0.00     0.016 A 
ATOM     29  C   UNL A   1      43.321  24.522  27.168  1.00  0.00     0.016 A 
ATOM     30  C   UNL A   1      43.775  27.267  27.534  1.00  0.00     0.010 A 
ATOM     31  C   UNL A   1      42.574  25.246  28.112  1.00  0.00     0.010 A 
ATOM     32  C   UNL A   1      42.806  26.622  28.307  1.00  0.00    -0.014 A 
BRANCH  32  33
ATOM     33  C   UNL A   1      42.161  27.387  29.403  1.00  0.00     0.031 A 
ATOM     34  C   UNL A   1      42.844  27.472  30.740  1.00  0.00     0.074 A 
ATOM     35  C   UNL A   1      41.038  28.095  29.180  1.00  0.00     0.049 A 
ATOM     36  N   UNL A   1      42.477  28.114  31.821  1.00  0.00    -0.248 NA
ATOM     37  C   UNL A   1      44.117  26.746  30.872  1.00  0.00     0.031 C 
ATOM     38  C   UNL A   1      40.324  28.173  27.906  1.00  0.00     0.029 A 
ATOM     39  N   UNL A   1      40.313  28.904  30.022  1.00  0.00    -0.354 N 
ATOM     40  C   UNL A   1      43.466  27.860  32.764  1.00  0.00     0.074 A 
ATOM     41  C   UNL A   1      44.433  26.984  32.137  1.00  0.00     0.031 C 
ATOM     42  C   UNL A   1      39.267  28.989  28.048  1.00  0.00     0.029 A 
ATOM     43  C   UNL A   1      39.206  29.460  29.430  1.00  0.00     0.049 A 
ATOM     44  H   UNL A   1      40.564  29.068  30.960  1.00  0.00     0.167 HD
ATOM     45  C   UNL A   1      43.564  28.315  34.036  1.00  0.00     0.031 A 
ATOM     46  C   UNL A   1      38.241  30.246  29.949  1.00  0.00     0.031 A 
ATOM     47  C   UNL A   1      42.599  29.177  34.666  1.00  0.00     0.049 A 
ATOM     48  C   UNL A   1      38.323  30.659  31.395  1.00  0.00     0.074 A 
ATOM     49  C   UNL A   1      42.608  29.682  35.956  1.00  0.00     0.029 A 
ATOM     50  N   UNL A   1      41.452  29.660  34.056  1.00  0.00    -0.354 N 
ATOM     51  N   UNL A   1      39.258  30.405  32.280  1.00  0.00    -0.248 NA
ATOM     52  C   UNL A   1      37.217  31.481  31.910  1.00  0.00     0.031 C 
ATOM     53  C   UNL A   1      41.433  30.418  36.145  1.00  0.00     0.029 A 
ATOM     54  C   UNL A   1      40.731  30.436  34.950  1.00  0.00     0.049 A 
ATOM     55  H   UNL A   1      41.188  29.477  33.126  1.00  0.00     0.167 HD
ATOM     56  C   UNL A   1      38.872  31.066  33.441  1.00  0.00     0.074 A 
ATOM     57  C   UNL A   1      37.628  31.744  33.142  1.00  0.00     0.031 C 
ATOM     58  C   UNL A   1      39.496  31.111  34.644  1.00  0.00     0.031 A 
BRANCH  45  59
ATOM     59  C   UNL A   1      44.736  27.839  34.849  1.00  0.00    -0.014 A 
ATOM     60  C   UNL A   1      45.947  28.550  34.884  1.00  0.00     0.009 A 
ATOM     61  C   UNL A   1      44.619  26.664  35.607  1.00  0.00     0.009 A 
ATOM     62  C   UNL A   1      47.026  28.073  35.630  1.00  0.00     0.001 A 
ATOM     63  C   UNL A   1      45.689  26.205  36.377  1.00  0.00     0.001 A 
ATOM     64  C   UNL A   1      46.895  26.904  36.380  1.00  0.00     0.000 A 
ENDBRANCH  45  59
BRANCH  46  65
ATOM     65  C   UNL A   1      37.089  30.673  29.110  1.00  0.00    -0.014 A 
ATOM     66  C   UNL A   1      36.967  32.001  28.671  1.00  0.00     0.009 A 
ATOM     67  C   UNL A   1      36.078  29.757  28.780  1.00  0.00     0.009 A 
ATOM     68  C   UNL A   1      35.840  32.409  27.950  1.00  0.00     0.001 A 
ATOM     69  C   UNL A   1      34.970  30.159  28.030  1.00  0.00     0.001 A 
ATOM     70  C   UNL A   1      34.846  31.487  27.627  1.00  0.00     0.000 A 
ENDBRANCH  46  65
BRANCH  58  71
ATOM     71  C   UNL A   1      38.875  31.970  35.713  1.00  0.00    -0.014 A 
ATOM     72  C   UNL A   1      38.946  33.372  35.671  1.00  0.00     0.009 A 
ATOM     73  C   UNL A   1      38.185  31.360  36.774  1.00  0.00     0.009 A 
ATOM     74  C   UNL A   1      38.383  34.140  36.693  1.00  0.00     0.001 A 
ATOM     75  C   UNL A   1      37.591  32.131  37.773  1.00  0.00     0.001 A 
ATOM     76  C   UNL A   1      37.703  33.520  37.741  1.00  0.00     0.000 A 
ENDBRANCH  58  71
ENDBRANCH  32  33
ENDBRANCH  25  27
ENDBRANCH  24  25
ENDBRANCH  23  24
ENDBRANCH   1  23
TORSDOF 15
ENDMDL
MODEL 2
REMARK VINA RESULT:     -10.5      4.226      8.933
REMARK SMILES CCc1ccc(CNc2ccc(Cl)c(C(=O)OCCOC(=O)c3ccc(-c4c5nc(c(-c6ccccc6)c6ccc([nH]6)c(-c6ccccc6)c6nc(c(-c7ccccc7)c7ccc4[nH]7)C=C6)C=C5)cc3)c2)cc1
REMARK SMILES IDX 18 1 17 2 15 3 16 4 14 5 9 6 10 7 71 8 11 9 12 10 13 11 8 12
REMARK SMILES IDX 7 14 6 15 3 16 4 17 73 18 5 19 72 20 2 21 1 22 19 23 20 24
REMARK SMILES IDX 21 25 22 26 23 27 24 28 70 29 25 30 69 31 26 32 27 33 28 34
REMARK SMILES IDX 63 35 29 36 68 37 62 38 64 39 30 40 67 41 61 42 60 43 31 45
REMARK SMILES IDX 53 46 38 47 52 48 39 49 42 50 51 51 65 52 40 53 41 54 50 56
REMARK SMILES IDX 66 57 43 58 32 59 33 60 37 61 34 62 36 63 35 64 54 65 55 66
REMARK SMILES IDX 59 67 56 68 58 69 57 70 44 71 45 72 49 73 46 74 48 75 47 76
REMARK H PARENT 8 13 64 44 42 55
REMARK Flexibility Score: inf
ROOT
ATOM      1  C   UNL A   1      31.764  28.583  27.585  1.00  0.00     0.275 C 
ENDROOT
BRANCH   1   2
ATOM      2  O   UNL A   1      32.342  27.502  26.827  1.00  0.00    -0.458 OA
BRANCH   2   3
ATOM      3  C   UNL A   1      31.481  26.717  26.119  1.00  0.00     0.339 C 
ATOM      4  O   UNL A   1      30.404  26.327  26.520  1.00  0.00    -0.246 OA
BRANCH   3   5
ATOM      5  C   UNL A   1      32.036  26.464  24.754  1.00  0.00     0.080 A 
ATOM      6  C   UNL A   1      33.584  25.200  23.332  1.00  0.00     0.035 A 
ATOM      7  C   UNL A   1      33.294  26.064  22.277  1.00  0.00     0.027 A 
ATOM      8  C   UNL A   1      32.987  25.443  24.575  1.00  0.00     0.043 A 
ATOM      9  C   UNL A   1      32.327  27.057  22.422  1.00  0.00     0.023 A 
ATOM     10  C   UNL A   1      31.656  27.224  23.639  1.00  0.00     0.055 A 
ATOM     11  Cl  UNL A   1      30.398  28.410  23.651  1.00  0.00    -0.083 Cl
BRANCH   6  12
ATOM     12  N   UNL A   1      34.359  24.074  23.099  1.00  0.00    -0.381 N 
ATOM     13  H   UNL A   1      34.897  24.006  22.277  1.00  0.00     0.160 HD
BRANCH  12  14
ATOM     14  C   UNL A   1      34.372  22.993  24.075  1.00  0.00     0.148 C 
BRANCH  14  15
ATOM     15  C   UNL A   1      35.748  22.847  24.687  1.00  0.00    -0.029 A 
ATOM     16  C   UNL A   1      38.283  22.553  25.910  1.00  0.00    -0.048 A 
ATOM     17  C   UNL A   1      37.779  21.558  25.063  1.00  0.00     0.004 A 
ATOM     18  C   UNL A   1      37.513  23.703  26.122  1.00  0.00     0.004 A 
ATOM     19  C   UNL A   1      36.524  21.698  24.465  1.00  0.00     0.006 A 
ATOM     20  C   UNL A   1      36.258  23.846  25.524  1.00  0.00     0.006 A 
BRANCH  16  21
ATOM     21  C   UNL A   1      39.657  22.403  26.522  1.00  0.00     0.032 C 
ATOM     22  C   UNL A   1      40.265  21.014  26.358  1.00  0.00     0.009 C 
ENDBRANCH  16  21
ENDBRANCH  14  15
ENDBRANCH  12  14
ENDBRANCH   6  12
ENDBRANCH   3   5
ENDBRANCH   2   3
ENDBRANCH   1   2
BRANCH   1  23
ATOM     23  C   UNL A   1      31.778  29.888  26.782  1.00  0.00     0.275 C 
BRANCH  23  24
ATOM     24  O   UNL A   1      33.124  30.292  26.462  1.00  0.00    -0.458 OA
BRANCH  24  25
ATOM     25  C   UNL A   1      33.584  31.338  27.187  1.00  0.00     0.338 C 
ATOM     26  O   UNL A   1      32.967  32.344  27.503  1.00  0.00    -0.246 OA
BRANCH  25  27
ATOM     27  C   UNL A   1      34.922  31.039  27.726  1.00  0.00     0.060 A 
ATOM     28  C   UNL A   1      35.179  29.704  28.034  1.00  0.00     0.016 A 
ATOM     29  C   UNL A   1      35.870  32.021  28.015  1.00  0.00     0.016 A 
ATOM     30  C   UNL A   1      36.388  29.327  28.606  1.00  0.00     0.010 A 
ATOM     31  C   UNL A   1      37.080  31.647  28.621  1.00  0.00     0.010 A 
ATOM     32  C   UNL A   1      37.340  30.297  28.929  1.00  0.00    -0.014 A 
BRANCH  32  33
ATOM     33  C   UNL A   1      38.527  29.878  29.717  1.00  0.00     0.031 A 
ATOM     34  C   UNL A   1      38.671  30.352  31.137  1.00  0.00     0.074 A 
ATOM     35  C   UNL A   1      39.408  28.992  29.216  1.00  0.00     0.049 A 
ATOM     36  N   UNL A   1      39.605  30.081  32.013  1.00  0.00    -0.248 NA
ATOM     37  C   UNL A   1      37.614  31.244  31.639  1.00  0.00     0.031 C 
ATOM     38  C   UNL A   1      39.335  28.384  27.888  1.00  0.00     0.029 A 
ATOM     39  N   UNL A   1      40.528  28.434  29.781  1.00  0.00    -0.354 N 
ATOM     40  C   UNL A   1      39.255  30.775  33.164  1.00  0.00     0.074 A 
ATOM     41  C   UNL A   1      38.040  31.503  32.867  1.00  0.00     0.031 C 
ATOM     42  C   UNL A   1      40.364  27.532  27.742  1.00  0.00     0.029 A 
ATOM     43  C   UNL A   1      41.188  27.564  28.948  1.00  0.00     0.049 A 
ATOM     44  H   UNL A   1      40.830  28.639  30.696  1.00  0.00     0.167 HD
ATOM     45  C   UNL A   1      39.886  30.805  34.363  1.00  0.00     0.031 A 
ATOM     46  C   UNL A   1      42.337  26.884  29.130  1.00  0.00     0.031 A 
ATOM     47  C   UNL A   1      41.101  30.091  34.659  1.00  0.00     0.049 A 
ATOM     48  C   UNL A   1      43.071  27.010  30.440  1.00  0.00     0.074 A 
ATOM     49  C   UNL A   1      41.820  30.069  35.843  1.00  0.00     0.029 A 
ATOM     50  N   UNL A   1      41.778  29.278  33.764  1.00  0.00    -0.354 N 
ATOM     51  N   UNL A   1      42.736  27.677  31.518  1.00  0.00    -0.248 NA
ATOM     52  C   UNL A   1      44.340  26.275  30.559  1.00  0.00     0.031 C 
ATOM     53  C   UNL A   1      42.966  29.292  35.642  1.00  0.00     0.029 A 
ATOM     54  C   UNL A   1      42.921  28.769  34.360  1.00  0.00     0.049 A 
ATOM     55  H   UNL A   1      41.490  29.091  32.842  1.00  0.00     0.167 HD
ATOM     56  C   UNL A   1      43.731  27.412  32.453  1.00  0.00     0.074 A 
ATOM     57  C   UNL A   1      44.671  26.512  31.820  1.00  0.00     0.031 C 
ATOM     58  C   UNL A   1      43.850  27.870  33.724  1.00  0.00     0.031 A 
BRANCH  45  59
ATOM     59  C   UNL A   1      39.296  31.685  35.429  1.00  0.00    -0.014 A 
ATOM     60  C   UNL A   1      39.658  33.036  35.554  1.00  0.00     0.009 A 
ATOM     61  C   UNL A   1      38.345  31.154  36.315  1.00  0.00     0.009 A 
ATOM     62  C   UNL A   1      39.111  33.825  36.569  1.00  0.00     0.001 A 
ATOM     63  C   UNL A   1      37.775  31.953  37.309  1.00  0.00     0.001 A 
ATOM     64  C   UNL A   1      38.166  33.284  37.441  1.00  0.00     0.000 A 
ENDBRANCH  45  59
BRANCH  46  65
ATOM     65  C   UNL A   1      42.893  26.041  28.037  1.00  0.00    -0.014 A 
ATOM     66  C   UNL A   1      43.741  26.589  27.061  1.00  0.00     0.009 A 
ATOM     67  C   UNL A   1      42.539  24.686  27.940  1.00  0.00     0.009 A 
ATOM     68  C   UNL A   1      44.193  25.806  25.995  1.00  0.00     0.001 A 
ATOM     69  C   UNL A   1      43.020  23.898  26.892  1.00  0.00     0.001 A 
ATOM     70  C   UNL A   1      43.836  24.461  25.914  1.00  0.00     0.000 A 
ENDBRANCH  46  65
BRANCH  58  71
ATOM     71  C   UNL A   1      45.009  27.357  34.537  1.00  0.00    -0.014 A 
ATOM     72  C   UNL A   1      46.251  28.012  34.554  1.00  0.00     0.009 A 
ATOM     73  C   UNL A   1      44.844  26.202  35.319  1.00  0.00     0.009 A 
ATOM     74  C   UNL A   1      47.315  27.494  35.297  1.00  0.00     0.001 A 
ATOM     75  C   UNL A   1      45.897  25.707  36.090  1.00  0.00     0.001 A 
ATOM     76  C   UNL A   1      47.136  26.345  36.067  1.00  0.00     0.000 A 
ENDBRANCH  58  71
ENDBRANCH  32  33
ENDBRANCH  25  27
ENDBRANCH  24  25
ENDBRANCH  23  24
ENDBRANCH   1  23
TORSDOF 15
ENDMDL
MODEL 3
REMARK VINA RESULT:     -10.4      4.577      7.129
REMARK SMILES CCc1ccc(CNc2ccc(Cl)c(C(=O)OCCOC(=O)c3ccc(-c4c5nc(c(-c6ccccc6)c6ccc([nH]6)c(-c6ccccc6)c6nc(c(-c7ccccc7)c7ccc4[nH]7)C=C6)C=C5)cc3)c2)cc1
REMARK SMILES IDX 18 1 17 2 15 3 16 4 14 5 9 6 10 7 71 8 11 9 12 10 13 11 8 12
REMARK SMILES IDX 7 14 6 15 3 16 4 17 73 18 5 19 72 20 2 21 1 22 19 23 20 24
REMARK SMILES IDX 21 25 22 26 23 27 24 28 70 29 25 30 69 31 26 32 27 33 28 34
REMARK SMILES IDX 63 35 29 36 68 37 62 38 64 39 30 40 67 41 61 42 60 43 31 45
REMARK SMILES IDX 53 46 38 47 52 48 39 49 42 50 51 51 65 52 40 53 41 54 50 56
REMARK SMILES IDX 66 57 43 58 32 59 33 60 37 61 34 62 36 63 35 64 54 65 55 66
REMARK SMILES IDX 59 67 56 68 58 69 57 70 44 71 45 72 49 73 46 74 48 75 47 76
REMARK H PARENT 8 13 64 44 42 55
REMARK Flexibility Score: inf
ROOT
ATOM      1  C   UNL A   1      42.493  19.286  26.785  1.00  0.00     0.275 C 
ENDROOT
BRANCH   1   2
ATOM      2  O   UNL A   1      41.738  20.374  26.216  1.00  0.00    -0.458 OA
BRANCH   2   3
ATOM      3  C   UNL A   1      40.408  20.159  26.010  1.00  0.00     0.339 C 
ATOM      4  O   UNL A   1      39.912  19.091  25.717  1.00  0.00    -0.246 OA
BRANCH   3   5
ATOM      5  C   UNL A   1      39.648  21.422  26.261  1.00  0.00     0.080 A 
ATOM      6  C   UNL A   1      37.683  22.808  25.774  1.00  0.00     0.035 A 
ATOM      7  C   UNL A   1      38.260  23.851  26.498  1.00  0.00     0.027 A 
ATOM      8  C   UNL A   1      38.410  21.620  25.623  1.00  0.00     0.043 A 
ATOM      9  C   UNL A   1      39.467  23.662  27.170  1.00  0.00     0.023 A 
ATOM     10  C   UNL A   1      40.135  22.434  27.101  1.00  0.00     0.055 A 
ATOM     11  Cl  UNL A   1      41.557  22.292  28.074  1.00  0.00    -0.083 Cl
BRANCH   6  12
ATOM     12  N   UNL A   1      36.379  22.931  25.323  1.00  0.00    -0.381 N 
ATOM     13  H   UNL A   1      35.653  22.434  25.764  1.00  0.00     0.160 HD
BRANCH  12  14
ATOM     14  C   UNL A   1      36.086  23.801  24.191  1.00  0.00     0.148 C 
BRANCH  14  15
ATOM     15  C   UNL A   1      34.790  24.546  24.415  1.00  0.00    -0.029 A 
ATOM     16  C   UNL A   1      32.319  25.864  24.829  1.00  0.00    -0.048 A 
ATOM     17  C   UNL A   1      33.180  25.608  25.903  1.00  0.00     0.004 A 
ATOM     18  C   UNL A   1      32.717  25.470  23.544  1.00  0.00     0.004 A 
ATOM     19  C   UNL A   1      34.397  24.950  25.701  1.00  0.00     0.006 A 
ATOM     20  C   UNL A   1      33.933  24.812  23.341  1.00  0.00     0.006 A 
BRANCH  16  21
ATOM     21  C   UNL A   1      31.023  26.606  25.057  1.00  0.00     0.032 C 
ATOM     22  C   UNL A   1      30.845  27.837  24.174  1.00  0.00     0.009 C 
ENDBRANCH  16  21
ENDBRANCH  14  15
ENDBRANCH  12  14
ENDBRANCH   6  12
ENDBRANCH   3   5
ENDBRANCH   2   3
ENDBRANCH   1   2
BRANCH   1  23
ATOM     23  C   UNL A   1      43.276  18.534  25.705  1.00  0.00     0.275 C 
BRANCH  23  24
ATOM     24  O   UNL A   1      43.483  19.356  24.539  1.00  0.00    -0.458 OA
BRANCH  24  25
ATOM     25  C   UNL A   1      44.777  19.661  24.290  1.00  0.00     0.338 C 
ATOM     26  O   UNL A   1      45.608  18.958  23.736  1.00  0.00    -0.246 OA
BRANCH  25  27
ATOM     27  C   UNL A   1      45.044  21.072  24.620  1.00  0.00     0.060 A 
ATOM     28  C   UNL A   1      45.571  21.321  25.887  1.00  0.00     0.016 A 
ATOM     29  C   UNL A   1      44.713  22.134  23.777  1.00  0.00     0.016 A 
ATOM     30  C   UNL A   1      45.799  22.621  26.318  1.00  0.00     0.010 A 
ATOM     31  C   UNL A   1      44.914  23.450  24.223  1.00  0.00     0.010 A 
ATOM     32  C   UNL A   1      45.450  23.700  25.502  1.00  0.00    -0.014 A 
BRANCH  32  33
ATOM     33  C   UNL A   1      45.523  25.066  26.077  1.00  0.00     0.031 A 
ATOM     34  C   UNL A   1      46.832  25.807  26.047  1.00  0.00     0.074 A 
ATOM     35  C   UNL A   1      44.414  25.689  26.517  1.00  0.00     0.049 A 
ATOM     36  N   UNL A   1      47.112  27.018  26.459  1.00  0.00    -0.248 NA
ATOM     37  C   UNL A   1      47.976  25.089  25.462  1.00  0.00     0.031 C 
ATOM     38  C   UNL A   1      43.067  25.119  26.518  1.00  0.00     0.029 A 
ATOM     39  N   UNL A   1      44.245  26.952  27.030  1.00  0.00    -0.354 N 
ATOM     40  C   UNL A   1      48.463  27.203  26.196  1.00  0.00     0.074 A 
ATOM     41  C   UNL A   1      48.953  25.972  25.614  1.00  0.00     0.031 C 
ATOM     42  C   UNL A   1      42.208  26.032  27.003  1.00  0.00     0.029 A 
ATOM     43  C   UNL A   1      42.948  27.233  27.382  1.00  0.00     0.049 A 
ATOM     44  H   UNL A   1      44.984  27.594  27.135  1.00  0.00     0.167 HD
ATOM     45  C   UNL A   1      49.229  28.299  26.415  1.00  0.00     0.031 A 
ATOM     46  C   UNL A   1      42.419  28.329  27.962  1.00  0.00     0.031 A 
ATOM     47  C   UNL A   1      48.748  29.521  27.003  1.00  0.00     0.049 A 
ATOM     48  C   UNL A   1      43.312  29.498  28.284  1.00  0.00     0.074 A 
ATOM     49  C   UNL A   1      49.452  30.683  27.275  1.00  0.00     0.029 A 
ATOM     50  N   UNL A   1      47.442  29.741  27.414  1.00  0.00    -0.354 N 
ATOM     51  N   UNL A   1      44.591  29.659  28.039  1.00  0.00    -0.248 NA
ATOM     52  C   UNL A   1      42.682  30.646  28.955  1.00  0.00     0.031 C 
ATOM     53  C   UNL A   1      48.586  31.581  27.908  1.00  0.00     0.029 A 
ATOM     54  C   UNL A   1      47.325  31.009  27.961  1.00  0.00     0.049 A 
ATOM     55  H   UNL A   1      46.707  29.091  27.330  1.00  0.00     0.167 HD
ATOM     56  C   UNL A   1      44.907  30.936  28.490  1.00  0.00     0.074 A 
ATOM     57  C   UNL A   1      43.683  31.511  29.007  1.00  0.00     0.031 C 
ATOM     58  C   UNL A   1      46.103  31.576  28.471  1.00  0.00     0.031 A 
BRANCH  45  59
ATOM     59  C   UNL A   1      50.688  28.200  26.063  1.00  0.00    -0.014 A 
ATOM     60  C   UNL A   1      51.642  27.757  26.993  1.00  0.00     0.009 A 
ATOM     61  C   UNL A   1      51.111  28.544  24.770  1.00  0.00     0.009 A 
ATOM     62  C   UNL A   1      52.993  27.697  26.646  1.00  0.00     0.001 A 
ATOM     63  C   UNL A   1      52.458  28.452  24.414  1.00  0.00     0.001 A 
ATOM     64  C   UNL A   1      53.399  28.040  25.356  1.00  0.00     0.000 A 
ENDBRANCH  45  59
BRANCH  46  65
ATOM     65  C   UNL A   1      40.974  28.371  28.311  1.00  0.00    -0.014 A 
ATOM     66  C   UNL A   1      40.036  28.956  27.444  1.00  0.00     0.009 A 
ATOM     67  C   UNL A   1      40.529  27.859  29.540  1.00  0.00     0.009 A 
ATOM     68  C   UNL A   1      38.693  29.060  27.818  1.00  0.00     0.001 A 
ATOM     69  C   UNL A   1      39.180  27.933  29.896  1.00  0.00     0.001 A 
ATOM     70  C   UNL A   1      38.266  28.544  29.041  1.00  0.00     0.000 A 
ENDBRANCH  46  65
BRANCH  58  71
ATOM     71  C   UNL A   1      46.135  32.996  28.971  1.00  0.00    -0.014 A 
ATOM     72  C   UNL A   1      46.414  33.303  30.312  1.00  0.00     0.009 A 
ATOM     73  C   UNL A   1      45.900  34.048  28.071  1.00  0.00     0.009 A 
ATOM     74  C   UNL A   1      46.408  34.630  30.750  1.00  0.00     0.001 A 
ATOM     75  C   UNL A   1      45.932  35.375  28.503  1.00  0.00     0.001 A 
ATOM     76  C   UNL A   1      46.171  35.664  29.845  1.00  0.00     0.000 A 
ENDBRANCH  58  71
ENDBRANCH  32  33
ENDBRANCH  25  27
ENDBRANCH  24  25
ENDBRANCH  23  24
ENDBRANCH   1  23
TORSDOF 15
ENDMDL
