MODEL 1
REMARK VINA RESULT:     -11.3      0.000      0.000
REMARK SMILES CC1(C)CCCC[C@H]1NC(=O)Nc1ccccc1C(=O)OCCOC(=O)c1ccc(-c2c3nc(c(-c4ccccc4)c4ccc([nH]4)c(-c4ccccc4)c4nc(c(-c5ccccc5)c5ccc2[nH]5)C=C4)C=C3)cc1
REMARK SMILES IDX 22 1 21 2 19 3 20 4 18 5 13 6 14 7 15 8 17 9 16 10 12 11
REMARK SMILES IDX 9 12 10 13 11 15 8 17 1 18 2 19 3 20 4 21 5 22 7 23 6 24
REMARK SMILES IDX 23 25 24 26 25 27 26 28 27 29 28 30 74 31 29 32 73 33 30 34
REMARK SMILES IDX 31 35 32 36 67 37 33 38 72 39 66 40 68 41 34 42 71 43 65 44
REMARK SMILES IDX 64 45 35 47 57 48 42 49 56 50 43 51 46 52 55 53 69 54 44 55
REMARK SMILES IDX 45 56 54 58 70 59 47 60 36 61 37 62 41 63 38 64 40 65 39 66
REMARK SMILES IDX 58 67 59 68 63 69 60 70 62 71 61 72 48 73 49 74 53 75 50 76
REMARK SMILES IDX 52 77 51 78
REMARK H PARENT 9 14 12 16 68 46 46 57
REMARK Flexibility Score: inf
ROOT
ATOM      1  C   UNL A   1      33.250  34.780  28.366  1.00  0.00     0.275 C 
ENDROOT
BRANCH   1   2
ATOM      2  O   UNL A   1      33.726  33.458  28.704  1.00  0.00    -0.458 OA
BRANCH   2   3
ATOM      3  C   UNL A   1      34.824  33.092  28.012  1.00  0.00     0.340 C 
ATOM      4  O   UNL A   1      35.628  33.853  27.507  1.00  0.00    -0.246 OA
BRANCH   3   5
ATOM      5  C   UNL A   1      35.037  31.652  27.858  1.00  0.00     0.083 A 
ATOM      6  C   UNL A   1      34.014  30.748  27.557  1.00  0.00     0.057 A 
ATOM      7  C   UNL A   1      34.352  29.392  27.404  1.00  0.00     0.027 A 
ATOM      8  C   UNL A   1      35.687  28.974  27.390  1.00  0.00     0.002 A 
ATOM      9  C   UNL A   1      36.379  31.221  27.868  1.00  0.00     0.018 A 
ATOM     10  C   UNL A   1      36.705  29.894  27.601  1.00  0.00     0.001 A 
BRANCH   6  11
ATOM     11  N   UNL A   1      32.652  31.051  27.400  1.00  0.00    -0.307 N 
ATOM     12  N   UNL A   1      31.887  30.272  25.287  1.00  0.00    -0.335 N 
ATOM     13  C   UNL A   1      31.814  31.099  26.346  1.00  0.00     0.319 C 
ATOM     14  H   UNL A   1      31.285  30.539  24.555  1.00  0.00     0.165 HD
ATOM     15  O   UNL A   1      30.846  31.864  26.402  1.00  0.00    -0.248 OA
ATOM     16  H   UNL A   1      32.210  31.280  28.250  1.00  0.00     0.171 HD
BRANCH  12  17
ATOM     17  C   UNL A   1      32.656  29.063  24.975  1.00  0.00     0.089 C 
ATOM     18  C   UNL A   1      30.593  27.667  24.290  1.00  0.00     0.013 C 
ATOM     19  C   UNL A   1      31.874  27.722  25.162  1.00  0.00    -0.015 C 
ATOM     20  C   UNL A   1      31.461  27.522  26.634  1.00  0.00     0.013 C 
ATOM     21  C   UNL A   1      32.837  26.547  24.792  1.00  0.00     0.008 C 
ATOM     22  C   UNL A   1      33.553  26.690  23.446  1.00  0.00     0.001 C 
ATOM     23  C   UNL A   1      33.181  29.147  23.523  1.00  0.00     0.025 C 
ATOM     24  C   UNL A   1      34.211  28.053  23.285  1.00  0.00     0.002 C 
ENDBRANCH  12  17
ENDBRANCH   6  11
ENDBRANCH   3   5
ENDBRANCH   2   3
ENDBRANCH   1   2
BRANCH   1  25
ATOM     25  C   UNL A   1      33.071  35.751  29.547  1.00  0.00     0.275 C 
BRANCH  25  26
ATOM     26  O   UNL A   1      32.536  35.125  30.733  1.00  0.00    -0.458 OA
BRANCH  26  27
ATOM     27  C   UNL A   1      32.814  35.750  31.901  1.00  0.00     0.338 C 
ATOM     28  O   UNL A   1      32.245  36.725  32.369  1.00  0.00    -0.246 OA
BRANCH  27  29
ATOM     29  C   UNL A   1      33.904  35.073  32.627  1.00  0.00     0.060 A 
ATOM     30  C   UNL A   1      35.185  35.626  32.585  1.00  0.00     0.016 A 
ATOM     31  C   UNL A   1      33.724  33.793  33.153  1.00  0.00     0.016 A 
ATOM     32  C   UNL A   1      36.291  34.921  33.025  1.00  0.00     0.010 A 
ATOM     33  C   UNL A   1      34.838  33.080  33.618  1.00  0.00     0.010 A 
ATOM     34  C   UNL A   1      36.129  33.631  33.526  1.00  0.00    -0.014 A 
BRANCH  34  35
ATOM     35  C   UNL A   1      37.341  32.832  33.796  1.00  0.00     0.031 A 
ATOM     36  C   UNL A   1      38.039  33.000  35.112  1.00  0.00     0.074 A 
ATOM     37  C   UNL A   1      37.744  31.890  32.923  1.00  0.00     0.049 A 
ATOM     38  N   UNL A   1      39.188  32.518  35.507  1.00  0.00    -0.248 NA
ATOM     39  C   UNL A   1      37.344  33.814  36.124  1.00  0.00     0.031 C 
ATOM     40  C   UNL A   1      37.052  31.529  31.684  1.00  0.00     0.029 A 
ATOM     41  N   UNL A   1      38.829  31.055  32.957  1.00  0.00    -0.354 N 
ATOM     42  C   UNL A   1      39.377  33.012  36.792  1.00  0.00     0.074 A 
ATOM     43  C   UNL A   1      38.223  33.820  37.116  1.00  0.00     0.031 C 
ATOM     44  C   UNL A   1      37.729  30.543  31.078  1.00  0.00     0.029 A 
ATOM     45  C   UNL A   1      38.941  30.262  31.841  1.00  0.00     0.049 A 
ATOM     46  H   UNL A   1      39.466  31.026  33.707  1.00  0.00     0.167 HD
ATOM     47  C   UNL A   1      40.435  32.820  37.615  1.00  0.00     0.031 A 
ATOM     48  C   UNL A   1      39.939  29.445  31.456  1.00  0.00     0.031 A 
ATOM     49  C   UNL A   1      41.570  32.005  37.274  1.00  0.00     0.049 A 
ATOM     50  C   UNL A   1      41.154  29.334  32.334  1.00  0.00     0.074 A 
ATOM     51  C   UNL A   1      42.723  31.777  38.003  1.00  0.00     0.029 A 
ATOM     52  N   UNL A   1      41.684  31.276  36.099  1.00  0.00    -0.354 N 
ATOM     53  N   UNL A   1      41.380  29.881  33.505  1.00  0.00    -0.248 NA
ATOM     54  C   UNL A   1      42.260  28.508  31.831  1.00  0.00     0.031 C 
ATOM     55  C   UNL A   1      43.553  30.942  37.248  1.00  0.00     0.029 A 
ATOM     56  C   UNL A   1      42.894  30.608  36.075  1.00  0.00     0.049 A 
ATOM     57  H   UNL A   1      41.003  31.239  35.388  1.00  0.00     0.167 HD
ATOM     58  C   UNL A   1      42.643  29.451  33.888  1.00  0.00     0.074 A 
ATOM     59  C   UNL A   1      43.127  28.586  32.831  1.00  0.00     0.031 C 
ATOM     60  C   UNL A   1      43.342  29.747  35.011  1.00  0.00     0.031 A 
BRANCH  47  61
ATOM     61  C   UNL A   1      40.439  33.570  38.915  1.00  0.00    -0.014 A 
ATOM     62  C   UNL A   1      41.000  34.851  39.029  1.00  0.00     0.009 A 
ATOM     63  C   UNL A   1      39.874  32.973  40.053  1.00  0.00     0.009 A 
ATOM     64  C   UNL A   1      41.025  35.502  40.266  1.00  0.00     0.001 A 
ATOM     65  C   UNL A   1      39.877  33.636  41.280  1.00  0.00     0.001 A 
ATOM     66  C   UNL A   1      40.461  34.896  41.388  1.00  0.00     0.000 A 
ENDBRANCH  47  61
BRANCH  48  67
ATOM     67  C   UNL A   1      39.866  28.742  30.148  1.00  0.00    -0.014 A 
ATOM     68  C   UNL A   1      40.312  29.361  28.972  1.00  0.00     0.009 A 
ATOM     69  C   UNL A   1      39.343  27.440  30.072  1.00  0.00     0.009 A 
ATOM     70  C   UNL A   1      40.217  28.698  27.745  1.00  0.00     0.001 A 
ATOM     71  C   UNL A   1      39.278  26.769  28.850  1.00  0.00     0.001 A 
ATOM     72  C   UNL A   1      39.706  27.402  27.686  1.00  0.00     0.000 A 
ENDBRANCH  48  67
BRANCH  60  73
ATOM     73  C   UNL A   1      44.681  29.088  35.174  1.00  0.00    -0.014 A 
ATOM     74  C   UNL A   1      44.811  27.854  35.828  1.00  0.00     0.009 A 
ATOM     75  C   UNL A   1      45.818  29.691  34.615  1.00  0.00     0.009 A 
ATOM     76  C   UNL A   1      46.063  27.248  35.941  1.00  0.00     0.001 A 
ATOM     77  C   UNL A   1      47.064  29.070  34.706  1.00  0.00     0.001 A 
ATOM     78  C   UNL A   1      47.186  27.853  35.375  1.00  0.00     0.000 A 
ENDBRANCH  60  73
ENDBRANCH  34  35
ENDBRANCH  27  29
ENDBRANCH  26  27
ENDBRANCH  25  26
ENDBRANCH   1  25
TORSDOF 13
ENDMDL
MODEL 2
REMARK VINA RESULT:     -10.8      7.885     12.659
REMARK SMILES CC1(C)CCCC[C@H]1NC(=O)Nc1ccccc1C(=O)OCCOC(=O)c1ccc(-c2c3nc(c(-c4ccccc4)c4ccc([nH]4)c(-c4ccccc4)c4nc(c(-c5ccccc5)c5ccc2[nH]5)C=C4)C=C3)cc1
REMARK SMILES IDX 22 1 21 2 19 3 20 4 18 5 13 6 14 7 15 8 17 9 16 10 12 11
REMARK SMILES IDX 9 12 10 13 11 15 8 17 1 18 2 19 3 20 4 21 5 22 7 23 6 24
REMARK SMILES IDX 23 25 24 26 25 27 26 28 27 29 28 30 74 31 29 32 73 33 30 34
REMARK SMILES IDX 31 35 32 36 67 37 33 38 72 39 66 40 68 41 34 42 71 43 65 44
REMARK SMILES IDX 64 45 35 47 57 48 42 49 56 50 43 51 46 52 55 53 69 54 44 55
REMARK SMILES IDX 45 56 54 58 70 59 47 60 36 61 37 62 41 63 38 64 40 65 39 66
REMARK SMILES IDX 58 67 59 68 63 69 60 70 62 71 61 72 48 73 49 74 53 75 50 76
REMARK SMILES IDX 52 77 51 78
REMARK H PARENT 9 14 12 16 68 46 46 57
REMARK Flexibility Score: inf
ROOT
ATOM      1  C   UNL A   1      42.442  20.057  26.582  1.00  0.00     0.275 C 
ENDROOT
BRANCH   1   2
ATOM      2  O   UNL A   1      41.251  20.772  26.181  1.00  0.00    -0.458 OA
BRANCH   2   3
ATOM      3  C   UNL A   1      40.614  21.368  27.208  1.00  0.00     0.340 C 
ATOM      4  O   UNL A   1      40.684  21.030  28.376  1.00  0.00    -0.246 OA
BRANCH   3   5
ATOM      5  C   UNL A   1      39.762  22.508  26.864  1.00  0.00     0.083 A 
ATOM      6  C   UNL A   1      38.754  22.453  25.897  1.00  0.00     0.057 A 
ATOM      7  C   UNL A   1      37.982  23.607  25.678  1.00  0.00     0.027 A 
ATOM      8  C   UNL A   1      38.102  24.727  26.507  1.00  0.00     0.002 A 
ATOM      9  C   UNL A   1      39.895  23.649  27.680  1.00  0.00     0.018 A 
ATOM     10  C   UNL A   1      39.045  24.741  27.525  1.00  0.00     0.001 A 
BRANCH   6  11
ATOM     11  N   UNL A   1      38.429  21.348  25.092  1.00  0.00    -0.307 N 
ATOM     12  N   UNL A   1      36.179  20.690  25.491  1.00  0.00    -0.335 N 
ATOM     13  C   UNL A   1      37.442  20.432  25.107  1.00  0.00     0.319 C 
ATOM     14  H   UNL A   1      35.632  19.875  25.567  1.00  0.00     0.165 HD
ATOM     15  O   UNL A   1      37.672  19.317  24.627  1.00  0.00    -0.248 OA
ATOM     16  H   UNL A   1      39.063  21.215  24.351  1.00  0.00     0.171 HD
BRANCH  12  17
ATOM     17  C   UNL A   1      35.430  21.907  25.820  1.00  0.00     0.089 C 
ATOM     18  C   UNL A   1      33.526  21.449  24.136  1.00  0.00     0.013 C 
ATOM     19  C   UNL A   1      34.563  22.479  24.651  1.00  0.00    -0.015 C 
ATOM     20  C   UNL A   1      35.449  22.905  23.462  1.00  0.00     0.013 C 
ATOM     21  C   UNL A   1      33.844  23.766  25.171  1.00  0.00     0.008 C 
ATOM     22  C   UNL A   1      33.102  23.606  26.501  1.00  0.00     0.001 C 
ATOM     23  C   UNL A   1      34.522  21.639  27.042  1.00  0.00     0.025 C 
ATOM     24  C   UNL A   1      33.968  22.954  27.569  1.00  0.00     0.002 C 
ENDBRANCH  12  17
ENDBRANCH   6  11
ENDBRANCH   3   5
ENDBRANCH   2   3
ENDBRANCH   1   2
BRANCH   1  25
ATOM     25  C   UNL A   1      42.925  18.963  25.614  1.00  0.00     0.275 C 
BRANCH  25  26
ATOM     26  O   UNL A   1      43.435  19.480  24.366  1.00  0.00    -0.458 OA
BRANCH  26  27
ATOM     27  C   UNL A   1      44.783  19.576  24.279  1.00  0.00     0.338 C 
ATOM     28  O   UNL A   1      45.570  18.681  24.012  1.00  0.00    -0.246 OA
BRANCH  27  29
ATOM     29  C   UNL A   1      45.238  20.961  24.503  1.00  0.00     0.060 A 
ATOM     30  C   UNL A   1      45.812  21.289  25.733  1.00  0.00     0.016 A 
ATOM     31  C   UNL A   1      44.902  21.976  23.607  1.00  0.00     0.016 A 
ATOM     32  C   UNL A   1      46.028  22.605  26.100  1.00  0.00     0.010 A 
ATOM     33  C   UNL A   1      45.135  23.311  23.965  1.00  0.00     0.010 A 
ATOM     34  C   UNL A   1      45.671  23.630  25.226  1.00  0.00    -0.014 A 
BRANCH  34  35
ATOM     35  C   UNL A   1      45.723  25.020  25.724  1.00  0.00     0.031 A 
ATOM     36  C   UNL A   1      47.016  25.774  25.626  1.00  0.00     0.074 A 
ATOM     37  C   UNL A   1      44.605  25.632  26.153  1.00  0.00     0.049 A 
ATOM     38  N   UNL A   1      47.333  26.940  26.124  1.00  0.00    -0.248 NA
ATOM     39  C   UNL A   1      48.093  25.132  24.853  1.00  0.00     0.031 C 
ATOM     40  C   UNL A   1      43.262  25.049  26.146  1.00  0.00     0.029 A 
ATOM     41  N   UNL A   1      44.422  26.889  26.666  1.00  0.00    -0.354 N 
ATOM     42  C   UNL A   1      48.661  27.146  25.770  1.00  0.00     0.074 A 
ATOM     43  C   UNL A   1      49.086  25.996  25.005  1.00  0.00     0.031 C 
ATOM     44  C   UNL A   1      42.392  25.949  26.629  1.00  0.00     0.029 A 
ATOM     45  C   UNL A   1      43.128  27.136  27.054  1.00  0.00     0.049 A 
ATOM     46  H   UNL A   1      45.147  27.550  26.748  1.00  0.00     0.167 HD
ATOM     47  C   UNL A   1      49.454  28.199  26.077  1.00  0.00     0.031 A 
ATOM     48  C   UNL A   1      42.611  28.180  27.728  1.00  0.00     0.031 A 
ATOM     49  C   UNL A   1      49.007  29.338  26.833  1.00  0.00     0.049 A 
ATOM     50  C   UNL A   1      43.534  29.286  28.156  1.00  0.00     0.074 A 
ATOM     51  C   UNL A   1      49.732  30.440  27.250  1.00  0.00     0.029 A 
ATOM     52  N   UNL A   1      47.705  29.520  27.277  1.00  0.00    -0.354 N 
ATOM     53  N   UNL A   1      44.814  29.436  27.909  1.00  0.00    -0.248 NA
ATOM     54  C   UNL A   1      42.948  30.358  28.972  1.00  0.00     0.031 C 
ATOM     55  C   UNL A   1      48.875  31.268  27.985  1.00  0.00     0.029 A 
ATOM     56  C   UNL A   1      47.607  30.707  27.978  1.00  0.00     0.049 A 
ATOM     57  H   UNL A   1      46.961  28.894  27.117  1.00  0.00     0.167 HD
ATOM     58  C   UNL A   1      45.182  30.626  28.520  1.00  0.00     0.074 A 
ATOM     59  C   UNL A   1      43.986  31.165  29.138  1.00  0.00     0.031 C 
ATOM     60  C   UNL A   1      46.400  31.220  28.571  1.00  0.00     0.031 A 
BRANCH  47  61
ATOM     61  C   UNL A   1      50.896  28.117  25.666  1.00  0.00    -0.014 A 
ATOM     62  C   UNL A   1      51.339  28.589  24.421  1.00  0.00     0.009 A 
ATOM     63  C   UNL A   1      51.828  27.547  26.547  1.00  0.00     0.009 A 
ATOM     64  C   UNL A   1      52.681  28.457  24.054  1.00  0.00     0.001 A 
ATOM     65  C   UNL A   1      53.172  27.441  26.188  1.00  0.00     0.001 A 
ATOM     66  C   UNL A   1      53.596  27.887  24.938  1.00  0.00     0.000 A 
ENDBRANCH  47  61
BRANCH  48  67
ATOM     67  C   UNL A   1      41.173  28.185  28.108  1.00  0.00    -0.014 A 
ATOM     68  C   UNL A   1      40.741  27.579  29.295  1.00  0.00     0.009 A 
ATOM     69  C   UNL A   1      40.223  28.799  27.275  1.00  0.00     0.009 A 
ATOM     70  C   UNL A   1      39.383  27.571  29.630  1.00  0.00     0.001 A 
ATOM     71  C   UNL A   1      38.872  28.815  27.627  1.00  0.00     0.001 A 
ATOM     72  C   UNL A   1      38.452  28.193  28.800  1.00  0.00     0.000 A 
ENDBRANCH  48  67
BRANCH  60  73
ATOM     73  C   UNL A   1      46.484  32.544  29.274  1.00  0.00    -0.014 A 
ATOM     74  C   UNL A   1      46.240  33.746  28.594  1.00  0.00     0.009 A 
ATOM     75  C   UNL A   1      46.759  32.577  30.650  1.00  0.00     0.009 A 
ATOM     76  C   UNL A   1      46.296  34.962  29.278  1.00  0.00     0.001 A 
ATOM     77  C   UNL A   1      46.788  33.791  31.335  1.00  0.00     0.001 A 
ATOM     78  C   UNL A   1      46.564  34.983  30.647  1.00  0.00     0.000 A 
ENDBRANCH  60  73
ENDBRANCH  34  35
ENDBRANCH  27  29
ENDBRANCH  26  27
ENDBRANCH  25  26
ENDBRANCH   1  25
TORSDOF 13
ENDMDL
MODEL 3
REMARK VINA RESULT:     -10.8      5.120      7.544
REMARK SMILES CC1(C)CCCC[C@H]1NC(=O)Nc1ccccc1C(=O)OCCOC(=O)c1ccc(-c2c3nc(c(-c4ccccc4)c4ccc([nH]4)c(-c4ccccc4)c4nc(c(-c5ccccc5)c5ccc2[nH]5)C=C4)C=C3)cc1
REMARK SMILES IDX 22 1 21 2 19 3 20 4 18 5 13 6 14 7 15 8 17 9 16 10 12 11
REMARK SMILES IDX 9 12 10 13 11 15 8 17 1 18 2 19 3 20 4 21 5 22 7 23 6 24
REMARK SMILES IDX 23 25 24 26 25 27 26 28 27 29 28 30 74 31 29 32 73 33 30 34
REMARK SMILES IDX 31 35 32 36 67 37 33 38 72 39 66 40 68 41 34 42 71 43 65 44
REMARK SMILES IDX 64 45 35 47 57 48 42 49 56 50 43 51 46 52 55 53 69 54 44 55
REMARK SMILES IDX 45 56 54 58 70 59 47 60 36 61 37 62 41 63 38 64 40 65 39 66
REMARK SMILES IDX 58 67 59 68 63 69 60 70 62 71 61 72 48 73 49 74 53 75 50 76
REMARK SMILES IDX 52 77 51 78
REMARK H PARENT 9 14 12 16 68 46 46 57
REMARK Flexibility Score: inf
ROOT
ATOM      1  C   UNL A   1      33.282  29.814  26.757  1.00  0.00     0.275 C 
ENDROOT
BRANCH   1   2
ATOM      2  O   UNL A   1      32.143  28.939  26.923  1.00  0.00    -0.458 OA
BRANCH   2   3
ATOM      3  C   UNL A   1      32.278  27.759  26.286  1.00  0.00     0.340 C 
ATOM      4  O   UNL A   1      33.193  26.970  26.444  1.00  0.00    -0.246 OA
BRANCH   3   5
ATOM      5  C   UNL A   1      31.232  27.425  25.319  1.00  0.00     0.083 A 
ATOM      6  C   UNL A   1      30.366  26.336  25.464  1.00  0.00     0.057 A 
ATOM      7  C   UNL A   1      29.381  26.138  24.481  1.00  0.00     0.027 A 
ATOM      8  C   UNL A   1      29.158  27.085  23.476  1.00  0.00     0.002 A 
ATOM      9  C   UNL A   1      31.019  28.362  24.289  1.00  0.00     0.018 A 
ATOM     10  C   UNL A   1      29.965  28.211  23.392  1.00  0.00     0.001 A 
BRANCH   6  11
ATOM     11  N   UNL A   1      30.383  25.388  26.500  1.00  0.00    -0.307 N 
ATOM     12  N   UNL A   1      31.455  23.399  25.760  1.00  0.00    -0.335 N 
ATOM     13  C   UNL A   1      30.594  24.059  26.556  1.00  0.00     0.319 C 
ATOM     14  H   UNL A   1      31.379  22.421  25.848  1.00  0.00     0.165 HD
ATOM     15  O   UNL A   1      30.059  23.419  27.467  1.00  0.00    -0.248 OA
ATOM     16  H   UNL A   1      30.200  25.784  27.383  1.00  0.00     0.171 HD
BRANCH  12  17
ATOM     17  C   UNL A   1      32.483  23.802  24.795  1.00  0.00     0.089 C 
ATOM     18  C   UNL A   1      33.578  21.466  24.660  1.00  0.00     0.013 C 
ATOM     19  C   UNL A   1      33.813  22.983  24.874  1.00  0.00    -0.015 C 
ATOM     20  C   UNL A   1      34.501  23.174  26.241  1.00  0.00     0.013 C 
ATOM     21  C   UNL A   1      34.788  23.543  23.788  1.00  0.00     0.008 C 
ATOM     22  C   UNL A   1      34.195  23.670  22.382  1.00  0.00     0.001 C 
ATOM     23  C   UNL A   1      31.910  23.705  23.362  1.00  0.00     0.025 C 
ATOM     24  C   UNL A   1      32.854  24.390  22.385  1.00  0.00     0.002 C 
ENDBRANCH  12  17
ENDBRANCH   6  11
ENDBRANCH   3   5
ENDBRANCH   2   3
ENDBRANCH   1   2
BRANCH   1  25
ATOM     25  C   UNL A   1      33.288  31.080  27.632  1.00  0.00     0.275 C 
BRANCH  25  26
ATOM     26  O   UNL A   1      34.598  31.669  27.785  1.00  0.00    -0.458 OA
BRANCH  26  27
ATOM     27  C   UNL A   1      35.194  31.465  28.983  1.00  0.00     0.338 C 
ATOM     28  O   UNL A   1      34.862  31.932  30.062  1.00  0.00    -0.246 OA
BRANCH  27  29
ATOM     29  C   UNL A   1      36.325  30.525  28.866  1.00  0.00     0.060 A 
ATOM     30  C   UNL A   1      36.944  30.070  30.032  1.00  0.00     0.016 A 
ATOM     31  C   UNL A   1      36.916  30.271  27.628  1.00  0.00     0.016 A 
ATOM     32  C   UNL A   1      38.152  29.397  29.992  1.00  0.00     0.010 A 
ATOM     33  C   UNL A   1      38.131  29.573  27.579  1.00  0.00     0.010 A 
ATOM     34  C   UNL A   1      38.767  29.161  28.764  1.00  0.00    -0.014 A 
BRANCH  34  35
ATOM     35  C   UNL A   1      40.144  28.625  28.766  1.00  0.00     0.031 A 
ATOM     36  C   UNL A   1      41.272  29.532  29.157  1.00  0.00     0.074 A 
ATOM     37  C   UNL A   1      40.366  27.319  28.531  1.00  0.00     0.049 A 
ATOM     38  N   UNL A   1      42.560  29.325  29.091  1.00  0.00    -0.248 NA
ATOM     39  C   UNL A   1      40.897  30.848  29.705  1.00  0.00     0.031 C 
ATOM     40  C   UNL A   1      39.330  26.311  28.296  1.00  0.00     0.029 A 
ATOM     41  N   UNL A   1      41.540  26.616  28.466  1.00  0.00    -0.354 N 
ATOM     42  C   UNL A   1      43.150  30.501  29.539  1.00  0.00     0.074 A 
ATOM     43  C   UNL A   1      42.082  31.413  29.886  1.00  0.00     0.031 C 
ATOM     44  C   UNL A   1      39.917  25.117  28.116  1.00  0.00     0.029 A 
ATOM     45  C   UNL A   1      41.365  25.294  28.141  1.00  0.00     0.049 A 
ATOM     46  H   UNL A   1      42.422  27.019  28.636  1.00  0.00     0.167 HD
ATOM     47  C   UNL A   1      44.468  30.794  29.632  1.00  0.00     0.031 A 
ATOM     48  C   UNL A   1      42.276  24.349  27.841  1.00  0.00     0.031 A 
ATOM     49  C   UNL A   1      45.514  29.868  29.290  1.00  0.00     0.049 A 
ATOM     50  C   UNL A   1      43.730  24.727  27.842  1.00  0.00     0.074 A 
ATOM     51  C   UNL A   1      46.883  30.068  29.293  1.00  0.00     0.029 A 
ATOM     52  N   UNL A   1      45.298  28.558  28.889  1.00  0.00    -0.354 N 
ATOM     53  N   UNL A   1      44.286  25.870  28.168  1.00  0.00    -0.248 NA
ATOM     54  C   UNL A   1      44.683  23.693  27.416  1.00  0.00     0.031 C 
ATOM     55  C   UNL A   1      47.493  28.888  28.852  1.00  0.00     0.029 A 
ATOM     56  C   UNL A   1      46.507  27.940  28.627  1.00  0.00     0.049 A 
ATOM     57  H   UNL A   1      44.414  28.131  28.804  1.00  0.00     0.167 HD
ATOM     58  C   UNL A   1      45.652  25.689  28.007  1.00  0.00     0.074 A 
ATOM     59  C   UNL A   1      45.842  24.320  27.567  1.00  0.00     0.031 C 
ATOM     60  C   UNL A   1      46.661  26.573  28.201  1.00  0.00     0.031 A 
BRANCH  47  61
ATOM     61  C   UNL A   1      44.835  32.191  30.041  1.00  0.00    -0.014 A 
ATOM     62  C   UNL A   1      44.997  33.220  29.100  1.00  0.00     0.009 A 
ATOM     63  C   UNL A   1      45.030  32.479  31.401  1.00  0.00     0.009 A 
ATOM     64  C   UNL A   1      45.381  34.499  29.512  1.00  0.00     0.001 A 
ATOM     65  C   UNL A   1      45.388  33.763  31.812  1.00  0.00     0.001 A 
ATOM     66  C   UNL A   1      45.573  34.769  30.867  1.00  0.00     0.000 A 
ENDBRANCH  47  61
BRANCH  48  67
ATOM     67  C   UNL A   1      41.834  22.988  27.436  1.00  0.00    -0.014 A 
ATOM     68  C   UNL A   1      41.464  22.715  26.112  1.00  0.00     0.009 A 
ATOM     69  C   UNL A   1      41.777  21.951  28.383  1.00  0.00     0.009 A 
ATOM     70  C   UNL A   1      41.029  21.437  25.749  1.00  0.00     0.001 A 
ATOM     71  C   UNL A   1      41.371  20.669  28.011  1.00  0.00     0.001 A 
ATOM     72  C   UNL A   1      40.988  20.414  26.697  1.00  0.00     0.000 A 
ENDBRANCH  48  67
BRANCH  60  73
ATOM     73  C   UNL A   1      48.059  26.070  27.988  1.00  0.00    -0.014 A 
ATOM     74  C   UNL A   1      48.661  26.104  26.722  1.00  0.00     0.009 A 
ATOM     75  C   UNL A   1      48.798  25.604  29.087  1.00  0.00     0.009 A 
ATOM     76  C   UNL A   1      49.973  25.657  26.556  1.00  0.00     0.001 A 
ATOM     77  C   UNL A   1      50.117  25.182  28.922  1.00  0.00     0.001 A 
ATOM     78  C   UNL A   1      50.701  25.202  27.656  1.00  0.00     0.000 A 
ENDBRANCH  60  73
ENDBRANCH  34  35
ENDBRANCH  27  29
ENDBRANCH  26  27
ENDBRANCH  25  26
ENDBRANCH   1  25
TORSDOF 13
ENDMDL
