MODEL 1
REMARK VINA RESULT:     -10.6      0.000      0.000
REMARK SMILES Cc1oc2c(c1C(=O)NCCCC(=O)OCCOC(=O)c1ccc(-c3c4nc(c(-c5ccccc5)c5ccc([nH]5)c(-c5ccccc5)c5nc(c(-c6ccccc6)c6ccc3[nH]6)C=C5)C=C4)cc1)CCCC2
REMARK SMILES IDX 16 1 15 2 13 3 14 4 12 5 11 6 10 7 9 8 7 9 8 10 6 12 1 13
REMARK SMILES IDX 2 14 3 15 4 16 5 17 72 18 69 19 71 20 70 21 17 22 18 23
REMARK SMILES IDX 19 24 20 25 21 26 22 27 68 28 23 29 67 30 24 31 25 32 26 33
REMARK SMILES IDX 61 34 27 35 66 36 60 37 62 38 28 39 65 40 59 41 58 42 29 44
REMARK SMILES IDX 51 45 36 46 50 47 37 48 40 49 49 50 63 51 38 52 39 53 48 55
REMARK SMILES IDX 64 56 41 57 30 58 31 59 35 60 32 61 34 62 33 63 52 64 53 65
REMARK SMILES IDX 57 66 54 67 56 68 55 69 42 70 43 71 47 72 44 73 46 74 45 75
REMARK H PARENT 9 11 62 43 40 54
REMARK Flexibility Score: inf
ROOT
ATOM      1  C   UNL A   1      42.397  19.002  25.889  1.00  0.00     0.274 C 
ENDROOT
BRANCH   1   2
ATOM      2  O   UNL A   1      42.198  19.589  27.187  1.00  0.00    -0.462 OA
BRANCH   2   3
ATOM      3  C   UNL A   1      41.615  20.818  27.211  1.00  0.00     0.305 C 
ATOM      4  O   UNL A   1      42.003  21.772  27.872  1.00  0.00    -0.252 OA
BRANCH   3   5
ATOM      5  C   UNL A   1      40.377  20.846  26.351  1.00  0.00     0.124 C 
BRANCH   5   6
ATOM      6  C   UNL A   1      39.633  22.177  26.314  1.00  0.00     0.033 C 
BRANCH   6   7
ATOM      7  C   UNL A   1      38.137  22.142  26.001  1.00  0.00     0.117 C 
BRANCH   7   8
ATOM      8  N   UNL A   1      37.811  22.535  24.657  1.00  0.00    -0.352 N 
ATOM      9  C   UNL A   1      36.629  22.719  23.995  1.00  0.00     0.255 C 
ATOM     10  O   UNL A   1      36.775  23.073  22.820  1.00  0.00    -0.269 OA
ATOM     11  H   UNL A   1      38.603  22.709  24.099  1.00  0.00     0.163 HD
BRANCH   9  12
ATOM     12  C   UNL A   1      35.282  22.503  24.541  1.00  0.00     0.084 A 
ATOM     13  C   UNL A   1      34.662  19.896  24.813  1.00  0.00     0.088 C 
ATOM     14  C   UNL A   1      34.517  21.368  24.846  1.00  0.00     0.114 A 
ATOM     15  O   UNL A   1      33.293  21.729  25.350  1.00  0.00    -0.465 OA
ATOM     16  C   UNL A   1      33.270  23.067  25.423  1.00  0.00     0.108 A 
ATOM     17  C   UNL A   1      34.447  23.605  24.975  1.00  0.00     0.007 A 
ATOM     18  C   UNL A   1      32.094  23.761  25.988  1.00  0.00     0.076 C 
ATOM     19  C   UNL A   1      34.671  25.083  24.979  1.00  0.00     0.040 C 
ATOM     20  C   UNL A   1      32.195  25.261  25.649  1.00  0.00     0.008 C 
ATOM     21  C   UNL A   1      33.622  25.806  25.853  1.00  0.00     0.005 C 
ENDBRANCH   9  12
ENDBRANCH   7   8
ENDBRANCH   6   7
ENDBRANCH   5   6
ENDBRANCH   3   5
ENDBRANCH   2   3
ENDBRANCH   1   2
BRANCH   1  22
ATOM     22  C   UNL A   1      43.863  18.688  25.624  1.00  0.00     0.275 C 
BRANCH  22  23
ATOM     23  O   UNL A   1      44.667  19.869  25.635  1.00  0.00    -0.458 OA
BRANCH  23  24
ATOM     24  C   UNL A   1      44.512  20.679  24.563  1.00  0.00     0.338 C 
ATOM     25  O   UNL A   1      44.481  20.353  23.393  1.00  0.00    -0.246 OA
BRANCH  24  26
ATOM     26  C   UNL A   1      44.579  22.084  24.976  1.00  0.00     0.060 A 
ATOM     27  C   UNL A   1      45.486  22.424  25.987  1.00  0.00     0.016 A 
ATOM     28  C   UNL A   1      43.587  22.973  24.547  1.00  0.00     0.016 A 
ATOM     29  C   UNL A   1      45.319  23.621  26.657  1.00  0.00     0.010 A 
ATOM     30  C   UNL A   1      43.411  24.155  25.229  1.00  0.00     0.010 A 
ATOM     31  C   UNL A   1      44.242  24.442  26.311  1.00  0.00    -0.014 A 
BRANCH  31  32
ATOM     32  C   UNL A   1      44.024  25.660  27.068  1.00  0.00     0.031 A 
ATOM     33  C   UNL A   1      45.014  26.728  26.822  1.00  0.00     0.074 A 
ATOM     34  C   UNL A   1      42.908  25.871  27.791  1.00  0.00     0.049 A 
ATOM     35  N   UNL A   1      45.811  27.280  27.675  1.00  0.00    -0.248 NA
ATOM     36  C   UNL A   1      45.196  27.180  25.434  1.00  0.00     0.031 C 
ATOM     37  C   UNL A   1      41.713  25.022  27.825  1.00  0.00     0.029 A 
ATOM     38  N   UNL A   1      42.552  26.951  28.545  1.00  0.00    -0.354 N 
ATOM     39  C   UNL A   1      46.465  28.284  26.970  1.00  0.00     0.074 A 
ATOM     40  C   UNL A   1      46.175  28.072  25.575  1.00  0.00     0.031 C 
ATOM     41  C   UNL A   1      40.693  25.718  28.373  1.00  0.00     0.029 A 
ATOM     42  C   UNL A   1      41.200  26.995  28.849  1.00  0.00     0.049 A 
ATOM     43  H   UNL A   1      43.196  27.635  28.843  1.00  0.00     0.167 HD
ATOM     44  C   UNL A   1      46.956  29.382  27.600  1.00  0.00     0.031 A 
ATOM     45  C   UNL A   1      40.525  28.021  29.415  1.00  0.00     0.031 A 
ATOM     46  C   UNL A   1      47.021  29.210  29.026  1.00  0.00     0.049 A 
ATOM     47  C   UNL A   1      41.487  28.901  30.108  1.00  0.00     0.074 A 
ATOM     48  C   UNL A   1      47.837  28.568  29.930  1.00  0.00     0.029 A 
ATOM     49  N   UNL A   1      45.867  29.547  29.682  1.00  0.00    -0.354 N 
ATOM     50  N   UNL A   1      42.140  28.547  31.175  1.00  0.00    -0.248 NA
ATOM     51  C   UNL A   1      41.957  30.124  29.467  1.00  0.00     0.031 C 
ATOM     52  C   UNL A   1      47.052  28.373  31.106  1.00  0.00     0.029 A 
ATOM     53  C   UNL A   1      45.782  28.900  30.886  1.00  0.00     0.049 A 
ATOM     54  H   UNL A   1      45.191  30.172  29.333  1.00  0.00     0.167 HD
ATOM     55  C   UNL A   1      43.336  29.231  31.087  1.00  0.00     0.074 A 
ATOM     56  C   UNL A   1      43.089  30.316  30.149  1.00  0.00     0.031 C 
ATOM     57  C   UNL A   1      44.498  28.662  31.511  1.00  0.00     0.031 A 
BRANCH  44  58
ATOM     58  C   UNL A   1      46.903  30.767  27.001  1.00  0.00    -0.014 A 
ATOM     59  C   UNL A   1      48.050  31.577  27.084  1.00  0.00     0.009 A 
ATOM     60  C   UNL A   1      45.700  31.408  26.642  1.00  0.00     0.009 A 
ATOM     61  C   UNL A   1      47.983  32.959  26.866  1.00  0.00     0.001 A 
ATOM     62  C   UNL A   1      45.638  32.780  26.384  1.00  0.00     0.001 A 
ATOM     63  C   UNL A   1      46.777  33.560  26.521  1.00  0.00     0.000 A 
ENDBRANCH  44  58
BRANCH  45  64
ATOM     64  C   UNL A   1      39.100  28.380  29.287  1.00  0.00    -0.014 A 
ATOM     65  C   UNL A   1      38.293  28.515  30.426  1.00  0.00     0.009 A 
ATOM     66  C   UNL A   1      38.592  28.840  28.059  1.00  0.00     0.009 A 
ATOM     67  C   UNL A   1      37.040  29.132  30.348  1.00  0.00     0.001 A 
ATOM     68  C   UNL A   1      37.337  29.450  27.980  1.00  0.00     0.001 A 
ATOM     69  C   UNL A   1      36.569  29.612  29.128  1.00  0.00     0.000 A 
ENDBRANCH  45  64
BRANCH  57  70
ATOM     70  C   UNL A   1      44.391  27.550  32.516  1.00  0.00    -0.014 A 
ATOM     71  C   UNL A   1      44.323  26.195  32.154  1.00  0.00     0.009 A 
ATOM     72  C   UNL A   1      44.409  27.881  33.878  1.00  0.00     0.009 A 
ATOM     73  C   UNL A   1      44.234  25.200  33.132  1.00  0.00     0.001 A 
ATOM     74  C   UNL A   1      44.342  26.887  34.855  1.00  0.00     0.001 A 
ATOM     75  C   UNL A   1      44.245  25.548  34.482  1.00  0.00     0.000 A 
ENDBRANCH  57  70
ENDBRANCH  31  32
ENDBRANCH  24  26
ENDBRANCH  23  24
ENDBRANCH  22  23
ENDBRANCH   1  22
TORSDOF 15
ENDMDL
MODEL 2
REMARK VINA RESULT:     -10.5      4.846     10.632
REMARK SMILES Cc1oc2c(c1C(=O)NCCCC(=O)OCCOC(=O)c1ccc(-c3c4nc(c(-c5ccccc5)c5ccc([nH]5)c(-c5ccccc5)c5nc(c(-c6ccccc6)c6ccc3[nH]6)C=C5)C=C4)cc1)CCCC2
REMARK SMILES IDX 16 1 15 2 13 3 14 4 12 5 11 6 10 7 9 8 7 9 8 10 6 12 1 13
REMARK SMILES IDX 2 14 3 15 4 16 5 17 72 18 69 19 71 20 70 21 17 22 18 23
REMARK SMILES IDX 19 24 20 25 21 26 22 27 68 28 23 29 67 30 24 31 25 32 26 33
REMARK SMILES IDX 61 34 27 35 66 36 60 37 62 38 28 39 65 40 59 41 58 42 29 44
REMARK SMILES IDX 51 45 36 46 50 47 37 48 40 49 49 50 63 51 38 52 39 53 48 55
REMARK SMILES IDX 64 56 41 57 30 58 31 59 35 60 32 61 34 62 33 63 52 64 53 65
REMARK SMILES IDX 57 66 54 67 56 68 55 69 42 70 43 71 47 72 44 73 46 74 45 75
REMARK H PARENT 9 11 62 43 40 54
REMARK Flexibility Score: inf
ROOT
ATOM      1  C   UNL A   1      34.849  34.091  29.759  1.00  0.00     0.274 C 
ENDROOT
BRANCH   1   2
ATOM      2  O   UNL A   1      33.931  33.603  30.754  1.00  0.00    -0.462 OA
BRANCH   2   3
ATOM      3  C   UNL A   1      34.485  33.061  31.872  1.00  0.00     0.305 C 
ATOM      4  O   UNL A   1      33.973  33.054  32.983  1.00  0.00    -0.252 OA
BRANCH   3   5
ATOM      5  C   UNL A   1      35.857  32.507  31.582  1.00  0.00     0.124 C 
BRANCH   5   6
ATOM      6  C   UNL A   1      36.249  31.270  32.384  1.00  0.00     0.033 C 
BRANCH   6   7
ATOM      7  C   UNL A   1      37.112  31.480  33.628  1.00  0.00     0.117 C 
BRANCH   7   8
ATOM      8  N   UNL A   1      37.223  32.853  34.039  1.00  0.00    -0.352 N 
ATOM      9  C   UNL A   1      38.175  33.814  33.849  1.00  0.00     0.255 C 
ATOM     10  O   UNL A   1      37.890  34.898  34.371  1.00  0.00    -0.269 OA
ATOM     11  H   UNL A   1      36.453  33.165  34.567  1.00  0.00     0.163 HD
BRANCH   9  12
ATOM     12  C   UNL A   1      39.452  33.647  33.141  1.00  0.00     0.084 A 
ATOM     13  C   UNL A   1      41.294  32.320  34.591  1.00  0.00     0.088 C 
ATOM     14  C   UNL A   1      40.684  33.059  33.463  1.00  0.00     0.114 A 
ATOM     15  O   UNL A   1      41.565  33.175  32.418  1.00  0.00    -0.465 OA
ATOM     16  C   UNL A   1      40.916  33.779  31.414  1.00  0.00     0.108 A 
ATOM     17  C   UNL A   1      39.626  34.073  31.767  1.00  0.00     0.007 A 
ATOM     18  C   UNL A   1      41.589  33.996  30.116  1.00  0.00     0.076 C 
ATOM     19  C   UNL A   1      38.693  34.733  30.803  1.00  0.00     0.040 C 
ATOM     20  C   UNL A   1      40.751  34.983  29.281  1.00  0.00     0.008 C 
ATOM     21  C   UNL A   1      39.243  34.673  29.360  1.00  0.00     0.005 C 
ENDBRANCH   9  12
ENDBRANCH   7   8
ENDBRANCH   6   7
ENDBRANCH   5   6
ENDBRANCH   3   5
ENDBRANCH   2   3
ENDBRANCH   1   2
BRANCH   1  22
ATOM     22  C   UNL A   1      34.409  33.717  28.349  1.00  0.00     0.275 C 
BRANCH  22  23
ATOM     23  O   UNL A   1      35.407  32.951  27.670  1.00  0.00    -0.458 OA
BRANCH  23  24
ATOM     24  C   UNL A   1      35.223  31.613  27.702  1.00  0.00     0.338 C 
ATOM     25  O   UNL A   1      34.248  30.994  27.323  1.00  0.00    -0.246 OA
BRANCH  24  26
ATOM     26  C   UNL A   1      36.304  30.971  28.457  1.00  0.00     0.060 A 
ATOM     27  C   UNL A   1      37.477  31.705  28.668  1.00  0.00     0.016 A 
ATOM     28  C   UNL A   1      36.239  29.597  28.714  1.00  0.00     0.016 A 
ATOM     29  C   UNL A   1      38.630  31.032  29.025  1.00  0.00     0.010 A 
ATOM     30  C   UNL A   1      37.393  28.926  29.049  1.00  0.00     0.010 A 
ATOM     31  C   UNL A   1      38.586  29.640  29.148  1.00  0.00    -0.014 A 
BRANCH  31  32
ATOM     32  C   UNL A   1      39.815  28.929  29.445  1.00  0.00     0.031 A 
ATOM     33  C   UNL A   1      40.191  28.915  30.873  1.00  0.00     0.074 A 
ATOM     34  C   UNL A   1      40.458  28.184  28.527  1.00  0.00     0.049 A 
ATOM     35  N   UNL A   1      41.265  29.386  31.413  1.00  0.00    -0.248 NA
ATOM     36  C   UNL A   1      39.211  28.380  31.831  1.00  0.00     0.031 C 
ATOM     37  C   UNL A   1      39.985  27.852  27.180  1.00  0.00     0.029 A 
ATOM     38  N   UNL A   1      41.607  27.457  28.649  1.00  0.00    -0.354 N 
ATOM     39  C   UNL A   1      41.183  29.040  32.757  1.00  0.00     0.074 A 
ATOM     40  C   UNL A   1      39.840  28.575  32.987  1.00  0.00     0.031 C 
ATOM     41  C   UNL A   1      40.716  26.825  26.696  1.00  0.00     0.029 A 
ATOM     42  C   UNL A   1      41.785  26.527  27.636  1.00  0.00     0.049 A 
ATOM     43  H   UNL A   1      42.247  27.581  29.387  1.00  0.00     0.167 HD
ATOM     44  C   UNL A   1      42.301  28.886  33.514  1.00  0.00     0.031 A 
ATOM     45  C   UNL A   1      42.718  25.550  27.581  1.00  0.00     0.031 A 
ATOM     46  C   UNL A   1      43.469  29.436  32.882  1.00  0.00     0.049 A 
ATOM     47  C   UNL A   1      43.823  25.892  28.499  1.00  0.00     0.074 A 
ATOM     48  C   UNL A   1      44.015  30.682  32.680  1.00  0.00     0.029 A 
ATOM     49  N   UNL A   1      44.111  28.565  32.043  1.00  0.00    -0.354 N 
ATOM     50  N   UNL A   1      44.637  26.886  28.298  1.00  0.00    -0.248 NA
ATOM     51  C   UNL A   1      43.887  25.293  29.827  1.00  0.00     0.031 C 
ATOM     52  C   UNL A   1      44.886  30.558  31.556  1.00  0.00     0.029 A 
ATOM     53  C   UNL A   1      44.846  29.241  31.105  1.00  0.00     0.049 A 
ATOM     54  H   UNL A   1      44.052  27.584  32.108  1.00  0.00     0.167 HD
ATOM     55  C   UNL A   1      44.984  27.305  29.566  1.00  0.00     0.074 A 
ATOM     56  C   UNL A   1      44.666  26.188  30.441  1.00  0.00     0.031 C 
ATOM     57  C   UNL A   1      45.175  28.627  29.836  1.00  0.00     0.031 A 
BRANCH  44  58
ATOM     58  C   UNL A   1      42.437  27.814  34.570  1.00  0.00    -0.014 A 
ATOM     59  C   UNL A   1      42.807  26.519  34.165  1.00  0.00     0.009 A 
ATOM     60  C   UNL A   1      41.925  27.948  35.876  1.00  0.00     0.009 A 
ATOM     61  C   UNL A   1      42.628  25.414  35.007  1.00  0.00     0.001 A 
ATOM     62  C   UNL A   1      41.783  26.853  36.733  1.00  0.00     0.001 A 
ATOM     63  C   UNL A   1      42.112  25.580  36.288  1.00  0.00     0.000 A 
ENDBRANCH  44  58
BRANCH  45  64
ATOM     64  C   UNL A   1      42.664  24.250  26.885  1.00  0.00    -0.014 A 
ATOM     65  C   UNL A   1      43.835  23.659  26.387  1.00  0.00     0.009 A 
ATOM     66  C   UNL A   1      41.497  23.468  26.933  1.00  0.00     0.009 A 
ATOM     67  C   UNL A   1      43.848  22.317  25.994  1.00  0.00     0.001 A 
ATOM     68  C   UNL A   1      41.509  22.129  26.534  1.00  0.00     0.001 A 
ATOM     69  C   UNL A   1      42.689  21.548  26.082  1.00  0.00     0.000 A 
ENDBRANCH  45  64
BRANCH  57  70
ATOM     70  C   UNL A   1      45.510  29.523  28.678  1.00  0.00    -0.014 A 
ATOM     71  C   UNL A   1      44.542  30.244  27.962  1.00  0.00     0.009 A 
ATOM     72  C   UNL A   1      46.859  29.681  28.329  1.00  0.00     0.009 A 
ATOM     73  C   UNL A   1      44.912  31.071  26.897  1.00  0.00     0.001 A 
ATOM     74  C   UNL A   1      47.231  30.524  27.281  1.00  0.00     0.001 A 
ATOM     75  C   UNL A   1      46.256  31.211  26.559  1.00  0.00     0.000 A 
ENDBRANCH  57  70
ENDBRANCH  31  32
ENDBRANCH  24  26
ENDBRANCH  23  24
ENDBRANCH  22  23
ENDBRANCH   1  22
TORSDOF 15
ENDMDL
MODEL 3
REMARK VINA RESULT:     -10.5      5.066     11.003
REMARK SMILES Cc1oc2c(c1C(=O)NCCCC(=O)OCCOC(=O)c1ccc(-c3c4nc(c(-c5ccccc5)c5ccc([nH]5)c(-c5ccccc5)c5nc(c(-c6ccccc6)c6ccc3[nH]6)C=C5)C=C4)cc1)CCCC2
REMARK SMILES IDX 16 1 15 2 13 3 14 4 12 5 11 6 10 7 9 8 7 9 8 10 6 12 1 13
REMARK SMILES IDX 2 14 3 15 4 16 5 17 72 18 69 19 71 20 70 21 17 22 18 23
REMARK SMILES IDX 19 24 20 25 21 26 22 27 68 28 23 29 67 30 24 31 25 32 26 33
REMARK SMILES IDX 61 34 27 35 66 36 60 37 62 38 28 39 65 40 59 41 58 42 29 44
REMARK SMILES IDX 51 45 36 46 50 47 37 48 40 49 49 50 63 51 38 52 39 53 48 55
REMARK SMILES IDX 64 56 41 57 30 58 31 59 35 60 32 61 34 62 33 63 52 64 53 65
REMARK SMILES IDX 57 66 54 67 56 68 55 69 42 70 43 71 47 72 44 73 46 74 45 75
REMARK H PARENT 9 11 62 43 40 54
REMARK Flexibility Score: inf
ROOT
ATOM      1  C   UNL A   1      33.651  35.055  28.966  1.00  0.00     0.274 C 
ENDROOT
BRANCH   1   2
ATOM      2  O   UNL A   1      32.568  35.366  29.862  1.00  0.00    -0.462 OA
BRANCH   2   3
ATOM      3  C   UNL A   1      32.819  36.311  30.807  1.00  0.00     0.305 C 
ATOM      4  O   UNL A   1      32.902  37.515  30.599  1.00  0.00    -0.252 OA
BRANCH   3   5
ATOM      5  C   UNL A   1      33.043  35.680  32.159  1.00  0.00     0.124 C 
BRANCH   5   6
ATOM      6  C   UNL A   1      34.335  36.078  32.863  1.00  0.00     0.033 C 
BRANCH   6   7
ATOM      7  C   UNL A   1      35.344  34.970  33.166  1.00  0.00     0.117 C 
BRANCH   7   8
ATOM      8  N   UNL A   1      36.477  34.953  32.281  1.00  0.00    -0.352 N 
ATOM      9  C   UNL A   1      37.551  34.118  32.150  1.00  0.00     0.255 C 
ATOM     10  O   UNL A   1      38.323  34.449  31.243  1.00  0.00    -0.269 OA
ATOM     11  H   UNL A   1      36.479  35.696  31.636  1.00  0.00     0.163 HD
BRANCH   9  12
ATOM     12  C   UNL A   1      37.851  32.946  32.986  1.00  0.00     0.084 A 
ATOM     13  C   UNL A   1      36.278  30.830  32.435  1.00  0.00     0.088 C 
ATOM     14  C   UNL A   1      37.321  31.652  33.088  1.00  0.00     0.114 A 
ATOM     15  O   UNL A   1      37.983  30.932  34.050  1.00  0.00    -0.465 OA
ATOM     16  C   UNL A   1      38.956  31.713  34.535  1.00  0.00     0.108 A 
ATOM     17  C   UNL A   1      38.956  32.938  33.922  1.00  0.00     0.007 A 
ATOM     18  C   UNL A   1      39.890  31.193  35.556  1.00  0.00     0.076 C 
ATOM     19  C   UNL A   1      39.967  33.980  34.279  1.00  0.00     0.040 C 
ATOM     20  C   UNL A   1      40.672  32.375  36.160  1.00  0.00     0.008 C 
ATOM     21  C   UNL A   1      41.139  33.373  35.082  1.00  0.00     0.005 C 
ENDBRANCH   9  12
ENDBRANCH   7   8
ENDBRANCH   6   7
ENDBRANCH   5   6
ENDBRANCH   3   5
ENDBRANCH   2   3
ENDBRANCH   1   2
BRANCH   1  22
ATOM     22  C   UNL A   1      34.297  33.717  29.298  1.00  0.00     0.275 C 
BRANCH  22  23
ATOM     23  O   UNL A   1      35.061  33.213  28.201  1.00  0.00    -0.458 OA
BRANCH  23  24
ATOM     24  C   UNL A   1      34.975  31.878  28.006  1.00  0.00     0.338 C 
ATOM     25  O   UNL A   1      34.050  31.266  27.507  1.00  0.00    -0.246 OA
BRANCH  24  26
ATOM     26  C   UNL A   1      36.091  31.196  28.667  1.00  0.00     0.060 A 
ATOM     27  C   UNL A   1      37.174  31.976  29.090  1.00  0.00     0.016 A 
ATOM     28  C   UNL A   1      36.161  29.799  28.627  1.00  0.00     0.016 A 
ATOM     29  C   UNL A   1      38.378  31.355  29.360  1.00  0.00     0.010 A 
ATOM     30  C   UNL A   1      37.367  29.184  28.877  1.00  0.00     0.010 A 
ATOM     31  C   UNL A   1      38.476  29.971  29.187  1.00  0.00    -0.014 A 
BRANCH  31  32
ATOM     32  C   UNL A   1      39.761  29.333  29.395  1.00  0.00     0.031 A 
ATOM     33  C   UNL A   1      40.160  29.191  30.810  1.00  0.00     0.074 A 
ATOM     34  C   UNL A   1      40.448  28.747  28.396  1.00  0.00     0.049 A 
ATOM     35  N   UNL A   1      41.201  29.685  31.392  1.00  0.00    -0.248 NA
ATOM     36  C   UNL A   1      39.240  28.477  31.709  1.00  0.00     0.031 C 
ATOM     37  C   UNL A   1      39.981  28.530  27.023  1.00  0.00     0.029 A 
ATOM     38  N   UNL A   1      41.652  28.106  28.428  1.00  0.00    -0.354 N 
ATOM     39  C   UNL A   1      41.168  29.187  32.690  1.00  0.00     0.074 A 
ATOM     40  C   UNL A   1      39.869  28.593  32.876  1.00  0.00     0.031 C 
ATOM     41  C   UNL A   1      40.784  27.624  26.423  1.00  0.00     0.029 A 
ATOM     42  C   UNL A   1      41.888  27.312  27.317  1.00  0.00     0.049 A 
ATOM     43  H   UNL A   1      42.291  28.199  29.171  1.00  0.00     0.167 HD
ATOM     44  C   UNL A   1      42.306  29.040  33.418  1.00  0.00     0.031 A 
ATOM     45  C   UNL A   1      42.894  26.424  27.147  1.00  0.00     0.031 A 
ATOM     46  C   UNL A   1      43.416  29.749  32.843  1.00  0.00     0.049 A 
ATOM     47  C   UNL A   1      43.983  26.752  28.090  1.00  0.00     0.074 A 
ATOM     48  C   UNL A   1      43.859  31.050  32.777  1.00  0.00     0.029 A 
ATOM     49  N   UNL A   1      44.113  29.031  31.908  1.00  0.00    -0.354 N 
ATOM     50  N   UNL A   1      44.712  27.824  27.996  1.00  0.00    -0.248 NA
ATOM     51  C   UNL A   1      44.115  26.016  29.343  1.00  0.00     0.031 C 
ATOM     52  C   UNL A   1      44.720  31.121  31.641  1.00  0.00     0.029 A 
ATOM     53  C   UNL A   1      44.777  29.863  31.046  1.00  0.00     0.049 A 
ATOM     54  H   UNL A   1      44.133  28.048  31.863  1.00  0.00     0.167 HD
ATOM     55  C   UNL A   1      45.044  28.127  29.301  1.00  0.00     0.074 A 
ATOM     56  C   UNL A   1      44.830  26.897  30.048  1.00  0.00     0.031 C 
ATOM     57  C   UNL A   1      45.134  29.422  29.715  1.00  0.00     0.031 A 
BRANCH  44  58
ATOM     58  C   UNL A   1      42.543  27.873  34.346  1.00  0.00    -0.014 A 
ATOM     59  C   UNL A   1      42.991  26.660  33.795  1.00  0.00     0.009 A 
ATOM     60  C   UNL A   1      42.056  27.827  35.668  1.00  0.00     0.009 A 
ATOM     61  C   UNL A   1      42.911  25.460  34.513  1.00  0.00     0.001 A 
ATOM     62  C   UNL A   1      42.013  26.638  36.402  1.00  0.00     0.001 A 
ATOM     63  C   UNL A   1      42.418  25.449  35.814  1.00  0.00     0.000 A 
ENDBRANCH  44  58
BRANCH  45  64
ATOM     64  C   UNL A   1      42.933  25.210  26.311  1.00  0.00    -0.014 A 
ATOM     65  C   UNL A   1      43.925  25.049  25.333  1.00  0.00     0.009 A 
ATOM     66  C   UNL A   1      42.147  24.093  26.646  1.00  0.00     0.009 A 
ATOM     67  C   UNL A   1      44.155  23.801  24.744  1.00  0.00     0.001 A 
ATOM     68  C   UNL A   1      42.372  22.848  26.052  1.00  0.00     0.001 A 
ATOM     69  C   UNL A   1      43.388  22.698  25.114  1.00  0.00     0.000 A 
ENDBRANCH  45  64
BRANCH  57  70
ATOM     70  C   UNL A   1      45.379  30.464  28.661  1.00  0.00    -0.014 A 
ATOM     71  C   UNL A   1      46.664  30.894  28.295  1.00  0.00     0.009 A 
ATOM     72  C   UNL A   1      44.274  30.994  27.981  1.00  0.00     0.009 A 
ATOM     73  C   UNL A   1      46.835  31.861  27.300  1.00  0.00     0.001 A 
ATOM     74  C   UNL A   1      44.446  31.944  26.972  1.00  0.00     0.001 A 
ATOM     75  C   UNL A   1      45.725  32.384  26.638  1.00  0.00     0.000 A 
ENDBRANCH  57  70
ENDBRANCH  31  32
ENDBRANCH  24  26
ENDBRANCH  23  24
ENDBRANCH  22  23
ENDBRANCH   1  22
TORSDOF 15
ENDMDL
