MODEL 1
REMARK VINA RESULT:     -10.6      0.000      0.000
REMARK SMILES O=C(OCCOC(=O)[C@@H]1CCCCN1c1ccccc1[N+](=O)[O-])c1ccc(-c2c3nc(c(-c4ccccc4)c4ccc([nH]4)c(-c4ccccc4)c4nc(c(-c5ccccc5)c5ccc2[nH]5)C=C4)C=C3)cc1
REMARK SMILES IDX 4 1 3 2 2 3 1 4 24 5 25 6 71 7 26 8 70 9 27 10 28 11 29 12
REMARK SMILES IDX 64 13 30 14 69 15 63 16 65 17 31 18 68 19 62 20 61 21 32 23
REMARK SMILES IDX 54 24 39 25 53 26 40 27 43 28 52 29 66 30 41 31 42 32 51 34
REMARK SMILES IDX 67 35 44 36 33 37 34 38 38 39 35 40 37 41 36 42 55 43 56 44
REMARK SMILES IDX 60 45 57 46 59 47 58 48 45 49 46 50 50 51 47 52 49 53 48 54
REMARK SMILES IDX 5 55 6 56 7 57 8 58 9 59 10 60 14 61 11 62 13 63 12 64 15 65
REMARK SMILES IDX 16 66 20 67 17 68 19 69 18 70 21 71 22 72 23 73
REMARK H PARENT 65 22 43 33
REMARK Flexibility Score: inf
ROOT
ATOM      1  C   UNL A   1      31.860  32.002  27.226  1.00  0.00     0.275 C 
ENDROOT
BRANCH   1   2
ATOM      2  O   UNL A   1      32.405  33.327  27.248  1.00  0.00    -0.458 OA
BRANCH   2   3
ATOM      3  C   UNL A   1      32.989  34.011  28.263  1.00  0.00     0.338 C 
ATOM      4  O   UNL A   1      32.522  35.095  28.581  1.00  0.00    -0.246 OA
BRANCH   3   5
ATOM      5  C   UNL A   1      34.254  33.569  28.938  1.00  0.00     0.060 A 
ATOM      6  C   UNL A   1      34.367  32.828  30.122  1.00  0.00     0.016 A 
ATOM      7  C   UNL A   1      35.439  33.918  28.273  1.00  0.00     0.016 A 
ATOM      8  C   UNL A   1      35.600  32.315  30.557  1.00  0.00     0.010 A 
ATOM      9  C   UNL A   1      36.668  33.406  28.697  1.00  0.00     0.010 A 
ATOM     10  C   UNL A   1      36.757  32.574  29.832  1.00  0.00    -0.014 A 
BRANCH  10  11
ATOM     11  C   UNL A   1      38.105  32.172  30.312  1.00  0.00     0.031 A 
ATOM     12  C   UNL A   1      38.603  30.849  29.817  1.00  0.00     0.074 A 
ATOM     13  C   UNL A   1      38.813  32.866  31.229  1.00  0.00     0.049 A 
ATOM     14  N   UNL A   1      39.625  30.143  30.212  1.00  0.00    -0.248 NA
ATOM     15  C   UNL A   1      37.802  30.220  28.750  1.00  0.00     0.031 C 
ATOM     16  C   UNL A   1      38.483  34.184  31.767  1.00  0.00     0.029 A 
ATOM     17  N   UNL A   1      39.942  32.511  31.929  1.00  0.00    -0.354 N 
ATOM     18  C   UNL A   1      39.579  28.992  29.441  1.00  0.00     0.074 A 
ATOM     19  C   UNL A   1      38.352  29.023  28.683  1.00  0.00     0.031 C 
ATOM     20  C   UNL A   1      39.303  34.470  32.795  1.00  0.00     0.029 A 
ATOM     21  C   UNL A   1      40.262  33.384  32.947  1.00  0.00     0.049 A 
ATOM     22  H   UNL A   1      40.474  31.708  31.723  1.00  0.00     0.167 HD
ATOM     23  C   UNL A   1      40.520  28.035  29.297  1.00  0.00     0.031 A 
ATOM     24  C   UNL A   1      41.229  33.317  33.884  1.00  0.00     0.031 A 
ATOM     25  C   UNL A   1      41.743  28.023  30.036  1.00  0.00     0.049 A 
ATOM     26  C   UNL A   1      42.227  32.192  33.796  1.00  0.00     0.074 A 
ATOM     27  C   UNL A   1      42.804  27.144  29.946  1.00  0.00     0.029 A 
ATOM     28  N   UNL A   1      42.061  28.950  31.018  1.00  0.00    -0.354 N 
ATOM     29  N   UNL A   1      42.241  31.166  32.979  1.00  0.00    -0.248 NA
ATOM     30  C   UNL A   1      43.379  32.251  34.707  1.00  0.00     0.031 C 
ATOM     31  C   UNL A   1      43.747  27.515  30.910  1.00  0.00     0.029 A 
ATOM     32  C   UNL A   1      43.296  28.657  31.558  1.00  0.00     0.049 A 
ATOM     33  H   UNL A   1      41.490  29.706  31.289  1.00  0.00     0.167 HD
ATOM     34  C   UNL A   1      43.438  30.505  33.219  1.00  0.00     0.074 A 
ATOM     35  C   UNL A   1      44.108  31.229  34.280  1.00  0.00     0.031 C 
ATOM     36  C   UNL A   1      43.949  29.416  32.594  1.00  0.00     0.031 A 
BRANCH  23  37
ATOM     37  C   UNL A   1      40.217  26.971  28.283  1.00  0.00    -0.014 A 
ATOM     38  C   UNL A   1      39.502  25.815  28.647  1.00  0.00     0.009 A 
ATOM     39  C   UNL A   1      40.761  27.058  26.995  1.00  0.00     0.009 A 
ATOM     40  C   UNL A   1      39.422  24.727  27.777  1.00  0.00     0.001 A 
ATOM     41  C   UNL A   1      40.641  25.984  26.111  1.00  0.00     0.001 A 
ATOM     42  C   UNL A   1      39.995  24.812  26.510  1.00  0.00     0.000 A 
ENDBRANCH  23  37
BRANCH  24  43
ATOM     43  C   UNL A   1      41.365  34.377  34.922  1.00  0.00    -0.014 A 
ATOM     44  C   UNL A   1      40.754  34.230  36.177  1.00  0.00     0.009 A 
ATOM     45  C   UNL A   1      42.083  35.554  34.658  1.00  0.00     0.009 A 
ATOM     46  C   UNL A   1      40.829  35.249  37.132  1.00  0.00     0.001 A 
ATOM     47  C   UNL A   1      42.174  36.564  35.622  1.00  0.00     0.001 A 
ATOM     48  C   UNL A   1      41.539  36.416  36.854  1.00  0.00     0.000 A 
ENDBRANCH  24  43
BRANCH  36  49
ATOM     49  C   UNL A   1      45.333  28.978  32.974  1.00  0.00    -0.014 A 
ATOM     50  C   UNL A   1      45.549  27.962  33.915  1.00  0.00     0.009 A 
ATOM     51  C   UNL A   1      46.429  29.514  32.277  1.00  0.00     0.009 A 
ATOM     52  C   UNL A   1      46.841  27.493  34.152  1.00  0.00     0.001 A 
ATOM     53  C   UNL A   1      47.714  29.021  32.494  1.00  0.00     0.001 A 
ATOM     54  C   UNL A   1      47.919  28.012  33.433  1.00  0.00     0.000 A 
ENDBRANCH  36  49
ENDBRANCH  10  11
ENDBRANCH   3   5
ENDBRANCH   2   3
ENDBRANCH   1   2
BRANCH   1  55
ATOM     55  C   UNL A   1      32.864  30.898  26.881  1.00  0.00     0.274 C 
BRANCH  55  56
ATOM     56  O   UNL A   1      32.276  29.715  26.306  1.00  0.00    -0.461 OA
BRANCH  56  57
ATOM     57  C   UNL A   1      32.812  29.296  25.112  1.00  0.00     0.328 C 
ATOM     58  O   UNL A   1      34.018  29.147  24.942  1.00  0.00    -0.250 OA
BRANCH  57  59
ATOM     59  C   UNL A   1      31.752  29.103  23.974  1.00  0.00     0.192 C 
ATOM     60  C   UNL A   1      30.457  29.843  24.249  1.00  0.00     0.037 C 
ATOM     61  N   UNL A   1      31.356  27.695  23.710  1.00  0.00    -0.353 N 
ATOM     62  C   UNL A   1      29.379  29.650  23.181  1.00  0.00     0.005 C 
ATOM     63  C   UNL A   1      30.411  27.448  22.624  1.00  0.00     0.118 C 
ATOM     64  C   UNL A   1      29.108  28.169  22.945  1.00  0.00     0.022 C 
BRANCH  61  65
ATOM     65  C   UNL A   1      32.145  26.659  24.158  1.00  0.00     0.116 A 
ATOM     66  C   UNL A   1      31.863  26.165  25.444  1.00  0.00     0.033 A 
ATOM     67  C   UNL A   1      33.231  26.096  23.467  1.00  0.00     0.292 A 
ATOM     68  C   UNL A   1      32.648  25.174  26.033  1.00  0.00     0.003 A 
ATOM     69  C   UNL A   1      34.027  25.099  24.055  1.00  0.00     0.088 A 
ATOM     70  C   UNL A   1      33.736  24.649  25.341  1.00  0.00     0.007 A 
BRANCH  67  71
ATOM     71  N   UNL A   1      33.571  26.509  22.109  1.00  0.00     0.064 N 
ATOM     72  O   UNL A   1      34.073  27.637  21.977  1.00  0.00    -0.258 OA
ATOM     73  O   UNL A   1      33.336  25.739  21.165  1.00  0.00    -0.258 OA
ENDBRANCH  67  71
ENDBRANCH  61  65
ENDBRANCH  57  59
ENDBRANCH  56  57
ENDBRANCH  55  56
ENDBRANCH   1  55
TORSDOF 13
ENDMDL
MODEL 2
REMARK VINA RESULT:     -10.6      4.035      8.917
REMARK SMILES O=C(OCCOC(=O)[C@@H]1CCCCN1c1ccccc1[N+](=O)[O-])c1ccc(-c2c3nc(c(-c4ccccc4)c4ccc([nH]4)c(-c4ccccc4)c4nc(c(-c5ccccc5)c5ccc2[nH]5)C=C4)C=C3)cc1
REMARK SMILES IDX 4 1 3 2 2 3 1 4 24 5 25 6 71 7 26 8 70 9 27 10 28 11 29 12
REMARK SMILES IDX 64 13 30 14 69 15 63 16 65 17 31 18 68 19 62 20 61 21 32 23
REMARK SMILES IDX 54 24 39 25 53 26 40 27 43 28 52 29 66 30 41 31 42 32 51 34
REMARK SMILES IDX 67 35 44 36 33 37 34 38 38 39 35 40 37 41 36 42 55 43 56 44
REMARK SMILES IDX 60 45 57 46 59 47 58 48 45 49 46 50 50 51 47 52 49 53 48 54
REMARK SMILES IDX 5 55 6 56 7 57 8 58 9 59 10 60 14 61 11 62 13 63 12 64 15 65
REMARK SMILES IDX 16 66 20 67 17 68 19 69 18 70 21 71 22 72 23 73
REMARK H PARENT 65 22 43 33
REMARK Flexibility Score: inf
ROOT
ATOM      1  C   UNL A   1      38.667  20.006  25.033  1.00  0.00     0.275 C 
ENDROOT
BRANCH   1   2
ATOM      2  O   UNL A   1      39.629  19.466  25.948  1.00  0.00    -0.458 OA
BRANCH   2   3
ATOM      3  C   UNL A   1      40.965  19.681  26.033  1.00  0.00     0.338 C 
ATOM      4  O   UNL A   1      41.721  18.740  25.838  1.00  0.00    -0.246 OA
BRANCH   3   5
ATOM      5  C   UNL A   1      41.567  20.982  26.474  1.00  0.00     0.060 A 
ATOM      6  C   UNL A   1      42.113  21.983  25.657  1.00  0.00     0.016 A 
ATOM      7  C   UNL A   1      41.537  21.216  27.857  1.00  0.00     0.016 A 
ATOM      8  C   UNL A   1      42.478  23.237  26.171  1.00  0.00     0.010 A 
ATOM      9  C   UNL A   1      41.893  22.465  28.374  1.00  0.00     0.010 A 
ATOM     10  C   UNL A   1      42.343  23.500  27.529  1.00  0.00    -0.014 A 
BRANCH  10  11
ATOM     11  C   UNL A   1      42.834  24.757  28.150  1.00  0.00     0.031 A 
ATOM     12  C   UNL A   1      41.815  25.842  28.316  1.00  0.00     0.074 A 
ATOM     13  C   UNL A   1      44.131  24.992  28.446  1.00  0.00     0.049 A 
ATOM     14  N   UNL A   1      41.977  27.098  28.625  1.00  0.00    -0.248 NA
ATOM     15  C   UNL A   1      40.416  25.454  28.053  1.00  0.00     0.031 C 
ATOM     16  C   UNL A   1      45.225  24.025  28.383  1.00  0.00     0.029 A 
ATOM     17  N   UNL A   1      44.761  26.163  28.799  1.00  0.00    -0.354 N 
ATOM     18  C   UNL A   1      40.701  27.639  28.588  1.00  0.00     0.074 A 
ATOM     19  C   UNL A   1      39.812  26.626  28.074  1.00  0.00     0.031 C 
ATOM     20  C   UNL A   1      46.399  24.661  28.556  1.00  0.00     0.029 A 
ATOM     21  C   UNL A   1      46.136  26.071  28.811  1.00  0.00     0.049 A 
ATOM     22  H   UNL A   1      44.275  26.989  29.024  1.00  0.00     0.167 HD
ATOM     23  C   UNL A   1      40.282  28.842  29.034  1.00  0.00     0.031 A 
ATOM     24  C   UNL A   1      47.073  27.019  29.016  1.00  0.00     0.031 A 
ATOM     25  C   UNL A   1      41.167  29.833  29.563  1.00  0.00     0.049 A 
ATOM     26  C   UNL A   1      46.614  28.397  29.415  1.00  0.00     0.074 A 
ATOM     27  C   UNL A   1      40.867  31.068  30.099  1.00  0.00     0.029 A 
ATOM     28  N   UNL A   1      42.546  29.689  29.611  1.00  0.00    -0.354 N 
ATOM     29  N   UNL A   1      45.392  28.867  29.495  1.00  0.00    -0.248 NA
ATOM     30  C   UNL A   1      47.654  29.354  29.823  1.00  0.00     0.031 C 
ATOM     31  C   UNL A   1      42.073  31.693  30.431  1.00  0.00     0.029 A 
ATOM     32  C   UNL A   1      43.117  30.821  30.153  1.00  0.00     0.049 A 
ATOM     33  H   UNL A   1      43.043  28.896  29.305  1.00  0.00     0.167 HD
ATOM     34  C   UNL A   1      45.508  30.140  30.037  1.00  0.00     0.074 A 
ATOM     35  C   UNL A   1      46.923  30.380  30.237  1.00  0.00     0.031 C 
ATOM     36  C   UNL A   1      44.529  31.017  30.367  1.00  0.00     0.031 A 
BRANCH  23  37
ATOM     37  C   UNL A   1      38.802  29.084  28.965  1.00  0.00    -0.014 A 
ATOM     38  C   UNL A   1      38.216  29.616  27.801  1.00  0.00     0.009 A 
ATOM     39  C   UNL A   1      38.011  28.907  30.107  1.00  0.00     0.009 A 
ATOM     40  C   UNL A   1      36.892  30.057  27.813  1.00  0.00     0.001 A 
ATOM     41  C   UNL A   1      36.674  29.309  30.101  1.00  0.00     0.001 A 
ATOM     42  C   UNL A   1      36.124  29.906  28.965  1.00  0.00     0.000 A 
ENDBRANCH  23  37
BRANCH  24  43
ATOM     43  C   UNL A   1      48.524  26.690  28.945  1.00  0.00    -0.014 A 
ATOM     44  C   UNL A   1      49.183  26.124  30.049  1.00  0.00     0.009 A 
ATOM     45  C   UNL A   1      49.269  26.962  27.786  1.00  0.00     0.009 A 
ATOM     46  C   UNL A   1      50.557  25.868  30.007  1.00  0.00     0.001 A 
ATOM     47  C   UNL A   1      50.640  26.687  27.740  1.00  0.00     0.001 A 
ATOM     48  C   UNL A   1      51.285  26.150  28.853  1.00  0.00     0.000 A 
ENDBRANCH  24  43
BRANCH  36  49
ATOM     49  C   UNL A   1      44.932  32.287  31.056  1.00  0.00    -0.014 A 
ATOM     50  C   UNL A   1      45.171  33.467  30.340  1.00  0.00     0.009 A 
ATOM     51  C   UNL A   1      44.947  32.321  32.461  1.00  0.00     0.009 A 
ATOM     52  C   UNL A   1      45.422  34.659  31.020  1.00  0.00     0.001 A 
ATOM     53  C   UNL A   1      45.166  33.520  33.137  1.00  0.00     0.001 A 
ATOM     54  C   UNL A   1      45.405  34.688  32.415  1.00  0.00     0.000 A 
ENDBRANCH  36  49
ENDBRANCH  10  11
ENDBRANCH   3   5
ENDBRANCH   2   3
ENDBRANCH   1   2
BRANCH   1  55
ATOM     55  C   UNL A   1      38.158  21.406  25.387  1.00  0.00     0.274 C 
BRANCH  55  56
ATOM     56  O   UNL A   1      36.863  21.726  24.840  1.00  0.00    -0.461 OA
BRANCH  56  57
ATOM     57  C   UNL A   1      35.947  22.244  25.724  1.00  0.00     0.328 C 
ATOM     58  O   UNL A   1      36.206  23.179  26.476  1.00  0.00    -0.250 OA
BRANCH  57  59
ATOM     59  C   UNL A   1      34.578  21.483  25.738  1.00  0.00     0.192 C 
ATOM     60  C   UNL A   1      34.629  20.174  24.971  1.00  0.00     0.037 C 
ATOM     61  N   UNL A   1      33.431  22.233  25.165  1.00  0.00    -0.353 N 
ATOM     62  C   UNL A   1      33.301  19.416  24.925  1.00  0.00     0.005 C 
ATOM     63  C   UNL A   1      32.117  21.595  25.198  1.00  0.00     0.118 C 
ATOM     64  C   UNL A   1      32.186  20.306  24.389  1.00  0.00     0.022 C 
BRANCH  61  65
ATOM     65  C   UNL A   1      33.507  23.600  25.010  1.00  0.00     0.116 A 
ATOM     66  C   UNL A   1      33.147  24.380  26.124  1.00  0.00     0.033 A 
ATOM     67  C   UNL A   1      33.858  24.274  23.830  1.00  0.00     0.292 A 
ATOM     68  C   UNL A   1      33.107  25.772  26.057  1.00  0.00     0.003 A 
ATOM     69  C   UNL A   1      33.819  25.675  23.754  1.00  0.00     0.088 A 
ATOM     70  C   UNL A   1      33.433  26.419  24.869  1.00  0.00     0.007 A 
BRANCH  67  71
ATOM     71  N   UNL A   1      34.293  23.552  22.637  1.00  0.00     0.064 N 
ATOM     72  O   UNL A   1      35.512  23.343  22.524  1.00  0.00    -0.258 OA
ATOM     73  O   UNL A   1      33.447  23.200  21.801  1.00  0.00    -0.258 OA
ENDBRANCH  67  71
ENDBRANCH  61  65
ENDBRANCH  57  59
ENDBRANCH  56  57
ENDBRANCH  55  56
ENDBRANCH   1  55
TORSDOF 13
ENDMDL
MODEL 3
REMARK VINA RESULT:     -10.4      2.541      7.127
REMARK SMILES O=C(OCCOC(=O)[C@@H]1CCCCN1c1ccccc1[N+](=O)[O-])c1ccc(-c2c3nc(c(-c4ccccc4)c4ccc([nH]4)c(-c4ccccc4)c4nc(c(-c5ccccc5)c5ccc2[nH]5)C=C4)C=C3)cc1
REMARK SMILES IDX 4 1 3 2 2 3 1 4 24 5 25 6 71 7 26 8 70 9 27 10 28 11 29 12
REMARK SMILES IDX 64 13 30 14 69 15 63 16 65 17 31 18 68 19 62 20 61 21 32 23
REMARK SMILES IDX 54 24 39 25 53 26 40 27 43 28 52 29 66 30 41 31 42 32 51 34
REMARK SMILES IDX 67 35 44 36 33 37 34 38 38 39 35 40 37 41 36 42 55 43 56 44
REMARK SMILES IDX 60 45 57 46 59 47 58 48 45 49 46 50 50 51 47 52 49 53 48 54
REMARK SMILES IDX 5 55 6 56 7 57 8 58 9 59 10 60 14 61 11 62 13 63 12 64 15 65
REMARK SMILES IDX 16 66 20 67 17 68 19 69 18 70 21 71 22 72 23 73
REMARK H PARENT 65 22 43 33
REMARK Flexibility Score: inf
ROOT
ATOM      1  C   UNL A   1      32.921  29.870  25.805  1.00  0.00     0.275 C 
ENDROOT
BRANCH   1   2
ATOM      2  O   UNL A   1      33.547  29.696  27.083  1.00  0.00    -0.458 OA
BRANCH   2   3
ATOM      3  C   UNL A   1      34.384  30.520  27.761  1.00  0.00     0.338 C 
ATOM      4  O   UNL A   1      34.076  31.697  27.880  1.00  0.00    -0.246 OA
BRANCH   3   5
ATOM      5  C   UNL A   1      35.730  30.095  28.269  1.00  0.00     0.060 A 
ATOM      6  C   UNL A   1      36.066  29.737  29.583  1.00  0.00     0.016 A 
ATOM      7  C   UNL A   1      36.740  30.022  27.298  1.00  0.00     0.016 A 
ATOM      8  C   UNL A   1      37.314  29.179  29.900  1.00  0.00     0.010 A 
ATOM      9  C   UNL A   1      37.982  29.462  27.605  1.00  0.00     0.010 A 
ATOM     10  C   UNL A   1      38.274  29.008  28.908  1.00  0.00    -0.014 A 
BRANCH  10  11
ATOM     11  C   UNL A   1      39.654  28.549  29.206  1.00  0.00     0.031 A 
ATOM     12  C   UNL A   1      40.590  29.596  29.729  1.00  0.00     0.074 A 
ATOM     13  C   UNL A   1      40.110  27.309  28.925  1.00  0.00     0.049 A 
ATOM     14  N   UNL A   1      41.884  29.556  29.881  1.00  0.00    -0.248 NA
ATOM     15  C   UNL A   1      39.972  30.886  30.090  1.00  0.00     0.031 C 
ATOM     16  C   UNL A   1      39.315  26.175  28.459  1.00  0.00     0.029 A 
ATOM     17  N   UNL A   1      41.395  26.817  28.927  1.00  0.00    -0.354 N 
ATOM     18  C   UNL A   1      42.223  30.815  30.351  1.00  0.00     0.074 A 
ATOM     19  C   UNL A   1      41.036  31.634  30.303  1.00  0.00     0.031 C 
ATOM     20  C   UNL A   1      40.132  25.169  28.098  1.00  0.00     0.029 A 
ATOM     21  C   UNL A   1      41.509  25.561  28.370  1.00  0.00     0.049 A 
ATOM     22  H   UNL A   1      42.162  27.314  29.292  1.00  0.00     0.167 HD
ATOM     23  C   UNL A   1      43.396  31.233  30.872  1.00  0.00     0.031 A 
ATOM     24  C   UNL A   1      42.601  24.811  28.121  1.00  0.00     0.031 A 
ATOM     25  C   UNL A   1      44.562  30.409  30.936  1.00  0.00     0.049 A 
ATOM     26  C   UNL A   1      43.935  25.316  28.607  1.00  0.00     0.074 A 
ATOM     27  C   UNL A   1      45.795  30.689  31.488  1.00  0.00     0.029 A 
ATOM     28  N   UNL A   1      44.629  29.125  30.414  1.00  0.00    -0.354 N 
ATOM     29  N   UNL A   1      44.226  26.467  29.165  1.00  0.00    -0.248 NA
ATOM     30  C   UNL A   1      45.075  24.394  28.498  1.00  0.00     0.031 C 
ATOM     31  C   UNL A   1      46.626  29.588  31.258  1.00  0.00     0.029 A 
ATOM     32  C   UNL A   1      45.890  28.602  30.613  1.00  0.00     0.049 A 
ATOM     33  H   UNL A   1      43.887  28.656  29.967  1.00  0.00     0.167 HD
ATOM     34  C   UNL A   1      45.558  26.379  29.547  1.00  0.00     0.074 A 
ATOM     35  C   UNL A   1      46.026  25.072  29.129  1.00  0.00     0.031 C 
ATOM     36  C   UNL A   1      46.315  27.285  30.211  1.00  0.00     0.031 A 
BRANCH  23  37
ATOM     37  C   UNL A   1      43.407  32.633  31.413  1.00  0.00    -0.014 A 
ATOM     38  C   UNL A   1      42.994  32.896  32.733  1.00  0.00     0.009 A 
ATOM     39  C   UNL A   1      43.703  33.708  30.565  1.00  0.00     0.009 A 
ATOM     40  C   UNL A   1      42.782  34.206  33.161  1.00  0.00     0.001 A 
ATOM     41  C   UNL A   1      43.531  35.020  31.012  1.00  0.00     0.001 A 
ATOM     42  C   UNL A   1      43.047  35.267  32.298  1.00  0.00     0.000 A 
ENDBRANCH  23  37
BRANCH  24  43
ATOM     43  C   UNL A   1      42.483  23.477  27.469  1.00  0.00    -0.014 A 
ATOM     44  C   UNL A   1      42.099  22.350  28.214  1.00  0.00     0.009 A 
ATOM     45  C   UNL A   1      42.777  23.313  26.106  1.00  0.00     0.009 A 
ATOM     46  C   UNL A   1      42.044  21.086  27.620  1.00  0.00     0.001 A 
ATOM     47  C   UNL A   1      42.702  22.049  25.509  1.00  0.00     0.001 A 
ATOM     48  C   UNL A   1      42.346  20.935  26.268  1.00  0.00     0.000 A 
ENDBRANCH  24  43
BRANCH  36  49
ATOM     49  C   UNL A   1      47.704  26.881  30.608  1.00  0.00    -0.014 A 
ATOM     50  C   UNL A   1      48.814  27.189  29.811  1.00  0.00     0.009 A 
ATOM     51  C   UNL A   1      47.904  26.288  31.866  1.00  0.00     0.009 A 
ATOM     52  C   UNL A   1      50.102  26.909  30.269  1.00  0.00     0.001 A 
ATOM     53  C   UNL A   1      49.193  26.039  32.333  1.00  0.00     0.001 A 
ATOM     54  C   UNL A   1      50.291  26.347  31.532  1.00  0.00     0.000 A 
ENDBRANCH  36  49
ENDBRANCH  10  11
ENDBRANCH   3   5
ENDBRANCH   2   3
ENDBRANCH   1   2
BRANCH   1  55
ATOM     55  C   UNL A   1      33.544  29.056  24.668  1.00  0.00     0.274 C 
BRANCH  55  56
ATOM     56  O   UNL A   1      33.633  27.640  24.926  1.00  0.00    -0.461 OA
BRANCH  56  57
ATOM     57  C   UNL A   1      33.208  26.816  23.913  1.00  0.00     0.328 C 
ATOM     58  O   UNL A   1      33.658  26.879  22.773  1.00  0.00    -0.250 OA
BRANCH  57  59
ATOM     59  C   UNL A   1      32.047  25.848  24.326  1.00  0.00     0.192 C 
ATOM     60  C   UNL A   1      31.137  26.445  25.383  1.00  0.00     0.037 C 
ATOM     61  N   UNL A   1      32.481  24.536  24.872  1.00  0.00    -0.353 N 
ATOM     62  C   UNL A   1      30.011  25.517  25.846  1.00  0.00     0.005 C 
ATOM     63  C   UNL A   1      31.444  23.571  25.226  1.00  0.00     0.118 C 
ATOM     64  C   UNL A   1      30.570  24.179  26.316  1.00  0.00     0.022 C 
BRANCH  61  65
ATOM     65  C   UNL A   1      33.765  24.088  24.656  1.00  0.00     0.116 A 
ATOM     66  C   UNL A   1      34.687  24.290  25.699  1.00  0.00     0.033 A 
ATOM     67  C   UNL A   1      34.240  23.499  23.472  1.00  0.00     0.292 A 
ATOM     68  C   UNL A   1      36.033  23.951  25.559  1.00  0.00     0.003 A 
ATOM     69  C   UNL A   1      35.594  23.157  23.324  1.00  0.00     0.088 A 
ATOM     70  C   UNL A   1      36.487  23.394  24.367  1.00  0.00     0.007 A 
BRANCH  67  71
ATOM     71  N   UNL A   1      33.350  23.204  22.353  1.00  0.00     0.064 N 
ATOM     72  O   UNL A   1      32.688  22.156  22.427  1.00  0.00    -0.258 OA
ATOM     73  O   UNL A   1      33.304  23.988  21.393  1.00  0.00    -0.258 OA
ENDBRANCH  67  71
ENDBRANCH  61  65
ENDBRANCH  57  59
ENDBRANCH  56  57
ENDBRANCH  55  56
ENDBRANCH   1  55
TORSDOF 13
ENDMDL
