MODEL 1
REMARK VINA RESULT:     -10.7      0.000      0.000
REMARK SMILES CO[C@@]1(C(=O)OCCOC(=O)c2ccc(-c3c4nc(c(-c5ccccc5)c5ccc([nH]5)c(-c5ccccc5)c5nc(c(-c6ccccc6)c6ccc3[nH]6)C=C5)C=C4)cc2)CC(c2ccccc2)=CC=C1C
REMARK SMILES IDX 8 1 7 2 6 3 4 4 5 5 3 6 60 7 70 8 61 9 69 10 71 11 68 12
REMARK SMILES IDX 2 13 1 14 62 15 63 16 67 17 64 18 66 19 65 20 9 21 10 22
REMARK SMILES IDX 11 23 12 24 13 25 59 26 14 27 58 28 15 29 16 30 17 31 52 32
REMARK SMILES IDX 18 33 57 34 51 35 53 36 19 37 56 38 50 39 49 40 20 42 42 43
REMARK SMILES IDX 27 44 41 45 28 46 31 47 40 48 54 49 29 50 30 51 39 53 55 54
REMARK SMILES IDX 32 55 21 56 22 57 26 58 23 59 25 60 24 61 43 62 44 63 48 64
REMARK SMILES IDX 45 65 47 66 46 67 33 68 34 69 38 70 35 71 37 72 36 73
REMARK H PARENT 53 41 31 52
REMARK Flexibility Score: inf
ROOT
ATOM      1  C   UNL A   1      33.658  29.432  26.570  1.00  0.00     0.275 C 
ENDROOT
BRANCH   1   2
ATOM      2  C   UNL A   1      33.632  27.995  26.056  1.00  0.00     0.274 C 
BRANCH   2   3
ATOM      3  O   UNL A   1      32.338  27.662  25.510  1.00  0.00    -0.460 OA
BRANCH   3   4
ATOM      4  C   UNL A   1      31.528  26.922  26.325  1.00  0.00     0.343 C 
ATOM      5  O   UNL A   1      31.113  27.354  27.398  1.00  0.00    -0.248 OA
BRANCH   4   6
ATOM      6  C   UNL A   1      31.151  25.506  25.721  1.00  0.00     0.190 C 
ATOM      7  C   UNL A   1      32.507  24.685  25.711  1.00  0.00     0.088 C 
ATOM      8  C   UNL A   1      30.566  25.662  24.302  1.00  0.00    -0.030 C 
ATOM      9  C   UNL A   1      33.214  24.510  24.393  1.00  0.00    -0.037 C 
ATOM     10  C   UNL A   1      31.267  25.329  23.202  1.00  0.00     0.003 C 
ATOM     11  C   UNL A   1      29.205  26.275  24.091  1.00  0.00     0.043 C 
ATOM     12  C   UNL A   1      32.607  24.809  23.237  1.00  0.00     0.004 C 
BRANCH   6  13
ATOM     13  O   UNL A   1      30.358  24.642  26.556  1.00  0.00    -0.362 OA
ATOM     14  C   UNL A   1      30.639  23.270  26.683  1.00  0.00     0.197 C 
ENDBRANCH   6  13
BRANCH   9  15
ATOM     15  C   UNL A   1      34.586  23.964  24.437  1.00  0.00    -0.022 A 
ATOM     16  C   UNL A   1      35.108  23.254  23.348  1.00  0.00     0.008 A 
ATOM     17  C   UNL A   1      35.415  24.199  25.544  1.00  0.00     0.008 A 
ATOM     18  C   UNL A   1      36.429  22.796  23.364  1.00  0.00     0.001 A 
ATOM     19  C   UNL A   1      36.734  23.741  25.562  1.00  0.00     0.001 A 
ATOM     20  C   UNL A   1      37.241  23.042  24.469  1.00  0.00     0.000 A 
ENDBRANCH   9  15
ENDBRANCH   4   6
ENDBRANCH   3   4
ENDBRANCH   2   3
ENDBRANCH   1   2
BRANCH   1  21
ATOM     21  O   UNL A   1      33.993  29.447  27.969  1.00  0.00    -0.458 OA
BRANCH  21  22
ATOM     22  C   UNL A   1      34.790  30.455  28.378  1.00  0.00     0.338 C 
ATOM     23  O   UNL A   1      34.469  31.618  28.604  1.00  0.00    -0.246 OA
BRANCH  22  24
ATOM     24  C   UNL A   1      36.169  29.970  28.523  1.00  0.00     0.060 A 
ATOM     25  C   UNL A   1      36.607  29.425  29.731  1.00  0.00     0.016 A 
ATOM     26  C   UNL A   1      37.060  30.128  27.462  1.00  0.00     0.016 A 
ATOM     27  C   UNL A   1      37.935  29.051  29.896  1.00  0.00     0.010 A 
ATOM     28  C   UNL A   1      38.377  29.686  27.602  1.00  0.00     0.010 A 
ATOM     29  C   UNL A   1      38.823  29.143  28.819  1.00  0.00    -0.014 A 
BRANCH  29  30
ATOM     30  C   UNL A   1      40.207  28.627  28.939  1.00  0.00     0.031 A 
ATOM     31  C   UNL A   1      41.335  29.551  29.284  1.00  0.00     0.074 A 
ATOM     32  C   UNL A   1      40.448  27.326  28.689  1.00  0.00     0.049 A 
ATOM     33  N   UNL A   1      42.624  29.334  29.222  1.00  0.00    -0.248 NA
ATOM     34  C   UNL A   1      40.968  30.897  29.752  1.00  0.00     0.031 C 
ATOM     35  C   UNL A   1      39.431  26.313  28.394  1.00  0.00     0.029 A 
ATOM     36  N   UNL A   1      41.631  26.636  28.627  1.00  0.00    -0.354 N 
ATOM     37  C   UNL A   1      43.224  30.525  29.609  1.00  0.00     0.074 A 
ATOM     38  C   UNL A   1      42.159  31.462  29.903  1.00  0.00     0.031 C 
ATOM     39  C   UNL A   1      40.034  25.134  28.185  1.00  0.00     0.029 A 
ATOM     40  C   UNL A   1      41.477  25.324  28.253  1.00  0.00     0.049 A 
ATOM     41  H   UNL A   1      42.506  27.041  28.830  1.00  0.00     0.167 HD
ATOM     42  C   UNL A   1      44.544  30.810  29.698  1.00  0.00     0.031 A 
ATOM     43  C   UNL A   1      42.393  24.389  27.940  1.00  0.00     0.031 A 
ATOM     44  C   UNL A   1      45.597  29.870  29.415  1.00  0.00     0.049 A 
ATOM     45  C   UNL A   1      43.847  24.756  27.964  1.00  0.00     0.074 A 
ATOM     46  C   UNL A   1      46.966  30.058  29.497  1.00  0.00     0.029 A 
ATOM     47  N   UNL A   1      45.396  28.565  28.994  1.00  0.00    -0.354 N 
ATOM     48  N   UNL A   1      44.405  25.893  28.297  1.00  0.00    -0.248 NA
ATOM     49  C   UNL A   1      44.796  23.714  27.544  1.00  0.00     0.031 C 
ATOM     50  C   UNL A   1      47.594  28.879  29.080  1.00  0.00     0.029 A 
ATOM     51  C   UNL A   1      46.615  27.945  28.781  1.00  0.00     0.049 A 
ATOM     52  H   UNL A   1      44.516  28.142  28.864  1.00  0.00     0.167 HD
ATOM     53  C   UNL A   1      45.769  25.706  28.132  1.00  0.00     0.074 A 
ATOM     54  C   UNL A   1      45.956  24.339  27.689  1.00  0.00     0.031 C 
ATOM     55  C   UNL A   1      46.778  26.590  28.324  1.00  0.00     0.031 A 
BRANCH  42  56
ATOM     56  C   UNL A   1      44.927  32.210  30.079  1.00  0.00    -0.014 A 
ATOM     57  C   UNL A   1      45.148  32.571  31.416  1.00  0.00     0.009 A 
ATOM     58  C   UNL A   1      45.110  33.173  29.074  1.00  0.00     0.009 A 
ATOM     59  C   UNL A   1      45.525  33.877  31.741  1.00  0.00     0.001 A 
ATOM     60  C   UNL A   1      45.506  34.471  29.399  1.00  0.00     0.001 A 
ATOM     61  C   UNL A   1      45.707  34.823  30.732  1.00  0.00     0.000 A 
ENDBRANCH  42  56
BRANCH  43  62
ATOM     62  C   UNL A   1      41.952  23.042  27.504  1.00  0.00    -0.014 A 
ATOM     63  C   UNL A   1      41.610  22.801  26.165  1.00  0.00     0.009 A 
ATOM     64  C   UNL A   1      41.885  21.984  28.425  1.00  0.00     0.009 A 
ATOM     65  C   UNL A   1      41.198  21.528  25.762  1.00  0.00     0.001 A 
ATOM     66  C   UNL A   1      41.499  20.708  28.013  1.00  0.00     0.001 A 
ATOM     67  C   UNL A   1      41.149  20.483  26.683  1.00  0.00     0.000 A 
ENDBRANCH  43  62
BRANCH  55  68
ATOM     68  C   UNL A   1      48.169  26.095  28.061  1.00  0.00    -0.014 A 
ATOM     69  C   UNL A   1      48.729  26.174  26.777  1.00  0.00     0.009 A 
ATOM     70  C   UNL A   1      48.933  25.565  29.111  1.00  0.00     0.009 A 
ATOM     71  C   UNL A   1      50.023  25.704  26.545  1.00  0.00     0.001 A 
ATOM     72  C   UNL A   1      50.233  25.117  28.880  1.00  0.00     0.001 A 
ATOM     73  C   UNL A   1      50.775  25.179  27.596  1.00  0.00     0.000 A 
ENDBRANCH  55  68
ENDBRANCH  29  30
ENDBRANCH  22  24
ENDBRANCH  21  22
ENDBRANCH   1  21
TORSDOF 13
ENDMDL
MODEL 2
REMARK VINA RESULT:     -10.6      3.133      7.976
REMARK SMILES CO[C@@]1(C(=O)OCCOC(=O)c2ccc(-c3c4nc(c(-c5ccccc5)c5ccc([nH]5)c(-c5ccccc5)c5nc(c(-c6ccccc6)c6ccc3[nH]6)C=C5)C=C4)cc2)CC(c2ccccc2)=CC=C1C
REMARK SMILES IDX 8 1 7 2 6 3 4 4 5 5 3 6 60 7 70 8 61 9 69 10 71 11 68 12
REMARK SMILES IDX 2 13 1 14 62 15 63 16 67 17 64 18 66 19 65 20 9 21 10 22
REMARK SMILES IDX 11 23 12 24 13 25 59 26 14 27 58 28 15 29 16 30 17 31 52 32
REMARK SMILES IDX 18 33 57 34 51 35 53 36 19 37 56 38 50 39 49 40 20 42 42 43
REMARK SMILES IDX 27 44 41 45 28 46 31 47 40 48 54 49 29 50 30 51 39 53 55 54
REMARK SMILES IDX 32 55 21 56 22 57 26 58 23 59 25 60 24 61 43 62 44 63 48 64
REMARK SMILES IDX 45 65 47 66 46 67 33 68 34 69 38 70 35 71 37 72 36 73
REMARK H PARENT 53 41 31 52
REMARK Flexibility Score: inf
ROOT
ATOM      1  C   UNL A   1      37.110  21.808  25.734  1.00  0.00     0.275 C 
ENDROOT
BRANCH   1   2
ATOM      2  C   UNL A   1      35.639  22.117  25.462  1.00  0.00     0.274 C 
BRANCH   2   3
ATOM      3  O   UNL A   1      35.479  23.448  24.927  1.00  0.00    -0.460 OA
BRANCH   3   4
ATOM      4  C   UNL A   1      35.237  23.516  23.583  1.00  0.00     0.343 C 
ATOM      5  O   UNL A   1      36.068  23.159  22.752  1.00  0.00    -0.248 OA
BRANCH   4   6
ATOM      6  C   UNL A   1      33.782  24.040  23.231  1.00  0.00     0.190 C 
ATOM      7  C   UNL A   1      33.653  25.435  23.973  1.00  0.00     0.088 C 
ATOM      8  C   UNL A   1      32.715  23.034  23.711  1.00  0.00    -0.030 C 
ATOM      9  C   UNL A   1      32.831  25.487  25.235  1.00  0.00    -0.037 C 
ATOM     10  C   UNL A   1      31.942  23.275  24.787  1.00  0.00     0.003 C 
ATOM     11  C   UNL A   1      32.554  21.697  23.034  1.00  0.00     0.043 C 
ATOM     12  C   UNL A   1      32.034  24.469  25.583  1.00  0.00     0.004 C 
BRANCH   6  13
ATOM     13  O   UNL A   1      33.567  24.473  21.875  1.00  0.00    -0.362 OA
ATOM     14  C   UNL A   1      32.930  25.691  21.578  1.00  0.00     0.197 C 
ENDBRANCH   6  13
BRANCH   9  15
ATOM     15  C   UNL A   1      32.923  26.721  26.041  1.00  0.00    -0.022 A 
ATOM     16  C   UNL A   1      34.100  27.481  26.054  1.00  0.00     0.008 A 
ATOM     17  C   UNL A   1      31.813  27.191  26.760  1.00  0.00     0.008 A 
ATOM     18  C   UNL A   1      34.162  28.683  26.763  1.00  0.00     0.001 A 
ATOM     19  C   UNL A   1      31.875  28.392  27.470  1.00  0.00     0.001 A 
ATOM     20  C   UNL A   1      33.050  29.139  27.469  1.00  0.00     0.000 A 
ENDBRANCH   9  15
ENDBRANCH   4   6
ENDBRANCH   3   4
ENDBRANCH   2   3
ENDBRANCH   1   2
BRANCH   1  21
ATOM     21  O   UNL A   1      37.869  23.029  25.771  1.00  0.00    -0.458 OA
BRANCH  21  22
ATOM     22  C   UNL A   1      39.095  22.949  26.329  1.00  0.00     0.338 C 
ATOM     23  O   UNL A   1      39.838  21.973  26.364  1.00  0.00    -0.246 OA
BRANCH  22  24
ATOM     24  C   UNL A   1      39.453  24.241  26.928  1.00  0.00     0.060 A 
ATOM     25  C   UNL A   1      39.059  24.553  28.231  1.00  0.00     0.016 A 
ATOM     26  C   UNL A   1      40.126  25.186  26.155  1.00  0.00     0.016 A 
ATOM     27  C   UNL A   1      39.319  25.810  28.764  1.00  0.00     0.010 A 
ATOM     28  C   UNL A   1      40.451  26.423  26.714  1.00  0.00     0.010 A 
ATOM     29  C   UNL A   1      40.051  26.744  28.023  1.00  0.00    -0.014 A 
BRANCH  29  30
ATOM     30  C   UNL A   1      40.448  28.037  28.626  1.00  0.00     0.031 A 
ATOM     31  C   UNL A   1      41.811  28.210  29.224  1.00  0.00     0.074 A 
ATOM     32  C   UNL A   1      39.554  29.043  28.674  1.00  0.00     0.049 A 
ATOM     33  N   UNL A   1      42.261  29.178  29.979  1.00  0.00    -0.248 NA
ATOM     34  C   UNL A   1      42.795  27.153  28.943  1.00  0.00     0.031 C 
ATOM     35  C   UNL A   1      38.213  29.019  28.083  1.00  0.00     0.029 A 
ATOM     36  N   UNL A   1      39.635  30.278  29.264  1.00  0.00    -0.354 N 
ATOM     37  C   UNL A   1      43.568  28.833  30.294  1.00  0.00     0.074 A 
ATOM     38  C   UNL A   1      43.840  27.565  29.649  1.00  0.00     0.031 C 
ATOM     39  C   UNL A   1      37.600  30.184  28.338  1.00  0.00     0.029 A 
ATOM     40  C   UNL A   1      38.471  31.002  29.174  1.00  0.00     0.049 A 
ATOM     41  H   UNL A   1      40.447  30.614  29.708  1.00  0.00     0.167 HD
ATOM     42  C   UNL A   1      44.454  29.510  31.061  1.00  0.00     0.031 A 
ATOM     43  C   UNL A   1      38.117  32.166  29.748  1.00  0.00     0.031 A 
ATOM     44  C   UNL A   1      44.181  30.774  31.691  1.00  0.00     0.049 A 
ATOM     45  C   UNL A   1      39.086  32.852  30.662  1.00  0.00     0.074 A 
ATOM     46  C   UNL A   1      45.021  31.549  32.472  1.00  0.00     0.029 A 
ATOM     47  N   UNL A   1      42.973  31.449  31.612  1.00  0.00    -0.354 N 
ATOM     48  N   UNL A   1      40.308  32.503  30.982  1.00  0.00    -0.248 NA
ATOM     49  C   UNL A   1      38.618  34.084  31.315  1.00  0.00     0.031 C 
ATOM     50  C   UNL A   1      44.305  32.671  32.904  1.00  0.00     0.029 A 
ATOM     51  C   UNL A   1      43.034  32.616  32.355  1.00  0.00     0.049 A 
ATOM     52  H   UNL A   1      42.187  31.143  31.104  1.00  0.00     0.167 HD
ATOM     53  C   UNL A   1      40.757  33.469  31.869  1.00  0.00     0.074 A 
ATOM     54  C   UNL A   1      39.685  34.432  32.021  1.00  0.00     0.031 C 
ATOM     55  C   UNL A   1      41.950  33.549  32.507  1.00  0.00     0.031 A 
BRANCH  42  56
ATOM     56  C   UNL A   1      45.793  28.874  31.300  1.00  0.00    -0.014 A 
ATOM     57  C   UNL A   1      45.996  27.967  32.351  1.00  0.00     0.009 A 
ATOM     58  C   UNL A   1      46.857  29.158  30.430  1.00  0.00     0.009 A 
ATOM     59  C   UNL A   1      47.246  27.373  32.538  1.00  0.00     0.001 A 
ATOM     60  C   UNL A   1      48.100  28.548  30.607  1.00  0.00     0.001 A 
ATOM     61  C   UNL A   1      48.295  27.662  31.664  1.00  0.00     0.000 A 
ENDBRANCH  42  56
BRANCH  43  62
ATOM     62  C   UNL A   1      36.755  32.711  29.529  1.00  0.00    -0.014 A 
ATOM     63  C   UNL A   1      36.462  33.460  28.381  1.00  0.00     0.009 A 
ATOM     64  C   UNL A   1      35.735  32.469  30.464  1.00  0.00     0.009 A 
ATOM     65  C   UNL A   1      35.174  33.966  28.180  1.00  0.00     0.001 A 
ATOM     66  C   UNL A   1      34.445  32.953  30.248  1.00  0.00     0.001 A 
ATOM     67  C   UNL A   1      34.167  33.708  29.109  1.00  0.00     0.000 A 
ENDBRANCH  43  62
BRANCH  55  68
ATOM     68  C   UNL A   1      42.151  34.724  33.418  1.00  0.00    -0.014 A 
ATOM     69  C   UNL A   1      42.809  35.878  32.969  1.00  0.00     0.009 A 
ATOM     70  C   UNL A   1      41.658  34.682  34.731  1.00  0.00     0.009 A 
ATOM     71  C   UNL A   1      42.995  36.962  33.830  1.00  0.00     0.001 A 
ATOM     72  C   UNL A   1      41.827  35.775  35.581  1.00  0.00     0.001 A 
ATOM     73  C   UNL A   1      42.501  36.910  35.133  1.00  0.00     0.000 A 
ENDBRANCH  55  68
ENDBRANCH  29  30
ENDBRANCH  22  24
ENDBRANCH  21  22
ENDBRANCH   1  21
TORSDOF 13
ENDMDL
MODEL 3
REMARK VINA RESULT:     -10.6      1.868      3.749
REMARK SMILES CO[C@@]1(C(=O)OCCOC(=O)c2ccc(-c3c4nc(c(-c5ccccc5)c5ccc([nH]5)c(-c5ccccc5)c5nc(c(-c6ccccc6)c6ccc3[nH]6)C=C5)C=C4)cc2)CC(c2ccccc2)=CC=C1C
REMARK SMILES IDX 8 1 7 2 6 3 4 4 5 5 3 6 60 7 70 8 61 9 69 10 71 11 68 12
REMARK SMILES IDX 2 13 1 14 62 15 63 16 67 17 64 18 66 19 65 20 9 21 10 22
REMARK SMILES IDX 11 23 12 24 13 25 59 26 14 27 58 28 15 29 16 30 17 31 52 32
REMARK SMILES IDX 18 33 57 34 51 35 53 36 19 37 56 38 50 39 49 40 20 42 42 43
REMARK SMILES IDX 27 44 41 45 28 46 31 47 40 48 54 49 29 50 30 51 39 53 55 54
REMARK SMILES IDX 32 55 21 56 22 57 26 58 23 59 25 60 24 61 43 62 44 63 48 64
REMARK SMILES IDX 45 65 47 66 46 67 33 68 34 69 38 70 35 71 37 72 36 73
REMARK H PARENT 53 41 31 52
REMARK Flexibility Score: inf
ROOT
ATOM      1  C   UNL A   1      33.192  30.582  26.956  1.00  0.00     0.275 C 
ENDROOT
BRANCH   1   2
ATOM      2  C   UNL A   1      33.191  29.692  25.715  1.00  0.00     0.274 C 
BRANCH   2   3
ATOM      3  O   UNL A   1      31.854  29.257  25.389  1.00  0.00    -0.460 OA
BRANCH   3   4
ATOM      4  C   UNL A   1      31.663  27.904  25.372  1.00  0.00     0.343 C 
ATOM      5  O   UNL A   1      31.833  27.208  26.370  1.00  0.00    -0.248 OA
BRANCH   4   6
ATOM      6  C   UNL A   1      31.158  27.357  23.971  1.00  0.00     0.190 C 
ATOM      7  C   UNL A   1      30.664  28.639  23.180  1.00  0.00     0.088 C 
ATOM      8  C   UNL A   1      30.021  26.334  24.170  1.00  0.00    -0.030 C 
ATOM      9  C   UNL A   1      29.180  28.870  23.070  1.00  0.00    -0.037 C 
ATOM     10  C   UNL A   1      28.737  26.632  23.894  1.00  0.00     0.003 C 
ATOM     11  C   UNL A   1      30.298  24.975  24.762  1.00  0.00     0.043 C 
ATOM     12  C   UNL A   1      28.304  27.912  23.400  1.00  0.00     0.004 C 
BRANCH   6  13
ATOM     13  O   UNL A   1      32.170  26.892  23.060  1.00  0.00    -0.362 OA
ATOM     14  C   UNL A   1      31.847  26.382  21.790  1.00  0.00     0.197 C 
ENDBRANCH   6  13
BRANCH   9  15
ATOM     15  C   UNL A   1      28.744  30.183  22.551  1.00  0.00    -0.022 A 
ATOM     16  C   UNL A   1      28.776  31.321  23.368  1.00  0.00     0.008 A 
ATOM     17  C   UNL A   1      28.350  30.329  21.212  1.00  0.00     0.008 A 
ATOM     18  C   UNL A   1      28.429  32.574  22.856  1.00  0.00     0.001 A 
ATOM     19  C   UNL A   1      28.002  31.581  20.701  1.00  0.00     0.001 A 
ATOM     20  C   UNL A   1      28.043  32.704  21.523  1.00  0.00     0.000 A 
ENDBRANCH   9  15
ENDBRANCH   4   6
ENDBRANCH   3   4
ENDBRANCH   2   3
ENDBRANCH   1   2
BRANCH   1  21
ATOM     21  O   UNL A   1      34.010  29.993  27.982  1.00  0.00    -0.458 OA
BRANCH  21  22
ATOM     22  C   UNL A   1      34.795  30.843  28.676  1.00  0.00     0.338 C 
ATOM     23  O   UNL A   1      34.475  31.916  29.178  1.00  0.00    -0.246 OA
BRANCH  22  24
ATOM     24  C   UNL A   1      36.159  30.303  28.758  1.00  0.00     0.060 A 
ATOM     25  C   UNL A   1      36.995  30.314  27.640  1.00  0.00     0.016 A 
ATOM     26  C   UNL A   1      36.584  29.710  29.946  1.00  0.00     0.016 A 
ATOM     27  C   UNL A   1      38.251  29.720  27.693  1.00  0.00     0.010 A 
ATOM     28  C   UNL A   1      37.873  29.177  30.022  1.00  0.00     0.010 A 
ATOM     29  C   UNL A   1      38.715  29.180  28.897  1.00  0.00    -0.014 A 
BRANCH  29  30
ATOM     30  C   UNL A   1      40.099  28.663  29.005  1.00  0.00     0.031 A 
ATOM     31  C   UNL A   1      41.230  29.584  29.352  1.00  0.00     0.074 A 
ATOM     32  C   UNL A   1      40.340  27.365  28.740  1.00  0.00     0.049 A 
ATOM     33  N   UNL A   1      42.518  29.368  29.281  1.00  0.00    -0.248 NA
ATOM     34  C   UNL A   1      40.865  30.925  29.835  1.00  0.00     0.031 C 
ATOM     35  C   UNL A   1      39.321  26.355  28.441  1.00  0.00     0.029 A 
ATOM     36  N   UNL A   1      41.523  26.676  28.664  1.00  0.00    -0.354 N 
ATOM     37  C   UNL A   1      43.120  30.555  29.676  1.00  0.00     0.074 A 
ATOM     38  C   UNL A   1      42.057  31.489  29.985  1.00  0.00     0.031 C 
ATOM     39  C   UNL A   1      39.922  25.178  28.216  1.00  0.00     0.029 A 
ATOM     40  C   UNL A   1      41.367  25.367  28.278  1.00  0.00     0.049 A 
ATOM     41  H   UNL A   1      42.398  27.079  28.866  1.00  0.00     0.167 HD
ATOM     42  C   UNL A   1      44.441  30.839  29.761  1.00  0.00     0.031 A 
ATOM     43  C   UNL A   1      42.281  24.436  27.950  1.00  0.00     0.031 A 
ATOM     44  C   UNL A   1      45.492  29.902  29.462  1.00  0.00     0.049 A 
ATOM     45  C   UNL A   1      43.734  24.802  27.969  1.00  0.00     0.074 A 
ATOM     46  C   UNL A   1      46.862  30.090  29.538  1.00  0.00     0.029 A 
ATOM     47  N   UNL A   1      45.289  28.602  29.029  1.00  0.00    -0.354 N 
ATOM     48  N   UNL A   1      44.295  25.936  28.311  1.00  0.00    -0.248 NA
ATOM     49  C   UNL A   1      44.681  23.765  27.534  1.00  0.00     0.031 C 
ATOM     50  C   UNL A   1      47.487  28.915  29.105  1.00  0.00     0.029 A 
ATOM     51  C   UNL A   1      46.507  27.983  28.803  1.00  0.00     0.049 A 
ATOM     52  H   UNL A   1      44.409  28.180  28.900  1.00  0.00     0.167 HD
ATOM     53  C   UNL A   1      45.658  25.751  28.136  1.00  0.00     0.074 A 
ATOM     54  C   UNL A   1      45.842  24.389  27.679  1.00  0.00     0.031 C 
ATOM     55  C   UNL A   1      46.667  26.634  28.331  1.00  0.00     0.031 A 
BRANCH  42  56
ATOM     56  C   UNL A   1      44.826  32.236  30.153  1.00  0.00    -0.014 A 
ATOM     57  C   UNL A   1      45.049  32.584  31.493  1.00  0.00     0.009 A 
ATOM     58  C   UNL A   1      45.009  33.206  29.156  1.00  0.00     0.009 A 
ATOM     59  C   UNL A   1      45.428  33.887  31.828  1.00  0.00     0.001 A 
ATOM     60  C   UNL A   1      45.407  34.502  29.492  1.00  0.00     0.001 A 
ATOM     61  C   UNL A   1      45.610  34.842  30.828  1.00  0.00     0.000 A 
ENDBRANCH  42  56
BRANCH  43  62
ATOM     62  C   UNL A   1      41.837  23.093  27.504  1.00  0.00    -0.014 A 
ATOM     63  C   UNL A   1      41.646  22.821  26.141  1.00  0.00     0.009 A 
ATOM     64  C   UNL A   1      41.617  22.070  28.440  1.00  0.00     0.009 A 
ATOM     65  C   UNL A   1      41.231  21.552  25.728  1.00  0.00     0.001 A 
ATOM     66  C   UNL A   1      41.229  20.796  28.022  1.00  0.00     0.001 A 
ATOM     67  C   UNL A   1      41.029  20.541  26.667  1.00  0.00     0.000 A 
ENDBRANCH  43  62
BRANCH  55  68
ATOM     68  C   UNL A   1      48.057  26.142  28.055  1.00  0.00    -0.014 A 
ATOM     69  C   UNL A   1      48.614  26.245  26.772  1.00  0.00     0.009 A 
ATOM     70  C   UNL A   1      48.822  25.590  29.094  1.00  0.00     0.009 A 
ATOM     71  C   UNL A   1      49.907  25.776  26.527  1.00  0.00     0.001 A 
ATOM     72  C   UNL A   1      50.121  25.144  28.850  1.00  0.00     0.001 A 
ATOM     73  C   UNL A   1      50.660  25.230  27.567  1.00  0.00     0.000 A 
ENDBRANCH  55  68
ENDBRANCH  29  30
ENDBRANCH  22  24
ENDBRANCH  21  22
ENDBRANCH   1  21
TORSDOF 13
ENDMDL
