MODEL 1
REMARK VINA RESULT:     -11.7      0.000      0.000
REMARK SMILES Cc1n[nH]c(C(=O)N[C@H]2CC[C@@H](C(=O)OCCOC(=O)c3ccc(-c4c5nc(c(-c6ccccc6)c6ccc([nH]6)c(-c6ccccc6)c6nc(c(-c7ccccc7)c7ccc4[nH]7)C=C6)C=C5)cc3)C2)n1
REMARK SMILES IDX 16 1 15 2 13 3 14 4 12 5 9 6 10 7 69 8 11 9 8 10 6 11 7 12
REMARK SMILES IDX 5 14 1 15 2 16 3 17 70 18 4 19 17 21 18 22 19 23 20 24 21 25
REMARK SMILES IDX 22 26 68 27 23 28 67 29 24 30 25 31 26 32 61 33 27 34 66 35
REMARK SMILES IDX 60 36 62 37 28 38 65 39 59 40 58 41 29 43 51 44 36 45 50 46
REMARK SMILES IDX 37 47 40 48 49 49 63 50 38 51 39 52 48 54 64 55 41 56 30 57
REMARK SMILES IDX 31 58 35 59 32 60 34 61 33 62 52 63 53 64 57 65 54 66 56 67
REMARK SMILES IDX 55 68 42 69 43 70 47 71 44 72 46 73 45 74
REMARK H PARENT 8 13 4 20 62 42 40 53
REMARK Flexibility Score: inf
ROOT
ATOM      1  C   UNL A   1      34.371  29.943  26.884  1.00  0.00     0.274 C 
ENDROOT
BRANCH   1   2
ATOM      2  O   UNL A   1      33.331  29.938  25.863  1.00  0.00    -0.462 OA
BRANCH   2   3
ATOM      3  C   UNL A   1      33.153  28.779  25.164  1.00  0.00     0.309 C 
ATOM      4  O   UNL A   1      34.067  27.995  24.912  1.00  0.00    -0.252 OA
BRANCH   3   5
ATOM      5  C   UNL A   1      31.681  28.457  24.809  1.00  0.00     0.101 C 
ATOM      6  C   UNL A   1      30.884  27.647  22.499  1.00  0.00     0.083 C 
ATOM      7  C   UNL A   1      30.308  26.779  23.631  1.00  0.00     0.026 C 
ATOM      8  C   UNL A   1      31.324  28.895  23.368  1.00  0.00     0.040 C 
ATOM      9  C   UNL A   1      31.195  27.011  24.871  1.00  0.00     0.017 C 
BRANCH   6  10
ATOM     10  N   UNL A   1      31.879  26.839  21.599  1.00  0.00    -0.347 N 
ATOM     11  C   UNL A   1      32.831  25.529  21.576  1.00  0.00     0.288 C 
ATOM     12  O   UNL A   1      33.004  25.573  20.296  1.00  0.00    -0.266 OA
ATOM     13  H   UNL A   1      31.951  27.293  20.728  1.00  0.00     0.164 HD
BRANCH  11  14
ATOM     14  C   UNL A   1      33.504  24.219  23.022  1.00  0.00     0.214 A 
ATOM     15  C   UNL A   1      36.114  24.058  25.461  1.00  0.00     0.092 C 
ATOM     16  C   UNL A   1      34.995  23.641  24.590  1.00  0.00     0.148 A 
ATOM     17  N   UNL A   1      35.022  22.561  23.828  1.00  0.00    -0.159 NA
ATOM     18  N   UNL A   1      33.950  24.476  24.321  1.00  0.00    -0.207 NA
ATOM     19  N   UNL A   1      33.983  22.791  23.002  1.00  0.00    -0.255 N 
ATOM     20  H   UNL A   1      33.576  22.094  22.440  1.00  0.00     0.192 HD
ENDBRANCH  11  14
ENDBRANCH   6  10
ENDBRANCH   3   5
ENDBRANCH   2   3
ENDBRANCH   1   2
BRANCH   1  21
ATOM     21  C   UNL A   1      34.510  31.281  27.644  1.00  0.00     0.275 C 
BRANCH  21  22
ATOM     22  O   UNL A   1      35.801  31.420  28.286  1.00  0.00    -0.458 OA
BRANCH  22  23
ATOM     23  C   UNL A   1      35.619  31.675  29.601  1.00  0.00     0.338 C 
ATOM     24  O   UNL A   1      34.675  32.339  29.995  1.00  0.00    -0.246 OA
BRANCH  23  25
ATOM     25  C   UNL A   1      36.823  31.513  30.460  1.00  0.00     0.060 A 
ATOM     26  C   UNL A   1      38.486  32.265  30.070  1.00  0.00     0.016 A 
ATOM     27  C   UNL A   1      36.724  29.714  30.717  1.00  0.00     0.016 A 
ATOM     28  C   UNL A   1      39.932  31.150  29.682  1.00  0.00     0.010 A 
ATOM     29  C   UNL A   1      38.168  28.677  30.563  1.00  0.00     0.010 A 
ATOM     30  C   UNL A   1      39.727  29.345  29.949  1.00  0.00    -0.014 A 
BRANCH  30  31
ATOM     31  C   UNL A   1      40.743  28.293  29.830  1.00  0.00     0.031 A 
ATOM     32  C   UNL A   1      41.545  28.122  31.059  1.00  0.00     0.074 A 
ATOM     33  C   UNL A   1      40.679  27.262  28.946  1.00  0.00     0.049 A 
ATOM     34  N   UNL A   1      42.816  28.289  31.197  1.00  0.00    -0.248 NA
ATOM     35  C   UNL A   1      40.828  27.866  32.323  1.00  0.00     0.031 C 
ATOM     36  C   UNL A   1      39.673  27.022  27.901  1.00  0.00     0.029 A 
ATOM     37  N   UNL A   1      41.436  26.116  28.880  1.00  0.00    -0.354 N 
ATOM     38  C   UNL A   1      43.090  27.944  32.514  1.00  0.00     0.074 A 
ATOM     39  C   UNL A   1      41.826  27.925  33.203  1.00  0.00     0.031 C 
ATOM     40  C   UNL A   1      39.754  25.744  27.458  1.00  0.00     0.029 A 
ATOM     41  C   UNL A   1      40.898  25.102  28.078  1.00  0.00     0.049 A 
ATOM     42  H   UNL A   1      42.290  26.017  29.358  1.00  0.00     0.167 HD
ATOM     43  C   UNL A   1      44.291  27.426  32.884  1.00  0.00     0.031 A 
ATOM     44  C   UNL A   1      41.338  23.823  27.938  1.00  0.00     0.031 A 
ATOM     45  C   UNL A   1      45.281  27.563  31.847  1.00  0.00     0.049 A 
ATOM     46  C   UNL A   1      42.714  23.770  28.465  1.00  0.00     0.074 A 
ATOM     47  C   UNL A   1      45.806  28.619  31.131  1.00  0.00     0.029 A 
ATOM     48  N   UNL A   1      45.605  26.426  31.144  1.00  0.00    -0.354 N 
ATOM     49  N   UNL A   1      43.742  24.292  27.867  1.00  0.00    -0.248 NA
ATOM     50  C   UNL A   1      42.913  23.411  29.859  1.00  0.00     0.031 C 
ATOM     51  C   UNL A   1      46.022  28.110  29.819  1.00  0.00     0.029 A 
ATOM     52  C   UNL A   1      45.677  26.758  29.817  1.00  0.00     0.049 A 
ATOM     53  H   UNL A   1      45.759  25.532  31.527  1.00  0.00     0.167 HD
ATOM     54  C   UNL A   1      44.538  24.753  28.900  1.00  0.00     0.074 A 
ATOM     55  C   UNL A   1      44.058  24.055  30.089  1.00  0.00     0.031 C 
ATOM     56  C   UNL A   1      45.297  25.873  28.738  1.00  0.00     0.031 A 
BRANCH  43  57
ATOM     57  C   UNL A   1      44.457  26.443  34.017  1.00  0.00    -0.014 A 
ATOM     58  C   UNL A   1      43.851  25.181  33.908  1.00  0.00     0.009 A 
ATOM     59  C   UNL A   1      44.962  26.798  35.283  1.00  0.00     0.009 A 
ATOM     60  C   UNL A   1      43.718  24.341  35.019  1.00  0.00     0.001 A 
ATOM     61  C   UNL A   1      44.874  25.942  36.383  1.00  0.00     0.001 A 
ATOM     62  C   UNL A   1      44.229  24.722  36.256  1.00  0.00     0.000 A 
ENDBRANCH  43  57
BRANCH  44  63
ATOM     63  C   UNL A   1      40.680  22.566  27.497  1.00  0.00    -0.014 A 
ATOM     64  C   UNL A   1      39.589  22.610  26.605  1.00  0.00     0.009 A 
ATOM     65  C   UNL A   1      41.289  21.319  27.709  1.00  0.00     0.009 A 
ATOM     66  C   UNL A   1      39.167  21.470  25.906  1.00  0.00     0.001 A 
ATOM     67  C   UNL A   1      40.864  20.176  27.016  1.00  0.00     0.001 A 
ATOM     68  C   UNL A   1      39.819  20.255  26.099  1.00  0.00     0.000 A 
ENDBRANCH  44  63
BRANCH  56  69
ATOM     69  C   UNL A   1      45.508  26.389  27.334  1.00  0.00    -0.014 A 
ATOM     70  C   UNL A   1      44.553  27.152  26.637  1.00  0.00     0.009 A 
ATOM     71  C   UNL A   1      46.775  26.220  26.755  1.00  0.00     0.009 A 
ATOM     72  C   UNL A   1      44.853  27.706  25.387  1.00  0.00     0.001 A 
ATOM     73  C   UNL A   1      47.082  26.795  25.520  1.00  0.00     0.001 A 
ATOM     74  C   UNL A   1      46.120  27.535  24.835  1.00  0.00     0.000 A 
ENDBRANCH  56  69
ENDBRANCH  30  31
ENDBRANCH  23  25
ENDBRANCH  22  23
ENDBRANCH  21  22
ENDBRANCH   1  21
TORSDOF 13
ENDMDL
MODEL 2
REMARK VINA RESULT:     -11.6      1.516      3.023
REMARK SMILES Cc1n[nH]c(C(=O)N[C@H]2CC[C@@H](C(=O)OCCOC(=O)c3ccc(-c4c5nc(c(-c6ccccc6)c6ccc([nH]6)c(-c6ccccc6)c6nc(c(-c7ccccc7)c7ccc4[nH]7)C=C6)C=C5)cc3)C2)n1
REMARK SMILES IDX 16 1 15 2 13 3 14 4 12 5 9 6 10 7 69 8 11 9 8 10 6 11 7 12
REMARK SMILES IDX 5 14 1 15 2 16 3 17 70 18 4 19 17 21 18 22 19 23 20 24 21 25
REMARK SMILES IDX 22 26 68 27 23 28 67 29 24 30 25 31 26 32 61 33 27 34 66 35
REMARK SMILES IDX 60 36 62 37 28 38 65 39 59 40 58 41 29 43 51 44 36 45 50 46
REMARK SMILES IDX 37 47 40 48 49 49 63 50 38 51 39 52 48 54 64 55 41 56 30 57
REMARK SMILES IDX 31 58 35 59 32 60 34 61 33 62 52 63 53 64 57 65 54 66 56 67
REMARK SMILES IDX 55 68 42 69 43 70 47 71 44 72 46 73 45 74
REMARK H PARENT 8 13 4 20 62 42 40 53
REMARK Flexibility Score: inf
ROOT
ATOM      1  C   UNL A   1      34.159  30.836  27.208  1.00  0.00     0.274 C 
ENDROOT
BRANCH   1   2
ATOM      2  O   UNL A   1      32.760  30.453  27.347  1.00  0.00    -0.462 OA
BRANCH   2   3
ATOM      3  C   UNL A   1      32.246  29.625  26.391  1.00  0.00     0.309 C 
ATOM      4  O   UNL A   1      31.809  30.025  25.313  1.00  0.00    -0.252 OA
BRANCH   3   5
ATOM      5  C   UNL A   1      32.362  28.115  26.714  1.00  0.00     0.101 C 
ATOM      6  C   UNL A   1      31.388  26.235  25.249  1.00  0.00     0.083 C 
ATOM      7  C   UNL A   1      32.850  25.949  25.638  1.00  0.00     0.026 C 
ATOM      8  C   UNL A   1      31.074  27.342  26.336  1.00  0.00     0.040 C 
ATOM      9  C   UNL A   1      33.472  27.293  26.063  1.00  0.00     0.017 C 
BRANCH   6  10
ATOM     10  N   UNL A   1      31.236  26.480  23.710  1.00  0.00    -0.347 N 
ATOM     11  C   UNL A   1      30.670  27.532  22.617  1.00  0.00     0.288 C 
ATOM     12  O   UNL A   1      31.279  26.965  21.630  1.00  0.00    -0.266 OA
ATOM     13  H   UNL A   1      31.629  25.714  23.232  1.00  0.00     0.164 HD
BRANCH  11  14
ATOM     14  C   UNL A   1      29.460  29.202  22.725  1.00  0.00     0.214 A 
ATOM     15  C   UNL A   1      28.049  31.617  20.497  1.00  0.00     0.092 C 
ATOM     16  C   UNL A   1      28.460  30.954  21.753  1.00  0.00     0.148 A 
ATOM     17  N   UNL A   1      29.117  31.565  22.724  1.00  0.00    -0.159 NA
ATOM     18  N   UNL A   1      28.409  29.598  21.894  1.00  0.00    -0.207 NA
ATOM     19  N   UNL A   1      29.553  30.519  23.451  1.00  0.00    -0.255 N 
ATOM     20  H   UNL A   1      29.899  30.606  24.368  1.00  0.00     0.192 HD
ENDBRANCH  11  14
ENDBRANCH   6  10
ENDBRANCH   3   5
ENDBRANCH   2   3
ENDBRANCH   1   2
BRANCH   1  21
ATOM     21  C   UNL A   1      34.629  31.905  28.220  1.00  0.00     0.275 C 
BRANCH  21  22
ATOM     22  O   UNL A   1      35.879  31.550  28.860  1.00  0.00    -0.458 OA
BRANCH  22  23
ATOM     23  C   UNL A   1      35.824  31.893  30.166  1.00  0.00     0.338 C 
ATOM     24  O   UNL A   1      34.967  32.650  30.589  1.00  0.00    -0.246 OA
BRANCH  23  25
ATOM     25  C   UNL A   1      37.079  31.686  30.938  1.00  0.00     0.060 A 
ATOM     26  C   UNL A   1      38.733  32.393  30.441  1.00  0.00     0.016 A 
ATOM     27  C   UNL A   1      36.944  29.888  31.186  1.00  0.00     0.016 A 
ATOM     28  C   UNL A   1      40.115  31.240  29.944  1.00  0.00     0.010 A 
ATOM     29  C   UNL A   1      38.342  28.811  30.923  1.00  0.00     0.010 A 
ATOM     30  C   UNL A   1      39.874  29.439  30.209  1.00  0.00    -0.014 A 
BRANCH  30  31
ATOM     31  C   UNL A   1      40.847  28.359  30.011  1.00  0.00     0.031 A 
ATOM     32  C   UNL A   1      41.677  28.102  31.205  1.00  0.00     0.074 A 
ATOM     33  C   UNL A   1      40.720  27.373  29.082  1.00  0.00     0.049 A 
ATOM     34  N   UNL A   1      42.957  28.218  31.312  1.00  0.00    -0.248 NA
ATOM     35  C   UNL A   1      40.989  27.813  32.478  1.00  0.00     0.031 C 
ATOM     36  C   UNL A   1      39.676  27.218  28.059  1.00  0.00     0.029 A 
ATOM     37  N   UNL A   1      41.433  26.206  28.941  1.00  0.00    -0.354 N 
ATOM     38  C   UNL A   1      43.257  27.803  32.603  1.00  0.00     0.074 A 
ATOM     39  C   UNL A   1      42.013  27.795  33.329  1.00  0.00     0.031 C 
ATOM     40  C   UNL A   1      39.698  25.960  27.555  1.00  0.00     0.029 A 
ATOM     41  C   UNL A   1      40.835  25.250  28.110  1.00  0.00     0.049 A 
ATOM     42  H   UNL A   1      42.296  26.054  29.388  1.00  0.00     0.167 HD
ATOM     43  C   UNL A   1      44.449  27.226  32.912  1.00  0.00     0.031 A 
ATOM     44  C   UNL A   1      41.224  23.964  27.898  1.00  0.00     0.031 A 
ATOM     45  C   UNL A   1      45.412  27.376  31.852  1.00  0.00     0.049 A 
ATOM     46  C   UNL A   1      42.612  23.839  28.380  1.00  0.00     0.074 A 
ATOM     47  C   UNL A   1      45.954  28.446  31.170  1.00  0.00     0.029 A 
ATOM     48  N   UNL A   1      45.674  26.263  31.088  1.00  0.00    -0.354 N 
ATOM     49  N   UNL A   1      43.640  24.351  27.775  1.00  0.00    -0.248 NA
ATOM     50  C   UNL A   1      42.838  23.408  29.749  1.00  0.00     0.031 C 
ATOM     51  C   UNL A   1      46.114  27.992  29.829  1.00  0.00     0.029 A 
ATOM     52  C   UNL A   1      45.720  26.654  29.776  1.00  0.00     0.049 A 
ATOM     53  H   UNL A   1      45.806  25.348  31.425  1.00  0.00     0.167 HD
ATOM     54  C   UNL A   1      44.482  24.735  28.803  1.00  0.00     0.074 A 
ATOM     55  C   UNL A   1      44.012  24.000  29.973  1.00  0.00     0.031 C 
ATOM     56  C   UNL A   1      45.277  25.835  28.670  1.00  0.00     0.031 A 
BRANCH  43  57
ATOM     57  C   UNL A   1      44.611  26.186  33.992  1.00  0.00    -0.014 A 
ATOM     58  C   UNL A   1      44.121  24.891  33.760  1.00  0.00     0.009 A 
ATOM     59  C   UNL A   1      44.992  26.495  35.313  1.00  0.00     0.009 A 
ATOM     60  C   UNL A   1      43.977  23.971  34.805  1.00  0.00     0.001 A 
ATOM     61  C   UNL A   1      44.894  25.563  36.349  1.00  0.00     0.001 A 
ATOM     62  C   UNL A   1      44.363  24.308  36.099  1.00  0.00     0.000 A 
ENDBRANCH  43  57
BRANCH  44  63
ATOM     63  C   UNL A   1      40.508  22.754  27.421  1.00  0.00    -0.014 A 
ATOM     64  C   UNL A   1      39.341  22.879  26.640  1.00  0.00     0.009 A 
ATOM     65  C   UNL A   1      41.114  21.488  27.474  1.00  0.00     0.009 A 
ATOM     66  C   UNL A   1      38.839  21.803  25.894  1.00  0.00     0.001 A 
ATOM     67  C   UNL A   1      40.608  20.409  26.734  1.00  0.00     0.001 A 
ATOM     68  C   UNL A   1      39.485  20.572  25.927  1.00  0.00     0.000 A 
ENDBRANCH  44  63
BRANCH  56  69
ATOM     69  C   UNL A   1      45.466  26.408  27.285  1.00  0.00    -0.014 A 
ATOM     70  C   UNL A   1      44.803  27.561  26.827  1.00  0.00     0.009 A 
ATOM     71  C   UNL A   1      46.459  25.845  26.470  1.00  0.00     0.009 A 
ATOM     72  C   UNL A   1      45.110  28.116  25.579  1.00  0.00     0.001 A 
ATOM     73  C   UNL A   1      46.783  26.413  25.236  1.00  0.00     0.001 A 
ATOM     74  C   UNL A   1      46.106  27.546  24.789  1.00  0.00     0.000 A 
ENDBRANCH  56  69
ENDBRANCH  30  31
ENDBRANCH  23  25
ENDBRANCH  22  23
ENDBRANCH  21  22
ENDBRANCH   1  21
TORSDOF 13
ENDMDL
MODEL 3
REMARK VINA RESULT:     -11.5      4.293      7.112
REMARK SMILES Cc1n[nH]c(C(=O)N[C@H]2CC[C@@H](C(=O)OCCOC(=O)c3ccc(-c4c5nc(c(-c6ccccc6)c6ccc([nH]6)c(-c6ccccc6)c6nc(c(-c7ccccc7)c7ccc4[nH]7)C=C6)C=C5)cc3)C2)n1
REMARK SMILES IDX 16 1 15 2 13 3 14 4 12 5 9 6 10 7 69 8 11 9 8 10 6 11 7 12
REMARK SMILES IDX 5 14 1 15 2 16 3 17 70 18 4 19 17 21 18 22 19 23 20 24 21 25
REMARK SMILES IDX 22 26 68 27 23 28 67 29 24 30 25 31 26 32 61 33 27 34 66 35
REMARK SMILES IDX 60 36 62 37 28 38 65 39 59 40 58 41 29 43 51 44 36 45 50 46
REMARK SMILES IDX 37 47 40 48 49 49 63 50 38 51 39 52 48 54 64 55 41 56 30 57
REMARK SMILES IDX 31 58 35 59 32 60 34 61 33 62 52 63 53 64 57 65 54 66 56 67
REMARK SMILES IDX 55 68 42 69 43 70 47 71 44 72 46 73 45 74
REMARK H PARENT 8 13 4 20 62 42 40 53
REMARK Flexibility Score: inf
ROOT
ATOM      1  C   UNL A   1      37.112  30.334  32.333  1.00  0.00     0.274 C 
ENDROOT
BRANCH   1   2
ATOM      2  O   UNL A   1      37.610  30.729  33.645  1.00  0.00    -0.462 OA
BRANCH   2   3
ATOM      3  C   UNL A   1      38.649  31.613  33.673  1.00  0.00     0.309 C 
ATOM      4  O   UNL A   1      39.640  31.515  32.951  1.00  0.00    -0.252 OA
BRANCH   3   5
ATOM      5  C   UNL A   1      38.438  32.830  34.606  1.00  0.00     0.101 C 
ATOM      6  C   UNL A   1      36.337  34.319  34.602  1.00  0.00     0.083 C 
ATOM      7  C   UNL A   1      36.722  33.889  36.029  1.00  0.00     0.026 C 
ATOM      8  C   UNL A   1      37.711  33.992  33.886  1.00  0.00     0.040 C 
ATOM      9  C   UNL A   1      37.637  32.656  35.895  1.00  0.00     0.017 C 
BRANCH   6  10
ATOM     10  N   UNL A   1      34.971  33.695  34.158  1.00  0.00    -0.347 N 
ATOM     11  C   UNL A   1      33.694  33.932  33.192  1.00  0.00     0.288 C 
ATOM     12  O   UNL A   1      33.258  32.725  33.331  1.00  0.00    -0.266 OA
ATOM     13  H   UNL A   1      34.843  32.849  34.644  1.00  0.00     0.164 HD
BRANCH  11  14
ATOM     14  C   UNL A   1      33.006  35.537  32.090  1.00  0.00     0.214 A 
ATOM     15  C   UNL A   1      33.469  36.918  28.824  1.00  0.00     0.092 C 
ATOM     16  C   UNL A   1      33.045  36.790  30.234  1.00  0.00     0.148 A 
ATOM     17  N   UNL A   1      33.260  37.718  31.151  1.00  0.00    -0.159 NA
ATOM     18  N   UNL A   1      32.622  35.599  30.748  1.00  0.00    -0.207 NA
ATOM     19  N   UNL A   1      33.029  37.030  32.286  1.00  0.00    -0.255 N 
ATOM     20  H   UNL A   1      32.889  37.462  33.159  1.00  0.00     0.192 HD
ENDBRANCH  11  14
ENDBRANCH   6  10
ENDBRANCH   3   5
ENDBRANCH   2   3
ENDBRANCH   1   2
BRANCH   1  21
ATOM     21  C   UNL A   1      35.921  31.178  31.825  1.00  0.00     0.275 C 
BRANCH  21  22
ATOM     22  O   UNL A   1      36.330  32.487  31.359  1.00  0.00    -0.458 OA
BRANCH  22  23
ATOM     23  C   UNL A   1      35.866  32.678  30.104  1.00  0.00     0.338 C 
ATOM     24  O   UNL A   1      34.743  33.109  29.900  1.00  0.00    -0.246 OA
BRANCH  23  25
ATOM     25  C   UNL A   1      36.581  31.932  29.033  1.00  0.00     0.060 A 
ATOM     26  C   UNL A   1      36.211  30.161  28.576  1.00  0.00     0.016 A 
ATOM     27  C   UNL A   1      38.285  32.369  29.499  1.00  0.00     0.016 A 
ATOM     28  C   UNL A   1      37.501  28.845  28.871  1.00  0.00     0.010 A 
ATOM     29  C   UNL A   1      39.572  31.134  29.562  1.00  0.00     0.010 A 
ATOM     30  C   UNL A   1      39.186  29.383  29.364  1.00  0.00    -0.014 A 
BRANCH  30  31
ATOM     31  C   UNL A   1      40.384  28.555  29.536  1.00  0.00     0.031 A 
ATOM     32  C   UNL A   1      40.825  28.460  30.942  1.00  0.00     0.074 A 
ATOM     33  C   UNL A   1      40.781  27.589  28.663  1.00  0.00     0.049 A 
ATOM     34  N   UNL A   1      41.945  28.857  31.443  1.00  0.00    -0.248 NA
ATOM     35  C   UNL A   1      39.848  27.991  31.944  1.00  0.00     0.031 C 
ATOM     36  C   UNL A   1      40.180  27.230  27.370  1.00  0.00     0.029 A 
ATOM     37  N   UNL A   1      41.741  26.616  28.811  1.00  0.00    -0.354 N 
ATOM     38  C   UNL A   1      41.901  28.487  32.781  1.00  0.00     0.074 A 
ATOM     39  C   UNL A   1      40.525  28.182  33.075  1.00  0.00     0.031 C 
ATOM     40  C   UNL A   1      40.639  26.023  26.961  1.00  0.00     0.029 A 
ATOM     41  C   UNL A   1      41.666  25.572  27.880  1.00  0.00     0.049 A 
ATOM     42  H   UNL A   1      42.428  26.651  29.515  1.00  0.00     0.167 HD
ATOM     43  C   UNL A   1      43.028  28.185  33.479  1.00  0.00     0.031 A 
ATOM     44  C   UNL A   1      42.376  24.412  27.864  1.00  0.00     0.031 A 
ATOM     45  C   UNL A   1      44.221  28.575  32.772  1.00  0.00     0.049 A 
ATOM     46  C   UNL A   1      43.530  24.589  28.767  1.00  0.00     0.074 A 
ATOM     47  C   UNL A   1      44.702  29.756  32.246  1.00  0.00     0.029 A 
ATOM     48  N   UNL A   1      44.952  27.569  32.185  1.00  0.00    -0.354 N 
ATOM     49  N   UNL A   1      44.557  25.335  28.494  1.00  0.00    -0.248 NA
ATOM     50  C   UNL A   1      43.396  24.185  30.156  1.00  0.00     0.031 C 
ATOM     51  C   UNL A   1      45.377  29.384  31.049  1.00  0.00     0.029 A 
ATOM     52  C   UNL A   1      45.327  27.994  30.938  1.00  0.00     0.049 A 
ATOM     53  H   UNL A   1      45.168  26.698  32.590  1.00  0.00     0.167 HD
ATOM     54  C   UNL A   1      44.920  25.871  29.716  1.00  0.00     0.074 A 
ATOM     55  C   UNL A   1      44.276  25.019  30.711  1.00  0.00     0.031 C 
ATOM     56  C   UNL A   1      45.452  27.125  29.789  1.00  0.00     0.031 A 
BRANCH  43  57
ATOM     57  C   UNL A   1      43.063  27.181  34.603  1.00  0.00    -0.014 A 
ATOM     58  C   UNL A   1      43.169  25.817  34.286  1.00  0.00     0.009 A 
ATOM     59  C   UNL A   1      42.739  27.500  35.937  1.00  0.00     0.009 A 
ATOM     60  C   UNL A   1      42.918  24.827  35.244  1.00  0.00     0.001 A 
ATOM     61  C   UNL A   1      42.535  26.515  36.906  1.00  0.00     0.001 A 
ATOM     62  C   UNL A   1      42.601  25.177  36.553  1.00  0.00     0.000 A 
ENDBRANCH  43  57
BRANCH  44  63
ATOM     63  C   UNL A   1      42.136  23.084  27.244  1.00  0.00    -0.014 A 
ATOM     64  C   UNL A   1      43.109  22.506  26.403  1.00  0.00     0.009 A 
ATOM     65  C   UNL A   1      41.098  22.253  27.695  1.00  0.00     0.009 A 
ATOM     66  C   UNL A   1      43.082  21.142  26.081  1.00  0.00     0.001 A 
ATOM     67  C   UNL A   1      41.066  20.889  27.368  1.00  0.00     0.001 A 
ATOM     68  C   UNL A   1      42.069  20.329  26.580  1.00  0.00     0.000 A 
ENDBRANCH  44  63
BRANCH  56  69
ATOM     69  C   UNL A   1      45.942  27.761  28.509  1.00  0.00    -0.014 A 
ATOM     70  C   UNL A   1      47.290  27.753  28.106  1.00  0.00     0.009 A 
ATOM     71  C   UNL A   1      44.983  28.255  27.612  1.00  0.00     0.009 A 
ATOM     72  C   UNL A   1      47.665  28.249  26.852  1.00  0.00     0.001 A 
ATOM     73  C   UNL A   1      45.355  28.725  26.351  1.00  0.00     0.001 A 
ATOM     74  C   UNL A   1      46.696  28.726  25.973  1.00  0.00     0.000 A 
ENDBRANCH  56  69
ENDBRANCH  30  31
ENDBRANCH  23  25
ENDBRANCH  22  23
ENDBRANCH  21  22
ENDBRANCH   1  21
TORSDOF 13
ENDMDL
