MODEL 1
REMARK VINA RESULT:     -10.7      0.000      0.000
REMARK SMILES CC[C@H]1CC[C@](Cc2cccnc2)(C(=O)OCCOC(=O)c2ccc(-c3c4nc(c(-c5ccccc5)c5ccc([nH]5)c(-c5ccccc5)c5nc(c(-c6ccccc6)c6ccc3[nH]6)C=C5)C=C4)cc2)C1
REMARK SMILES IDX 17 1 16 2 14 3 15 4 6 5 3 6 4 7 70 8 5 9 2 10 1 11 7 12 8 13
REMARK SMILES IDX 9 14 13 15 10 16 12 17 11 18 18 19 19 20 20 21 21 22 22 23
REMARK SMILES IDX 23 24 69 25 24 26 68 27 25 28 26 29 27 30 62 31 28 32 67 33
REMARK SMILES IDX 61 34 63 35 29 36 66 37 60 38 59 39 30 41 52 42 37 43 51 44
REMARK SMILES IDX 38 45 41 46 50 47 64 48 39 49 40 50 49 52 65 53 42 54 31 55
REMARK SMILES IDX 32 56 36 57 33 58 35 59 34 60 53 61 54 62 58 63 55 64 57 65
REMARK SMILES IDX 56 66 43 67 44 68 48 69 45 70 47 71 46 72
REMARK H PARENT 63 40 41 51
REMARK Flexibility Score: inf
ROOT
ATOM      1  C   UNL A   1      34.513  21.758  24.498  1.00  0.00     0.274 C 
ENDROOT
BRANCH   1   2
ATOM      2  O   UNL A   1      34.389  23.140  24.900  1.00  0.00    -0.462 OA
BRANCH   2   3
ATOM      3  C   UNL A   1      34.328  24.038  23.886  1.00  0.00     0.312 C 
ATOM      4  O   UNL A   1      34.996  23.943  22.858  1.00  0.00    -0.252 OA
BRANCH   3   5
ATOM      5  C   UNL A   1      33.379  25.232  24.131  1.00  0.00     0.072 C 
ATOM      6  C   UNL A   1      31.131  25.614  23.107  1.00  0.00    -0.010 C 
ATOM      7  C   UNL A   1      32.222  25.836  22.068  1.00  0.00     0.005 C 
ATOM      8  C   UNL A   1      31.875  24.872  24.240  1.00  0.00     0.022 C 
ATOM      9  C   UNL A   1      33.463  26.149  22.894  1.00  0.00     0.019 C 
BRANCH   6  10
ATOM     10  C   UNL A   1      30.342  26.860  23.578  1.00  0.00     0.000 C 
ATOM     11  C   UNL A   1      30.851  28.241  23.189  1.00  0.00     0.004 C 
ENDBRANCH   6  10
BRANCH   5  12
ATOM     12  C   UNL A   1      33.963  25.866  25.429  1.00  0.00     0.056 C 
BRANCH  12  13
ATOM     13  C   UNL A   1      33.324  27.101  26.004  1.00  0.00    -0.029 A 
ATOM     14  C   UNL A   1      32.148  27.043  26.755  1.00  0.00     0.007 A 
ATOM     15  C   UNL A   1      33.922  28.351  25.855  1.00  0.00     0.114 A 
ATOM     16  C   UNL A   1      31.605  28.211  27.279  1.00  0.00     0.020 A 
ATOM     17  N   UNL A   1      33.421  29.500  26.357  1.00  0.00    -0.264 NA
ATOM     18  C   UNL A   1      32.270  29.403  27.055  1.00  0.00     0.111 A 
ENDBRANCH  12  13
ENDBRANCH   5  12
ENDBRANCH   3   5
ENDBRANCH   2   3
ENDBRANCH   1   2
BRANCH   1  19
ATOM     19  C   UNL A   1      35.688  21.073  25.193  1.00  0.00     0.275 C 
BRANCH  19  20
ATOM     20  O   UNL A   1      36.930  21.594  24.687  1.00  0.00    -0.458 OA
BRANCH  20  21
ATOM     21  C   UNL A   1      38.041  21.200  25.354  1.00  0.00     0.338 C 
ATOM     22  O   UNL A   1      38.519  20.078  25.366  1.00  0.00    -0.246 OA
BRANCH  21  23
ATOM     23  C   UNL A   1      38.670  22.342  26.062  1.00  0.00     0.060 A 
ATOM     24  C   UNL A   1      38.075  23.601  26.088  1.00  0.00     0.016 A 
ATOM     25  C   UNL A   1      39.950  22.185  26.593  1.00  0.00     0.016 A 
ATOM     26  C   UNL A   1      38.814  24.722  26.478  1.00  0.00     0.010 A 
ATOM     27  C   UNL A   1      40.642  23.290  27.102  1.00  0.00     0.010 A 
ATOM     28  C   UNL A   1      40.114  24.588  26.987  1.00  0.00    -0.014 A 
BRANCH  28  29
ATOM     29  C   UNL A   1      40.950  25.784  27.322  1.00  0.00     0.031 A 
ATOM     30  C   UNL A   1      40.454  26.800  28.328  1.00  0.00     0.074 A 
ATOM     31  C   UNL A   1      42.160  25.981  26.759  1.00  0.00     0.049 A 
ATOM     32  N   UNL A   1      40.912  28.001  28.590  1.00  0.00    -0.248 NA
ATOM     33  C   UNL A   1      39.273  26.429  29.125  1.00  0.00     0.031 C 
ATOM     34  C   UNL A   1      42.817  25.089  25.803  1.00  0.00     0.029 A 
ATOM     35  N   UNL A   1      43.064  27.003  26.928  1.00  0.00    -0.354 N 
ATOM     36  C   UNL A   1      40.023  28.557  29.503  1.00  0.00     0.074 A 
ATOM     37  C   UNL A   1      39.008  27.560  29.763  1.00  0.00     0.031 C 
ATOM     38  C   UNL A   1      44.041  25.564  25.526  1.00  0.00     0.029 A 
ATOM     39  C   UNL A   1      44.221  26.842  26.205  1.00  0.00     0.049 A 
ATOM     40  H   UNL A   1      42.899  27.778  27.514  1.00  0.00     0.167 HD
ATOM     41  C   UNL A   1      40.039  29.790  30.067  1.00  0.00     0.031 A 
ATOM     42  C   UNL A   1      45.296  27.641  26.066  1.00  0.00     0.031 A 
ATOM     43  C   UNL A   1      41.089  30.757  29.890  1.00  0.00     0.049 A 
ATOM     44  C   UNL A   1      45.320  28.982  26.738  1.00  0.00     0.074 A 
ATOM     45  C   UNL A   1      41.194  32.029  30.429  1.00  0.00     0.029 A 
ATOM     46  N   UNL A   1      42.237  30.545  29.145  1.00  0.00    -0.354 N 
ATOM     47  N   UNL A   1      44.418  29.535  27.508  1.00  0.00    -0.248 NA
ATOM     48  C   UNL A   1      46.506  29.818  26.499  1.00  0.00     0.031 C 
ATOM     49  C   UNL A   1      42.401  32.591  29.998  1.00  0.00     0.029 A 
ATOM     50  C   UNL A   1      43.060  31.657  29.217  1.00  0.00     0.049 A 
ATOM     51  H   UNL A   1      42.438  29.725  28.639  1.00  0.00     0.167 HD
ATOM     52  C   UNL A   1      44.920  30.786  27.839  1.00  0.00     0.074 A 
ATOM     53  C   UNL A   1      46.222  30.898  27.214  1.00  0.00     0.031 C 
ATOM     54  C   UNL A   1      44.347  31.761  28.585  1.00  0.00     0.031 A 
BRANCH  41  55
ATOM     55  C   UNL A   1      38.853  30.183  30.902  1.00  0.00    -0.014 A 
ATOM     56  C   UNL A   1      37.732  30.815  30.344  1.00  0.00     0.009 A 
ATOM     57  C   UNL A   1      38.851  29.881  32.274  1.00  0.00     0.009 A 
ATOM     58  C   UNL A   1      36.648  31.167  31.152  1.00  0.00     0.001 A 
ATOM     59  C   UNL A   1      37.757  30.212  33.073  1.00  0.00     0.001 A 
ATOM     60  C   UNL A   1      36.659  30.864  32.514  1.00  0.00     0.000 A 
ENDBRANCH  41  55
BRANCH  42  61
ATOM     61  C   UNL A   1      46.430  27.204  25.213  1.00  0.00    -0.014 A 
ATOM     62  C   UNL A   1      46.684  27.843  23.989  1.00  0.00     0.009 A 
ATOM     63  C   UNL A   1      47.274  26.163  25.626  1.00  0.00     0.009 A 
ATOM     64  C   UNL A   1      47.760  27.442  23.195  1.00  0.00     0.001 A 
ATOM     65  C   UNL A   1      48.364  25.782  24.842  1.00  0.00     0.001 A 
ATOM     66  C   UNL A   1      48.603  26.418  23.626  1.00  0.00     0.000 A 
ENDBRANCH  42  61
BRANCH  54  67
ATOM     67  C   UNL A   1      45.135  33.023  28.773  1.00  0.00    -0.014 A 
ATOM     68  C   UNL A   1      46.032  33.160  29.844  1.00  0.00     0.009 A 
ATOM     69  C   UNL A   1      44.985  34.082  27.866  1.00  0.00     0.009 A 
ATOM     70  C   UNL A   1      46.738  34.350  30.022  1.00  0.00     0.001 A 
ATOM     71  C   UNL A   1      45.707  35.264  28.037  1.00  0.00     0.001 A 
ATOM     72  C   UNL A   1      46.576  35.401  29.119  1.00  0.00     0.000 A 
ENDBRANCH  54  67
ENDBRANCH  28  29
ENDBRANCH  21  23
ENDBRANCH  20  21
ENDBRANCH  19  20
ENDBRANCH   1  19
TORSDOF 14
ENDMDL
MODEL 2
REMARK VINA RESULT:     -10.5      1.269      6.335
REMARK SMILES CC[C@H]1CC[C@](Cc2cccnc2)(C(=O)OCCOC(=O)c2ccc(-c3c4nc(c(-c5ccccc5)c5ccc([nH]5)c(-c5ccccc5)c5nc(c(-c6ccccc6)c6ccc3[nH]6)C=C5)C=C4)cc2)C1
REMARK SMILES IDX 17 1 16 2 14 3 15 4 6 5 3 6 4 7 70 8 5 9 2 10 1 11 7 12 8 13
REMARK SMILES IDX 9 14 13 15 10 16 12 17 11 18 18 19 19 20 20 21 21 22 22 23
REMARK SMILES IDX 23 24 69 25 24 26 68 27 25 28 26 29 27 30 62 31 28 32 67 33
REMARK SMILES IDX 61 34 63 35 29 36 66 37 60 38 59 39 30 41 52 42 37 43 51 44
REMARK SMILES IDX 38 45 41 46 50 47 64 48 39 49 40 50 49 52 65 53 42 54 31 55
REMARK SMILES IDX 32 56 36 57 33 58 35 59 34 60 53 61 54 62 58 63 55 64 57 65
REMARK SMILES IDX 56 66 43 67 44 68 48 69 45 70 47 71 46 72
REMARK H PARENT 63 40 41 51
REMARK Flexibility Score: inf
ROOT
ATOM      1  C   UNL A   1      36.096  19.787  24.936  1.00  0.00     0.274 C 
ENDROOT
BRANCH   1   2
ATOM      2  O   UNL A   1      35.556  21.068  25.330  1.00  0.00    -0.462 OA
BRANCH   2   3
ATOM      3  C   UNL A   1      34.223  21.222  25.137  1.00  0.00     0.312 C 
ATOM      4  O   UNL A   1      33.417  20.297  25.215  1.00  0.00    -0.252 OA
BRANCH   3   5
ATOM      5  C   UNL A   1      33.782  22.654  24.763  1.00  0.00     0.072 C 
ATOM      6  C   UNL A   1      33.087  23.486  22.511  1.00  0.00    -0.010 C 
ATOM      7  C   UNL A   1      34.589  23.239  22.535  1.00  0.00     0.005 C 
ATOM      8  C   UNL A   1      32.592  22.746  23.773  1.00  0.00     0.022 C 
ATOM      9  C   UNL A   1      34.955  23.317  24.012  1.00  0.00     0.019 C 
BRANCH   6  10
ATOM     10  C   UNL A   1      32.616  24.957  22.414  1.00  0.00     0.000 C 
ATOM     11  C   UNL A   1      31.201  25.305  22.856  1.00  0.00     0.004 C 
ENDBRANCH   6  10
BRANCH   5  12
ATOM     12  C   UNL A   1      33.484  23.289  26.155  1.00  0.00     0.056 C 
BRANCH  12  13
ATOM     13  C   UNL A   1      32.736  24.592  26.231  1.00  0.00    -0.029 A 
ATOM     14  C   UNL A   1      33.353  25.815  25.958  1.00  0.00     0.007 A 
ATOM     15  C   UNL A   1      31.374  24.619  26.522  1.00  0.00     0.114 A 
ATOM     16  C   UNL A   1      32.615  26.992  26.025  1.00  0.00     0.020 A 
ATOM     17  N   UNL A   1      30.631  25.745  26.589  1.00  0.00    -0.264 NA
ATOM     18  C   UNL A   1      31.271  26.907  26.343  1.00  0.00     0.111 A 
ENDBRANCH  12  13
ENDBRANCH   5  12
ENDBRANCH   3   5
ENDBRANCH   2   3
ENDBRANCH   1   2
BRANCH   1  19
ATOM     19  C   UNL A   1      37.623  19.805  24.906  1.00  0.00     0.275 C 
BRANCH  19  20
ATOM     20  O   UNL A   1      38.109  21.076  25.372  1.00  0.00    -0.458 OA
BRANCH  20  21
ATOM     21  C   UNL A   1      39.280  21.038  26.052  1.00  0.00     0.338 C 
ATOM     22  O   UNL A   1      40.018  20.074  26.167  1.00  0.00    -0.246 OA
BRANCH  21  23
ATOM     23  C   UNL A   1      39.606  22.365  26.627  1.00  0.00     0.060 A 
ATOM     24  C   UNL A   1      38.915  23.514  26.250  1.00  0.00     0.016 A 
ATOM     25  C   UNL A   1      40.720  22.486  27.458  1.00  0.00     0.016 A 
ATOM     26  C   UNL A   1      39.429  24.778  26.552  1.00  0.00     0.010 A 
ATOM     27  C   UNL A   1      41.160  23.750  27.867  1.00  0.00     0.010 A 
ATOM     28  C   UNL A   1      40.566  24.920  27.362  1.00  0.00    -0.014 A 
BRANCH  28  29
ATOM     29  C   UNL A   1      41.181  26.261  27.619  1.00  0.00     0.031 A 
ATOM     30  C   UNL A   1      42.470  26.650  26.928  1.00  0.00     0.074 A 
ATOM     31  C   UNL A   1      40.606  27.155  28.448  1.00  0.00     0.049 A 
ATOM     32  N   UNL A   1      43.275  27.655  27.178  1.00  0.00    -0.248 NA
ATOM     33  C   UNL A   1      42.929  25.781  25.831  1.00  0.00     0.031 C 
ATOM     34  C   UNL A   1      39.344  26.972  29.166  1.00  0.00     0.029 A 
ATOM     35  N   UNL A   1      41.010  28.417  28.814  1.00  0.00    -0.354 N 
ATOM     36  C   UNL A   1      44.372  27.482  26.341  1.00  0.00     0.074 A 
ATOM     37  C   UNL A   1      44.124  26.286  25.564  1.00  0.00     0.031 C 
ATOM     38  C   UNL A   1      39.044  28.100  29.827  1.00  0.00     0.029 A 
ATOM     39  C   UNL A   1      40.136  29.053  29.662  1.00  0.00     0.049 A 
ATOM     40  H   UNL A   1      41.848  28.828  28.498  1.00  0.00     0.167 HD
ATOM     41  C   UNL A   1      45.491  28.240  26.232  1.00  0.00     0.031 A 
ATOM     42  C   UNL A   1      40.209  30.251  30.273  1.00  0.00     0.031 A 
ATOM     43  C   UNL A   1      45.710  29.479  26.929  1.00  0.00     0.049 A 
ATOM     44  C   UNL A   1      41.433  31.101  30.103  1.00  0.00     0.074 A 
ATOM     45  C   UNL A   1      46.810  30.319  26.875  1.00  0.00     0.029 A 
ATOM     46  N   UNL A   1      44.793  30.077  27.778  1.00  0.00    -0.354 N 
ATOM     47  N   UNL A   1      42.508  30.866  29.393  1.00  0.00    -0.248 NA
ATOM     48  C   UNL A   1      41.461  32.372  30.841  1.00  0.00     0.031 C 
ATOM     49  C   UNL A   1      46.564  31.420  27.704  1.00  0.00     0.029 A 
ATOM     50  C   UNL A   1      45.298  31.279  28.248  1.00  0.00     0.049 A 
ATOM     51  H   UNL A   1      43.914  29.703  28.014  1.00  0.00     0.167 HD
ATOM     52  C   UNL A   1      43.344  31.954  29.605  1.00  0.00     0.074 A 
ATOM     53  C   UNL A   1      42.638  32.866  30.482  1.00  0.00     0.031 C 
ATOM     54  C   UNL A   1      44.592  32.173  29.125  1.00  0.00     0.031 A 
BRANCH  41  55
ATOM     55  C   UNL A   1      46.593  27.722  25.353  1.00  0.00    -0.014 A 
ATOM     56  C   UNL A   1      47.554  26.816  25.826  1.00  0.00     0.009 A 
ATOM     57  C   UNL A   1      46.648  28.131  24.010  1.00  0.00     0.009 A 
ATOM     58  C   UNL A   1      48.566  26.356  24.979  1.00  0.00     0.001 A 
ATOM     59  C   UNL A   1      47.645  27.652  23.161  1.00  0.00     0.001 A 
ATOM     60  C   UNL A   1      48.610  26.772  23.648  1.00  0.00     0.000 A 
ENDBRANCH  41  55
BRANCH  42  61
ATOM     61  C   UNL A   1      39.094  30.699  31.144  1.00  0.00    -0.014 A 
ATOM     62  C   UNL A   1      38.033  31.446  30.610  1.00  0.00     0.009 A 
ATOM     63  C   UNL A   1      39.075  30.365  32.506  1.00  0.00     0.009 A 
ATOM     64  C   UNL A   1      36.977  31.853  31.428  1.00  0.00     0.001 A 
ATOM     65  C   UNL A   1      38.005  30.751  33.315  1.00  0.00     0.001 A 
ATOM     66  C   UNL A   1      36.960  31.499  32.776  1.00  0.00     0.000 A 
ENDBRANCH  42  61
BRANCH  54  67
ATOM     67  C   UNL A   1      45.261  33.452  29.530  1.00  0.00    -0.014 A 
ATOM     68  C   UNL A   1      46.071  33.511  30.675  1.00  0.00     0.009 A 
ATOM     69  C   UNL A   1      45.086  34.608  28.755  1.00  0.00     0.009 A 
ATOM     70  C   UNL A   1      46.664  34.716  31.056  1.00  0.00     0.001 A 
ATOM     71  C   UNL A   1      45.695  35.806  29.129  1.00  0.00     0.001 A 
ATOM     72  C   UNL A   1      46.477  35.862  30.283  1.00  0.00     0.000 A 
ENDBRANCH  54  67
ENDBRANCH  28  29
ENDBRANCH  21  23
ENDBRANCH  20  21
ENDBRANCH  19  20
ENDBRANCH   1  19
TORSDOF 14
ENDMDL
MODEL 3
REMARK VINA RESULT:     -10.5      3.842      8.582
REMARK SMILES CC[C@H]1CC[C@](Cc2cccnc2)(C(=O)OCCOC(=O)c2ccc(-c3c4nc(c(-c5ccccc5)c5ccc([nH]5)c(-c5ccccc5)c5nc(c(-c6ccccc6)c6ccc3[nH]6)C=C5)C=C4)cc2)C1
REMARK SMILES IDX 17 1 16 2 14 3 15 4 6 5 3 6 4 7 70 8 5 9 2 10 1 11 7 12 8 13
REMARK SMILES IDX 9 14 13 15 10 16 12 17 11 18 18 19 19 20 20 21 21 22 22 23
REMARK SMILES IDX 23 24 69 25 24 26 68 27 25 28 26 29 27 30 62 31 28 32 67 33
REMARK SMILES IDX 61 34 63 35 29 36 66 37 60 38 59 39 30 41 52 42 37 43 51 44
REMARK SMILES IDX 38 45 41 46 50 47 64 48 39 49 40 50 49 52 65 53 42 54 31 55
REMARK SMILES IDX 32 56 36 57 33 58 35 59 34 60 53 61 54 62 58 63 55 64 57 65
REMARK SMILES IDX 56 66 43 67 44 68 48 69 45 70 47 71 46 72
REMARK H PARENT 63 40 41 51
REMARK Flexibility Score: inf
ROOT
ATOM      1  C   UNL A   1      32.625  29.355  24.358  1.00  0.00     0.274 C 
ENDROOT
BRANCH   1   2
ATOM      2  O   UNL A   1      33.217  28.085  24.713  1.00  0.00    -0.462 OA
BRANCH   2   3
ATOM      3  C   UNL A   1      32.709  27.006  24.068  1.00  0.00     0.312 C 
ATOM      4  O   UNL A   1      32.314  27.038  22.904  1.00  0.00    -0.252 OA
BRANCH   3   5
ATOM      5  C   UNL A   1      32.621  25.722  24.921  1.00  0.00     0.072 C 
ATOM      6  C   UNL A   1      30.715  24.108  25.034  1.00  0.00    -0.010 C 
ATOM      7  C   UNL A   1      30.345  25.402  25.743  1.00  0.00     0.005 C 
ATOM      8  C   UNL A   1      31.967  24.503  24.219  1.00  0.00     0.022 C 
ATOM      9  C   UNL A   1      31.686  26.022  26.111  1.00  0.00     0.019 C 
BRANCH   6  10
ATOM     10  C   UNL A   1      30.905  22.850  25.915  1.00  0.00     0.000 C 
ATOM     11  C   UNL A   1      31.777  21.714  25.396  1.00  0.00     0.004 C 
ENDBRANCH   6  10
BRANCH   5  12
ATOM     12  C   UNL A   1      34.106  25.484  25.327  1.00  0.00     0.056 C 
BRANCH  12  13
ATOM     13  C   UNL A   1      34.673  24.091  25.283  1.00  0.00    -0.029 A 
ATOM     14  C   UNL A   1      35.194  23.542  24.110  1.00  0.00     0.007 A 
ATOM     15  C   UNL A   1      34.753  23.315  26.438  1.00  0.00     0.114 A 
ATOM     16  C   UNL A   1      35.722  22.255  24.124  1.00  0.00     0.020 A 
ATOM     17  N   UNL A   1      35.265  22.066  26.482  1.00  0.00    -0.264 NA
ATOM     18  C   UNL A   1      35.735  21.563  25.321  1.00  0.00     0.111 A 
ENDBRANCH  12  13
ENDBRANCH   5  12
ENDBRANCH   3   5
ENDBRANCH   2   3
ENDBRANCH   1   2
BRANCH   1  19
ATOM     19  C   UNL A   1      31.535  29.764  25.347  1.00  0.00     0.275 C 
BRANCH  19  20
ATOM     20  O   UNL A   1      32.084  29.858  26.673  1.00  0.00    -0.458 OA
BRANCH  20  21
ATOM     21  C   UNL A   1      32.737  31.011  26.952  1.00  0.00     0.338 C 
ATOM     22  O   UNL A   1      32.272  32.137  26.899  1.00  0.00    -0.246 OA
BRANCH  21  23
ATOM     23  C   UNL A   1      34.127  30.742  27.395  1.00  0.00     0.060 A 
ATOM     24  C   UNL A   1      34.614  29.444  27.522  1.00  0.00     0.016 A 
ATOM     25  C   UNL A   1      34.916  31.809  27.828  1.00  0.00     0.016 A 
ATOM     26  C   UNL A   1      35.795  29.199  28.229  1.00  0.00     0.010 A 
ATOM     27  C   UNL A   1      36.160  31.568  28.422  1.00  0.00     0.010 A 
ATOM     28  C   UNL A   1      36.588  30.257  28.698  1.00  0.00    -0.014 A 
BRANCH  28  29
ATOM     29  C   UNL A   1      37.805  30.012  29.535  1.00  0.00     0.031 A 
ATOM     30  C   UNL A   1      38.980  29.250  28.961  1.00  0.00     0.074 A 
ATOM     31  C   UNL A   1      37.897  30.469  30.800  1.00  0.00     0.049 A 
ATOM     32  N   UNL A   1      40.021  28.743  29.577  1.00  0.00    -0.248 NA
ATOM     33  C   UNL A   1      38.971  29.003  27.509  1.00  0.00     0.031 C 
ATOM     34  C   UNL A   1      36.884  31.258  31.503  1.00  0.00     0.029 A 
ATOM     35  N   UNL A   1      38.912  30.346  31.719  1.00  0.00    -0.354 N 
ATOM     36  C   UNL A   1      40.731  28.040  28.610  1.00  0.00     0.074 A 
ATOM     37  C   UNL A   1      40.014  28.199  27.363  1.00  0.00     0.031 C 
ATOM     38  C   UNL A   1      37.355  31.604  32.711  1.00  0.00     0.029 A 
ATOM     39  C   UNL A   1      38.660  30.985  32.909  1.00  0.00     0.049 A 
ATOM     40  H   UNL A   1      39.743  29.848  31.541  1.00  0.00     0.167 HD
ATOM     41  C   UNL A   1      41.871  27.318  28.744  1.00  0.00     0.031 A 
ATOM     42  C   UNL A   1      39.373  31.042  34.050  1.00  0.00     0.031 A 
ATOM     43  C   UNL A   1      42.644  27.227  29.954  1.00  0.00     0.049 A 
ATOM     44  C   UNL A   1      40.658  30.277  34.167  1.00  0.00     0.074 A 
ATOM     45  C   UNL A   1      43.816  26.526  30.181  1.00  0.00     0.029 A 
ATOM     46  N   UNL A   1      42.343  27.891  31.132  1.00  0.00    -0.354 N 
ATOM     47  N   UNL A   1      41.255  29.528  33.274  1.00  0.00    -0.248 NA
ATOM     48  C   UNL A   1      41.353  30.349  35.460  1.00  0.00     0.031 C 
ATOM     49  C   UNL A   1      44.217  26.754  31.502  1.00  0.00     0.029 A 
ATOM     50  C   UNL A   1      43.311  27.623  32.086  1.00  0.00     0.049 A 
ATOM     51  H   UNL A   1      41.557  28.467  31.270  1.00  0.00     0.167 HD
ATOM     52  C   UNL A   1      42.391  29.032  33.899  1.00  0.00     0.074 A 
ATOM     53  C   UNL A   1      42.418  29.592  35.235  1.00  0.00     0.031 C 
ATOM     54  C   UNL A   1      43.324  28.177  33.412  1.00  0.00     0.031 A 
BRANCH  41  55
ATOM     55  C   UNL A   1      42.331  26.525  27.554  1.00  0.00    -0.014 A 
ATOM     56  C   UNL A   1      43.203  27.064  26.597  1.00  0.00     0.009 A 
ATOM     57  C   UNL A   1      41.902  25.196  27.409  1.00  0.00     0.009 A 
ATOM     58  C   UNL A   1      43.609  26.297  25.502  1.00  0.00     0.001 A 
ATOM     59  C   UNL A   1      42.327  24.424  26.329  1.00  0.00     0.001 A 
ATOM     60  C   UNL A   1      43.173  24.978  25.369  1.00  0.00     0.000 A 
ENDBRANCH  41  55
BRANCH  42  61
ATOM     61  C   UNL A   1      38.856  31.828  35.199  1.00  0.00    -0.014 A 
ATOM     62  C   UNL A   1      38.156  31.193  36.235  1.00  0.00     0.009 A 
ATOM     63  C   UNL A   1      39.080  33.211  35.274  1.00  0.00     0.009 A 
ATOM     64  C   UNL A   1      37.685  31.931  37.323  1.00  0.00     0.001 A 
ATOM     65  C   UNL A   1      38.631  33.942  36.376  1.00  0.00     0.001 A 
ATOM     66  C   UNL A   1      37.929  33.302  37.396  1.00  0.00     0.000 A 
ENDBRANCH  42  61
BRANCH  54  67
ATOM     67  C   UNL A   1      44.453  27.812  34.328  1.00  0.00    -0.014 A 
ATOM     68  C   UNL A   1      44.354  26.708  35.190  1.00  0.00     0.009 A 
ATOM     69  C   UNL A   1      45.631  28.573  34.324  1.00  0.00     0.009 A 
ATOM     70  C   UNL A   1      45.402  26.397  36.058  1.00  0.00     0.001 A 
ATOM     71  C   UNL A   1      46.684  28.248  35.180  1.00  0.00     0.001 A 
ATOM     72  C   UNL A   1      46.566  27.165  36.051  1.00  0.00     0.000 A 
ENDBRANCH  54  67
ENDBRANCH  28  29
ENDBRANCH  21  23
ENDBRANCH  20  21
ENDBRANCH  19  20
ENDBRANCH   1  19
TORSDOF 14
ENDMDL
