MODEL 1
REMARK VINA RESULT:     -13.2      0.000      0.000
REMARK SMILES Cc1ccc(-c2c(C)sc(NC(=O)[C@H]3CC=CC[C@H]3C(=O)OCCOC(=O)c3ccc(-c4c5nc(c(-c6ccccc6)c6ccc([nH]6)c(-c6ccccc6)c6nc(c(-c7ccccc7)c7ccc4[nH]7)C=C6)C=C5)cc3)c2C(N)=O)cc1
REMARK SMILES IDX 23 1 22 2 20 3 21 4 19 5 14 6 15 7 16 8 18 9 17 10 12 11
REMARK SMILES IDX 11 12 13 14 10 15 6 16 7 17 76 18 8 19 9 20 5 21 1 22 2 23
REMARK SMILES IDX 3 24 81 25 4 26 80 27 77 28 78 29 79 30 24 33 25 34 26 35
REMARK SMILES IDX 27 36 28 37 29 38 75 39 30 40 74 41 31 42 32 43 33 44 68 45
REMARK SMILES IDX 34 46 73 47 67 48 69 49 35 50 72 51 66 52 65 53 36 55 58 56
REMARK SMILES IDX 43 57 57 58 44 59 47 60 56 61 70 62 45 63 46 64 55 66 71 67
REMARK SMILES IDX 48 68 37 69 38 70 42 71 39 72 41 73 40 74 59 75 60 76 64 77
REMARK SMILES IDX 61 78 63 79 62 80 49 81 50 82 54 83 51 84 53 85 52 86
REMARK H PARENT 11 13 78 31 78 32 69 54 47 65
REMARK Flexibility Score: inf
ROOT
ATOM      1  C   UNL A   1      32.696  30.306  27.049  1.00  0.00     0.274 C 
ENDROOT
BRANCH   1   2
ATOM      2  O   UNL A   1      32.202  30.369  25.730  1.00  0.00    -0.462 OA
BRANCH   2   3
ATOM      3  C   UNL A   1      32.737  29.395  24.935  1.00  0.00     0.310 C 
ATOM      4  O   UNL A   1      33.784  28.839  25.220  1.00  0.00    -0.252 OA
BRANCH   3   5
ATOM      5  C   UNL A   1      31.528  29.030  23.888  1.00  0.00     0.116 C 
ATOM      6  C   UNL A   1      30.814  27.340  24.639  1.00  0.00     0.097 C 
ATOM      7  C   UNL A   1      29.162  26.815  24.096  1.00  0.00     0.041 C 
ATOM      8  C   UNL A   1      27.964  27.938  23.439  1.00  0.00    -0.030 C 
ATOM      9  C   UNL A   1      29.949  30.098  22.730  1.00  0.00     0.043 C 
ATOM     10  C   UNL A   1      28.205  29.222  22.839  1.00  0.00    -0.030 C 
BRANCH   6  11
ATOM     11  C   UNL A   1      31.236  26.859  26.043  1.00  0.00     0.229 C 
ATOM     12  N   UNL A   1      31.826  25.697  26.422  1.00  0.00    -0.317 N 
ATOM     13  H   UNL A   1      31.846  25.584  27.400  1.00  0.00     0.170 HD
ATOM     14  O   UNL A   1      31.003  27.610  27.006  1.00  0.00    -0.274 OA
BRANCH  12  15
ATOM     15  C   UNL A   1      32.402  24.639  25.758  1.00  0.00     0.109 A 
ATOM     16  C   UNL A   1      33.076  22.603  24.852  1.00  0.00     0.010 A 
ATOM     17  C   UNL A   1      33.835  23.521  24.143  1.00  0.00     0.012 A 
ATOM     18  C   UNL A   1      32.226  23.259  25.864  1.00  0.00     0.082 A 
ATOM     19  C   UNL A   1      34.663  23.434  22.905  1.00  0.00     0.057 C 
ATOM     20  S   UNL A   1      33.985  24.843  25.178  1.00  0.00    -0.122 S 
BRANCH  16  21
ATOM     21  C   UNL A   1      33.317  21.190  24.631  1.00  0.00    -0.016 A 
ATOM     22  C   UNL A   1      34.034  17.077  23.671  1.00  0.00     0.044 C 
ATOM     23  C   UNL A   1      33.748  18.495  24.053  1.00  0.00    -0.051 A 
ATOM     24  C   UNL A   1      34.675  19.217  24.819  1.00  0.00     0.004 A 
ATOM     25  C   UNL A   1      32.584  19.121  23.603  1.00  0.00     0.004 A 
ATOM     26  C   UNL A   1      34.453  20.559  25.123  1.00  0.00     0.009 A 
ATOM     27  C   UNL A   1      32.380  20.466  23.878  1.00  0.00     0.009 A 
ENDBRANCH  16  21
BRANCH  18  28
ATOM     28  C   UNL A   1      31.364  22.556  26.818  1.00  0.00     0.252 C 
ATOM     29  N   UNL A   1      30.094  22.224  26.440  1.00  0.00    -0.365 N 
ATOM     30  O   UNL A   1      31.712  22.245  27.954  1.00  0.00    -0.269 OA
ATOM     31  H   UNL A   1      29.774  22.454  25.537  1.00  0.00     0.159 HD
ATOM     32  H   UNL A   1      29.499  21.755  27.068  1.00  0.00     0.159 HD
ENDBRANCH  18  28
ENDBRANCH  12  15
ENDBRANCH   6  11
ENDBRANCH   3   5
ENDBRANCH   2   3
ENDBRANCH   1   2
BRANCH   1  33
ATOM     33  C   UNL A   1      33.778  31.364  27.460  1.00  0.00     0.275 C 
BRANCH  33  34
ATOM     34  O   UNL A   1      33.543  32.797  27.870  1.00  0.00    -0.458 OA
BRANCH  34  35
ATOM     35  C   UNL A   1      33.909  33.740  28.805  1.00  0.00     0.338 C 
ATOM     36  O   UNL A   1      33.251  34.746  29.028  1.00  0.00    -0.246 OA
BRANCH  35  37
ATOM     37  C   UNL A   1      35.054  33.465  29.705  1.00  0.00     0.060 A 
ATOM     38  C   UNL A   1      34.792  32.491  31.159  1.00  0.00     0.016 A 
ATOM     39  C   UNL A   1      36.370  33.252  28.857  1.00  0.00     0.016 A 
ATOM     40  C   UNL A   1      36.093  31.082  31.669  1.00  0.00     0.010 A 
ATOM     41  C   UNL A   1      37.435  32.120  29.209  1.00  0.00     0.010 A 
ATOM     42  C   UNL A   1      37.512  31.023  30.572  1.00  0.00    -0.014 A 
BRANCH  42  43
ATOM     43  C   UNL A   1      38.869  30.426  30.532  1.00  0.00     0.031 A 
ATOM     44  C   UNL A   1      39.145  29.231  29.732  1.00  0.00     0.074 A 
ATOM     45  C   UNL A   1      39.881  31.035  31.248  1.00  0.00     0.049 A 
ATOM     46  N   UNL A   1      39.907  28.268  30.132  1.00  0.00    -0.248 NA
ATOM     47  C   UNL A   1      38.506  28.960  28.444  1.00  0.00     0.031 C 
ATOM     48  C   UNL A   1      41.331  31.020  31.039  1.00  0.00     0.029 A 
ATOM     49  N   UNL A   1      39.815  31.941  32.310  1.00  0.00    -0.354 N 
ATOM     50  C   UNL A   1      40.187  27.540  28.997  1.00  0.00     0.074 A 
ATOM     51  C   UNL A   1      39.103  27.815  28.087  1.00  0.00     0.031 C 
ATOM     52  C   UNL A   1      41.960  31.645  32.067  1.00  0.00     0.029 A 
ATOM     53  C   UNL A   1      40.966  32.056  33.039  1.00  0.00     0.049 A 
ATOM     54  H   UNL A   1      39.003  32.458  32.517  1.00  0.00     0.167 HD
ATOM     55  C   UNL A   1      41.460  27.104  28.775  1.00  0.00     0.031 A 
ATOM     56  C   UNL A   1      40.911  31.930  34.396  1.00  0.00     0.031 A 
ATOM     57  C   UNL A   1      42.371  27.612  29.806  1.00  0.00     0.049 A 
ATOM     58  C   UNL A   1      41.587  30.630  34.700  1.00  0.00     0.074 A 
ATOM     59  C   UNL A   1      43.321  28.622  29.775  1.00  0.00     0.029 A 
ATOM     60  N   UNL A   1      42.151  27.329  31.149  1.00  0.00    -0.354 N 
ATOM     61  N   UNL A   1      41.674  29.677  33.814  1.00  0.00    -0.248 NA
ATOM     62  C   UNL A   1      42.304  30.334  35.930  1.00  0.00     0.031 C 
ATOM     63  C   UNL A   1      43.711  28.902  31.111  1.00  0.00     0.029 A 
ATOM     64  C   UNL A   1      42.985  28.078  31.956  1.00  0.00     0.049 A 
ATOM     65  H   UNL A   1      41.489  26.680  31.481  1.00  0.00     0.167 HD
ATOM     66  C   UNL A   1      42.600  28.773  34.229  1.00  0.00     0.074 A 
ATOM     67  C   UNL A   1      42.913  29.182  35.591  1.00  0.00     0.031 C 
ATOM     68  C   UNL A   1      43.070  27.810  33.389  1.00  0.00     0.031 A 
BRANCH  55  69
ATOM     69  C   UNL A   1      41.966  26.557  27.453  1.00  0.00    -0.014 A 
ATOM     70  C   UNL A   1      41.846  25.178  27.181  1.00  0.00     0.009 A 
ATOM     71  C   UNL A   1      42.539  27.331  26.428  1.00  0.00     0.009 A 
ATOM     72  C   UNL A   1      42.327  24.597  26.002  1.00  0.00     0.001 A 
ATOM     73  C   UNL A   1      43.046  26.752  25.252  1.00  0.00     0.001 A 
ATOM     74  C   UNL A   1      42.942  25.383  25.041  1.00  0.00     0.000 A 
ENDBRANCH  55  69
BRANCH  56  75
ATOM     75  C   UNL A   1      39.635  32.444  35.012  1.00  0.00    -0.014 A 
ATOM     76  C   UNL A   1      38.827  31.515  35.709  1.00  0.00     0.009 A 
ATOM     77  C   UNL A   1      39.435  33.807  35.286  1.00  0.00     0.009 A 
ATOM     78  C   UNL A   1      37.949  31.922  36.726  1.00  0.00     0.001 A 
ATOM     79  C   UNL A   1      38.535  34.213  36.289  1.00  0.00     0.001 A 
ATOM     80  C   UNL A   1      37.823  33.272  37.034  1.00  0.00     0.000 A 
ENDBRANCH  56  75
BRANCH  68  81
ATOM     81  C   UNL A   1      43.741  26.539  33.817  1.00  0.00    -0.014 A 
ATOM     82  C   UNL A   1      43.205  25.639  34.738  1.00  0.00     0.009 A 
ATOM     83  C   UNL A   1      44.918  26.134  33.145  1.00  0.00     0.009 A 
ATOM     84  C   UNL A   1      43.828  24.419  35.005  1.00  0.00     0.001 A 
ATOM     85  C   UNL A   1      45.504  24.892  33.354  1.00  0.00     0.001 A 
ATOM     86  C   UNL A   1      44.964  24.038  34.301  1.00  0.00     0.000 A 
ENDBRANCH  68  81
ENDBRANCH  42  43
ENDBRANCH  35  37
ENDBRANCH  34  35
ENDBRANCH  33  34
ENDBRANCH   1  33
TORSDOF 15
ENDMDL
MODEL 2
REMARK VINA RESULT:     -12.9      3.526      9.508
REMARK SMILES Cc1ccc(-c2c(C)sc(NC(=O)[C@H]3CC=CC[C@H]3C(=O)OCCOC(=O)c3ccc(-c4c5nc(c(-c6ccccc6)c6ccc([nH]6)c(-c6ccccc6)c6nc(c(-c7ccccc7)c7ccc4[nH]7)C=C6)C=C5)cc3)c2C(N)=O)cc1
REMARK SMILES IDX 23 1 22 2 20 3 21 4 19 5 14 6 15 7 16 8 18 9 17 10 12 11
REMARK SMILES IDX 11 12 13 14 10 15 6 16 7 17 76 18 8 19 9 20 5 21 1 22 2 23
REMARK SMILES IDX 3 24 81 25 4 26 80 27 77 28 78 29 79 30 24 33 25 34 26 35
REMARK SMILES IDX 27 36 28 37 29 38 75 39 30 40 74 41 31 42 32 43 33 44 68 45
REMARK SMILES IDX 34 46 73 47 67 48 69 49 35 50 72 51 66 52 65 53 36 55 58 56
REMARK SMILES IDX 43 57 57 58 44 59 47 60 56 61 70 62 45 63 46 64 55 66 71 67
REMARK SMILES IDX 48 68 37 69 38 70 42 71 39 72 41 73 40 74 59 75 60 76 64 77
REMARK SMILES IDX 61 78 63 79 62 80 49 81 50 82 54 83 51 84 53 85 52 86
REMARK H PARENT 11 13 78 31 78 32 69 54 47 65
REMARK Flexibility Score: inf
ROOT
ATOM      1  C   UNL A   1      37.806  21.370  25.051  1.00  0.00     0.274 C 
ENDROOT
BRANCH   1   2
ATOM      2  O   UNL A   1      36.641  20.673  25.434  1.00  0.00    -0.462 OA
BRANCH   2   3
ATOM      3  C   UNL A   1      35.656  21.518  25.860  1.00  0.00     0.310 C 
ATOM      4  O   UNL A   1      35.905  22.640  26.266  1.00  0.00    -0.252 OA
BRANCH   3   5
ATOM      5  C   UNL A   1      34.271  20.792  25.364  1.00  0.00     0.116 C 
ATOM      6  C   UNL A   1      33.655  22.000  23.917  1.00  0.00     0.097 C 
ATOM      7  C   UNL A   1      32.423  21.350  22.752  1.00  0.00     0.041 C 
ATOM      8  C   UNL A   1      32.183  19.621  22.472  1.00  0.00    -0.030 C 
ATOM      9  C   UNL A   1      33.498  18.725  25.036  1.00  0.00     0.043 C 
ATOM     10  C   UNL A   1      32.533  18.536  23.348  1.00  0.00    -0.030 C 
BRANCH   6  11
ATOM     11  C   UNL A   1      34.583  23.100  23.359  1.00  0.00     0.229 C 
ATOM     12  N   UNL A   1      34.369  24.434  23.233  1.00  0.00    -0.317 N 
ATOM     13  H   UNL A   1      35.069  24.881  22.704  1.00  0.00     0.170 HD
ATOM     14  O   UNL A   1      35.698  22.754  22.930  1.00  0.00    -0.274 OA
BRANCH  12  15
ATOM     15  C   UNL A   1      33.403  25.308  23.673  1.00  0.00     0.109 A 
ATOM     16  C   UNL A   1      31.699  26.864  23.982  1.00  0.00     0.010 A 
ATOM     17  C   UNL A   1      31.926  26.398  25.267  1.00  0.00     0.012 A 
ATOM     18  C   UNL A   1      32.611  26.242  23.002  1.00  0.00     0.082 A 
ATOM     19  C   UNL A   1      31.177  26.515  26.552  1.00  0.00     0.057 C 
ATOM     20  S   UNL A   1      33.534  25.893  25.261  1.00  0.00    -0.122 S 
BRANCH  16  21
ATOM     21  C   UNL A   1      30.760  27.954  23.798  1.00  0.00    -0.016 A 
ATOM     22  C   UNL A   1      28.206  31.321  23.092  1.00  0.00     0.044 C 
ATOM     23  C   UNL A   1      29.073  30.140  23.394  1.00  0.00    -0.051 A 
ATOM     24  C   UNL A   1      28.719  28.868  22.918  1.00  0.00     0.004 A 
ATOM     25  C   UNL A   1      30.262  30.307  24.105  1.00  0.00     0.004 A 
ATOM     26  C   UNL A   1      29.553  27.772  23.133  1.00  0.00     0.009 A 
ATOM     27  C   UNL A   1      31.108  29.222  24.291  1.00  0.00     0.009 A 
ENDBRANCH  16  21
BRANCH  18  28
ATOM     28  C   UNL A   1      32.666  26.578  21.578  1.00  0.00     0.252 C 
ATOM     29  N   UNL A   1      31.785  25.977  20.723  1.00  0.00    -0.365 N 
ATOM     30  O   UNL A   1      33.468  27.372  21.093  1.00  0.00    -0.269 OA
ATOM     31  H   UNL A   1      31.125  25.334  21.070  1.00  0.00     0.159 HD
ATOM     32  H   UNL A   1      31.810  26.187  19.762  1.00  0.00     0.159 HD
ENDBRANCH  18  28
ENDBRANCH  12  15
ENDBRANCH   6  11
ENDBRANCH   3   5
ENDBRANCH   2   3
ENDBRANCH   1   2
BRANCH   1  33
ATOM     33  C   UNL A   1      39.016  21.346  26.048  1.00  0.00     0.275 C 
BRANCH  33  34
ATOM     34  O   UNL A   1      40.340  20.648  25.860  1.00  0.00    -0.458 OA
BRANCH  34  35
ATOM     35  C   UNL A   1      41.584  20.490  26.431  1.00  0.00     0.338 C 
ATOM     36  O   UNL A   1      42.096  19.396  26.618  1.00  0.00    -0.246 OA
BRANCH  35  37
ATOM     37  C   UNL A   1      42.422  21.685  26.686  1.00  0.00     0.060 A 
ATOM     38  C   UNL A   1      42.880  22.723  25.328  1.00  0.00     0.016 A 
ATOM     39  C   UNL A   1      42.018  22.346  28.064  1.00  0.00     0.016 A 
ATOM     40  C   UNL A   1      42.798  24.697  25.502  1.00  0.00     0.010 A 
ATOM     41  C   UNL A   1      41.915  23.925  28.251  1.00  0.00     0.010 A 
ATOM     42  C   UNL A   1      42.324  25.225  27.151  1.00  0.00    -0.014 A 
BRANCH  42  43
ATOM     43  C   UNL A   1      42.318  26.462  27.970  1.00  0.00     0.031 A 
ATOM     44  C   UNL A   1      41.087  27.227  28.173  1.00  0.00     0.074 A 
ATOM     45  C   UNL A   1      43.499  26.868  28.562  1.00  0.00     0.049 A 
ATOM     46  N   UNL A   1      41.044  28.518  28.169  1.00  0.00    -0.248 NA
ATOM     47  C   UNL A   1      39.768  26.609  28.299  1.00  0.00     0.031 C 
ATOM     48  C   UNL A   1      43.727  27.682  29.758  1.00  0.00     0.029 A 
ATOM     49  N   UNL A   1      44.820  26.525  28.266  1.00  0.00    -0.354 N 
ATOM     50  C   UNL A   1      39.828  28.836  28.731  1.00  0.00     0.074 A 
ATOM     51  C   UNL A   1      38.993  27.679  28.519  1.00  0.00     0.031 C 
ATOM     52  C   UNL A   1      45.050  27.950  29.899  1.00  0.00     0.029 A 
ATOM     53  C   UNL A   1      45.762  27.379  28.772  1.00  0.00     0.049 A 
ATOM     54  H   UNL A   1      45.057  25.731  27.734  1.00  0.00     0.167 HD
ATOM     55  C   UNL A   1      39.753  29.845  29.647  1.00  0.00     0.031 A 
ATOM     56  C   UNL A   1      46.714  27.890  27.940  1.00  0.00     0.031 A 
ATOM     57  C   UNL A   1      41.089  30.368  29.953  1.00  0.00     0.049 A 
ATOM     58  C   UNL A   1      46.378  29.342  27.800  1.00  0.00     0.074 A 
ATOM     59  C   UNL A   1      41.911  30.197  31.056  1.00  0.00     0.029 A 
ATOM     60  N   UNL A   1      41.894  30.890  28.947  1.00  0.00    -0.354 N 
ATOM     61  N   UNL A   1      45.169  29.789  27.998  1.00  0.00    -0.248 NA
ATOM     62  C   UNL A   1      47.346  30.398  27.554  1.00  0.00     0.031 C 
ATOM     63  C   UNL A   1      43.205  30.675  30.720  1.00  0.00     0.029 A 
ATOM     64  C   UNL A   1      43.176  31.118  29.407  1.00  0.00     0.049 A 
ATOM     65  H   UNL A   1      41.591  31.073  28.028  1.00  0.00     0.167 HD
ATOM     66  C   UNL A   1      45.217  31.141  28.130  1.00  0.00     0.074 A 
ATOM     67  C   UNL A   1      46.585  31.487  27.769  1.00  0.00     0.031 C 
ATOM     68  C   UNL A   1      44.143  31.842  28.587  1.00  0.00     0.031 A 
BRANCH  55  69
ATOM     69  C   UNL A   1      38.561  30.104  30.548  1.00  0.00    -0.014 A 
ATOM     70  C   UNL A   1      37.592  31.053  30.160  1.00  0.00     0.009 A 
ATOM     71  C   UNL A   1      38.312  29.444  31.764  1.00  0.00     0.009 A 
ATOM     72  C   UNL A   1      36.488  31.374  30.959  1.00  0.00     0.001 A 
ATOM     73  C   UNL A   1      37.220  29.777  32.583  1.00  0.00     0.001 A 
ATOM     74  C   UNL A   1      36.309  30.746  32.181  1.00  0.00     0.000 A 
ENDBRANCH  55  69
BRANCH  56  75
ATOM     75  C   UNL A   1      47.135  26.955  26.836  1.00  0.00    -0.014 A 
ATOM     76  C   UNL A   1      46.766  27.298  25.514  1.00  0.00     0.009 A 
ATOM     77  C   UNL A   1      48.189  26.039  26.995  1.00  0.00     0.009 A 
ATOM     78  C   UNL A   1      47.498  26.846  24.405  1.00  0.00     0.001 A 
ATOM     79  C   UNL A   1      48.905  25.568  25.879  1.00  0.00     0.001 A 
ATOM     80  C   UNL A   1      48.587  26.001  24.590  1.00  0.00     0.000 A 
ENDBRANCH  56  75
BRANCH  68  81
ATOM     81  C   UNL A   1      43.917  33.310  28.385  1.00  0.00    -0.014 A 
ATOM     82  C   UNL A   1      43.942  33.947  27.143  1.00  0.00     0.009 A 
ATOM     83  C   UNL A   1      43.502  34.091  29.489  1.00  0.00     0.009 A 
ATOM     84  C   UNL A   1      43.609  35.296  27.014  1.00  0.00     0.001 A 
ATOM     85  C   UNL A   1      43.103  35.415  29.356  1.00  0.00     0.001 A 
ATOM     86  C   UNL A   1      43.173  36.024  28.114  1.00  0.00     0.000 A 
ENDBRANCH  68  81
ENDBRANCH  42  43
ENDBRANCH  35  37
ENDBRANCH  34  35
ENDBRANCH  33  34
ENDBRANCH   1  33
TORSDOF 15
ENDMDL
MODEL 3
REMARK VINA RESULT:     -12.8      3.893      9.676
REMARK SMILES Cc1ccc(-c2c(C)sc(NC(=O)[C@H]3CC=CC[C@H]3C(=O)OCCOC(=O)c3ccc(-c4c5nc(c(-c6ccccc6)c6ccc([nH]6)c(-c6ccccc6)c6nc(c(-c7ccccc7)c7ccc4[nH]7)C=C6)C=C5)cc3)c2C(N)=O)cc1
REMARK SMILES IDX 23 1 22 2 20 3 21 4 19 5 14 6 15 7 16 8 18 9 17 10 12 11
REMARK SMILES IDX 11 12 13 14 10 15 6 16 7 17 76 18 8 19 9 20 5 21 1 22 2 23
REMARK SMILES IDX 3 24 81 25 4 26 80 27 77 28 78 29 79 30 24 33 25 34 26 35
REMARK SMILES IDX 27 36 28 37 29 38 75 39 30 40 74 41 31 42 32 43 33 44 68 45
REMARK SMILES IDX 34 46 73 47 67 48 69 49 35 50 72 51 66 52 65 53 36 55 58 56
REMARK SMILES IDX 43 57 57 58 44 59 47 60 56 61 70 62 45 63 46 64 55 66 71 67
REMARK SMILES IDX 48 68 37 69 38 70 42 71 39 72 41 73 40 74 59 75 60 76 64 77
REMARK SMILES IDX 61 78 63 79 62 80 49 81 50 82 54 83 51 84 53 85 52 86
REMARK H PARENT 11 13 78 31 78 32 69 54 47 65
REMARK Flexibility Score: inf
ROOT
ATOM      1  C   UNL A   1      38.878  20.806  25.693  1.00  0.00     0.274 C 
ENDROOT
BRANCH   1   2
ATOM      2  O   UNL A   1      37.736  20.274  25.059  1.00  0.00    -0.462 OA
BRANCH   2   3
ATOM      3  C   UNL A   1      36.913  21.254  24.581  1.00  0.00     0.310 C 
ATOM      4  O   UNL A   1      37.267  22.012  23.694  1.00  0.00    -0.252 OA
BRANCH   3   5
ATOM      5  C   UNL A   1      35.444  20.879  25.208  1.00  0.00     0.116 C 
ATOM      6  C   UNL A   1      34.943  22.555  26.142  1.00  0.00     0.097 C 
ATOM      7  C   UNL A   1      33.194  22.781  26.575  1.00  0.00     0.041 C 
ATOM      8  C   UNL A   1      31.882  21.933  25.747  1.00  0.00    -0.030 C 
ATOM      9  C   UNL A   1      33.620  19.742  24.612  1.00  0.00     0.043 C 
ATOM     10  C   UNL A   1      31.965  20.707  25.001  1.00  0.00    -0.030 C 
BRANCH   6  11
ATOM     11  C   UNL A   1      35.746  23.854  25.917  1.00  0.00     0.229 C 
ATOM     12  N   UNL A   1      35.457  24.929  25.140  1.00  0.00    -0.317 N 
ATOM     13  H   UNL A   1      36.215  25.552  25.061  1.00  0.00     0.170 HD
ATOM     14  O   UNL A   1      36.838  23.968  26.500  1.00  0.00    -0.274 OA
BRANCH  12  15
ATOM     15  C   UNL A   1      34.353  25.350  24.437  1.00  0.00     0.109 A 
ATOM     16  C   UNL A   1      32.405  26.317  23.607  1.00  0.00     0.010 A 
ATOM     17  C   UNL A   1      32.874  25.593  22.522  1.00  0.00     0.012 A 
ATOM     18  C   UNL A   1      33.268  26.154  24.793  1.00  0.00     0.082 A 
ATOM     19  C   UNL A   1      32.531  25.576  21.071  1.00  0.00     0.057 C 
ATOM     20  S   UNL A   1      33.773  24.340  23.202  1.00  0.00    -0.122 S 
BRANCH  16  21
ATOM     21  C   UNL A   1      31.117  26.976  23.493  1.00  0.00    -0.016 A 
ATOM     22  C   UNL A   1      27.370  28.951  22.847  1.00  0.00     0.044 C 
ATOM     23  C   UNL A   1      28.683  28.290  23.127  1.00  0.00    -0.051 A 
ATOM     24  C   UNL A   1      28.718  26.977  23.621  1.00  0.00     0.004 A 
ATOM     25  C   UNL A   1      29.877  28.956  22.847  1.00  0.00     0.004 A 
ATOM     26  C   UNL A   1      29.934  26.325  23.820  1.00  0.00     0.009 A 
ATOM     27  C   UNL A   1      31.086  28.295  23.014  1.00  0.00     0.009 A 
ENDBRANCH  16  21
BRANCH  18  28
ATOM     28  C   UNL A   1      33.001  26.733  26.111  1.00  0.00     0.252 C 
ATOM     29  N   UNL A   1      31.978  26.224  26.861  1.00  0.00    -0.365 N 
ATOM     30  O   UNL A   1      33.640  27.666  26.590  1.00  0.00    -0.269 OA
ATOM     31  H   UNL A   1      31.440  25.475  26.514  1.00  0.00     0.159 HD
ATOM     32  H   UNL A   1      31.781  26.604  27.747  1.00  0.00     0.159 HD
ENDBRANCH  18  28
ENDBRANCH  12  15
ENDBRANCH   6  11
ENDBRANCH   3   5
ENDBRANCH   2   3
ENDBRANCH   1   2
BRANCH   1  33
ATOM     33  C   UNL A   1      40.003  19.795  26.106  1.00  0.00     0.275 C 
BRANCH  33  34
ATOM     34  O   UNL A   1      41.358  19.624  25.464  1.00  0.00    -0.458 OA
BRANCH  34  35
ATOM     35  C   UNL A   1      42.704  19.569  25.751  1.00  0.00     0.338 C 
ATOM     36  O   UNL A   1      43.359  18.539  25.678  1.00  0.00    -0.246 OA
BRANCH  35  37
ATOM     37  C   UNL A   1      43.445  20.828  26.001  1.00  0.00     0.060 A 
ATOM     38  C   UNL A   1      43.935  21.827  24.624  1.00  0.00     0.016 A 
ATOM     39  C   UNL A   1      42.902  21.526  27.310  1.00  0.00     0.016 A 
ATOM     40  C   UNL A   1      43.717  23.797  24.688  1.00  0.00     0.010 A 
ATOM     41  C   UNL A   1      42.686  23.102  27.406  1.00  0.00     0.010 A 
ATOM     42  C   UNL A   1      43.092  24.372  26.270  1.00  0.00    -0.014 A 
BRANCH  42  43
ATOM     43  C   UNL A   1      42.949  25.644  27.020  1.00  0.00     0.031 A 
ATOM     44  C   UNL A   1      41.663  26.339  27.089  1.00  0.00     0.074 A 
ATOM     45  C   UNL A   1      44.053  26.151  27.677  1.00  0.00     0.049 A 
ATOM     46  N   UNL A   1      41.544  27.623  27.014  1.00  0.00    -0.248 NA
ATOM     47  C   UNL A   1      40.376  25.646  27.147  1.00  0.00     0.031 C 
ATOM     48  C   UNL A   1      44.139  27.035  28.843  1.00  0.00     0.029 A 
ATOM     49  N   UNL A   1      45.412  25.878  27.500  1.00  0.00    -0.354 N 
ATOM     50  C   UNL A   1      40.271  27.891  27.465  1.00  0.00     0.074 A 
ATOM     51  C   UNL A   1      39.524  26.675  27.252  1.00  0.00     0.031 C 
ATOM     52  C   UNL A   1      45.428  27.392  29.068  1.00  0.00     0.029 A 
ATOM     53  C   UNL A   1      46.259  26.813  28.030  1.00  0.00     0.049 A 
ATOM     54  H   UNL A   1      45.736  25.076  27.030  1.00  0.00     0.167 HD
ATOM     55  C   UNL A   1      40.065  28.935  28.318  1.00  0.00     0.031 A 
ATOM     56  C   UNL A   1      47.242  27.342  27.247  1.00  0.00     0.031 A 
ATOM     57  C   UNL A   1      41.339  29.556  28.696  1.00  0.00     0.049 A 
ATOM     58  C   UNL A   1      46.833  28.761  27.005  1.00  0.00     0.074 A 
ATOM     59  C   UNL A   1      42.081  29.490  29.865  1.00  0.00     0.029 A 
ATOM     60  N   UNL A   1      42.189  30.078  27.728  1.00  0.00    -0.354 N 
ATOM     61  N   UNL A   1      45.588  29.141  27.088  1.00  0.00    -0.248 NA
ATOM     62  C   UNL A   1      47.753  29.864  26.778  1.00  0.00     0.031 C 
ATOM     63  C   UNL A   1      43.367  30.031  29.604  1.00  0.00     0.029 A 
ATOM     64  C   UNL A   1      43.415  30.408  28.271  1.00  0.00     0.049 A 
ATOM     65  H   UNL A   1      41.949  30.197  26.780  1.00  0.00     0.167 HD
ATOM     66  C   UNL A   1      45.545  30.498  27.152  1.00  0.00     0.074 A 
ATOM     67  C   UNL A   1      46.914  30.912  26.878  1.00  0.00     0.031 C 
ATOM     68  C   UNL A   1      44.399  31.151  27.489  1.00  0.00     0.031 A 
BRANCH  55  69
ATOM     69  C   UNL A   1      38.792  29.162  29.112  1.00  0.00    -0.014 A 
ATOM     70  C   UNL A   1      37.676  29.749  28.480  1.00  0.00     0.009 A 
ATOM     71  C   UNL A   1      38.609  28.805  30.459  1.00  0.00     0.009 A 
ATOM     72  C   UNL A   1      36.484  30.026  29.159  1.00  0.00     0.001 A 
ATOM     73  C   UNL A   1      37.425  29.101  31.155  1.00  0.00     0.001 A 
ATOM     74  C   UNL A   1      36.362  29.715  30.504  1.00  0.00     0.000 A 
ENDBRANCH  55  69
BRANCH  56  75
ATOM     75  C   UNL A   1      47.803  26.383  26.228  1.00  0.00    -0.014 A 
ATOM     76  C   UNL A   1      47.220  25.097  26.153  1.00  0.00     0.009 A 
ATOM     77  C   UNL A   1      48.541  26.824  25.117  1.00  0.00     0.009 A 
ATOM     78  C   UNL A   1      47.266  24.336  24.975  1.00  0.00     0.001 A 
ATOM     79  C   UNL A   1      48.606  26.046  23.945  1.00  0.00     0.001 A 
ATOM     80  C   UNL A   1      47.937  24.825  23.860  1.00  0.00     0.000 A 
ENDBRANCH  56  75
BRANCH  68  81
ATOM     81  C   UNL A   1      44.104  32.591  27.194  1.00  0.00    -0.014 A 
ATOM     82  C   UNL A   1      43.983  33.122  25.909  1.00  0.00     0.009 A 
ATOM     83  C   UNL A   1      43.774  33.450  28.268  1.00  0.00     0.009 A 
ATOM     84  C   UNL A   1      43.593  34.446  25.706  1.00  0.00     0.001 A 
ATOM     85  C   UNL A   1      43.318  34.747  28.070  1.00  0.00     0.001 A 
ATOM     86  C   UNL A   1      43.243  35.252  26.783  1.00  0.00     0.000 A 
ENDBRANCH  68  81
ENDBRANCH  42  43
ENDBRANCH  35  37
ENDBRANCH  34  35
ENDBRANCH  33  34
ENDBRANCH   1  33
TORSDOF 15
ENDMDL
