MODEL 1
REMARK VINA RESULT:     -11.8      0.000      0.000
REMARK SMILES CS(=O)(=O)c1ccc(/C=C(/C(=O)OCCOC(=O)c2ccc(-c3c4nc(c(-c5ccccc5)c5ccc([nH]5)c(-c5ccccc5)c5nc(c(-c6ccccc6)c6ccc3[nH]6)C=C5)C=C4)cc2)c2ccccc2)cc1
REMARK SMILES IDX 14 1 13 2 11 3 12 4 10 5 9 6 8 7 5 8 6 9 74 10 7 11 73 12
REMARK SMILES IDX 2 13 1 14 3 15 4 16 67 17 68 18 72 19 69 20 71 21 70 22
REMARK SMILES IDX 15 23 16 24 17 25 18 26 19 27 20 28 66 29 21 30 65 31 22 32
REMARK SMILES IDX 23 33 24 34 59 35 25 36 64 37 58 38 60 39 26 40 63 41 57 42
REMARK SMILES IDX 56 43 27 45 49 46 34 47 48 48 35 49 38 50 47 51 61 52 36 53
REMARK SMILES IDX 37 54 46 56 62 57 39 58 28 59 29 60 33 61 30 62 32 63 31 64
REMARK SMILES IDX 50 65 51 66 55 67 52 68 54 69 53 70 40 71 41 72 45 73 42 74
REMARK SMILES IDX 44 75 43 76
REMARK H PARENT 60 44 38 55
REMARK Flexibility Score: inf
ROOT
ATOM      1  C   UNL A   1      34.931  23.052  24.570  1.00  0.00     0.275 C 
ENDROOT
BRANCH   1   2
ATOM      2  O   UNL A   1      34.640  24.121  25.495  1.00  0.00    -0.458 OA
BRANCH   2   3
ATOM      3  C   UNL A   1      33.343  24.215  25.888  1.00  0.00     0.338 C 
ATOM      4  O   UNL A   1      32.769  23.436  26.638  1.00  0.00    -0.246 OA
BRANCH   3   5
ATOM      5  C   UNL A   1      32.679  25.433  25.334  1.00  0.00     0.067 C 
ATOM      6  C   UNL A   1      31.935  25.308  24.210  1.00  0.00     0.024 C 
BRANCH   6   7
ATOM      7  C   UNL A   1      30.985  26.294  23.643  1.00  0.00    -0.025 A 
ATOM      8  C   UNL A   1      29.148  28.282  22.903  1.00  0.00     0.067 A 
ATOM      9  C   UNL A   1      30.459  28.351  22.445  1.00  0.00     0.021 A 
ATOM     10  C   UNL A   1      28.713  27.182  23.641  1.00  0.00     0.021 A 
ATOM     11  C   UNL A   1      31.357  27.343  22.790  1.00  0.00     0.009 A 
ATOM     12  C   UNL A   1      29.635  26.196  24.012  1.00  0.00     0.009 A 
BRANCH   8  13
ATOM     13  S   UNL A   1      28.041  29.622  22.544  1.00  0.00     0.175 S 
ATOM     14  C   UNL A   1      28.702  30.955  23.516  1.00  0.00     0.163 C 
ATOM     15  O   UNL A   1      26.741  29.280  23.079  1.00  0.00    -0.224 OA
ATOM     16  O   UNL A   1      28.212  29.955  21.140  1.00  0.00    -0.224 OA
ENDBRANCH   8  13
ENDBRANCH   6   7
BRANCH   5  17
ATOM     17  C   UNL A   1      32.729  26.671  26.134  1.00  0.00    -0.011 A 
ATOM     18  C   UNL A   1      33.856  27.506  26.042  1.00  0.00     0.009 A 
ATOM     19  C   UNL A   1      31.652  27.063  26.936  1.00  0.00     0.009 A 
ATOM     20  C   UNL A   1      33.881  28.735  26.704  1.00  0.00     0.001 A 
ATOM     21  C   UNL A   1      31.689  28.285  27.612  1.00  0.00     0.001 A 
ATOM     22  C   UNL A   1      32.796  29.124  27.487  1.00  0.00     0.000 A 
ENDBRANCH   5  17
ENDBRANCH   3   5
ENDBRANCH   2   3
ENDBRANCH   1   2
BRANCH   1  23
ATOM     23  C   UNL A   1      35.798  21.985  25.235  1.00  0.00     0.275 C 
BRANCH  23  24
ATOM     24  O   UNL A   1      37.112  21.989  24.646  1.00  0.00    -0.458 OA
BRANCH  24  25
ATOM     25  C   UNL A   1      38.109  21.513  25.423  1.00  0.00     0.338 C 
ATOM     26  O   UNL A   1      38.485  20.355  25.521  1.00  0.00    -0.246 OA
BRANCH  25  27
ATOM     27  C   UNL A   1      38.748  22.613  26.168  1.00  0.00     0.060 A 
ATOM     28  C   UNL A   1      38.176  23.880  26.175  1.00  0.00     0.016 A 
ATOM     29  C   UNL A   1      40.014  22.422  26.725  1.00  0.00     0.016 A 
ATOM     30  C   UNL A   1      38.923  24.975  26.611  1.00  0.00     0.010 A 
ATOM     31  C   UNL A   1      40.711  23.510  27.266  1.00  0.00     0.010 A 
ATOM     32  C   UNL A   1      40.201  24.816  27.164  1.00  0.00    -0.014 A 
BRANCH  32  33
ATOM     33  C   UNL A   1      41.023  25.999  27.572  1.00  0.00     0.031 A 
ATOM     34  C   UNL A   1      40.488  27.001  28.571  1.00  0.00     0.074 A 
ATOM     35  C   UNL A   1      42.266  26.192  27.080  1.00  0.00     0.049 A 
ATOM     36  N   UNL A   1      40.932  28.201  28.862  1.00  0.00    -0.248 NA
ATOM     37  C   UNL A   1      39.290  26.611  29.334  1.00  0.00     0.031 C 
ATOM     38  C   UNL A   1      42.973  25.296  26.163  1.00  0.00     0.029 A 
ATOM     39  N   UNL A   1      43.164  27.211  27.296  1.00  0.00    -0.354 N 
ATOM     40  C   UNL A   1      40.021  28.737  29.766  1.00  0.00     0.074 A 
ATOM     41  C   UNL A   1      39.010  27.727  29.994  1.00  0.00     0.031 C 
ATOM     42  C   UNL A   1      44.210  25.766  25.951  1.00  0.00     0.029 A 
ATOM     43  C   UNL A   1      44.344  27.060  26.608  1.00  0.00     0.049 A 
ATOM     44  H   UNL A   1      42.980  27.976  27.888  1.00  0.00     0.167 HD
ATOM     45  C   UNL A   1      40.019  29.963  30.344  1.00  0.00     0.031 A 
ATOM     46  C   UNL A   1      45.397  27.885  26.459  1.00  0.00     0.031 A 
ATOM     47  C   UNL A   1      41.059  30.945  30.180  1.00  0.00     0.049 A 
ATOM     48  C   UNL A   1      45.363  29.249  27.079  1.00  0.00     0.074 A 
ATOM     49  C   UNL A   1      41.147  32.211  30.737  1.00  0.00     0.029 A 
ATOM     50  N   UNL A   1      42.206  30.763  29.426  1.00  0.00    -0.354 N 
ATOM     51  N   UNL A   1      44.442  29.785  27.840  1.00  0.00    -0.248 NA
ATOM     52  C   UNL A   1      46.499  30.135  26.787  1.00  0.00     0.031 C 
ATOM     53  C   UNL A   1      42.332  32.807  30.292  1.00  0.00     0.029 A 
ATOM     54  C   UNL A   1      43.002  31.893  29.495  1.00  0.00     0.049 A 
ATOM     55  H   UNL A   1      42.423  29.949  28.915  1.00  0.00     0.167 HD
ATOM     56  C   UNL A   1      44.885  31.071  28.117  1.00  0.00     0.074 A 
ATOM     57  C   UNL A   1      46.169  31.225  27.466  1.00  0.00     0.031 C 
ATOM     58  C   UNL A   1      44.273  32.040  28.840  1.00  0.00     0.031 A 
BRANCH  45  59
ATOM     59  C   UNL A   1      38.826  30.345  31.177  1.00  0.00    -0.014 A 
ATOM     60  C   UNL A   1      38.820  30.203  32.573  1.00  0.00     0.009 A 
ATOM     61  C   UNL A   1      37.707  30.917  30.549  1.00  0.00     0.009 A 
ATOM     62  C   UNL A   1      37.707  30.603  33.317  1.00  0.00     0.001 A 
ATOM     63  C   UNL A   1      36.608  31.339  31.297  1.00  0.00     0.001 A 
ATOM     64  C   UNL A   1      36.605  31.175  32.681  1.00  0.00     0.000 A 
ENDBRANCH  45  59
BRANCH  46  65
ATOM     65  C   UNL A   1      46.546  27.463  25.614  1.00  0.00    -0.014 A 
ATOM     66  C   UNL A   1      47.563  26.655  26.143  1.00  0.00     0.009 A 
ATOM     67  C   UNL A   1      46.614  27.848  24.265  1.00  0.00     0.009 A 
ATOM     68  C   UNL A   1      48.627  26.244  25.337  1.00  0.00     0.001 A 
ATOM     69  C   UNL A   1      47.661  27.408  23.454  1.00  0.00     0.001 A 
ATOM     70  C   UNL A   1      48.669  26.611  23.993  1.00  0.00     0.000 A 
ENDBRANCH  46  65
BRANCH  58  71
ATOM     71  C   UNL A   1      45.000  33.345  28.983  1.00  0.00    -0.014 A 
ATOM     72  C   UNL A   1      45.875  33.571  30.057  1.00  0.00     0.009 A 
ATOM     73  C   UNL A   1      44.828  34.349  28.019  1.00  0.00     0.009 A 
ATOM     74  C   UNL A   1      46.543  34.792  30.177  1.00  0.00     0.001 A 
ATOM     75  C   UNL A   1      45.513  35.560  28.129  1.00  0.00     0.001 A 
ATOM     76  C   UNL A   1      46.363  35.783  29.212  1.00  0.00     0.000 A 
ENDBRANCH  58  71
ENDBRANCH  32  33
ENDBRANCH  25  27
ENDBRANCH  24  25
ENDBRANCH  23  24
ENDBRANCH   1  23
TORSDOF 14
ENDMDL
MODEL 2
REMARK VINA RESULT:     -11.7      2.824      6.299
REMARK SMILES CS(=O)(=O)c1ccc(/C=C(/C(=O)OCCOC(=O)c2ccc(-c3c4nc(c(-c5ccccc5)c5ccc([nH]5)c(-c5ccccc5)c5nc(c(-c6ccccc6)c6ccc3[nH]6)C=C5)C=C4)cc2)c2ccccc2)cc1
REMARK SMILES IDX 14 1 13 2 11 3 12 4 10 5 9 6 8 7 5 8 6 9 74 10 7 11 73 12
REMARK SMILES IDX 2 13 1 14 3 15 4 16 67 17 68 18 72 19 69 20 71 21 70 22
REMARK SMILES IDX 15 23 16 24 17 25 18 26 19 27 20 28 66 29 21 30 65 31 22 32
REMARK SMILES IDX 23 33 24 34 59 35 25 36 64 37 58 38 60 39 26 40 63 41 57 42
REMARK SMILES IDX 56 43 27 45 49 46 34 47 48 48 35 49 38 50 47 51 61 52 36 53
REMARK SMILES IDX 37 54 46 56 62 57 39 58 28 59 29 60 33 61 30 62 32 63 31 64
REMARK SMILES IDX 50 65 51 66 55 67 52 68 54 69 53 70 40 71 41 72 45 73 42 74
REMARK SMILES IDX 44 75 43 76
REMARK H PARENT 60 44 38 55
REMARK Flexibility Score: inf
ROOT
ATOM      1  C   UNL A   1      35.519  23.554  24.159  1.00  0.00     0.275 C 
ENDROOT
BRANCH   1   2
ATOM      2  O   UNL A   1      35.217  24.677  25.013  1.00  0.00    -0.458 OA
BRANCH   2   3
ATOM      3  C   UNL A   1      33.968  24.685  25.546  1.00  0.00     0.338 C 
ATOM      4  O   UNL A   1      33.529  23.866  26.342  1.00  0.00    -0.246 OA
BRANCH   3   5
ATOM      5  C   UNL A   1      33.172  25.862  25.083  1.00  0.00     0.067 C 
ATOM      6  C   UNL A   1      32.456  25.749  23.940  1.00  0.00     0.024 C 
BRANCH   6   7
ATOM      7  C   UNL A   1      31.404  26.665  23.440  1.00  0.00    -0.025 A 
ATOM      8  C   UNL A   1      29.352  28.482  22.837  1.00  0.00     0.067 A 
ATOM      9  C   UNL A   1      30.653  28.750  22.425  1.00  0.00     0.021 A 
ATOM     10  C   UNL A   1      29.041  27.272  23.456  1.00  0.00     0.021 A 
ATOM     11  C   UNL A   1      31.661  27.827  22.700  1.00  0.00     0.009 A 
ATOM     12  C   UNL A   1      30.070  26.372  23.760  1.00  0.00     0.009 A 
BRANCH   8  13
ATOM     13  S   UNL A   1      28.098  29.708  22.573  1.00  0.00     0.175 S 
ATOM     14  C   UNL A   1      28.764  31.141  23.387  1.00  0.00     0.163 C 
ATOM     15  O   UNL A   1      26.913  29.295  23.292  1.00  0.00    -0.224 OA
ATOM     16  O   UNL A   1      28.053  29.978  21.145  1.00  0.00    -0.224 OA
ENDBRANCH   8  13
ENDBRANCH   6   7
BRANCH   5  17
ATOM     17  C   UNL A   1      33.073  27.026  25.985  1.00  0.00    -0.011 A 
ATOM     18  C   UNL A   1      34.139  27.939  26.051  1.00  0.00     0.009 A 
ATOM     19  C   UNL A   1      31.914  27.272  26.729  1.00  0.00     0.009 A 
ATOM     20  C   UNL A   1      34.025  29.104  26.813  1.00  0.00     0.001 A 
ATOM     21  C   UNL A   1      31.813  28.430  27.505  1.00  0.00     0.001 A 
ATOM     22  C   UNL A   1      32.861  29.348  27.538  1.00  0.00     0.000 A 
ENDBRANCH   5  17
ENDBRANCH   3   5
ENDBRANCH   2   3
ENDBRANCH   1   2
BRANCH   1  23
ATOM     23  C   UNL A   1      36.705  22.763  24.706  1.00  0.00     0.275 C 
BRANCH  23  24
ATOM     24  O   UNL A   1      37.325  23.494  25.780  1.00  0.00    -0.458 OA
BRANCH  24  25
ATOM     25  C   UNL A   1      38.611  23.178  26.045  1.00  0.00     0.338 C 
ATOM     26  O   UNL A   1      39.202  22.154  25.735  1.00  0.00    -0.246 OA
BRANCH  25  27
ATOM     27  C   UNL A   1      39.272  24.277  26.770  1.00  0.00     0.060 A 
ATOM     28  C   UNL A   1      39.047  24.454  28.131  1.00  0.00     0.016 A 
ATOM     29  C   UNL A   1      39.988  25.240  26.057  1.00  0.00     0.016 A 
ATOM     30  C   UNL A   1      39.417  25.651  28.745  1.00  0.00     0.010 A 
ATOM     31  C   UNL A   1      40.457  26.388  26.708  1.00  0.00     0.010 A 
ATOM     32  C   UNL A   1      40.126  26.641  28.051  1.00  0.00    -0.014 A 
BRANCH  32  33
ATOM     33  C   UNL A   1      40.466  27.949  28.696  1.00  0.00     0.031 A 
ATOM     34  C   UNL A   1      41.857  28.205  29.233  1.00  0.00     0.074 A 
ATOM     35  C   UNL A   1      39.553  28.939  28.796  1.00  0.00     0.049 A 
ATOM     36  N   UNL A   1      42.275  29.157  30.033  1.00  0.00    -0.248 NA
ATOM     37  C   UNL A   1      42.914  27.262  28.830  1.00  0.00     0.031 C 
ATOM     38  C   UNL A   1      38.185  28.899  28.274  1.00  0.00     0.029 A 
ATOM     39  N   UNL A   1      39.646  30.186  29.369  1.00  0.00    -0.354 N 
ATOM     40  C   UNL A   1      43.611  28.874  30.298  1.00  0.00     0.074 A 
ATOM     41  C   UNL A   1      43.942  27.675  29.559  1.00  0.00     0.031 C 
ATOM     42  C   UNL A   1      37.595  30.082  28.488  1.00  0.00     0.029 A 
ATOM     43  C   UNL A   1      38.488  30.922  29.275  1.00  0.00     0.049 A 
ATOM     44  H   UNL A   1      40.464  30.520  29.804  1.00  0.00     0.167 HD
ATOM     45  C   UNL A   1      44.479  29.544  31.095  1.00  0.00     0.031 A 
ATOM     46  C   UNL A   1      38.146  32.109  29.809  1.00  0.00     0.031 A 
ATOM     47  C   UNL A   1      44.180  30.778  31.774  1.00  0.00     0.049 A 
ATOM     48  C   UNL A   1      39.107  32.819  30.714  1.00  0.00     0.074 A 
ATOM     49  C   UNL A   1      45.002  31.535  32.593  1.00  0.00     0.029 A 
ATOM     50  N   UNL A   1      42.973  31.452  31.691  1.00  0.00    -0.354 N 
ATOM     51  N   UNL A   1      40.329  32.482  31.046  1.00  0.00    -0.248 NA
ATOM     52  C   UNL A   1      38.627  34.057  31.345  1.00  0.00     0.031 C 
ATOM     53  C   UNL A   1      44.280  32.650  33.033  1.00  0.00     0.029 A 
ATOM     54  C   UNL A   1      43.025  32.609  32.450  1.00  0.00     0.049 A 
ATOM     55  H   UNL A   1      42.193  31.152  31.170  1.00  0.00     0.167 HD
ATOM     56  C   UNL A   1      40.763  33.463  31.926  1.00  0.00     0.074 A 
ATOM     57  C   UNL A   1      39.686  34.423  32.055  1.00  0.00     0.031 C 
ATOM     58  C   UNL A   1      41.948  33.553  32.578  1.00  0.00     0.031 A 
BRANCH  45  59
ATOM     59  C   UNL A   1      45.836  28.935  31.324  1.00  0.00    -0.014 A 
ATOM     60  C   UNL A   1      46.979  29.397  30.656  1.00  0.00     0.009 A 
ATOM     61  C   UNL A   1      45.974  27.914  32.279  1.00  0.00     0.009 A 
ATOM     62  C   UNL A   1      48.228  28.830  30.923  1.00  0.00     0.001 A 
ATOM     63  C   UNL A   1      47.226  27.368  32.562  1.00  0.00     0.001 A 
ATOM     64  C   UNL A   1      48.353  27.821  31.878  1.00  0.00     0.000 A 
ENDBRANCH  45  59
BRANCH  46  65
ATOM     65  C   UNL A   1      36.788  32.661  29.561  1.00  0.00    -0.014 A 
ATOM     66  C   UNL A   1      35.748  32.433  30.475  1.00  0.00     0.009 A 
ATOM     67  C   UNL A   1      36.535  33.440  28.421  1.00  0.00     0.009 A 
ATOM     68  C   UNL A   1      34.480  32.973  30.246  1.00  0.00     0.001 A 
ATOM     69  C   UNL A   1      35.276  34.005  28.213  1.00  0.00     0.001 A 
ATOM     70  C   UNL A   1      34.249  33.767  29.124  1.00  0.00     0.000 A 
ENDBRANCH  46  65
BRANCH  58  71
ATOM     71  C   UNL A   1      42.148  34.743  33.468  1.00  0.00    -0.014 A 
ATOM     72  C   UNL A   1      42.785  35.902  32.996  1.00  0.00     0.009 A 
ATOM     73  C   UNL A   1      41.671  34.715  34.787  1.00  0.00     0.009 A 
ATOM     74  C   UNL A   1      42.964  37.000  33.840  1.00  0.00     0.001 A 
ATOM     75  C   UNL A   1      41.833  35.822  35.622  1.00  0.00     0.001 A 
ATOM     76  C   UNL A   1      42.486  36.960  35.150  1.00  0.00     0.000 A 
ENDBRANCH  58  71
ENDBRANCH  32  33
ENDBRANCH  25  27
ENDBRANCH  24  25
ENDBRANCH  23  24
ENDBRANCH   1  23
TORSDOF 14
ENDMDL
MODEL 3
REMARK VINA RESULT:     -11.4      3.085      7.406
REMARK SMILES CS(=O)(=O)c1ccc(/C=C(/C(=O)OCCOC(=O)c2ccc(-c3c4nc(c(-c5ccccc5)c5ccc([nH]5)c(-c5ccccc5)c5nc(c(-c6ccccc6)c6ccc3[nH]6)C=C5)C=C4)cc2)c2ccccc2)cc1
REMARK SMILES IDX 14 1 13 2 11 3 12 4 10 5 9 6 8 7 5 8 6 9 74 10 7 11 73 12
REMARK SMILES IDX 2 13 1 14 3 15 4 16 67 17 68 18 72 19 69 20 71 21 70 22
REMARK SMILES IDX 15 23 16 24 17 25 18 26 19 27 20 28 66 29 21 30 65 31 22 32
REMARK SMILES IDX 23 33 24 34 59 35 25 36 64 37 58 38 60 39 26 40 63 41 57 42
REMARK SMILES IDX 56 43 27 45 49 46 34 47 48 48 35 49 38 50 47 51 61 52 36 53
REMARK SMILES IDX 37 54 46 56 62 57 39 58 28 59 29 60 33 61 30 62 32 63 31 64
REMARK SMILES IDX 50 65 51 66 55 67 52 68 54 69 53 70 40 71 41 72 45 73 42 74
REMARK SMILES IDX 44 75 43 76
REMARK H PARENT 60 44 38 55
REMARK Flexibility Score: inf
ROOT
ATOM      1  C   UNL A   1      32.650  27.593  25.999  1.00  0.00     0.275 C 
ENDROOT
BRANCH   1   2
ATOM      2  O   UNL A   1      33.460  26.410  25.841  1.00  0.00    -0.458 OA
BRANCH   2   3
ATOM      3  C   UNL A   1      33.214  25.680  24.723  1.00  0.00     0.338 C 
ATOM      4  O   UNL A   1      32.818  26.126  23.654  1.00  0.00    -0.246 OA
BRANCH   3   5
ATOM      5  C   UNL A   1      33.534  24.233  24.920  1.00  0.00     0.067 C 
ATOM      6  C   UNL A   1      32.520  23.337  24.884  1.00  0.00     0.024 C 
BRANCH   6   7
ATOM      7  C   UNL A   1      32.623  21.862  24.786  1.00  0.00    -0.025 A 
ATOM      8  C   UNL A   1      33.086  19.126  24.367  1.00  0.00     0.067 A 
ATOM      9  C   UNL A   1      33.315  19.679  25.622  1.00  0.00     0.021 A 
ATOM     10  C   UNL A   1      32.531  19.895  23.345  1.00  0.00     0.021 A 
ATOM     11  C   UNL A   1      33.053  21.033  25.831  1.00  0.00     0.009 A 
ATOM     12  C   UNL A   1      32.308  21.261  23.558  1.00  0.00     0.009 A 
BRANCH   8  13
ATOM     13  S   UNL A   1      33.520  17.429  24.085  1.00  0.00     0.175 S 
ATOM     14  C   UNL A   1      32.516  16.560  25.266  1.00  0.00     0.163 C 
ATOM     15  O   UNL A   1      34.906  17.257  24.462  1.00  0.00    -0.224 OA
ATOM     16  O   UNL A   1      33.056  17.082  22.752  1.00  0.00    -0.224 OA
ENDBRANCH   8  13
ENDBRANCH   6   7
BRANCH   5  17
ATOM     17  C   UNL A   1      34.955  23.842  24.972  1.00  0.00    -0.011 A 
ATOM     18  C   UNL A   1      35.583  23.369  23.807  1.00  0.00     0.009 A 
ATOM     19  C   UNL A   1      35.707  23.989  26.143  1.00  0.00     0.009 A 
ATOM     20  C   UNL A   1      36.952  23.095  23.804  1.00  0.00     0.001 A 
ATOM     21  C   UNL A   1      37.074  23.696  26.139  1.00  0.00     0.001 A 
ATOM     22  C   UNL A   1      37.696  23.260  24.970  1.00  0.00     0.000 A 
ENDBRANCH   5  17
ENDBRANCH   3   5
ENDBRANCH   2   3
ENDBRANCH   1   2
BRANCH   1  23
ATOM     23  C   UNL A   1      33.527  28.825  26.212  1.00  0.00     0.275 C 
BRANCH  23  24
ATOM     24  O   UNL A   1      33.969  28.876  27.582  1.00  0.00    -0.458 OA
BRANCH  24  25
ATOM     25  C   UNL A   1      34.510  30.047  27.983  1.00  0.00     0.338 C 
ATOM     26  O   UNL A   1      33.935  31.112  28.149  1.00  0.00    -0.246 OA
BRANCH  25  27
ATOM     27  C   UNL A   1      35.953  29.886  28.239  1.00  0.00     0.060 A 
ATOM     28  C   UNL A   1      36.875  30.129  27.227  1.00  0.00     0.016 A 
ATOM     29  C   UNL A   1      36.380  29.326  29.444  1.00  0.00     0.016 A 
ATOM     30  C   UNL A   1      38.191  29.688  27.368  1.00  0.00     0.010 A 
ATOM     31  C   UNL A   1      37.729  28.992  29.621  1.00  0.00     0.010 A 
ATOM     32  C   UNL A   1      38.647  29.112  28.563  1.00  0.00    -0.014 A 
BRANCH  32  33
ATOM     33  C   UNL A   1      40.042  28.585  28.688  1.00  0.00     0.031 A 
ATOM     34  C   UNL A   1      41.166  29.483  29.153  1.00  0.00     0.074 A 
ATOM     35  C   UNL A   1      40.331  27.295  28.412  1.00  0.00     0.049 A 
ATOM     36  N   UNL A   1      42.462  29.290  29.091  1.00  0.00    -0.248 NA
ATOM     37  C   UNL A   1      40.787  30.773  29.755  1.00  0.00     0.031 C 
ATOM     38  C   UNL A   1      39.366  26.266  28.018  1.00  0.00     0.029 A 
ATOM     39  N   UNL A   1      41.531  26.624  28.432  1.00  0.00    -0.354 N 
ATOM     40  C   UNL A   1      43.046  30.463  29.558  1.00  0.00     0.074 A 
ATOM     41  C   UNL A   1      41.967  31.356  29.920  1.00  0.00     0.031 C 
ATOM     42  C   UNL A   1      39.996  25.089  27.901  1.00  0.00     0.029 A 
ATOM     43  C   UNL A   1      41.426  25.299  28.082  1.00  0.00     0.049 A 
ATOM     44  H   UNL A   1      42.384  27.052  28.674  1.00  0.00     0.167 HD
ATOM     45  C   UNL A   1      44.362  30.774  29.663  1.00  0.00     0.031 A 
ATOM     46  C   UNL A   1      42.368  24.361  27.866  1.00  0.00     0.031 A 
ATOM     47  C   UNL A   1      45.442  29.866  29.376  1.00  0.00     0.049 A 
ATOM     48  C   UNL A   1      43.817  24.731  27.955  1.00  0.00     0.074 A 
ATOM     49  C   UNL A   1      46.806  30.090  29.466  1.00  0.00     0.029 A 
ATOM     50  N   UNL A   1      45.281  28.552  28.970  1.00  0.00    -0.354 N 
ATOM     51  N   UNL A   1      44.356  25.878  28.288  1.00  0.00    -0.248 NA
ATOM     52  C   UNL A   1      44.788  23.686  27.602  1.00  0.00     0.031 C 
ATOM     53  C   UNL A   1      47.471  28.920  29.082  1.00  0.00     0.029 A 
ATOM     54  C   UNL A   1      46.519  27.955  28.797  1.00  0.00     0.049 A 
ATOM     55  H   UNL A   1      44.414  28.107  28.826  1.00  0.00     0.167 HD
ATOM     56  C   UNL A   1      45.727  25.694  28.184  1.00  0.00     0.074 A 
ATOM     57  C   UNL A   1      45.940  24.318  27.783  1.00  0.00     0.031 C 
ATOM     58  C   UNL A   1      46.721  26.591  28.392  1.00  0.00     0.031 A 
BRANCH  45  59
ATOM     59  C   UNL A   1      44.722  32.179  30.064  1.00  0.00    -0.014 A 
ATOM     60  C   UNL A   1      44.840  33.212  29.124  1.00  0.00     0.009 A 
ATOM     61  C   UNL A   1      44.884  32.480  31.427  1.00  0.00     0.009 A 
ATOM     62  C   UNL A   1      45.139  34.512  29.539  1.00  0.00     0.001 A 
ATOM     63  C   UNL A   1      45.157  33.784  31.840  1.00  0.00     0.001 A 
ATOM     64  C   UNL A   1      45.293  34.799  30.896  1.00  0.00     0.000 A 
ENDBRANCH  45  59
BRANCH  46  65
ATOM     65  C   UNL A   1      41.958  22.990  27.459  1.00  0.00    -0.014 A 
ATOM     66  C   UNL A   1      41.870  21.961  28.408  1.00  0.00     0.009 A 
ATOM     67  C   UNL A   1      41.627  22.715  26.122  1.00  0.00     0.009 A 
ATOM     68  C   UNL A   1      41.462  20.682  28.023  1.00  0.00     0.001 A 
ATOM     69  C   UNL A   1      41.189  21.444  25.748  1.00  0.00     0.001 A 
ATOM     70  C   UNL A   1      41.112  20.428  26.698  1.00  0.00     0.000 A 
ENDBRANCH  46  65
BRANCH  58  71
ATOM     71  C   UNL A   1      48.128  26.103  28.214  1.00  0.00    -0.014 A 
ATOM     72  C   UNL A   1      48.754  26.145  26.958  1.00  0.00     0.009 A 
ATOM     73  C   UNL A   1      48.844  25.620  29.319  1.00  0.00     0.009 A 
ATOM     74  C   UNL A   1      50.065  25.685  26.809  1.00  0.00     0.001 A 
ATOM     75  C   UNL A   1      50.161  25.181  29.171  1.00  0.00     0.001 A 
ATOM     76  C   UNL A   1      50.767  25.206  27.916  1.00  0.00     0.000 A 
ENDBRANCH  58  71
ENDBRANCH  32  33
ENDBRANCH  25  27
ENDBRANCH  24  25
ENDBRANCH  23  24
ENDBRANCH   1  23
TORSDOF 14
ENDMDL
