MODEL 1
REMARK VINA RESULT:      -8.8      0.000      0.000
REMARK SMILES O=C(OCCOC(=O)c1cc(-c2ccc(C(F)(F)F)cc2)cc([N+](=O)[O-])c1)c1ccc(-c2c3nc(c(-c4ccccc4)c4ccc([nH]4)c(-c4ccccc4)c4nc(c(-c5ccccc5)c5ccc2[nH]5)C=C4)C=C3)cc1
REMARK SMILES IDX 4 1 3 2 2 3 1 4 28 5 29 6 75 7 30 8 74 9 31 10 32 11 33 12
REMARK SMILES IDX 68 13 34 14 73 15 67 16 69 17 35 18 72 19 66 20 65 21 36 23
REMARK SMILES IDX 58 24 43 25 57 26 44 27 47 28 56 29 70 30 45 31 46 32 55 34
REMARK SMILES IDX 71 35 48 36 37 37 38 38 42 39 39 40 41 41 40 42 59 43 60 44
REMARK SMILES IDX 64 45 61 46 63 47 62 48 49 49 50 50 54 51 51 52 53 53 52 54
REMARK SMILES IDX 5 55 6 56 7 57 8 58 9 59 10 60 27 61 11 62 23 63 22 64 12 65
REMARK SMILES IDX 13 66 21 67 14 68 20 69 15 70 16 71 17 72 18 73 19 74 24 75
REMARK SMILES IDX 25 76 26 77
REMARK H PARENT 69 22 47 33
REMARK Flexibility Score: inf
ROOT
ATOM      1  C   UNL A   1      34.936  33.082  28.427  1.00  0.00     0.275 C 
ENDROOT
BRANCH   1   2
ATOM      2  O   UNL A   1      34.265  31.810  28.390  1.00  0.00    -0.458 OA
BRANCH   2   3
ATOM      3  C   UNL A   1      34.726  30.594  28.020  1.00  0.00     0.338 C 
ATOM      4  O   UNL A   1      33.921  29.755  27.617  1.00  0.00    -0.246 OA
BRANCH   3   5
ATOM      5  C   UNL A   1      36.142  30.144  28.213  1.00  0.00     0.060 A 
ATOM      6  C   UNL A   1      37.149  30.116  27.247  1.00  0.00     0.016 A 
ATOM      7  C   UNL A   1      36.468  29.699  29.508  1.00  0.00     0.016 A 
ATOM      8  C   UNL A   1      38.457  29.733  27.574  1.00  0.00     0.010 A 
ATOM      9  C   UNL A   1      37.772  29.330  29.845  1.00  0.00     0.010 A 
ATOM     10  C   UNL A   1      38.779  29.345  28.874  1.00  0.00    -0.014 A 
BRANCH  10  11
ATOM     11  C   UNL A   1      40.123  28.820  29.201  1.00  0.00     0.031 A 
ATOM     12  C   UNL A   1      41.149  29.765  29.749  1.00  0.00     0.074 A 
ATOM     13  C   UNL A   1      40.434  27.524  29.007  1.00  0.00     0.049 A 
ATOM     14  N   UNL A   1      42.402  29.539  30.039  1.00  0.00    -0.248 NA
ATOM     15  C   UNL A   1      40.697  31.137  30.040  1.00  0.00     0.031 C 
ATOM     16  C   UNL A   1      39.503  26.475  28.600  1.00  0.00     0.029 A 
ATOM     17  N   UNL A   1      41.642  26.878  29.094  1.00  0.00    -0.354 N 
ATOM     18  C   UNL A   1      42.875  30.720  30.591  1.00  0.00     0.074 A 
ATOM     19  C   UNL A   1      41.800  31.685  30.525  1.00  0.00     0.031 C 
ATOM     20  C   UNL A   1      40.192  25.343  28.374  1.00  0.00     0.029 A 
ATOM     21  C   UNL A   1      41.607  25.595  28.601  1.00  0.00     0.049 A 
ATOM     22  H   UNL A   1      42.452  27.292  29.472  1.00  0.00     0.167 HD
ATOM     23  C   UNL A   1      44.084  30.961  31.144  1.00  0.00     0.031 A 
ATOM     24  C   UNL A   1      42.609  24.741  28.321  1.00  0.00     0.031 A 
ATOM     25  C   UNL A   1      45.153  30.004  31.184  1.00  0.00     0.049 A 
ATOM     26  C   UNL A   1      44.007  25.119  28.710  1.00  0.00     0.074 A 
ATOM     27  C   UNL A   1      46.398  30.121  31.774  1.00  0.00     0.029 A 
ATOM     28  N   UNL A   1      45.108  28.757  30.579  1.00  0.00    -0.354 N 
ATOM     29  N   UNL A   1      44.424  26.209  29.305  1.00  0.00    -0.248 NA
ATOM     30  C   UNL A   1      45.061  24.135  28.435  1.00  0.00     0.031 C 
ATOM     31  C   UNL A   1      47.132  28.971  31.468  1.00  0.00     0.029 A 
ATOM     32  C   UNL A   1      46.326  28.118  30.730  1.00  0.00     0.049 A 
ATOM     33  H   UNL A   1      44.327  28.382  30.112  1.00  0.00     0.167 HD
ATOM     34  C   UNL A   1      45.777  26.014  29.538  1.00  0.00     0.074 A 
ATOM     35  C   UNL A   1      46.115  24.714  28.994  1.00  0.00     0.031 C 
ATOM     36  C   UNL A   1      46.649  26.827  30.181  1.00  0.00     0.031 A 
BRANCH  23  37
ATOM     37  C   UNL A   1      44.303  32.319  31.739  1.00  0.00    -0.014 A 
ATOM     38  C   UNL A   1      44.792  33.379  30.959  1.00  0.00     0.009 A 
ATOM     39  C   UNL A   1      44.005  32.545  33.090  1.00  0.00     0.009 A 
ATOM     40  C   UNL A   1      45.010  34.634  31.530  1.00  0.00     0.001 A 
ATOM     41  C   UNL A   1      44.203  33.808  33.653  1.00  0.00     0.001 A 
ATOM     42  C   UNL A   1      44.713  34.847  32.875  1.00  0.00     0.000 A 
ENDBRANCH  23  37
BRANCH  24  43
ATOM     43  C   UNL A   1      42.350  23.475  27.588  1.00  0.00    -0.014 A 
ATOM     44  C   UNL A   1      41.949  22.309  28.253  1.00  0.00     0.009 A 
ATOM     45  C   UNL A   1      42.571  23.423  26.203  1.00  0.00     0.009 A 
ATOM     46  C   UNL A   1      41.793  21.112  27.545  1.00  0.00     0.001 A 
ATOM     47  C   UNL A   1      42.394  22.233  25.495  1.00  0.00     0.001 A 
ATOM     48  C   UNL A   1      42.015  21.075  26.168  1.00  0.00     0.000 A 
ENDBRANCH  24  43
BRANCH  36  49
ATOM     49  C   UNL A   1      48.041  26.312  30.378  1.00  0.00    -0.014 A 
ATOM     50  C   UNL A   1      49.019  26.455  29.384  1.00  0.00     0.009 A 
ATOM     51  C   UNL A   1      48.388  25.716  31.601  1.00  0.00     0.009 A 
ATOM     52  C   UNL A   1      50.316  25.991  29.606  1.00  0.00     0.001 A 
ATOM     53  C   UNL A   1      49.691  25.280  31.830  1.00  0.00     0.001 A 
ATOM     54  C   UNL A   1      50.653  25.412  30.830  1.00  0.00     0.000 A 
ENDBRANCH  36  49
ENDBRANCH  10  11
ENDBRANCH   3   5
ENDBRANCH   2   3
ENDBRANCH   1   2
BRANCH   1  55
ATOM     55  C   UNL A   1      35.115  33.672  29.827  1.00  0.00     0.275 C 
BRANCH  55  56
ATOM     56  O   UNL A   1      35.967  32.893  30.679  1.00  0.00    -0.458 OA
BRANCH  56  57
ATOM     57  C   UNL A   1      35.420  32.562  31.878  1.00  0.00     0.338 C 
ATOM     58  O   UNL A   1      34.255  32.301  32.109  1.00  0.00    -0.246 OA
BRANCH  57  59
ATOM     59  C   UNL A   1      36.485  32.471  32.896  1.00  0.00     0.067 A 
ATOM     60  C   UNL A   1      37.550  31.579  32.680  1.00  0.00     0.025 A 
ATOM     61  C   UNL A   1      36.381  33.180  34.093  1.00  0.00     0.101 A 
ATOM     62  C   UNL A   1      38.569  31.436  33.634  1.00  0.00    -0.011 A 
ATOM     63  C   UNL A   1      37.376  33.006  35.059  1.00  0.00     0.270 A 
ATOM     64  C   UNL A   1      38.490  32.199  34.809  1.00  0.00     0.094 A 
BRANCH  62  65
ATOM     65  C   UNL A   1      39.613  30.408  33.519  1.00  0.00    -0.018 A 
ATOM     66  C   UNL A   1      39.396  29.142  32.965  1.00  0.00     0.009 A 
ATOM     67  C   UNL A   1      40.902  30.710  33.994  1.00  0.00     0.009 A 
ATOM     68  C   UNL A   1      40.439  28.208  32.888  1.00  0.00     0.014 A 
ATOM     69  C   UNL A   1      41.940  29.785  33.922  1.00  0.00     0.014 A 
ATOM     70  C   UNL A   1      41.719  28.519  33.373  1.00  0.00     0.056 A 
BRANCH  70  71
ATOM     71  C   UNL A   1      42.834  27.504  33.319  1.00  0.00     0.416 C 
ATOM     72  F   UNL A   1      42.618  26.449  34.150  1.00  0.00    -0.166 F 
ATOM     73  F   UNL A   1      43.003  26.977  32.076  1.00  0.00    -0.166 F 
ATOM     74  F   UNL A   1      44.048  28.014  33.675  1.00  0.00    -0.166 F 
ENDBRANCH  70  71
ENDBRANCH  62  65
BRANCH  63  75
ATOM     75  N   UNL A   1      37.197  33.563  36.403  1.00  0.00     0.062 N 
ATOM     76  O   UNL A   1      38.180  34.092  36.941  1.00  0.00    -0.258 OA
ATOM     77  O   UNL A   1      36.084  33.437  36.932  1.00  0.00    -0.258 OA
ENDBRANCH  63  75
ENDBRANCH  57  59
ENDBRANCH  56  57
ENDBRANCH  55  56
ENDBRANCH   1  55
TORSDOF 14
ENDMDL
MODEL 2
REMARK VINA RESULT:      -8.7      4.699      9.988
REMARK SMILES O=C(OCCOC(=O)c1cc(-c2ccc(C(F)(F)F)cc2)cc([N+](=O)[O-])c1)c1ccc(-c2c3nc(c(-c4ccccc4)c4ccc([nH]4)c(-c4ccccc4)c4nc(c(-c5ccccc5)c5ccc2[nH]5)C=C4)C=C3)cc1
REMARK SMILES IDX 4 1 3 2 2 3 1 4 28 5 29 6 75 7 30 8 74 9 31 10 32 11 33 12
REMARK SMILES IDX 68 13 34 14 73 15 67 16 69 17 35 18 72 19 66 20 65 21 36 23
REMARK SMILES IDX 58 24 43 25 57 26 44 27 47 28 56 29 70 30 45 31 46 32 55 34
REMARK SMILES IDX 71 35 48 36 37 37 38 38 42 39 39 40 41 41 40 42 59 43 60 44
REMARK SMILES IDX 64 45 61 46 63 47 62 48 49 49 50 50 54 51 51 52 53 53 52 54
REMARK SMILES IDX 5 55 6 56 7 57 8 58 9 59 10 60 27 61 11 62 23 63 22 64 12 65
REMARK SMILES IDX 13 66 21 67 14 68 20 69 15 70 16 71 17 72 18 73 19 74 24 75
REMARK SMILES IDX 25 76 26 77
REMARK H PARENT 69 22 47 33
REMARK Flexibility Score: inf
ROOT
ATOM      1  C   UNL A   1      37.406  22.144  24.953  1.00  0.00     0.275 C 
ENDROOT
BRANCH   1   2
ATOM      2  O   UNL A   1      37.855  23.265  25.734  1.00  0.00    -0.458 OA
BRANCH   2   3
ATOM      3  C   UNL A   1      38.998  23.435  26.436  1.00  0.00     0.338 C 
ATOM      4  O   UNL A   1      39.672  22.444  26.716  1.00  0.00    -0.246 OA
BRANCH   3   5
ATOM      5  C   UNL A   1      39.422  24.741  27.035  1.00  0.00     0.060 A 
ATOM      6  C   UNL A   1      40.215  25.718  26.431  1.00  0.00     0.016 A 
ATOM      7  C   UNL A   1      38.973  24.985  28.346  1.00  0.00     0.016 A 
ATOM      8  C   UNL A   1      40.487  26.932  27.076  1.00  0.00     0.010 A 
ATOM      9  C   UNL A   1      39.228  26.197  28.991  1.00  0.00     0.010 A 
ATOM     10  C   UNL A   1      39.991  27.183  28.356  1.00  0.00    -0.014 A 
BRANCH  10  11
ATOM     11  C   UNL A   1      40.376  28.405  29.095  1.00  0.00     0.031 A 
ATOM     12  C   UNL A   1      41.665  28.404  29.859  1.00  0.00     0.074 A 
ATOM     13  C   UNL A   1      39.591  29.499  29.097  1.00  0.00     0.049 A 
ATOM     14  N   UNL A   1      42.165  29.335  30.628  1.00  0.00    -0.248 NA
ATOM     15  C   UNL A   1      42.521  27.214  29.713  1.00  0.00     0.031 C 
ATOM     16  C   UNL A   1      38.379  29.680  28.302  1.00  0.00     0.029 A 
ATOM     17  N   UNL A   1      39.682  30.657  29.828  1.00  0.00    -0.354 N 
ATOM     18  C   UNL A   1      43.411  28.867  31.017  1.00  0.00     0.074 A 
ATOM     19  C   UNL A   1      43.561  27.538  30.466  1.00  0.00     0.031 C 
ATOM     20  C   UNL A   1      37.787  30.832  28.664  1.00  0.00     0.029 A 
ATOM     21  C   UNL A   1      38.566  31.452  29.725  1.00  0.00     0.049 A 
ATOM     22  H   UNL A   1      40.469  30.894  30.372  1.00  0.00     0.167 HD
ATOM     23  C   UNL A   1      44.360  29.507  31.733  1.00  0.00     0.031 A 
ATOM     24  C   UNL A   1      38.195  32.531  30.439  1.00  0.00     0.031 A 
ATOM     25  C   UNL A   1      44.193  30.817  32.296  1.00  0.00     0.049 A 
ATOM     26  C   UNL A   1      39.161  33.105  31.431  1.00  0.00     0.074 A 
ATOM     27  C   UNL A   1      45.112  31.586  32.986  1.00  0.00     0.029 A 
ATOM     28  N   UNL A   1      43.010  31.539  32.256  1.00  0.00    -0.354 N 
ATOM     29  N   UNL A   1      40.370  32.693  31.728  1.00  0.00    -0.248 NA
ATOM     30  C   UNL A   1      38.737  34.313  32.149  1.00  0.00     0.031 C 
ATOM     31  C   UNL A   1      44.464  32.745  33.423  1.00  0.00     0.029 A 
ATOM     32  C   UNL A   1      43.156  32.720  32.962  1.00  0.00     0.049 A 
ATOM     33  H   UNL A   1      42.188  31.254  31.796  1.00  0.00     0.167 HD
ATOM     34  C   UNL A   1      40.877  33.631  32.615  1.00  0.00     0.074 A 
ATOM     35  C   UNL A   1      39.834  34.615  32.830  1.00  0.00     0.031 C 
ATOM     36  C   UNL A   1      42.111  33.687  33.170  1.00  0.00     0.031 A 
BRANCH  23  37
ATOM     37  C   UNL A   1      45.657  28.786  31.945  1.00  0.00    -0.014 A 
ATOM     38  C   UNL A   1      46.713  28.915  31.028  1.00  0.00     0.009 A 
ATOM     39  C   UNL A   1      45.831  27.981  33.079  1.00  0.00     0.009 A 
ATOM     40  C   UNL A   1      47.909  28.223  31.227  1.00  0.00     0.001 A 
ATOM     41  C   UNL A   1      47.036  27.307  33.287  1.00  0.00     0.001 A 
ATOM     42  C   UNL A   1      48.070  27.422  32.357  1.00  0.00     0.000 A 
ENDBRANCH  23  37
BRANCH  24  43
ATOM     43  C   UNL A   1      36.835  33.111  30.296  1.00  0.00    -0.014 A 
ATOM     44  C   UNL A   1      36.492  33.924  29.207  1.00  0.00     0.009 A 
ATOM     45  C   UNL A   1      35.882  32.892  31.304  1.00  0.00     0.009 A 
ATOM     46  C   UNL A   1      35.229  34.521  29.144  1.00  0.00     0.001 A 
ATOM     47  C   UNL A   1      34.615  33.472  31.227  1.00  0.00     0.001 A 
ATOM     48  C   UNL A   1      34.292  34.295  30.152  1.00  0.00     0.000 A 
ENDBRANCH  24  43
BRANCH  36  49
ATOM     49  C   UNL A   1      42.421  34.879  34.022  1.00  0.00    -0.014 A 
ATOM     50  C   UNL A   1      42.270  34.839  35.415  1.00  0.00     0.009 A 
ATOM     51  C   UNL A   1      42.917  36.046  33.418  1.00  0.00     0.009 A 
ATOM     52  C   UNL A   1      42.594  35.956  36.187  1.00  0.00     0.001 A 
ATOM     53  C   UNL A   1      43.266  37.150  34.195  1.00  0.00     0.001 A 
ATOM     54  C   UNL A   1      43.098  37.105  35.578  1.00  0.00     0.000 A 
ENDBRANCH  36  49
ENDBRANCH  10  11
ENDBRANCH   3   5
ENDBRANCH   2   3
ENDBRANCH   1   2
BRANCH   1  55
ATOM     55  C   UNL A   1      35.967  22.252  24.444  1.00  0.00     0.275 C 
BRANCH  55  56
ATOM     56  O   UNL A   1      35.690  23.475  23.746  1.00  0.00    -0.458 OA
BRANCH  56  57
ATOM     57  C   UNL A   1      34.458  23.535  23.174  1.00  0.00     0.338 C 
ATOM     58  O   UNL A   1      34.139  23.133  22.071  1.00  0.00    -0.246 OA
BRANCH  57  59
ATOM     59  C   UNL A   1      33.495  24.098  24.139  1.00  0.00     0.067 A 
ATOM     60  C   UNL A   1      33.663  25.427  24.564  1.00  0.00     0.025 A 
ATOM     61  C   UNL A   1      32.500  23.292  24.695  1.00  0.00     0.101 A 
ATOM     62  C   UNL A   1      32.789  25.995  25.504  1.00  0.00    -0.011 A 
ATOM     63  C   UNL A   1      31.656  23.848  25.661  1.00  0.00     0.270 A 
ATOM     64  C   UNL A   1      31.753  25.198  26.013  1.00  0.00     0.094 A 
BRANCH  62  65
ATOM     65  C   UNL A   1      33.021  27.323  26.087  1.00  0.00    -0.018 A 
ATOM     66  C   UNL A   1      32.014  28.096  26.678  1.00  0.00     0.009 A 
ATOM     67  C   UNL A   1      34.324  27.852  26.050  1.00  0.00     0.009 A 
ATOM     68  C   UNL A   1      32.306  29.358  27.215  1.00  0.00     0.014 A 
ATOM     69  C   UNL A   1      34.618  29.105  26.579  1.00  0.00     0.014 A 
ATOM     70  C   UNL A   1      33.609  29.877  27.164  1.00  0.00     0.056 A 
BRANCH  70  71
ATOM     71  C   UNL A   1      33.918  31.247  27.713  1.00  0.00     0.416 C 
ATOM     72  F   UNL A   1      34.062  31.245  29.067  1.00  0.00    -0.166 F 
ATOM     73  F   UNL A   1      35.072  31.766  27.212  1.00  0.00    -0.166 F 
ATOM     74  F   UNL A   1      32.949  32.169  27.445  1.00  0.00    -0.166 F 
ENDBRANCH  70  71
ENDBRANCH  62  65
BRANCH  63  75
ATOM     75  N   UNL A   1      30.742  22.986  26.418  1.00  0.00     0.062 N 
ATOM     76  O   UNL A   1      30.479  23.312  27.584  1.00  0.00    -0.258 OA
ATOM     77  O   UNL A   1      30.320  21.966  25.856  1.00  0.00    -0.258 OA
ENDBRANCH  63  75
ENDBRANCH  57  59
ENDBRANCH  56  57
ENDBRANCH  55  56
ENDBRANCH   1  55
TORSDOF 14
ENDMDL
MODEL 3
REMARK VINA RESULT:      -8.6      5.256      8.218
REMARK SMILES O=C(OCCOC(=O)c1cc(-c2ccc(C(F)(F)F)cc2)cc([N+](=O)[O-])c1)c1ccc(-c2c3nc(c(-c4ccccc4)c4ccc([nH]4)c(-c4ccccc4)c4nc(c(-c5ccccc5)c5ccc2[nH]5)C=C4)C=C3)cc1
REMARK SMILES IDX 4 1 3 2 2 3 1 4 28 5 29 6 75 7 30 8 74 9 31 10 32 11 33 12
REMARK SMILES IDX 68 13 34 14 73 15 67 16 69 17 35 18 72 19 66 20 65 21 36 23
REMARK SMILES IDX 58 24 43 25 57 26 44 27 47 28 56 29 70 30 45 31 46 32 55 34
REMARK SMILES IDX 71 35 48 36 37 37 38 38 42 39 39 40 41 41 40 42 59 43 60 44
REMARK SMILES IDX 64 45 61 46 63 47 62 48 49 49 50 50 54 51 51 52 53 53 52 54
REMARK SMILES IDX 5 55 6 56 7 57 8 58 9 59 10 60 27 61 11 62 23 63 22 64 12 65
REMARK SMILES IDX 13 66 21 67 14 68 20 69 15 70 16 71 17 72 18 73 19 74 24 75
REMARK SMILES IDX 25 76 26 77
REMARK H PARENT 69 22 47 33
REMARK Flexibility Score: inf
ROOT
ATOM      1  C   UNL A   1      33.173  28.988  26.538  1.00  0.00     0.275 C 
ENDROOT
BRANCH   1   2
ATOM      2  O   UNL A   1      33.496  29.852  27.641  1.00  0.00    -0.458 OA
BRANCH   2   3
ATOM      3  C   UNL A   1      34.579  30.637  27.843  1.00  0.00     0.338 C 
ATOM      4  O   UNL A   1      34.524  31.819  27.507  1.00  0.00    -0.246 OA
BRANCH   3   5
ATOM      5  C   UNL A   1      35.906  30.122  28.311  1.00  0.00     0.060 A 
ATOM      6  C   UNL A   1      36.216  29.650  29.589  1.00  0.00     0.016 A 
ATOM      7  C   UNL A   1      36.936  30.130  27.353  1.00  0.00     0.016 A 
ATOM      8  C   UNL A   1      37.484  29.131  29.882  1.00  0.00     0.010 A 
ATOM      9  C   UNL A   1      38.198  29.603  27.633  1.00  0.00     0.010 A 
ATOM     10  C   UNL A   1      38.480  29.097  28.906  1.00  0.00    -0.014 A 
BRANCH  10  11
ATOM     11  C   UNL A   1      39.857  28.670  29.239  1.00  0.00     0.031 A 
ATOM     12  C   UNL A   1      40.800  29.680  29.820  1.00  0.00     0.074 A 
ATOM     13  C   UNL A   1      40.269  27.407  29.023  1.00  0.00     0.049 A 
ATOM     14  N   UNL A   1      42.064  29.544  30.122  1.00  0.00    -0.248 NA
ATOM     15  C   UNL A   1      40.241  31.006  30.133  1.00  0.00     0.031 C 
ATOM     16  C   UNL A   1      39.427  26.298  28.583  1.00  0.00     0.029 A 
ATOM     17  N   UNL A   1      41.523  26.854  29.113  1.00  0.00    -0.354 N 
ATOM     18  C   UNL A   1      42.438  30.746  30.704  1.00  0.00     0.074 A 
ATOM     19  C   UNL A   1      41.293  31.627  30.644  1.00  0.00     0.031 C 
ATOM     20  C   UNL A   1      40.204  25.227  28.342  1.00  0.00     0.029 A 
ATOM     21  C   UNL A   1      41.592  25.583  28.593  1.00  0.00     0.049 A 
ATOM     22  H   UNL A   1      42.294  27.321  29.510  1.00  0.00     0.167 HD
ATOM     23  C   UNL A   1      43.619  31.067  31.277  1.00  0.00     0.031 A 
ATOM     24  C   UNL A   1      42.660  24.814  28.309  1.00  0.00     0.031 A 
ATOM     25  C   UNL A   1      44.758  30.195  31.312  1.00  0.00     0.049 A 
ATOM     26  C   UNL A   1      44.020  25.290  28.723  1.00  0.00     0.074 A 
ATOM     27  C   UNL A   1      45.983  30.395  31.920  1.00  0.00     0.029 A 
ATOM     28  N   UNL A   1      44.816  28.962  30.681  1.00  0.00    -0.354 N 
ATOM     29  N   UNL A   1      44.345  26.396  29.346  1.00  0.00    -0.248 NA
ATOM     30  C   UNL A   1      45.150  24.396  28.442  1.00  0.00     0.031 C 
ATOM     31  C   UNL A   1      46.807  29.311  31.600  1.00  0.00     0.029 A 
ATOM     32  C   UNL A   1      46.078  28.415  30.834  1.00  0.00     0.049 A 
ATOM     33  H   UNL A   1      44.072  28.538  30.196  1.00  0.00     0.167 HD
ATOM     34  C   UNL A   1      45.706  26.300  29.593  1.00  0.00     0.074 A 
ATOM     35  C   UNL A   1      46.150  25.043  29.026  1.00  0.00     0.031 C 
ATOM     36  C   UNL A   1      46.506  27.165  30.263  1.00  0.00     0.031 A 
BRANCH  23  37
ATOM     37  C   UNL A   1      43.725  32.425  31.903  1.00  0.00    -0.014 A 
ATOM     38  C   UNL A   1      44.153  33.534  31.154  1.00  0.00     0.009 A 
ATOM     39  C   UNL A   1      43.382  32.602  33.250  1.00  0.00     0.009 A 
ATOM     40  C   UNL A   1      44.267  34.789  31.753  1.00  0.00     0.001 A 
ATOM     41  C   UNL A   1      43.476  33.864  33.841  1.00  0.00     0.001 A 
ATOM     42  C   UNL A   1      43.925  34.953  33.095  1.00  0.00     0.000 A 
ENDBRANCH  23  37
BRANCH  24  43
ATOM     43  C   UNL A   1      42.508  23.548  27.547  1.00  0.00    -0.014 A 
ATOM     44  C   UNL A   1      42.642  23.508  26.153  1.00  0.00     0.009 A 
ATOM     45  C   UNL A   1      42.162  22.370  28.228  1.00  0.00     0.009 A 
ATOM     46  C   UNL A   1      42.411  22.317  25.457  1.00  0.00     0.001 A 
ATOM     47  C   UNL A   1      41.953  21.178  27.533  1.00  0.00     0.001 A 
ATOM     48  C   UNL A   1      42.068  21.153  26.146  1.00  0.00     0.000 A 
ENDBRANCH  24  43
BRANCH  36  49
ATOM     49  C   UNL A   1      47.931  26.754  30.468  1.00  0.00    -0.014 A 
ATOM     50  C   UNL A   1      48.311  25.956  31.556  1.00  0.00     0.009 A 
ATOM     51  C   UNL A   1      48.899  27.135  29.525  1.00  0.00     0.009 A 
ATOM     52  C   UNL A   1      49.642  25.564  31.706  1.00  0.00     0.001 A 
ATOM     53  C   UNL A   1      50.222  26.718  29.663  1.00  0.00     0.001 A 
ATOM     54  C   UNL A   1      50.593  25.938  30.756  1.00  0.00     0.000 A 
ENDBRANCH  36  49
ENDBRANCH  10  11
ENDBRANCH   3   5
ENDBRANCH   2   3
ENDBRANCH   1   2
BRANCH   1  55
ATOM     55  C   UNL A   1      31.933  28.116  26.749  1.00  0.00     0.275 C 
BRANCH  55  56
ATOM     56  O   UNL A   1      31.660  27.224  25.659  1.00  0.00    -0.458 OA
BRANCH  56  57
ATOM     57  C   UNL A   1      31.692  25.905  25.984  1.00  0.00     0.338 C 
ATOM     58  O   UNL A   1      31.398  25.402  27.051  1.00  0.00    -0.246 OA
BRANCH  57  59
ATOM     59  C   UNL A   1      32.066  25.115  24.794  1.00  0.00     0.067 A 
ATOM     60  C   UNL A   1      32.270  23.732  24.940  1.00  0.00     0.025 A 
ATOM     61  C   UNL A   1      32.310  25.747  23.575  1.00  0.00     0.101 A 
ATOM     62  C   UNL A   1      32.657  22.946  23.844  1.00  0.00    -0.011 A 
ATOM     63  C   UNL A   1      32.734  24.969  22.494  1.00  0.00     0.270 A 
ATOM     64  C   UNL A   1      32.841  23.579  22.605  1.00  0.00     0.094 A 
BRANCH  62  65
ATOM     65  C   UNL A   1      33.030  21.532  23.985  1.00  0.00    -0.018 A 
ATOM     66  C   UNL A   1      34.115  21.089  24.749  1.00  0.00     0.009 A 
ATOM     67  C   UNL A   1      32.255  20.567  23.315  1.00  0.00     0.009 A 
ATOM     68  C   UNL A   1      34.415  19.722  24.838  1.00  0.00     0.014 A 
ATOM     69  C   UNL A   1      32.550  19.209  23.399  1.00  0.00     0.014 A 
ATOM     70  C   UNL A   1      33.638  18.770  24.158  1.00  0.00     0.056 A 
BRANCH  70  71
ATOM     71  C   UNL A   1      33.978  17.302  24.229  1.00  0.00     0.416 C 
ATOM     72  F   UNL A   1      33.790  16.666  23.040  1.00  0.00    -0.166 F 
ATOM     73  F   UNL A   1      35.276  17.080  24.574  1.00  0.00    -0.166 F 
ATOM     74  F   UNL A   1      33.229  16.617  25.139  1.00  0.00    -0.166 F 
ENDBRANCH  70  71
ENDBRANCH  62  65
BRANCH  63  75
ATOM     75  N   UNL A   1      33.202  25.615  21.265  1.00  0.00     0.062 N 
ATOM     76  O   UNL A   1      33.095  24.982  20.205  1.00  0.00    -0.258 OA
ATOM     77  O   UNL A   1      33.710  26.741  21.367  1.00  0.00    -0.258 OA
ENDBRANCH  63  75
ENDBRANCH  57  59
ENDBRANCH  56  57
ENDBRANCH  55  56
ENDBRANCH   1  55
TORSDOF 14
ENDMDL
