MODEL 1
REMARK VINA RESULT:      -9.6      0.000      0.000
REMARK SMILES CC1(C(=O)N2CC[C@H](C(=O)OCCOC(=O)c3ccc(-c4c5nc(c(-c6ccccc6)c6ccc([nH]6)c(-c6ccccc6)c6nc(c(-c7ccccc7)c7ccc4[nH]7)C=C6)C=C5)cc3)C2)CCCC1
REMARK SMILES IDX 12 1 11 2 9 3 10 4 8 5 5 6 6 7 65 8 7 9 3 10 4 11 2 12 1 13
REMARK SMILES IDX 66 14 69 15 67 16 68 17 13 18 14 19 15 20 16 21 17 22 18 23
REMARK SMILES IDX 64 24 19 25 63 26 20 27 21 28 22 29 57 30 23 31 62 32 56 33
REMARK SMILES IDX 58 34 24 35 61 36 55 37 54 38 25 40 47 41 32 42 46 43 33 44
REMARK SMILES IDX 36 45 45 46 59 47 34 48 35 49 44 51 60 52 37 53 26 54 27 55
REMARK SMILES IDX 31 56 28 57 30 58 29 59 48 60 49 61 53 62 50 63 52 64 51 65
REMARK SMILES IDX 38 66 39 67 43 68 40 69 42 70 41 71
REMARK H PARENT 58 39 36 50
REMARK Flexibility Score: inf
ROOT
ATOM      1  C   UNL A   1      32.631  29.398  25.393  1.00  0.00     0.274 C 
ENDROOT
BRANCH   1   2
ATOM      2  O   UNL A   1      33.830  28.715  24.979  1.00  0.00    -0.462 OA
BRANCH   2   3
ATOM      3  C   UNL A   1      33.705  27.769  24.014  1.00  0.00     0.310 C 
ATOM      4  O   UNL A   1      34.055  27.906  22.849  1.00  0.00    -0.252 OA
BRANCH   3   5
ATOM      5  C   UNL A   1      33.084  26.489  24.525  1.00  0.00     0.120 C 
ATOM      6  N   UNL A   1      33.964  24.403  25.194  1.00  0.00    -0.341 N 
ATOM      7  C   UNL A   1      32.912  24.126  24.239  1.00  0.00     0.120 C 
ATOM      8  C   UNL A   1      33.978  25.810  25.552  1.00  0.00     0.134 C 
ATOM      9  C   UNL A   1      32.798  25.419  23.465  1.00  0.00     0.038 C 
BRANCH   6  10
ATOM     10  C   UNL A   1      34.759  23.513  25.879  1.00  0.00     0.228 C 
ATOM     11  O   UNL A   1      34.502  23.229  27.050  1.00  0.00    -0.274 OA
BRANCH  10  12
ATOM     12  C   UNL A   1      36.098  23.114  25.223  1.00  0.00     0.047 C 
ATOM     13  C   UNL A   1      36.185  23.375  23.715  1.00  0.00     0.022 C 
ATOM     14  C   UNL A   1      36.419  21.631  25.508  1.00  0.00     0.016 C 
ATOM     15  C   UNL A   1      37.229  23.813  26.005  1.00  0.00     0.016 C 
ATOM     16  C   UNL A   1      37.942  21.536  25.507  1.00  0.00     0.001 C 
ATOM     17  C   UNL A   1      38.457  22.927  25.859  1.00  0.00     0.001 C 
ENDBRANCH  10  12
ENDBRANCH   6  10
ENDBRANCH   3   5
ENDBRANCH   2   3
ENDBRANCH   1   2
BRANCH   1  18
ATOM     18  C   UNL A   1      32.603  29.576  26.914  1.00  0.00     0.275 C 
BRANCH  18  19
ATOM     19  O   UNL A   1      33.898  29.334  27.498  1.00  0.00    -0.458 OA
BRANCH  19  20
ATOM     20  C   UNL A   1      34.528  30.434  27.973  1.00  0.00     0.338 C 
ATOM     21  O   UNL A   1      34.042  31.528  28.203  1.00  0.00    -0.246 OA
BRANCH  20  22
ATOM     22  C   UNL A   1      35.910  30.092  28.342  1.00  0.00     0.060 A 
ATOM     23  C   UNL A   1      36.882  30.159  27.341  1.00  0.00     0.016 A 
ATOM     24  C   UNL A   1      36.237  29.628  29.615  1.00  0.00     0.016 A 
ATOM     25  C   UNL A   1      38.189  29.766  27.601  1.00  0.00     0.010 A 
ATOM     26  C   UNL A   1      37.553  29.228  29.878  1.00  0.00     0.010 A 
ATOM     27  C   UNL A   1      38.533  29.286  28.870  1.00  0.00    -0.014 A 
BRANCH  27  28
ATOM     28  C   UNL A   1      39.908  28.791  29.106  1.00  0.00     0.031 A 
ATOM     29  C   UNL A   1      40.912  29.672  29.789  1.00  0.00     0.074 A 
ATOM     30  C   UNL A   1      40.238  27.534  28.752  1.00  0.00     0.049 A 
ATOM     31  N   UNL A   1      42.178  29.447  30.032  1.00  0.00    -0.248 NA
ATOM     32  C   UNL A   1      40.427  30.977  30.268  1.00  0.00     0.031 C 
ATOM     33  C   UNL A   1      39.331  26.560  28.146  1.00  0.00     0.029 A 
ATOM     34  N   UNL A   1      41.429  26.864  28.862  1.00  0.00    -0.354 N 
ATOM     35  C   UNL A   1      42.647  30.588  30.670  1.00  0.00     0.074 A 
ATOM     36  C   UNL A   1      41.533  31.507  30.770  1.00  0.00     0.031 C 
ATOM     37  C   UNL A   1      39.999  25.411  27.943  1.00  0.00     0.029 A 
ATOM     38  C   UNL A   1      41.386  25.587  28.359  1.00  0.00     0.049 A 
ATOM     39  H   UNL A   1      42.237  27.259  29.263  1.00  0.00     0.167 HD
ATOM     40  C   UNL A   1      43.893  30.845  31.130  1.00  0.00     0.031 A 
ATOM     41  C   UNL A   1      42.364  24.672  28.223  1.00  0.00     0.031 A 
ATOM     42  C   UNL A   1      45.000  29.931  31.035  1.00  0.00     0.049 A 
ATOM     43  C   UNL A   1      43.757  25.012  28.674  1.00  0.00     0.074 A 
ATOM     44  C   UNL A   1      46.304  30.105  31.463  1.00  0.00     0.029 A 
ATOM     45  N   UNL A   1      44.929  28.667  30.471  1.00  0.00    -0.354 N 
ATOM     46  N   UNL A   1      44.195  26.105  29.251  1.00  0.00    -0.248 NA
ATOM     47  C   UNL A   1      44.792  23.993  28.449  1.00  0.00     0.031 C 
ATOM     48  C   UNL A   1      47.033  28.960  31.124  1.00  0.00     0.029 A 
ATOM     49  C   UNL A   1      46.170  28.056  30.524  1.00  0.00     0.049 A 
ATOM     50  H   UNL A   1      44.116  28.263  30.090  1.00  0.00     0.167 HD
ATOM     51  C   UNL A   1      45.549  25.899  29.474  1.00  0.00     0.074 A 
ATOM     52  C   UNL A   1      45.858  24.571  28.985  1.00  0.00     0.031 C 
ATOM     53  C   UNL A   1      46.457  26.735  30.032  1.00  0.00     0.031 A 
BRANCH  40  54
ATOM     54  C   UNL A   1      44.137  32.195  31.742  1.00  0.00    -0.014 A 
ATOM     55  C   UNL A   1      43.981  32.410  33.119  1.00  0.00     0.009 A 
ATOM     56  C   UNL A   1      44.557  33.259  30.928  1.00  0.00     0.009 A 
ATOM     57  C   UNL A   1      44.217  33.673  33.667  1.00  0.00     0.001 A 
ATOM     58  C   UNL A   1      44.813  34.514  31.481  1.00  0.00     0.001 A 
ATOM     59  C   UNL A   1      44.636  34.722  32.848  1.00  0.00     0.000 A 
ENDBRANCH  40  54
BRANCH  41  60
ATOM     60  C   UNL A   1      42.071  23.359  27.595  1.00  0.00    -0.014 A 
ATOM     61  C   UNL A   1      41.506  22.317  28.345  1.00  0.00     0.009 A 
ATOM     62  C   UNL A   1      42.369  23.139  26.240  1.00  0.00     0.009 A 
ATOM     63  C   UNL A   1      41.264  21.074  27.754  1.00  0.00     0.001 A 
ATOM     64  C   UNL A   1      42.101  21.904  25.647  1.00  0.00     0.001 A 
ATOM     65  C   UNL A   1      41.556  20.870  26.407  1.00  0.00     0.000 A 
ENDBRANCH  41  60
BRANCH  53  66
ATOM     66  C   UNL A   1      47.862  26.224  30.167  1.00  0.00    -0.014 A 
ATOM     67  C   UNL A   1      48.751  26.250  29.081  1.00  0.00     0.009 A 
ATOM     68  C   UNL A   1      48.309  25.741  31.407  1.00  0.00     0.009 A 
ATOM     69  C   UNL A   1      50.055  25.774  29.229  1.00  0.00     0.001 A 
ATOM     70  C   UNL A   1      49.621  25.287  31.556  1.00  0.00     0.001 A 
ATOM     71  C   UNL A   1      50.489  25.296  30.466  1.00  0.00     0.000 A 
ENDBRANCH  53  66
ENDBRANCH  27  28
ENDBRANCH  20  22
ENDBRANCH  19  20
ENDBRANCH  18  19
ENDBRANCH   1  18
TORSDOF 13
ENDMDL
MODEL 2
REMARK VINA RESULT:      -9.3      2.902      6.064
REMARK SMILES CC1(C(=O)N2CC[C@H](C(=O)OCCOC(=O)c3ccc(-c4c5nc(c(-c6ccccc6)c6ccc([nH]6)c(-c6ccccc6)c6nc(c(-c7ccccc7)c7ccc4[nH]7)C=C6)C=C5)cc3)C2)CCCC1
REMARK SMILES IDX 12 1 11 2 9 3 10 4 8 5 5 6 6 7 65 8 7 9 3 10 4 11 2 12 1 13
REMARK SMILES IDX 66 14 69 15 67 16 68 17 13 18 14 19 15 20 16 21 17 22 18 23
REMARK SMILES IDX 64 24 19 25 63 26 20 27 21 28 22 29 57 30 23 31 62 32 56 33
REMARK SMILES IDX 58 34 24 35 61 36 55 37 54 38 25 40 47 41 32 42 46 43 33 44
REMARK SMILES IDX 36 45 45 46 59 47 34 48 35 49 44 51 60 52 37 53 26 54 27 55
REMARK SMILES IDX 31 56 28 57 30 58 29 59 48 60 49 61 53 62 50 63 52 64 51 65
REMARK SMILES IDX 38 66 39 67 43 68 40 69 42 70 41 71
REMARK H PARENT 58 39 36 50
REMARK Flexibility Score: inf
ROOT
ATOM      1  C   UNL A   1      34.403  34.426  28.881  1.00  0.00     0.274 C 
ENDROOT
BRANCH   1   2
ATOM      2  O   UNL A   1      33.927  34.139  30.210  1.00  0.00    -0.462 OA
BRANCH   2   3
ATOM      3  C   UNL A   1      33.554  35.193  30.979  1.00  0.00     0.310 C 
ATOM      4  O   UNL A   1      32.914  36.158  30.582  1.00  0.00    -0.252 OA
BRANCH   3   5
ATOM      5  C   UNL A   1      34.009  35.060  32.415  1.00  0.00     0.120 C 
ATOM      6  N   UNL A   1      35.957  34.205  33.437  1.00  0.00    -0.341 N 
ATOM      7  C   UNL A   1      34.832  33.581  34.097  1.00  0.00     0.120 C 
ATOM      8  C   UNL A   1      35.511  35.258  32.542  1.00  0.00     0.134 C 
ATOM      9  C   UNL A   1      33.720  33.710  33.082  1.00  0.00     0.038 C 
BRANCH   6  10
ATOM     10  C   UNL A   1      37.300  34.044  33.690  1.00  0.00     0.228 C 
ATOM     11  O   UNL A   1      37.959  34.978  34.150  1.00  0.00    -0.274 OA
BRANCH  10  12
ATOM     12  C   UNL A   1      37.975  32.773  33.133  1.00  0.00     0.047 C 
ATOM     13  C   UNL A   1      37.792  32.547  31.627  1.00  0.00     0.022 C 
ATOM     14  C   UNL A   1      37.494  31.523  33.903  1.00  0.00     0.016 C 
ATOM     15  C   UNL A   1      39.462  32.814  33.543  1.00  0.00     0.016 C 
ATOM     16  C   UNL A   1      38.654  30.533  33.837  1.00  0.00     0.001 C 
ATOM     17  C   UNL A   1      39.915  31.365  33.641  1.00  0.00     0.001 C 
ENDBRANCH  10  12
ENDBRANCH   6  10
ENDBRANCH   3   5
ENDBRANCH   2   3
ENDBRANCH   1   2
BRANCH   1  18
ATOM     18  C   UNL A   1      34.591  33.135  28.078  1.00  0.00     0.275 C 
BRANCH  18  19
ATOM     19  O   UNL A   1      34.701  31.987  28.942  1.00  0.00    -0.458 OA
BRANCH  19  20
ATOM     20  C   UNL A   1      34.708  30.791  28.308  1.00  0.00     0.338 C 
ATOM     21  O   UNL A   1      33.817  30.300  27.639  1.00  0.00    -0.246 OA
BRANCH  20  22
ATOM     22  C   UNL A   1      36.047  30.190  28.403  1.00  0.00     0.060 A 
ATOM     23  C   UNL A   1      36.423  29.636  29.628  1.00  0.00     0.016 A 
ATOM     24  C   UNL A   1      36.954  30.245  27.345  1.00  0.00     0.016 A 
ATOM     25  C   UNL A   1      37.704  29.130  29.810  1.00  0.00     0.010 A 
ATOM     26  C   UNL A   1      38.247  29.739  27.528  1.00  0.00     0.010 A 
ATOM     27  C   UNL A   1      38.631  29.188  28.764  1.00  0.00    -0.014 A 
BRANCH  27  28
ATOM     28  C   UNL A   1      40.016  28.724  29.001  1.00  0.00     0.031 A 
ATOM     29  C   UNL A   1      41.007  29.637  29.660  1.00  0.00     0.074 A 
ATOM     30  C   UNL A   1      40.368  27.467  28.671  1.00  0.00     0.049 A 
ATOM     31  N   UNL A   1      42.278  29.442  29.900  1.00  0.00    -0.248 NA
ATOM     32  C   UNL A   1      40.500  30.942  30.115  1.00  0.00     0.031 C 
ATOM     33  C   UNL A   1      39.477  26.463  28.090  1.00  0.00     0.029 A 
ATOM     34  N   UNL A   1      41.572  26.821  28.787  1.00  0.00    -0.354 N 
ATOM     35  C   UNL A   1      42.729  30.604  30.512  1.00  0.00     0.074 A 
ATOM     36  C   UNL A   1      41.598  31.504  30.600  1.00  0.00     0.031 C 
ATOM     37  C   UNL A   1      40.165  25.324  27.906  1.00  0.00     0.029 A 
ATOM     38  C   UNL A   1      41.551  25.534  28.310  1.00  0.00     0.049 A 
ATOM     39  H   UNL A   1      42.375  27.240  29.175  1.00  0.00     0.167 HD
ATOM     40  C   UNL A   1      43.973  30.894  30.959  1.00  0.00     0.031 A 
ATOM     41  C   UNL A   1      42.546  24.635  28.187  1.00  0.00     0.031 A 
ATOM     42  C   UNL A   1      45.096  30.000  30.875  1.00  0.00     0.049 A 
ATOM     43  C   UNL A   1      43.935  25.011  28.623  1.00  0.00     0.074 A 
ATOM     44  C   UNL A   1      46.399  30.207  31.293  1.00  0.00     0.029 A 
ATOM     45  N   UNL A   1      45.046  28.723  30.337  1.00  0.00    -0.354 N 
ATOM     46  N   UNL A   1      44.354  26.123  29.175  1.00  0.00    -0.248 NA
ATOM     47  C   UNL A   1      44.987  24.007  28.412  1.00  0.00     0.031 C 
ATOM     48  C   UNL A   1      47.148  29.069  30.972  1.00  0.00     0.029 A 
ATOM     49  C   UNL A   1      46.299  28.137  30.396  1.00  0.00     0.049 A 
ATOM     50  H   UNL A   1      44.239  28.296  29.970  1.00  0.00     0.167 HD
ATOM     51  C   UNL A   1      45.714  25.947  29.393  1.00  0.00     0.074 A 
ATOM     52  C   UNL A   1      46.045  24.616  28.930  1.00  0.00     0.031 C 
ATOM     53  C   UNL A   1      46.609  26.812  29.928  1.00  0.00     0.031 A 
BRANCH  40  54
ATOM     54  C   UNL A   1      44.194  32.260  31.542  1.00  0.00    -0.014 A 
ATOM     55  C   UNL A   1      44.589  33.341  30.740  1.00  0.00     0.009 A 
ATOM     56  C   UNL A   1      43.974  32.472  32.912  1.00  0.00     0.009 A 
ATOM     57  C   UNL A   1      44.785  34.603  31.304  1.00  0.00     0.001 A 
ATOM     58  C   UNL A   1      44.149  33.740  33.469  1.00  0.00     0.001 A 
ATOM     59  C   UNL A   1      44.561  34.802  32.666  1.00  0.00     0.000 A 
ENDBRANCH  40  54
BRANCH  41  60
ATOM     60  C   UNL A   1      42.275  23.304  27.587  1.00  0.00    -0.014 A 
ATOM     61  C   UNL A   1      42.563  23.055  26.237  1.00  0.00     0.009 A 
ATOM     62  C   UNL A   1      41.712  22.278  28.363  1.00  0.00     0.009 A 
ATOM     63  C   UNL A   1      42.274  21.810  25.672  1.00  0.00     0.001 A 
ATOM     64  C   UNL A   1      41.450  21.027  27.802  1.00  0.00     0.001 A 
ATOM     65  C   UNL A   1      41.723  20.797  26.455  1.00  0.00     0.000 A 
ENDBRANCH  41  60
BRANCH  53  66
ATOM     66  C   UNL A   1      48.024  26.331  30.065  1.00  0.00    -0.014 A 
ATOM     67  C   UNL A   1      48.475  25.730  31.251  1.00  0.00     0.009 A 
ATOM     68  C   UNL A   1      48.908  26.454  28.982  1.00  0.00     0.009 A 
ATOM     69  C   UNL A   1      49.794  25.287  31.357  1.00  0.00     0.001 A 
ATOM     70  C   UNL A   1      50.220  25.988  29.084  1.00  0.00     0.001 A 
ATOM     71  C   UNL A   1      50.664  25.413  30.273  1.00  0.00     0.000 A 
ENDBRANCH  53  66
ENDBRANCH  27  28
ENDBRANCH  20  22
ENDBRANCH  19  20
ENDBRANCH  18  19
ENDBRANCH   1  18
TORSDOF 13
ENDMDL
MODEL 3
REMARK VINA RESULT:      -9.2      2.981      6.578
REMARK SMILES CC1(C(=O)N2CC[C@H](C(=O)OCCOC(=O)c3ccc(-c4c5nc(c(-c6ccccc6)c6ccc([nH]6)c(-c6ccccc6)c6nc(c(-c7ccccc7)c7ccc4[nH]7)C=C6)C=C5)cc3)C2)CCCC1
REMARK SMILES IDX 12 1 11 2 9 3 10 4 8 5 5 6 6 7 65 8 7 9 3 10 4 11 2 12 1 13
REMARK SMILES IDX 66 14 69 15 67 16 68 17 13 18 14 19 15 20 16 21 17 22 18 23
REMARK SMILES IDX 64 24 19 25 63 26 20 27 21 28 22 29 57 30 23 31 62 32 56 33
REMARK SMILES IDX 58 34 24 35 61 36 55 37 54 38 25 40 47 41 32 42 46 43 33 44
REMARK SMILES IDX 36 45 45 46 59 47 34 48 35 49 44 51 60 52 37 53 26 54 27 55
REMARK SMILES IDX 31 56 28 57 30 58 29 59 48 60 49 61 53 62 50 63 52 64 51 65
REMARK SMILES IDX 38 66 39 67 43 68 40 69 42 70 41 71
REMARK H PARENT 58 39 36 50
REMARK Flexibility Score: inf
ROOT
ATOM      1  C   UNL A   1      34.010  34.398  29.231  1.00  0.00     0.274 C 
ENDROOT
BRANCH   1   2
ATOM      2  O   UNL A   1      34.956  34.183  30.296  1.00  0.00    -0.462 OA
BRANCH   2   3
ATOM      3  C   UNL A   1      34.512  34.355  31.567  1.00  0.00     0.310 C 
ATOM      4  O   UNL A   1      33.881  35.327  31.963  1.00  0.00    -0.252 OA
BRANCH   3   5
ATOM      5  C   UNL A   1      34.872  33.200  32.475  1.00  0.00     0.120 C 
ATOM      6  N   UNL A   1      36.437  32.924  34.220  1.00  0.00    -0.341 N 
ATOM      7  C   UNL A   1      36.628  31.817  33.309  1.00  0.00     0.120 C 
ATOM      8  C   UNL A   1      35.253  33.686  33.864  1.00  0.00     0.134 C 
ATOM      9  C   UNL A   1      36.047  32.332  32.012  1.00  0.00     0.038 C 
BRANCH   6  10
ATOM     10  C   UNL A   1      37.098  33.194  35.396  1.00  0.00     0.228 C 
ATOM     11  O   UNL A   1      36.461  33.358  36.438  1.00  0.00    -0.274 OA
BRANCH  10  12
ATOM     12  C   UNL A   1      38.598  33.541  35.299  1.00  0.00     0.047 C 
ATOM     13  C   UNL A   1      39.544  32.335  35.301  1.00  0.00     0.022 C 
ATOM     14  C   UNL A   1      39.002  34.514  36.428  1.00  0.00     0.016 C 
ATOM     15  C   UNL A   1      38.792  34.437  34.058  1.00  0.00     0.016 C 
ATOM     16  C   UNL A   1      40.162  35.332  35.865  1.00  0.00     0.001 C 
ATOM     17  C   UNL A   1      40.005  35.308  34.350  1.00  0.00     0.001 C 
ENDBRANCH  10  12
ENDBRANCH   6  10
ENDBRANCH   3   5
ENDBRANCH   2   3
ENDBRANCH   1   2
BRANCH   1  18
ATOM     18  C   UNL A   1      34.010  33.217  28.256  1.00  0.00     0.275 C 
BRANCH  18  19
ATOM     19  O   UNL A   1      34.326  31.980  28.924  1.00  0.00    -0.458 OA
BRANCH  19  20
ATOM     20  C   UNL A   1      34.481  30.911  28.109  1.00  0.00     0.338 C 
ATOM     21  O   UNL A   1      33.741  30.547  27.211  1.00  0.00    -0.246 OA
BRANCH  20  22
ATOM     22  C   UNL A   1      35.795  30.295  28.346  1.00  0.00     0.060 A 
ATOM     23  C   UNL A   1      36.020  29.712  29.596  1.00  0.00     0.016 A 
ATOM     24  C   UNL A   1      36.820  30.362  27.403  1.00  0.00     0.016 A 
ATOM     25  C   UNL A   1      37.267  29.190  29.916  1.00  0.00     0.010 A 
ATOM     26  C   UNL A   1      38.078  29.839  27.726  1.00  0.00     0.010 A 
ATOM     27  C   UNL A   1      38.311  29.259  28.986  1.00  0.00    -0.014 A 
BRANCH  27  28
ATOM     28  C   UNL A   1      39.655  28.777  29.374  1.00  0.00     0.031 A 
ATOM     29  C   UNL A   1      40.512  29.607  30.284  1.00  0.00     0.074 A 
ATOM     30  C   UNL A   1      40.083  27.572  28.951  1.00  0.00     0.049 A 
ATOM     31  N   UNL A   1      41.738  29.390  30.689  1.00  0.00    -0.248 NA
ATOM     32  C   UNL A   1      39.911  30.842  30.811  1.00  0.00     0.031 C 
ATOM     33  C   UNL A   1      39.315  26.644  28.123  1.00  0.00     0.029 A 
ATOM     34  N   UNL A   1      41.271  26.924  29.170  1.00  0.00    -0.354 N 
ATOM     35  C   UNL A   1      42.062  30.469  31.500  1.00  0.00     0.074 A 
ATOM     36  C   UNL A   1      40.910  31.345  31.523  1.00  0.00     0.031 C 
ATOM     37  C   UNL A   1      40.050  25.540  27.908  1.00  0.00     0.029 A 
ATOM     38  C   UNL A   1      41.354  25.705  28.543  1.00  0.00     0.049 A 
ATOM     39  H   UNL A   1      41.996  27.295  29.725  1.00  0.00     0.167 HD
ATOM     40  C   UNL A   1      43.217  30.708  32.164  1.00  0.00     0.031 A 
ATOM     41  C   UNL A   1      42.377  24.835  28.464  1.00  0.00     0.031 A 
ATOM     42  C   UNL A   1      44.361  29.837  32.145  1.00  0.00     0.049 A 
ATOM     43  C   UNL A   1      43.675  25.160  29.150  1.00  0.00     0.074 A 
ATOM     44  C   UNL A   1      45.581  29.998  32.779  1.00  0.00     0.029 A 
ATOM     45  N   UNL A   1      44.424  28.636  31.454  1.00  0.00    -0.354 N 
ATOM     46  N   UNL A   1      43.979  26.198  29.891  1.00  0.00    -0.248 NA
ATOM     47  C   UNL A   1      44.771  24.196  28.982  1.00  0.00     0.031 C 
ATOM     48  C   UNL A   1      46.397  28.913  32.440  1.00  0.00     0.029 A 
ATOM     49  C   UNL A   1      45.668  28.055  31.632  1.00  0.00     0.049 A 
ATOM     50  H   UNL A   1      43.692  28.254  30.918  1.00  0.00     0.167 HD
ATOM     51  C   UNL A   1      45.294  26.004  30.292  1.00  0.00     0.074 A 
ATOM     52  C   UNL A   1      45.723  24.742  29.726  1.00  0.00     0.031 C 
ATOM     53  C   UNL A   1      46.076  26.800  31.059  1.00  0.00     0.031 A 
BRANCH  40  54
ATOM     54  C   UNL A   1      43.315  31.993  32.936  1.00  0.00    -0.014 A 
ATOM     55  C   UNL A   1      43.610  33.207  32.299  1.00  0.00     0.009 A 
ATOM     56  C   UNL A   1      43.076  31.988  34.320  1.00  0.00     0.009 A 
ATOM     57  C   UNL A   1      43.692  34.389  33.038  1.00  0.00     0.001 A 
ATOM     58  C   UNL A   1      43.137  33.175  35.052  1.00  0.00     0.001 A 
ATOM     59  C   UNL A   1      43.451  34.373  34.411  1.00  0.00     0.000 A 
ENDBRANCH  40  54
BRANCH  41  60
ATOM     60  C   UNL A   1      42.232  23.587  27.672  1.00  0.00    -0.014 A 
ATOM     61  C   UNL A   1      41.738  22.415  28.266  1.00  0.00     0.009 A 
ATOM     62  C   UNL A   1      42.600  23.560  26.318  1.00  0.00     0.009 A 
ATOM     63  C   UNL A   1      41.635  21.237  27.522  1.00  0.00     0.001 A 
ATOM     64  C   UNL A   1      42.471  22.388  25.571  1.00  0.00     0.001 A 
ATOM     65  C   UNL A   1      41.996  21.226  26.176  1.00  0.00     0.000 A 
ENDBRANCH  41  60
BRANCH  53  66
ATOM     66  C   UNL A   1      47.466  26.313  31.351  1.00  0.00    -0.014 A 
ATOM     67  C   UNL A   1      48.526  26.571  30.468  1.00  0.00     0.009 A 
ATOM     68  C   UNL A   1      47.721  25.614  32.542  1.00  0.00     0.009 A 
ATOM     69  C   UNL A   1      49.811  26.113  30.760  1.00  0.00     0.001 A 
ATOM     70  C   UNL A   1      49.013  25.178  32.841  1.00  0.00     0.001 A 
ATOM     71  C   UNL A   1      50.054  25.420  31.947  1.00  0.00     0.000 A 
ENDBRANCH  53  66
ENDBRANCH  27  28
ENDBRANCH  20  22
ENDBRANCH  19  20
ENDBRANCH  18  19
ENDBRANCH   1  18
TORSDOF 13
ENDMDL
