MODEL 1
REMARK VINA RESULT:     -10.4      0.000      0.000
REMARK SMILES Cc1cc(C)c2c(OCCCC(=O)OCCOC(=O)c3ccc(-c4c5nc(c(-c6ccccc6)c6ccc([nH]6)c(-c6ccccc6)c6nc(c(-c7ccccc7)c7ccc4[nH]7)C=C6)C=C5)cc3)nsc2n1
REMARK SMILES IDX 15 1 14 2 12 3 13 4 11 5 10 6 9 7 8 8 7 9 1 10 2 11 3 12
REMARK SMILES IDX 71 13 4 14 70 15 5 16 6 17 69 18 68 19 16 20 17 21 18 22
REMARK SMILES IDX 19 23 20 24 21 25 67 26 22 27 66 28 23 29 24 30 25 31 60 32
REMARK SMILES IDX 26 33 65 34 59 35 61 36 27 37 64 38 58 39 57 40 28 42 50 43
REMARK SMILES IDX 35 44 49 45 36 46 39 47 48 48 62 49 37 50 38 51 47 53 63 54
REMARK SMILES IDX 40 55 29 56 30 57 34 58 31 59 33 60 32 61 51 62 52 63 56 64
REMARK SMILES IDX 53 65 55 66 54 67 41 68 42 69 46 70 43 71 45 72 44 73
REMARK H PARENT 61 41 39 52
REMARK Flexibility Score: inf
ROOT
ATOM      1  C   UNL A   1      33.600  35.241  28.322  1.00  0.00     0.274 C 
ENDROOT
BRANCH   1   2
ATOM      2  O   UNL A   1      33.314  33.819  28.185  1.00  0.00    -0.462 OA
BRANCH   2   3
ATOM      3  C   UNL A   1      34.339  32.959  27.981  1.00  0.00     0.306 C 
ATOM      4  O   UNL A   1      35.437  33.317  27.566  1.00  0.00    -0.252 OA
BRANCH   3   5
ATOM      5  C   UNL A   1      33.993  31.487  28.202  1.00  0.00     0.126 C 
BRANCH   5   6
ATOM      6  C   UNL A   1      34.059  30.449  27.075  1.00  0.00     0.053 C 
BRANCH   6   7
ATOM      7  C   UNL A   1      32.831  30.062  26.225  1.00  0.00     0.232 C 
BRANCH   7   8
ATOM      8  O   UNL A   1      31.773  29.273  26.762  1.00  0.00    -0.477 OA
BRANCH   8   9
ATOM      9  C   UNL A   1      31.503  28.069  26.214  1.00  0.00     0.235 A 
ATOM     10  C   UNL A   1      32.348  25.904  21.275  1.00  0.00     0.067 C 
ATOM     11  C   UNL A   1      31.629  26.394  22.501  1.00  0.00     0.039 A 
ATOM     12  C   UNL A   1      30.995  27.632  22.488  1.00  0.00     0.027 A 
ATOM     13  N   UNL A   1      31.786  25.665  23.616  1.00  0.00    -0.240 NA
ATOM     14  C   UNL A   1      30.706  28.321  23.686  1.00  0.00    -0.034 A 
ATOM     15  C   UNL A   1      31.527  26.345  24.746  1.00  0.00     0.147 A 
ATOM     16  C   UNL A   1      30.028  29.664  23.630  1.00  0.00     0.045 C 
ATOM     17  C   UNL A   1      31.160  27.687  24.869  1.00  0.00     0.078 A 
ATOM     18  S   UNL A   1      31.669  25.648  26.292  1.00  0.00    -0.012 S 
ATOM     19  N   UNL A   1      31.627  27.088  27.110  1.00  0.00    -0.153 NA
ENDBRANCH   8   9
ENDBRANCH   7   8
ENDBRANCH   6   7
ENDBRANCH   5   6
ENDBRANCH   3   5
ENDBRANCH   2   3
ENDBRANCH   1   2
BRANCH   1  20
ATOM     20  C   UNL A   1      33.161  35.737  29.706  1.00  0.00     0.275 C 
BRANCH  20  21
ATOM     21  O   UNL A   1      34.046  35.268  30.712  1.00  0.00    -0.458 OA
BRANCH  21  22
ATOM     22  C   UNL A   1      33.407  35.078  31.895  1.00  0.00     0.338 C 
ATOM     23  O   UNL A   1      32.266  35.355  32.142  1.00  0.00    -0.246 OA
BRANCH  22  24
ATOM     24  C   UNL A   1      34.396  34.499  32.828  1.00  0.00     0.060 A 
ATOM     25  C   UNL A   1      35.514  35.288  33.066  1.00  0.00     0.016 A 
ATOM     26  C   UNL A   1      34.372  33.118  33.077  1.00  0.00     0.016 A 
ATOM     27  C   UNL A   1      36.716  34.634  33.101  1.00  0.00     0.010 A 
ATOM     28  C   UNL A   1      35.567  32.466  33.085  1.00  0.00     0.010 A 
ATOM     29  C   UNL A   1      36.705  33.246  32.938  1.00  0.00    -0.014 A 
BRANCH  29  30
ATOM     30  C   UNL A   1      37.930  32.606  32.557  1.00  0.00     0.031 A 
ATOM     31  C   UNL A   1      38.860  32.493  33.680  1.00  0.00     0.074 A 
ATOM     32  C   UNL A   1      38.129  32.114  31.324  1.00  0.00     0.049 A 
ATOM     33  N   UNL A   1      39.855  33.271  33.938  1.00  0.00    -0.248 NA
ATOM     34  C   UNL A   1      38.490  31.572  34.766  1.00  0.00     0.031 C 
ATOM     35  C   UNL A   1      37.164  31.891  30.244  1.00  0.00     0.029 A 
ATOM     36  N   UNL A   1      39.274  31.600  30.821  1.00  0.00    -0.354 N 
ATOM     37  C   UNL A   1      40.361  32.797  35.135  1.00  0.00     0.074 A 
ATOM     38  C   UNL A   1      39.337  31.965  35.714  1.00  0.00     0.031 C 
ATOM     39  C   UNL A   1      37.723  31.073  29.318  1.00  0.00     0.029 A 
ATOM     40  C   UNL A   1      39.112  30.835  29.679  1.00  0.00     0.049 A 
ATOM     41  H   UNL A   1      40.154  31.758  31.234  1.00  0.00     0.167 HD
ATOM     42  C   UNL A   1      41.692  32.847  35.404  1.00  0.00     0.031 A 
ATOM     43  C   UNL A   1      40.052  30.003  29.165  1.00  0.00     0.031 A 
ATOM     44  C   UNL A   1      42.392  33.712  34.490  1.00  0.00     0.049 A 
ATOM     45  C   UNL A   1      41.361  30.407  29.744  1.00  0.00     0.074 A 
ATOM     46  C   UNL A   1      42.326  35.056  34.184  1.00  0.00     0.029 A 
ATOM     47  N   UNL A   1      43.025  33.107  33.429  1.00  0.00    -0.354 N 
ATOM     48  N   UNL A   1      41.952  31.535  29.475  1.00  0.00    -0.248 NA
ATOM     49  C   UNL A   1      41.799  29.756  30.972  1.00  0.00     0.031 C 
ATOM     50  C   UNL A   1      42.529  35.131  32.774  1.00  0.00     0.029 A 
ATOM     51  C   UNL A   1      42.762  33.839  32.297  1.00  0.00     0.049 A 
ATOM     52  H   UNL A   1      43.573  32.290  33.472  1.00  0.00     0.167 HD
ATOM     53  C   UNL A   1      42.501  31.950  30.682  1.00  0.00     0.074 A 
ATOM     54  C   UNL A   1      42.468  30.766  31.538  1.00  0.00     0.031 C 
ATOM     55  C   UNL A   1      42.652  33.278  30.965  1.00  0.00     0.031 A 
BRANCH  42  56
ATOM     56  C   UNL A   1      42.380  31.785  36.215  1.00  0.00    -0.014 A 
ATOM     57  C   UNL A   1      43.117  32.169  37.342  1.00  0.00     0.009 A 
ATOM     58  C   UNL A   1      42.525  30.450  35.783  1.00  0.00     0.009 A 
ATOM     59  C   UNL A   1      43.973  31.265  37.984  1.00  0.00     0.001 A 
ATOM     60  C   UNL A   1      43.337  29.533  36.449  1.00  0.00     0.001 A 
ATOM     61  C   UNL A   1      44.079  29.950  37.539  1.00  0.00     0.000 A 
ENDBRANCH  42  56
BRANCH  43  62
ATOM     62  C   UNL A   1      39.861  28.676  28.537  1.00  0.00    -0.014 A 
ATOM     63  C   UNL A   1      40.476  28.388  27.306  1.00  0.00     0.009 A 
ATOM     64  C   UNL A   1      39.342  27.598  29.276  1.00  0.00     0.009 A 
ATOM     65  C   UNL A   1      40.627  27.067  26.867  1.00  0.00     0.001 A 
ATOM     66  C   UNL A   1      39.488  26.279  28.834  1.00  0.00     0.001 A 
ATOM     67  C   UNL A   1      40.150  26.012  27.641  1.00  0.00     0.000 A 
ENDBRANCH  43  62
BRANCH  55  68
ATOM     68  C   UNL A   1      42.434  34.260  29.837  1.00  0.00    -0.014 A 
ATOM     69  C   UNL A   1      43.440  34.616  28.920  1.00  0.00     0.009 A 
ATOM     70  C   UNL A   1      41.131  34.724  29.603  1.00  0.00     0.009 A 
ATOM     71  C   UNL A   1      43.153  35.432  27.819  1.00  0.00     0.001 A 
ATOM     72  C   UNL A   1      40.841  35.521  28.493  1.00  0.00     0.001 A 
ATOM     73  C   UNL A   1      41.852  35.877  27.603  1.00  0.00     0.000 A 
ENDBRANCH  55  68
ENDBRANCH  29  30
ENDBRANCH  22  24
ENDBRANCH  21  22
ENDBRANCH  20  21
ENDBRANCH   1  20
TORSDOF 15
ENDMDL
MODEL 2
REMARK VINA RESULT:     -10.2      6.099     10.885
REMARK SMILES Cc1cc(C)c2c(OCCCC(=O)OCCOC(=O)c3ccc(-c4c5nc(c(-c6ccccc6)c6ccc([nH]6)c(-c6ccccc6)c6nc(c(-c7ccccc7)c7ccc4[nH]7)C=C6)C=C5)cc3)nsc2n1
REMARK SMILES IDX 15 1 14 2 12 3 13 4 11 5 10 6 9 7 8 8 7 9 1 10 2 11 3 12
REMARK SMILES IDX 71 13 4 14 70 15 5 16 6 17 69 18 68 19 16 20 17 21 18 22
REMARK SMILES IDX 19 23 20 24 21 25 67 26 22 27 66 28 23 29 24 30 25 31 60 32
REMARK SMILES IDX 26 33 65 34 59 35 61 36 27 37 64 38 58 39 57 40 28 42 50 43
REMARK SMILES IDX 35 44 49 45 36 46 39 47 48 48 62 49 37 50 38 51 47 53 63 54
REMARK SMILES IDX 40 55 29 56 30 57 34 58 31 59 33 60 32 61 51 62 52 63 56 64
REMARK SMILES IDX 53 65 55 66 54 67 41 68 42 69 46 70 43 71 45 72 44 73
REMARK H PARENT 61 41 39 52
REMARK Flexibility Score: inf
ROOT
ATOM      1  C   UNL A   1      41.638  19.570  26.787  1.00  0.00     0.274 C 
ENDROOT
BRANCH   1   2
ATOM      2  O   UNL A   1      40.482  20.016  26.020  1.00  0.00    -0.462 OA
BRANCH   2   3
ATOM      3  C   UNL A   1      39.810  21.118  26.424  1.00  0.00     0.306 C 
ATOM      4  O   UNL A   1      40.075  21.718  27.462  1.00  0.00    -0.252 OA
BRANCH   3   5
ATOM      5  C   UNL A   1      38.619  21.500  25.545  1.00  0.00     0.126 C 
BRANCH   5   6
ATOM      6  C   UNL A   1      37.875  22.832  25.702  1.00  0.00     0.053 C 
BRANCH   6   7
ATOM      7  C   UNL A   1      36.393  23.011  25.315  1.00  0.00     0.232 C 
BRANCH   7   8
ATOM      8  O   UNL A   1      36.007  23.356  23.987  1.00  0.00    -0.477 OA
BRANCH   8   9
ATOM      9  C   UNL A   1      34.696  23.483  23.692  1.00  0.00     0.235 A 
ATOM     10  C   UNL A   1      30.102  22.680  26.528  1.00  0.00     0.067 C 
ATOM     11  C   UNL A   1      31.144  22.540  25.454  1.00  0.00     0.039 A 
ATOM     12  C   UNL A   1      32.035  21.472  25.482  1.00  0.00     0.027 A 
ATOM     13  N   UNL A   1      31.265  23.569  24.602  1.00  0.00    -0.240 NA
ATOM     14  C   UNL A   1      33.269  21.526  24.797  1.00  0.00    -0.034 A 
ATOM     15  C   UNL A   1      32.454  23.615  23.976  1.00  0.00     0.147 A 
ATOM     16  C   UNL A   1      34.210  20.353  24.862  1.00  0.00     0.045 C 
ATOM     17  C   UNL A   1      33.540  22.754  24.145  1.00  0.00     0.078 A 
ATOM     18  S   UNL A   1      32.859  24.833  22.860  1.00  0.00    -0.012 S 
ATOM     19  N   UNL A   1      34.482  24.503  22.860  1.00  0.00    -0.153 NA
ENDBRANCH   8   9
ENDBRANCH   7   8
ENDBRANCH   6   7
ENDBRANCH   5   6
ENDBRANCH   3   5
ENDBRANCH   2   3
ENDBRANCH   1   2
BRANCH   1  20
ATOM     20  C   UNL A   1      42.829  19.324  25.852  1.00  0.00     0.275 C 
BRANCH  20  21
ATOM     21  O   UNL A   1      43.202  20.520  25.186  1.00  0.00    -0.458 OA
BRANCH  21  22
ATOM     22  C   UNL A   1      44.400  20.393  24.560  1.00  0.00     0.338 C 
ATOM     23  O   UNL A   1      44.864  19.386  24.102  1.00  0.00    -0.246 OA
BRANCH  22  24
ATOM     24  C   UNL A   1      45.039  21.726  24.584  1.00  0.00     0.060 A 
ATOM     25  C   UNL A   1      45.998  21.902  25.572  1.00  0.00     0.016 A 
ATOM     26  C   UNL A   1      44.401  22.800  23.943  1.00  0.00     0.016 A 
ATOM     27  C   UNL A   1      45.974  23.102  26.230  1.00  0.00     0.010 A 
ATOM     28  C   UNL A   1      44.355  23.985  24.610  1.00  0.00     0.010 A 
ATOM     29  C   UNL A   1      45.024  24.045  25.824  1.00  0.00    -0.014 A 
BRANCH  29  30
ATOM     30  C   UNL A   1      44.700  25.104  26.734  1.00  0.00     0.031 A 
ATOM     31  C   UNL A   1      45.762  26.107  26.808  1.00  0.00     0.074 A 
ATOM     32  C   UNL A   1      43.517  25.170  27.366  1.00  0.00     0.049 A 
ATOM     33  N   UNL A   1      46.675  26.197  27.712  1.00  0.00    -0.248 NA
ATOM     34  C   UNL A   1      45.982  26.938  25.614  1.00  0.00     0.031 C 
ATOM     35  C   UNL A   1      42.288  24.410  27.122  1.00  0.00     0.029 A 
ATOM     36  N   UNL A   1      43.147  26.048  28.325  1.00  0.00    -0.354 N 
ATOM     37  C   UNL A   1      47.475  27.245  27.293  1.00  0.00     0.074 A 
ATOM     38  C   UNL A   1      47.173  27.458  25.900  1.00  0.00     0.031 C 
ATOM     39  C   UNL A   1      41.257  25.030  27.747  1.00  0.00     0.029 A 
ATOM     40  C   UNL A   1      41.781  26.136  28.533  1.00  0.00     0.049 A 
ATOM     41  H   UNL A   1      43.798  26.583  28.836  1.00  0.00     0.167 HD
ATOM     42  C   UNL A   1      48.076  28.073  28.186  1.00  0.00     0.031 A 
ATOM     43  C   UNL A   1      41.166  27.127  29.227  1.00  0.00     0.031 A 
ATOM     44  C   UNL A   1      48.047  27.533  29.521  1.00  0.00     0.049 A 
ATOM     45  C   UNL A   1      42.203  27.785  30.066  1.00  0.00     0.074 A 
ATOM     46  C   UNL A   1      48.554  26.396  30.118  1.00  0.00     0.029 A 
ATOM     47  N   UNL A   1      47.052  27.993  30.353  1.00  0.00    -0.354 N 
ATOM     48  N   UNL A   1      42.796  27.203  31.069  1.00  0.00    -0.248 NA
ATOM     49  C   UNL A   1      42.908  28.934  29.513  1.00  0.00     0.031 C 
ATOM     50  C   UNL A   1      47.556  25.986  31.051  1.00  0.00     0.029 A 
ATOM     51  C   UNL A   1      46.517  26.917  31.018  1.00  0.00     0.049 A 
ATOM     52  H   UNL A   1      46.772  28.931  30.455  1.00  0.00     0.167 HD
ATOM     53  C   UNL A   1      44.118  27.621  30.996  1.00  0.00     0.074 A 
ATOM     54  C   UNL A   1      44.103  28.766  30.089  1.00  0.00     0.031 C 
ATOM     55  C   UNL A   1      45.133  26.821  31.440  1.00  0.00     0.031 A 
BRANCH  42  56
ATOM     56  C   UNL A   1      48.290  29.532  27.899  1.00  0.00    -0.014 A 
ATOM     57  C   UNL A   1      47.172  30.360  27.741  1.00  0.00     0.009 A 
ATOM     58  C   UNL A   1      49.543  30.079  27.549  1.00  0.00     0.009 A 
ATOM     59  C   UNL A   1      47.303  31.658  27.233  1.00  0.00     0.001 A 
ATOM     60  C   UNL A   1      49.684  31.388  27.091  1.00  0.00     0.001 A 
ATOM     61  C   UNL A   1      48.558  32.171  26.912  1.00  0.00     0.000 A 
ENDBRANCH  42  56
BRANCH  43  62
ATOM     62  C   UNL A   1      39.874  27.787  28.936  1.00  0.00    -0.014 A 
ATOM     63  C   UNL A   1      38.921  27.941  29.958  1.00  0.00     0.009 A 
ATOM     64  C   UNL A   1      39.696  28.534  27.758  1.00  0.00     0.009 A 
ATOM     65  C   UNL A   1      37.872  28.860  29.832  1.00  0.00     0.001 A 
ATOM     66  C   UNL A   1      38.644  29.447  27.630  1.00  0.00     0.001 A 
ATOM     67  C   UNL A   1      37.745  29.627  28.676  1.00  0.00     0.000 A 
ENDBRANCH  43  62
BRANCH  55  68
ATOM     68  C   UNL A   1      44.754  25.587  32.228  1.00  0.00    -0.014 A 
ATOM     69  C   UNL A   1      44.494  25.607  33.611  1.00  0.00     0.009 A 
ATOM     70  C   UNL A   1      44.506  24.401  31.524  1.00  0.00     0.009 A 
ATOM     71  C   UNL A   1      44.025  24.464  34.270  1.00  0.00     0.001 A 
ATOM     72  C   UNL A   1      44.016  23.267  32.178  1.00  0.00     0.001 A 
ATOM     73  C   UNL A   1      43.779  23.297  33.551  1.00  0.00     0.000 A 
ENDBRANCH  55  68
ENDBRANCH  29  30
ENDBRANCH  22  24
ENDBRANCH  21  22
ENDBRANCH  20  21
ENDBRANCH   1  20
TORSDOF 15
ENDMDL
MODEL 3
REMARK VINA RESULT:     -10.0      1.152      1.666
REMARK SMILES Cc1cc(C)c2c(OCCCC(=O)OCCOC(=O)c3ccc(-c4c5nc(c(-c6ccccc6)c6ccc([nH]6)c(-c6ccccc6)c6nc(c(-c7ccccc7)c7ccc4[nH]7)C=C6)C=C5)cc3)nsc2n1
REMARK SMILES IDX 15 1 14 2 12 3 13 4 11 5 10 6 9 7 8 8 7 9 1 10 2 11 3 12
REMARK SMILES IDX 71 13 4 14 70 15 5 16 6 17 69 18 68 19 16 20 17 21 18 22
REMARK SMILES IDX 19 23 20 24 21 25 67 26 22 27 66 28 23 29 24 30 25 31 60 32
REMARK SMILES IDX 26 33 65 34 59 35 61 36 27 37 64 38 58 39 57 40 28 42 50 43
REMARK SMILES IDX 35 44 49 45 36 46 39 47 48 48 62 49 37 50 38 51 47 53 63 54
REMARK SMILES IDX 40 55 29 56 30 57 34 58 31 59 33 60 32 61 51 62 52 63 56 64
REMARK SMILES IDX 53 65 55 66 54 67 41 68 42 69 46 70 43 71 45 72 44 73
REMARK H PARENT 61 41 39 52
REMARK Flexibility Score: inf
ROOT
ATOM      1  C   UNL A   1      34.110  33.552  28.306  1.00  0.00     0.274 C 
ENDROOT
BRANCH   1   2
ATOM      2  O   UNL A   1      33.188  32.545  27.794  1.00  0.00    -0.462 OA
BRANCH   2   3
ATOM      3  C   UNL A   1      33.617  31.269  27.659  1.00  0.00     0.306 C 
ATOM      4  O   UNL A   1      34.710  30.886  28.067  1.00  0.00    -0.252 OA
BRANCH   3   5
ATOM      5  C   UNL A   1      32.683  30.361  26.861  1.00  0.00     0.126 C 
BRANCH   5   6
ATOM      6  C   UNL A   1      33.196  29.168  26.045  1.00  0.00     0.053 C 
BRANCH   6   7
ATOM      7  C   UNL A   1      33.289  27.740  26.622  1.00  0.00     0.232 C 
BRANCH   7   8
ATOM      8  O   UNL A   1      33.411  26.602  25.773  1.00  0.00    -0.477 OA
BRANCH   8   9
ATOM      9  C   UNL A   1      32.877  26.641  24.534  1.00  0.00     0.235 A 
ATOM     10  C   UNL A   1      28.474  29.067  22.407  1.00  0.00     0.067 C 
ATOM     11  C   UNL A   1      29.431  27.985  22.821  1.00  0.00     0.039 A 
ATOM     12  C   UNL A   1      29.181  27.233  23.964  1.00  0.00     0.027 A 
ATOM     13  N   UNL A   1      30.585  27.917  22.141  1.00  0.00    -0.240 NA
ATOM     14  C   UNL A   1      30.217  26.544  24.631  1.00  0.00    -0.034 A 
ATOM     15  C   UNL A   1      31.565  27.277  22.802  1.00  0.00     0.147 A 
ATOM     16  C   UNL A   1      29.908  25.750  25.872  1.00  0.00     0.045 C 
ATOM     17  C   UNL A   1      31.511  26.730  24.085  1.00  0.00     0.078 A 
ATOM     18  S   UNL A   1      33.127  27.073  22.159  1.00  0.00    -0.012 S 
ATOM     19  N   UNL A   1      33.824  26.633  23.596  1.00  0.00    -0.153 NA
ENDBRANCH   8   9
ENDBRANCH   7   8
ENDBRANCH   6   7
ENDBRANCH   5   6
ENDBRANCH   3   5
ENDBRANCH   2   3
ENDBRANCH   1   2
BRANCH   1  20
ATOM     20  C   UNL A   1      33.366  34.527  29.228  1.00  0.00     0.275 C 
BRANCH  20  21
ATOM     21  O   UNL A   1      34.218  34.988  30.265  1.00  0.00    -0.458 OA
BRANCH  21  22
ATOM     22  C   UNL A   1      33.601  34.956  31.474  1.00  0.00     0.338 C 
ATOM     23  O   UNL A   1      32.494  35.348  31.721  1.00  0.00    -0.246 OA
BRANCH  22  24
ATOM     24  C   UNL A   1      34.568  34.382  32.434  1.00  0.00     0.060 A 
ATOM     25  C   UNL A   1      35.694  35.158  32.672  1.00  0.00     0.016 A 
ATOM     26  C   UNL A   1      34.519  33.006  32.709  1.00  0.00     0.016 A 
ATOM     27  C   UNL A   1      36.885  34.488  32.738  1.00  0.00     0.010 A 
ATOM     28  C   UNL A   1      35.704  32.337  32.748  1.00  0.00     0.010 A 
ATOM     29  C   UNL A   1      36.855  33.096  32.603  1.00  0.00    -0.014 A 
BRANCH  29  30
ATOM     30  C   UNL A   1      38.076  32.431  32.253  1.00  0.00     0.031 A 
ATOM     31  C   UNL A   1      38.984  32.319  33.394  1.00  0.00     0.074 A 
ATOM     32  C   UNL A   1      38.288  31.917  31.030  1.00  0.00     0.049 A 
ATOM     33  N   UNL A   1      39.987  33.084  33.658  1.00  0.00    -0.248 NA
ATOM     34  C   UNL A   1      38.580  31.420  34.485  1.00  0.00     0.031 C 
ATOM     35  C   UNL A   1      37.339  31.694  29.937  1.00  0.00     0.029 A 
ATOM     36  N   UNL A   1      39.433  31.377  30.555  1.00  0.00    -0.354 N 
ATOM     37  C   UNL A   1      40.465  32.619  34.870  1.00  0.00     0.074 A 
ATOM     38  C   UNL A   1      39.417  31.813  35.443  1.00  0.00     0.031 C 
ATOM     39  C   UNL A   1      37.899  30.853  29.033  1.00  0.00     0.029 A 
ATOM     40  C   UNL A   1      39.278  30.597  29.422  1.00  0.00     0.049 A 
ATOM     41  H   UNL A   1      40.308  31.526  30.982  1.00  0.00     0.167 HD
ATOM     42  C   UNL A   1      41.791  32.651  35.162  1.00  0.00     0.031 A 
ATOM     43  C   UNL A   1      40.212  29.743  28.936  1.00  0.00     0.031 A 
ATOM     44  C   UNL A   1      42.522  33.491  34.248  1.00  0.00     0.049 A 
ATOM     45  C   UNL A   1      41.518  30.133  29.533  1.00  0.00     0.074 A 
ATOM     46  C   UNL A   1      42.483  34.831  33.921  1.00  0.00     0.029 A 
ATOM     47  N   UNL A   1      43.163  32.860  33.207  1.00  0.00    -0.354 N 
ATOM     48  N   UNL A   1      42.133  31.247  29.259  1.00  0.00    -0.248 NA
ATOM     49  C   UNL A   1      41.923  29.493  30.778  1.00  0.00     0.031 C 
ATOM     50  C   UNL A   1      42.712  34.881  32.515  1.00  0.00     0.029 A 
ATOM     51  C   UNL A   1      42.932  33.579  32.060  1.00  0.00     0.049 A 
ATOM     52  H   UNL A   1      43.696  32.034  33.272  1.00  0.00     0.167 HD
ATOM     53  C   UNL A   1      42.667  31.670  30.468  1.00  0.00     0.074 A 
ATOM     54  C   UNL A   1      42.599  30.500  31.341  1.00  0.00     0.031 C 
ATOM     55  C   UNL A   1      42.835  33.000  30.735  1.00  0.00     0.031 A 
BRANCH  42  56
ATOM     56  C   UNL A   1      42.447  31.590  36.000  1.00  0.00    -0.014 A 
ATOM     57  C   UNL A   1      43.136  31.974  37.157  1.00  0.00     0.009 A 
ATOM     58  C   UNL A   1      42.612  30.255  35.574  1.00  0.00     0.009 A 
ATOM     59  C   UNL A   1      43.966  31.072  37.834  1.00  0.00     0.001 A 
ATOM     60  C   UNL A   1      43.397  29.340  36.273  1.00  0.00     0.001 A 
ATOM     61  C   UNL A   1      44.093  29.757  37.393  1.00  0.00     0.000 A 
ENDBRANCH  42  56
BRANCH  43  62
ATOM     62  C   UNL A   1      40.010  28.410  28.325  1.00  0.00    -0.014 A 
ATOM     63  C   UNL A   1      40.638  28.095  27.107  1.00  0.00     0.009 A 
ATOM     64  C   UNL A   1      39.464  27.351  29.071  1.00  0.00     0.009 A 
ATOM     65  C   UNL A   1      40.775  26.766  26.690  1.00  0.00     0.001 A 
ATOM     66  C   UNL A   1      39.596  26.023  28.651  1.00  0.00     0.001 A 
ATOM     67  C   UNL A   1      40.271  25.729  27.471  1.00  0.00     0.000 A 
ENDBRANCH  43  62
BRANCH  55  68
ATOM     68  C   UNL A   1      42.654  33.969  29.588  1.00  0.00    -0.014 A 
ATOM     69  C   UNL A   1      41.470  34.700  29.378  1.00  0.00     0.009 A 
ATOM     70  C   UNL A   1      43.766  34.264  28.786  1.00  0.00     0.009 A 
ATOM     71  C   UNL A   1      41.397  35.677  28.378  1.00  0.00     0.001 A 
ATOM     72  C   UNL A   1      43.699  35.253  27.803  1.00  0.00     0.001 A 
ATOM     73  C   UNL A   1      42.515  35.957  27.596  1.00  0.00     0.000 A 
ENDBRANCH  55  68
ENDBRANCH  29  30
ENDBRANCH  22  24
ENDBRANCH  21  22
ENDBRANCH  20  21
ENDBRANCH   1  20
TORSDOF 15
ENDMDL
