MODEL 1
REMARK VINA RESULT:     -11.3      0.000      0.000
REMARK SMILES CCCc1cc2c(cc1Cl)C=C(C(=O)OCCOC(=O)c1ccc(-c3c4nc(c(-c5ccccc5)c5ccc([nH]5)c(-c5ccccc5)c5nc(c(-c6ccccc6)c6ccc3[nH]6)C=C5)C=C4)cc1)[C@H](C(F)(F)F)O2
REMARK SMILES IDX 16 1 15 2 13 3 14 4 12 5 4 6 5 7 9 8 6 9 8 10 10 11 7 12
REMARK SMILES IDX 74 13 11 14 69 15 3 16 2 17 1 18 70 19 71 20 72 21 73 22
REMARK SMILES IDX 17 23 18 24 19 25 20 26 21 27 22 28 68 29 23 30 67 31 24 32
REMARK SMILES IDX 25 33 26 34 61 35 27 36 66 37 60 38 62 39 28 40 65 41 59 42
REMARK SMILES IDX 58 43 29 45 51 46 36 47 50 48 37 49 40 50 49 51 63 52 38 53
REMARK SMILES IDX 39 54 48 56 64 57 41 58 30 59 31 60 35 61 32 62 34 63 33 64
REMARK SMILES IDX 52 65 53 66 57 67 54 68 56 69 55 70 42 71 43 72 47 73 44 74
REMARK SMILES IDX 46 75 45 76
REMARK H PARENT 62 44 40 55
REMARK Flexibility Score: inf
ROOT
ATOM      1  C   UNL A   1      35.075  20.767  25.156  1.00  0.00     0.275 C 
ENDROOT
BRANCH   1   2
ATOM      2  O   UNL A   1      34.973  22.159  25.531  1.00  0.00    -0.459 OA
BRANCH   2   3
ATOM      3  C   UNL A   1      34.147  22.435  26.562  1.00  0.00     0.338 C 
ATOM      4  O   UNL A   1      34.130  21.861  27.640  1.00  0.00    -0.246 OA
BRANCH   3   5
ATOM      5  C   UNL A   1      33.315  23.622  26.270  1.00  0.00     0.087 C 
ATOM      6  C   UNL A   1      31.795  28.181  24.686  1.00  0.00    -0.026 A 
ATOM      7  C   UNL A   1      31.245  27.178  25.520  1.00  0.00     0.052 A 
ATOM      8  C   UNL A   1      33.053  27.932  24.115  1.00  0.00     0.045 A 
ATOM      9  C   UNL A   1      31.921  25.982  25.779  1.00  0.00     0.128 A 
ATOM     10  C   UNL A   1      33.722  26.729  24.363  1.00  0.00     0.032 A 
ATOM     11  Cl  UNL A   1      33.910  29.079  23.151  1.00  0.00    -0.084 Cl
ATOM     12  C   UNL A   1      33.171  25.772  25.215  1.00  0.00     0.019 A 
ATOM     13  O   UNL A   1      31.331  25.101  26.640  1.00  0.00    -0.475 OA
ATOM     14  C   UNL A   1      33.926  24.590  25.574  1.00  0.00     0.027 C 
ATOM     15  C   UNL A   1      31.900  23.759  26.777  1.00  0.00     0.316 C 
BRANCH   6  16
ATOM     16  C   UNL A   1      31.038  29.490  24.582  1.00  0.00     0.037 C 
BRANCH  16  17
ATOM     17  C   UNL A   1      29.867  29.630  23.602  1.00  0.00     0.001 C 
ATOM     18  C   UNL A   1      30.266  29.583  22.137  1.00  0.00     0.004 C 
ENDBRANCH  16  17
ENDBRANCH   6  16
BRANCH  15  19
ATOM     19  C   UNL A   1      30.899  22.719  26.234  1.00  0.00     0.430 C 
ATOM     20  F   UNL A   1      30.380  23.095  25.039  1.00  0.00    -0.167 F 
ATOM     21  F   UNL A   1      31.456  21.500  26.060  1.00  0.00    -0.167 F 
ATOM     22  F   UNL A   1      29.843  22.577  27.075  1.00  0.00    -0.167 F 
ENDBRANCH  15  19
ENDBRANCH   3   5
ENDBRANCH   2   3
ENDBRANCH   1   2
BRANCH   1  23
ATOM     23  C   UNL A   1      36.541  20.355  25.034  1.00  0.00     0.275 C 
BRANCH  23  24
ATOM     24  O   UNL A   1      37.382  21.480  25.355  1.00  0.00    -0.458 OA
BRANCH  24  25
ATOM     25  C   UNL A   1      38.616  21.189  25.818  1.00  0.00     0.338 C 
ATOM     26  O   UNL A   1      39.187  20.105  25.796  1.00  0.00    -0.246 OA
BRANCH  25  27
ATOM     27  C   UNL A   1      39.226  22.404  26.381  1.00  0.00     0.060 A 
ATOM     28  C   UNL A   1      40.420  22.329  27.090  1.00  0.00     0.016 A 
ATOM     29  C   UNL A   1      38.656  23.645  26.109  1.00  0.00     0.016 A 
ATOM     30  C   UNL A   1      41.024  23.507  27.543  1.00  0.00     0.010 A 
ATOM     31  C   UNL A   1      39.310  24.823  26.473  1.00  0.00     0.010 A 
ATOM     32  C   UNL A   1      40.498  24.773  27.212  1.00  0.00    -0.014 A 
BRANCH  32  33
ATOM     33  C   UNL A   1      41.212  26.026  27.604  1.00  0.00     0.031 A 
ATOM     34  C   UNL A   1      42.565  26.379  27.033  1.00  0.00     0.074 A 
ATOM     35  C   UNL A   1      40.650  26.852  28.512  1.00  0.00     0.049 A 
ATOM     36  N   UNL A   1      43.282  27.459  27.230  1.00  0.00    -0.248 NA
ATOM     37  C   UNL A   1      43.215  25.388  26.163  1.00  0.00     0.031 C 
ATOM     38  C   UNL A   1      39.397  26.596  29.225  1.00  0.00     0.029 A 
ATOM     39  N   UNL A   1      41.046  28.085  28.973  1.00  0.00    -0.354 N 
ATOM     40  C   UNL A   1      44.469  27.264  26.532  1.00  0.00     0.074 A 
ATOM     41  C   UNL A   1      44.402  25.940  25.953  1.00  0.00     0.031 C 
ATOM     42  C   UNL A   1      39.084  27.671  29.965  1.00  0.00     0.029 A 
ATOM     43  C   UNL A   1      40.132  28.676  29.814  1.00  0.00     0.049 A 
ATOM     44  H   UNL A   1      41.901  28.505  28.726  1.00  0.00     0.167 HD
ATOM     45  C   UNL A   1      45.507  28.116  26.356  1.00  0.00     0.031 A 
ATOM     46  C   UNL A   1      40.115  29.898  30.381  1.00  0.00     0.031 A 
ATOM     47  C   UNL A   1      45.559  29.454  26.884  1.00  0.00     0.049 A 
ATOM     48  C   UNL A   1      41.238  30.859  30.111  1.00  0.00     0.074 A 
ATOM     49  C   UNL A   1      46.528  30.420  26.677  1.00  0.00     0.029 A 
ATOM     50  N   UNL A   1      44.600  30.016  27.710  1.00  0.00    -0.354 N 
ATOM     51  N   UNL A   1      42.305  30.688  29.370  1.00  0.00    -0.248 NA
ATOM     52  C   UNL A   1      41.150  32.184  30.744  1.00  0.00     0.031 C 
ATOM     53  C   UNL A   1      46.177  31.556  27.411  1.00  0.00     0.029 A 
ATOM     54  C   UNL A   1      44.962  31.313  28.031  1.00  0.00     0.049 A 
ATOM     55  H   UNL A   1      43.785  29.562  28.022  1.00  0.00     0.167 HD
ATOM     56  C   UNL A   1      43.008  31.884  29.437  1.00  0.00     0.074 A 
ATOM     57  C   UNL A   1      42.235  32.781  30.269  1.00  0.00     0.031 C 
ATOM     58  C   UNL A   1      44.191  32.203  28.859  1.00  0.00     0.031 A 
BRANCH  45  59
ATOM     59  C   UNL A   1      46.671  27.653  25.522  1.00  0.00    -0.014 A 
ATOM     60  C   UNL A   1      46.710  27.940  24.148  1.00  0.00     0.009 A 
ATOM     61  C   UNL A   1      47.681  26.849  26.074  1.00  0.00     0.009 A 
ATOM     62  C   UNL A   1      47.731  27.428  23.345  1.00  0.00     0.001 A 
ATOM     63  C   UNL A   1      48.718  26.364  25.275  1.00  0.00     0.001 A 
ATOM     64  C   UNL A   1      48.737  26.646  23.910  1.00  0.00     0.000 A 
ENDBRANCH  45  59
BRANCH  46  65
ATOM     65  C   UNL A   1      38.946  30.305  31.206  1.00  0.00    -0.014 A 
ATOM     66  C   UNL A   1      38.925  30.076  32.589  1.00  0.00     0.009 A 
ATOM     67  C   UNL A   1      37.820  30.881  30.596  1.00  0.00     0.009 A 
ATOM     68  C   UNL A   1      37.795  30.399  33.344  1.00  0.00     0.001 A 
ATOM     69  C   UNL A   1      36.701  31.227  31.358  1.00  0.00     0.001 A 
ATOM     70  C   UNL A   1      36.686  30.978  32.728  1.00  0.00     0.000 A 
ENDBRANCH  46  65
BRANCH  58  71
ATOM     71  C   UNL A   1      44.740  33.581  29.092  1.00  0.00    -0.014 A 
ATOM     72  C   UNL A   1      45.541  33.832  30.218  1.00  0.00     0.009 A 
ATOM     73  C   UNL A   1      44.376  34.652  28.262  1.00  0.00     0.009 A 
ATOM     74  C   UNL A   1      45.954  35.131  30.517  1.00  0.00     0.001 A 
ATOM     75  C   UNL A   1      44.813  35.946  28.549  1.00  0.00     0.001 A 
ATOM     76  C   UNL A   1      45.592  36.186  29.681  1.00  0.00     0.000 A 
ENDBRANCH  58  71
ENDBRANCH  32  33
ENDBRANCH  25  27
ENDBRANCH  24  25
ENDBRANCH  23  24
ENDBRANCH   1  23
TORSDOF 14
ENDMDL
MODEL 2
REMARK VINA RESULT:     -11.1      3.960      8.869
REMARK SMILES CCCc1cc2c(cc1Cl)C=C(C(=O)OCCOC(=O)c1ccc(-c3c4nc(c(-c5ccccc5)c5ccc([nH]5)c(-c5ccccc5)c5nc(c(-c6ccccc6)c6ccc3[nH]6)C=C5)C=C4)cc1)[C@H](C(F)(F)F)O2
REMARK SMILES IDX 16 1 15 2 13 3 14 4 12 5 4 6 5 7 9 8 6 9 8 10 10 11 7 12
REMARK SMILES IDX 74 13 11 14 69 15 3 16 2 17 1 18 70 19 71 20 72 21 73 22
REMARK SMILES IDX 17 23 18 24 19 25 20 26 21 27 22 28 68 29 23 30 67 31 24 32
REMARK SMILES IDX 25 33 26 34 61 35 27 36 66 37 60 38 62 39 28 40 65 41 59 42
REMARK SMILES IDX 58 43 29 45 51 46 36 47 50 48 37 49 40 50 49 51 63 52 38 53
REMARK SMILES IDX 39 54 48 56 64 57 41 58 30 59 31 60 35 61 32 62 34 63 33 64
REMARK SMILES IDX 52 65 53 66 57 67 54 68 56 69 55 70 42 71 43 72 47 73 44 74
REMARK SMILES IDX 46 75 45 76
REMARK H PARENT 62 44 40 55
REMARK Flexibility Score: inf
ROOT
ATOM      1  C   UNL A   1      31.321  29.691  24.619  1.00  0.00     0.275 C 
ENDROOT
BRANCH   1   2
ATOM      2  O   UNL A   1      32.206  28.568  24.831  1.00  0.00    -0.459 OA
BRANCH   2   3
ATOM      3  C   UNL A   1      33.085  28.312  23.839  1.00  0.00     0.338 C 
ATOM      4  O   UNL A   1      33.671  29.148  23.167  1.00  0.00    -0.246 OA
BRANCH   3   5
ATOM      5  C   UNL A   1      33.350  26.862  23.729  1.00  0.00     0.087 C 
ATOM      6  C   UNL A   1      34.465  22.059  24.863  1.00  0.00    -0.026 A 
ATOM      7  C   UNL A   1      34.352  22.802  23.663  1.00  0.00     0.052 A 
ATOM      8  C   UNL A   1      34.219  22.732  26.070  1.00  0.00     0.045 A 
ATOM      9  C   UNL A   1      34.016  24.159  23.666  1.00  0.00     0.128 A 
ATOM     10  C   UNL A   1      33.867  24.086  26.070  1.00  0.00     0.032 A 
ATOM     11  Cl  UNL A   1      34.400  22.007  27.625  1.00  0.00    -0.084 Cl
ATOM     12  C   UNL A   1      33.795  24.802  24.875  1.00  0.00     0.019 A 
ATOM     13  O   UNL A   1      33.985  24.801  22.461  1.00  0.00    -0.475 OA
ATOM     14  C   UNL A   1      33.563  26.231  24.891  1.00  0.00     0.027 C 
ATOM     15  C   UNL A   1      33.439  26.158  22.397  1.00  0.00     0.316 C 
BRANCH   6  16
ATOM     16  C   UNL A   1      34.967  20.632  24.752  1.00  0.00     0.037 C 
BRANCH  16  17
ATOM     17  C   UNL A   1      33.972  19.467  24.683  1.00  0.00     0.001 C 
ATOM     18  C   UNL A   1      32.532  19.885  24.436  1.00  0.00     0.004 C 
ENDBRANCH  16  17
ENDBRANCH   6  16
BRANCH  15  19
ATOM     19  C   UNL A   1      32.142  26.151  21.563  1.00  0.00     0.430 C 
ATOM     20  F   UNL A   1      32.390  25.923  20.249  1.00  0.00    -0.167 F 
ATOM     21  F   UNL A   1      31.265  25.207  21.972  1.00  0.00    -0.167 F 
ATOM     22  F   UNL A   1      31.517  27.353  21.626  1.00  0.00    -0.167 F 
ENDBRANCH  15  19
ENDBRANCH   3   5
ENDBRANCH   2   3
ENDBRANCH   1   2
BRANCH   1  23
ATOM     23  C   UNL A   1      31.403  30.663  25.796  1.00  0.00     0.275 C 
BRANCH  23  24
ATOM     24  O   UNL A   1      32.612  30.411  26.539  1.00  0.00    -0.458 OA
BRANCH  24  25
ATOM     25  C   UNL A   1      33.175  31.480  27.140  1.00  0.00     0.338 C 
ATOM     26  O   UNL A   1      32.709  32.608  27.250  1.00  0.00    -0.246 OA
BRANCH  25  27
ATOM     27  C   UNL A   1      34.490  31.102  27.680  1.00  0.00     0.060 A 
ATOM     28  C   UNL A   1      35.421  32.078  28.018  1.00  0.00     0.016 A 
ATOM     29  C   UNL A   1      34.758  29.762  27.952  1.00  0.00     0.016 A 
ATOM     30  C   UNL A   1      36.632  31.697  28.608  1.00  0.00     0.010 A 
ATOM     31  C   UNL A   1      35.920  29.393  28.630  1.00  0.00     0.010 A 
ATOM     32  C   UNL A   1      36.885  30.354  28.955  1.00  0.00    -0.014 A 
BRANCH  32  33
ATOM     33  C   UNL A   1      38.131  29.975  29.687  1.00  0.00     0.031 A 
ATOM     34  C   UNL A   1      38.352  30.361  31.130  1.00  0.00     0.074 A 
ATOM     35  C   UNL A   1      39.099  29.293  29.038  1.00  0.00     0.049 A 
ATOM     36  N   UNL A   1      39.354  30.053  31.919  1.00  0.00    -0.248 NA
ATOM     37  C   UNL A   1      37.347  31.229  31.763  1.00  0.00     0.031 C 
ATOM     38  C   UNL A   1      39.074  28.937  27.618  1.00  0.00     0.029 A 
ATOM     39  N   UNL A   1      40.280  28.756  29.491  1.00  0.00    -0.354 N 
ATOM     40  C   UNL A   1      39.111  30.707  33.121  1.00  0.00     0.074 A 
ATOM     41  C   UNL A   1      37.897  31.474  32.944  1.00  0.00     0.031 C 
ATOM     42  C   UNL A   1      40.140  28.172  27.337  1.00  0.00     0.029 A 
ATOM     43  C   UNL A   1      40.947  28.016  28.543  1.00  0.00     0.049 A 
ATOM     44  H   UNL A   1      40.618  28.889  30.407  1.00  0.00     0.167 HD
ATOM     45  C   UNL A   1      39.809  30.652  34.281  1.00  0.00     0.031 A 
ATOM     46  C   UNL A   1      42.065  27.270  28.631  1.00  0.00     0.031 A 
ATOM     47  C   UNL A   1      40.987  29.849  34.482  1.00  0.00     0.049 A 
ATOM     48  C   UNL A   1      42.783  27.157  29.946  1.00  0.00     0.074 A 
ATOM     49  C   UNL A   1      41.704  29.658  35.651  1.00  0.00     0.029 A 
ATOM     50  N   UNL A   1      41.611  29.099  33.501  1.00  0.00    -0.354 N 
ATOM     51  N   UNL A   1      42.482  27.709  31.095  1.00  0.00    -0.248 NA
ATOM     52  C   UNL A   1      43.986  26.311  29.980  1.00  0.00     0.031 C 
ATOM     53  C   UNL A   1      42.788  28.823  35.367  1.00  0.00     0.029 A 
ATOM     54  C   UNL A   1      42.713  28.453  34.035  1.00  0.00     0.049 A 
ATOM     55  H   UNL A   1      41.317  29.035  32.563  1.00  0.00     0.167 HD
ATOM     56  C   UNL A   1      43.448  27.268  31.991  1.00  0.00     0.074 A 
ATOM     57  C   UNL A   1      44.330  26.384  31.259  1.00  0.00     0.031 C 
ATOM     58  C   UNL A   1      43.587  27.575  33.303  1.00  0.00     0.031 A 
BRANCH  45  59
ATOM     59  C   UNL A   1      39.304  31.450  35.452  1.00  0.00    -0.014 A 
ATOM     60  C   UNL A   1      38.329  30.906  36.305  1.00  0.00     0.009 A 
ATOM     61  C   UNL A   1      39.718  32.775  35.656  1.00  0.00     0.009 A 
ATOM     62  C   UNL A   1      37.778  31.675  37.333  1.00  0.00     0.001 A 
ATOM     63  C   UNL A   1      39.187  33.532  36.703  1.00  0.00     0.001 A 
ATOM     64  C   UNL A   1      38.212  32.984  37.534  1.00  0.00     0.000 A 
ENDBRANCH  45  59
BRANCH  46  65
ATOM     65  C   UNL A   1      42.530  26.507  27.441  1.00  0.00    -0.014 A 
ATOM     66  C   UNL A   1      43.419  27.081  26.519  1.00  0.00     0.009 A 
ATOM     67  C   UNL A   1      42.042  25.214  27.199  1.00  0.00     0.009 A 
ATOM     68  C   UNL A   1      43.795  26.382  25.370  1.00  0.00     0.001 A 
ATOM     69  C   UNL A   1      42.441  24.507  26.062  1.00  0.00     0.001 A 
ATOM     70  C   UNL A   1      43.310  25.095  25.145  1.00  0.00     0.000 A 
ENDBRANCH  46  65
BRANCH  58  71
ATOM     71  C   UNL A   1      44.731  26.955  34.054  1.00  0.00    -0.014 A 
ATOM     72  C   UNL A   1      45.985  27.589  34.062  1.00  0.00     0.009 A 
ATOM     73  C   UNL A   1      44.600  25.696  34.658  1.00  0.00     0.009 A 
ATOM     74  C   UNL A   1      47.088  26.966  34.647  1.00  0.00     0.001 A 
ATOM     75  C   UNL A   1      45.700  25.088  35.265  1.00  0.00     0.001 A 
ATOM     76  C   UNL A   1      46.944  25.718  35.250  1.00  0.00     0.000 A 
ENDBRANCH  58  71
ENDBRANCH  32  33
ENDBRANCH  25  27
ENDBRANCH  24  25
ENDBRANCH  23  24
ENDBRANCH   1  23
TORSDOF 14
ENDMDL
MODEL 3
REMARK VINA RESULT:     -10.8      5.691      9.480
REMARK SMILES CCCc1cc2c(cc1Cl)C=C(C(=O)OCCOC(=O)c1ccc(-c3c4nc(c(-c5ccccc5)c5ccc([nH]5)c(-c5ccccc5)c5nc(c(-c6ccccc6)c6ccc3[nH]6)C=C5)C=C4)cc1)[C@H](C(F)(F)F)O2
REMARK SMILES IDX 16 1 15 2 13 3 14 4 12 5 4 6 5 7 9 8 6 9 8 10 10 11 7 12
REMARK SMILES IDX 74 13 11 14 69 15 3 16 2 17 1 18 70 19 71 20 72 21 73 22
REMARK SMILES IDX 17 23 18 24 19 25 20 26 21 27 22 28 68 29 23 30 67 31 24 32
REMARK SMILES IDX 25 33 26 34 61 35 27 36 66 37 60 38 62 39 28 40 65 41 59 42
REMARK SMILES IDX 58 43 29 45 51 46 36 47 50 48 37 49 40 50 49 51 63 52 38 53
REMARK SMILES IDX 39 54 48 56 64 57 41 58 30 59 31 60 35 61 32 62 34 63 33 64
REMARK SMILES IDX 52 65 53 66 57 67 54 68 56 69 55 70 42 71 43 72 47 73 44 74
REMARK SMILES IDX 46 75 45 76
REMARK H PARENT 62 44 40 55
REMARK Flexibility Score: inf
ROOT
ATOM      1  C   UNL A   1      34.147  35.030  28.904  1.00  0.00     0.275 C 
ENDROOT
BRANCH   1   2
ATOM      2  O   UNL A   1      33.941  33.758  28.248  1.00  0.00    -0.459 OA
BRANCH   2   3
ATOM      3  C   UNL A   1      34.429  32.676  28.890  1.00  0.00     0.338 C 
ATOM      4  O   UNL A   1      34.952  32.673  29.995  1.00  0.00    -0.246 OA
BRANCH   3   5
ATOM      5  C   UNL A   1      34.151  31.440  28.129  1.00  0.00     0.087 C 
ATOM      6  C   UNL A   1      31.989  28.036  25.073  1.00  0.00    -0.026 A 
ATOM      7  C   UNL A   1      33.018  27.996  26.043  1.00  0.00     0.052 A 
ATOM      8  C   UNL A   1      31.372  29.274  24.831  1.00  0.00     0.045 A 
ATOM      9  C   UNL A   1      33.412  29.137  26.748  1.00  0.00     0.128 A 
ATOM     10  C   UNL A   1      31.777  30.418  25.525  1.00  0.00     0.032 A 
ATOM     11  Cl  UNL A   1      30.042  29.486  23.752  1.00  0.00    -0.084 Cl
ATOM     12  C   UNL A   1      32.773  30.343  26.501  1.00  0.00     0.019 A 
ATOM     13  O   UNL A   1      34.377  28.985  27.702  1.00  0.00    -0.475 OA
ATOM     14  C   UNL A   1      33.093  31.499  27.309  1.00  0.00     0.027 C 
ATOM     15  C   UNL A   1      34.961  30.180  28.314  1.00  0.00     0.316 C 
BRANCH   6  16
ATOM     16  C   UNL A   1      31.552  26.716  24.467  1.00  0.00     0.037 C 
BRANCH  16  17
ATOM     17  C   UNL A   1      30.361  25.952  25.058  1.00  0.00     0.001 C 
ATOM     18  C   UNL A   1      29.029  26.255  24.392  1.00  0.00     0.004 C 
ENDBRANCH  16  17
ENDBRANCH   6  16
BRANCH  15  19
ATOM     19  C   UNL A   1      36.447  30.284  27.917  1.00  0.00     0.430 C 
ATOM     20  F   UNL A   1      36.626  30.120  26.583  1.00  0.00    -0.167 F 
ATOM     21  F   UNL A   1      36.992  31.476  28.248  1.00  0.00    -0.167 F 
ATOM     22  F   UNL A   1      37.180  29.312  28.518  1.00  0.00    -0.167 F 
ENDBRANCH  15  19
ENDBRANCH   3   5
ENDBRANCH   2   3
ENDBRANCH   1   2
BRANCH   1  23
ATOM     23  C   UNL A   1      32.861  35.489  29.590  1.00  0.00     0.275 C 
BRANCH  23  24
ATOM     24  O   UNL A   1      33.191  36.178  30.811  1.00  0.00    -0.458 OA
BRANCH  24  25
ATOM     25  C   UNL A   1      32.827  35.566  31.958  1.00  0.00     0.338 C 
ATOM     26  O   UNL A   1      31.717  35.545  32.475  1.00  0.00    -0.246 OA
BRANCH  25  27
ATOM     27  C   UNL A   1      33.995  34.886  32.541  1.00  0.00     0.060 A 
ATOM     28  C   UNL A   1      33.880  33.596  33.045  1.00  0.00     0.016 A 
ATOM     29  C   UNL A   1      35.242  35.503  32.488  1.00  0.00     0.016 A 
ATOM     30  C   UNL A   1      35.022  32.939  33.518  1.00  0.00     0.010 A 
ATOM     31  C   UNL A   1      36.394  34.812  32.865  1.00  0.00     0.010 A 
ATOM     32  C   UNL A   1      36.301  33.523  33.403  1.00  0.00    -0.014 A 
BRANCH  32  33
ATOM     33  C   UNL A   1      37.526  32.768  33.805  1.00  0.00     0.031 A 
ATOM     34  C   UNL A   1      38.182  31.770  32.881  1.00  0.00     0.074 A 
ATOM     35  C   UNL A   1      38.046  32.959  35.036  1.00  0.00     0.049 A 
ATOM     36  N   UNL A   1      39.284  31.082  33.064  1.00  0.00    -0.248 NA
ATOM     37  C   UNL A   1      37.507  31.477  31.608  1.00  0.00     0.031 C 
ATOM     38  C   UNL A   1      37.467  33.813  36.075  1.00  0.00     0.029 A 
ATOM     39  N   UNL A   1      39.193  32.467  35.615  1.00  0.00    -0.354 N 
ATOM     40  C   UNL A   1      39.415  30.264  31.948  1.00  0.00     0.074 A 
ATOM     41  C   UNL A   1      38.253  30.497  31.118  1.00  0.00     0.031 C 
ATOM     42  C   UNL A   1      38.299  33.852  37.127  1.00  0.00     0.029 A 
ATOM     43  C   UNL A   1      39.451  32.997  36.858  1.00  0.00     0.049 A 
ATOM     44  H   UNL A   1      39.773  31.800  35.182  1.00  0.00     0.167 HD
ATOM     45  C   UNL A   1      40.423  29.419  31.621  1.00  0.00     0.031 A 
ATOM     46  C   UNL A   1      40.506  32.841  37.682  1.00  0.00     0.031 A 
ATOM     47  C   UNL A   1      41.607  29.221  32.415  1.00  0.00     0.049 A 
ATOM     48  C   UNL A   1      41.650  31.961  37.267  1.00  0.00     0.074 A 
ATOM     49  C   UNL A   1      42.722  28.458  32.114  1.00  0.00     0.029 A 
ATOM     50  N   UNL A   1      41.835  29.796  33.653  1.00  0.00    -0.354 N 
ATOM     51  N   UNL A   1      41.797  31.270  36.164  1.00  0.00    -0.248 NA
ATOM     52  C   UNL A   1      42.779  31.849  38.203  1.00  0.00     0.031 C 
ATOM     53  C   UNL A   1      43.610  28.538  33.191  1.00  0.00     0.029 A 
ATOM     54  C   UNL A   1      43.068  29.395  34.136  1.00  0.00     0.049 A 
ATOM     55  H   UNL A   1      41.213  30.400  34.121  1.00  0.00     0.167 HD
ATOM     56  C   UNL A   1      43.037  30.652  36.266  1.00  0.00     0.074 A 
ATOM     57  C   UNL A   1      43.613  31.069  37.527  1.00  0.00     0.031 C 
ATOM     58  C   UNL A   1      43.638  29.812  35.390  1.00  0.00     0.031 A 
BRANCH  45  59
ATOM     59  C   UNL A   1      40.322  28.664  30.323  1.00  0.00    -0.014 A 
ATOM     60  C   UNL A   1      40.873  29.204  29.150  1.00  0.00     0.009 A 
ATOM     61  C   UNL A   1      39.597  27.464  30.240  1.00  0.00     0.009 A 
ATOM     62  C   UNL A   1      40.696  28.562  27.923  1.00  0.00     0.001 A 
ATOM     63  C   UNL A   1      39.447  26.809  29.017  1.00  0.00     0.001 A 
ATOM     64  C   UNL A   1      39.989  27.363  27.858  1.00  0.00     0.000 A 
ENDBRANCH  45  59
BRANCH  46  65
ATOM     65  C   UNL A   1      40.553  33.603  38.959  1.00  0.00    -0.014 A 
ATOM     66  C   UNL A   1      41.139  34.876  39.018  1.00  0.00     0.009 A 
ATOM     67  C   UNL A   1      40.052  33.031  40.139  1.00  0.00     0.009 A 
ATOM     68  C   UNL A   1      41.240  35.553  40.235  1.00  0.00     0.001 A 
ATOM     69  C   UNL A   1      40.130  33.722  41.350  1.00  0.00     0.001 A 
ATOM     70  C   UNL A   1      40.731  34.978  41.399  1.00  0.00     0.000 A 
ENDBRANCH  46  65
BRANCH  58  71
ATOM     71  C   UNL A   1      44.996  29.277  35.745  1.00  0.00    -0.014 A 
ATOM     72  C   UNL A   1      45.105  28.106  36.512  1.00  0.00     0.009 A 
ATOM     73  C   UNL A   1      46.159  29.988  35.418  1.00  0.00     0.009 A 
ATOM     74  C   UNL A   1      46.353  27.665  36.956  1.00  0.00     0.001 A 
ATOM     75  C   UNL A   1      47.408  29.531  35.842  1.00  0.00     0.001 A 
ATOM     76  C   UNL A   1      47.503  28.377  36.619  1.00  0.00     0.000 A 
ENDBRANCH  58  71
ENDBRANCH  32  33
ENDBRANCH  25  27
ENDBRANCH  24  25
ENDBRANCH  23  24
ENDBRANCH   1  23
TORSDOF 14
ENDMDL
