MODEL 1
REMARK VINA RESULT:     -11.7      0.000      0.000
REMARK SMILES CC(C)=C1[C@H]2CC[C@@H]1[C@H](C(=O)NNC(=O)c1ccoc1C)[C@H]2C(=O)OCCOC(=O)c1ccc(-c2c3nc(c(-c4ccccc4)c4ccc([nH]4)c(-c4ccccc4)c4nc(c(-c5ccccc5)c5ccc2[nH]5)C=C4)C=C3)cc1
REMARK SMILES IDX 26 1 25 2 23 3 24 4 22 5 1 6 2 7 3 8 4 9 5 10 8 11 6 12 7 13
REMARK SMILES IDX 9 14 10 15 11 16 12 17 13 19 14 20 15 22 16 23 17 24 20 25
REMARK SMILES IDX 18 26 19 27 21 28 27 29 28 30 29 31 30 32 31 33 32 34 78 35
REMARK SMILES IDX 33 36 77 37 34 38 35 39 36 40 71 41 37 42 76 43 70 44 72 45
REMARK SMILES IDX 38 46 75 47 69 48 68 49 39 51 61 52 46 53 60 54 47 55 50 56
REMARK SMILES IDX 59 57 73 58 48 59 49 60 58 62 74 63 51 64 40 65 41 66 45 67
REMARK SMILES IDX 42 68 44 69 43 70 62 71 63 72 67 73 64 74 66 75 65 76 52 77
REMARK SMILES IDX 53 78 57 79 54 80 56 81 55 82
REMARK H PARENT 12 18 13 21 72 50 50 61
REMARK Flexibility Score: inf
ROOT
ATOM      1  C   UNL A   1      37.790  21.320  25.223  1.00  0.00     0.274 C 
ENDROOT
BRANCH   1   2
ATOM      2  O   UNL A   1      36.857  21.418  24.132  1.00  0.00    -0.462 OA
BRANCH   2   3
ATOM      3  C   UNL A   1      36.204  22.591  24.006  1.00  0.00     0.310 C 
ATOM      4  O   UNL A   1      36.366  23.382  23.080  1.00  0.00    -0.252 OA
BRANCH   3   5
ATOM      5  C   UNL A   1      35.228  22.909  25.122  1.00  0.00     0.119 C 
ATOM      6  C   UNL A   1      31.882  24.305  22.245  1.00  0.00     0.039 C 
ATOM      7  C   UNL A   1      33.081  24.701  23.053  1.00  0.00    -0.077 C 
ATOM      8  C   UNL A   1      33.853  25.910  22.591  1.00  0.00     0.039 C 
ATOM      9  C   UNL A   1      33.437  24.043  24.169  1.00  0.00    -0.064 C 
ATOM     10  C   UNL A   1      34.592  24.306  25.086  1.00  0.00     0.030 C 
ATOM     11  C   UNL A   1      32.825  22.894  24.932  1.00  0.00     0.029 C 
ATOM     12  C   UNL A   1      33.825  24.549  26.394  1.00  0.00     0.009 C 
ATOM     13  C   UNL A   1      32.585  23.649  26.256  1.00  0.00     0.009 C 
ATOM     14  C   UNL A   1      34.040  21.926  25.034  1.00  0.00     0.102 C 
BRANCH  14  15
ATOM     15  C   UNL A   1      33.896  20.933  26.191  1.00  0.00     0.243 C 
ATOM     16  O   UNL A   1      34.344  21.200  27.311  1.00  0.00    -0.273 OA
ATOM     17  N   UNL A   1      33.204  19.755  26.073  1.00  0.00    -0.267 N 
ATOM     18  H   UNL A   1      33.248  19.144  26.843  1.00  0.00     0.191 HD
BRANCH  17  19
ATOM     19  N   UNL A   1      32.449  19.329  24.985  1.00  0.00    -0.263 N 
ATOM     20  C   UNL A   1      32.731  18.218  24.210  1.00  0.00     0.273 C 
ATOM     21  H   UNL A   1      31.652  19.857  24.750  1.00  0.00     0.191 HD
ATOM     22  O   UNL A   1      32.166  18.063  23.130  1.00  0.00    -0.267 OA
BRANCH  20  23
ATOM     23  C   UNL A   1      33.678  17.241  24.713  1.00  0.00     0.082 A 
ATOM     24  C   UNL A   1      35.098  17.260  24.629  1.00  0.00     0.056 A 
ATOM     25  C   UNL A   1      33.359  16.012  25.267  1.00  0.00     0.113 A 
ATOM     26  C   UNL A   1      35.541  16.063  25.137  1.00  0.00     0.196 A 
ATOM     27  O   UNL A   1      34.492  15.307  25.543  1.00  0.00    -0.469 OA
ATOM     28  C   UNL A   1      32.087  15.322  25.566  1.00  0.00     0.088 C 
ENDBRANCH  20  23
ENDBRANCH  17  19
ENDBRANCH  14  15
ENDBRANCH   3   5
ENDBRANCH   2   3
ENDBRANCH   1   2
BRANCH   1  29
ATOM     29  C   UNL A   1      38.732  20.134  25.006  1.00  0.00     0.275 C 
BRANCH  29  30
ATOM     30  O   UNL A   1      39.433  19.774  26.213  1.00  0.00    -0.458 OA
BRANCH  30  31
ATOM     31  C   UNL A   1      40.785  19.787  26.122  1.00  0.00     0.338 C 
ATOM     32  O   UNL A   1      41.502  18.936  25.627  1.00  0.00    -0.246 OA
BRANCH  31  33
ATOM     33  C   UNL A   1      41.307  21.084  26.588  1.00  0.00     0.060 A 
ATOM     34  C   UNL A   1      41.175  21.392  27.943  1.00  0.00     0.016 A 
ATOM     35  C   UNL A   1      41.857  22.013  25.704  1.00  0.00     0.016 A 
ATOM     36  C   UNL A   1      41.645  22.603  28.437  1.00  0.00     0.010 A 
ATOM     37  C   UNL A   1      42.292  23.250  26.192  1.00  0.00     0.010 A 
ATOM     38  C   UNL A   1      42.199  23.544  27.561  1.00  0.00    -0.014 A 
BRANCH  38  39
ATOM     39  C   UNL A   1      42.612  24.858  28.100  1.00  0.00     0.031 A 
ATOM     40  C   UNL A   1      41.568  25.888  28.400  1.00  0.00     0.074 A 
ATOM     41  C   UNL A   1      43.903  25.082  28.397  1.00  0.00     0.049 A 
ATOM     42  N   UNL A   1      41.714  27.087  28.902  1.00  0.00    -0.248 NA
ATOM     43  C   UNL A   1      40.178  25.523  28.089  1.00  0.00     0.031 C 
ATOM     44  C   UNL A   1      44.986  24.121  28.205  1.00  0.00     0.029 A 
ATOM     45  N   UNL A   1      44.514  26.166  28.975  1.00  0.00    -0.354 N 
ATOM     46  C   UNL A   1      40.441  27.639  28.925  1.00  0.00     0.074 A 
ATOM     47  C   UNL A   1      39.531  26.634  28.415  1.00  0.00     0.031 C 
ATOM     48  C   UNL A   1      46.114  24.623  28.732  1.00  0.00     0.029 A 
ATOM     49  C   UNL A   1      45.851  25.971  29.230  1.00  0.00     0.049 A 
ATOM     50  H   UNL A   1      44.040  27.002  29.188  1.00  0.00     0.167 HD
ATOM     51  C   UNL A   1      40.073  28.887  29.302  1.00  0.00     0.031 A 
ATOM     52  C   UNL A   1      46.756  26.793  29.795  1.00  0.00     0.031 A 
ATOM     53  C   UNL A   1      40.991  29.888  29.775  1.00  0.00     0.049 A 
ATOM     54  C   UNL A   1      46.323  28.183  30.182  1.00  0.00     0.074 A 
ATOM     55  C   UNL A   1      40.731  31.200  30.129  1.00  0.00     0.029 A 
ATOM     56  N   UNL A   1      42.352  29.687  29.954  1.00  0.00    -0.354 N 
ATOM     57  N   UNL A   1      45.122  28.711  30.165  1.00  0.00    -0.248 NA
ATOM     58  C   UNL A   1      47.377  29.101  30.634  1.00  0.00     0.031 C 
ATOM     59  C   UNL A   1      41.945  31.809  30.469  1.00  0.00     0.029 A 
ATOM     60  C   UNL A   1      42.949  30.858  30.390  1.00  0.00     0.049 A 
ATOM     61  H   UNL A   1      42.824  28.838  29.796  1.00  0.00     0.167 HD
ATOM     62  C   UNL A   1      45.278  30.024  30.593  1.00  0.00     0.074 A 
ATOM     63  C   UNL A   1      46.681  30.195  30.911  1.00  0.00     0.031 C 
ATOM     64  C   UNL A   1      44.350  31.008  30.691  1.00  0.00     0.031 A 
BRANCH  51  65
ATOM     65  C   UNL A   1      38.631  29.261  29.114  1.00  0.00    -0.014 A 
ATOM     66  C   UNL A   1      37.703  29.188  30.164  1.00  0.00     0.009 A 
ATOM     67  C   UNL A   1      38.196  29.697  27.852  1.00  0.00     0.009 A 
ATOM     68  C   UNL A   1      36.362  29.510  29.942  1.00  0.00     0.001 A 
ATOM     69  C   UNL A   1      36.862  30.045  27.640  1.00  0.00     0.001 A 
ATOM     70  C   UNL A   1      35.943  29.942  28.683  1.00  0.00     0.000 A 
ENDBRANCH  51  65
BRANCH  52  71
ATOM     71  C   UNL A   1      48.165  26.355  29.997  1.00  0.00    -0.014 A 
ATOM     72  C   UNL A   1      48.559  25.758  31.207  1.00  0.00     0.009 A 
ATOM     73  C   UNL A   1      49.132  26.559  29.002  1.00  0.00     0.009 A 
ATOM     74  C   UNL A   1      49.893  25.398  31.420  1.00  0.00     0.001 A 
ATOM     75  C   UNL A   1      50.457  26.164  29.203  1.00  0.00     0.001 A 
ATOM     76  C   UNL A   1      50.839  25.596  30.417  1.00  0.00     0.000 A 
ENDBRANCH  52  71
BRANCH  64  77
ATOM     77  C   UNL A   1      44.825  32.354  31.162  1.00  0.00    -0.014 A 
ATOM     78  C   UNL A   1      44.864  32.673  32.529  1.00  0.00     0.009 A 
ATOM     79  C   UNL A   1      45.283  33.299  30.230  1.00  0.00     0.009 A 
ATOM     80  C   UNL A   1      45.324  33.921  32.950  1.00  0.00     0.001 A 
ATOM     81  C   UNL A   1      45.770  34.535  30.657  1.00  0.00     0.001 A 
ATOM     82  C   UNL A   1      45.780  34.850  32.015  1.00  0.00     0.000 A 
ENDBRANCH  64  77
ENDBRANCH  38  39
ENDBRANCH  31  33
ENDBRANCH  30  31
ENDBRANCH  29  30
ENDBRANCH   1  29
TORSDOF 14
ENDMDL
MODEL 2
REMARK VINA RESULT:     -11.6      0.380      5.828
REMARK SMILES CC(C)=C1[C@H]2CC[C@@H]1[C@H](C(=O)NNC(=O)c1ccoc1C)[C@H]2C(=O)OCCOC(=O)c1ccc(-c2c3nc(c(-c4ccccc4)c4ccc([nH]4)c(-c4ccccc4)c4nc(c(-c5ccccc5)c5ccc2[nH]5)C=C4)C=C3)cc1
REMARK SMILES IDX 26 1 25 2 23 3 24 4 22 5 1 6 2 7 3 8 4 9 5 10 8 11 6 12 7 13
REMARK SMILES IDX 9 14 10 15 11 16 12 17 13 19 14 20 15 22 16 23 17 24 20 25
REMARK SMILES IDX 18 26 19 27 21 28 27 29 28 30 29 31 30 32 31 33 32 34 78 35
REMARK SMILES IDX 33 36 77 37 34 38 35 39 36 40 71 41 37 42 76 43 70 44 72 45
REMARK SMILES IDX 38 46 75 47 69 48 68 49 39 51 61 52 46 53 60 54 47 55 50 56
REMARK SMILES IDX 59 57 73 58 48 59 49 60 58 62 74 63 51 64 40 65 41 66 45 67
REMARK SMILES IDX 42 68 44 69 43 70 62 71 63 72 67 73 64 74 66 75 65 76 52 77
REMARK SMILES IDX 53 78 57 79 54 80 56 81 55 82
REMARK H PARENT 12 18 13 21 72 50 50 61
REMARK Flexibility Score: inf
ROOT
ATOM      1  C   UNL A   1      37.914  21.264  25.211  1.00  0.00     0.274 C 
ENDROOT
BRANCH   1   2
ATOM      2  O   UNL A   1      36.919  21.369  24.177  1.00  0.00    -0.462 OA
BRANCH   2   3
ATOM      3  C   UNL A   1      36.307  22.564  24.055  1.00  0.00     0.310 C 
ATOM      4  O   UNL A   1      36.534  23.374  23.159  1.00  0.00    -0.252 OA
BRANCH   3   5
ATOM      5  C   UNL A   1      35.289  22.880  25.134  1.00  0.00     0.119 C 
ATOM      6  C   UNL A   1      32.016  24.178  22.130  1.00  0.00     0.039 C 
ATOM      7  C   UNL A   1      33.181  24.606  22.970  1.00  0.00    -0.077 C 
ATOM      8  C   UNL A   1      33.947  25.821  22.516  1.00  0.00     0.039 C 
ATOM      9  C   UNL A   1      33.511  23.970  24.106  1.00  0.00    -0.064 C 
ATOM     10  C   UNL A   1      34.631  24.265  25.057  1.00  0.00     0.030 C 
ATOM     11  C   UNL A   1      32.894  22.822  24.865  1.00  0.00     0.029 C 
ATOM     12  C   UNL A   1      33.818  24.514  26.336  1.00  0.00     0.009 C 
ATOM     13  C   UNL A   1      32.599  23.590  26.170  1.00  0.00     0.009 C 
ATOM     14  C   UNL A   1      34.121  21.876  25.021  1.00  0.00     0.102 C 
BRANCH  14  15
ATOM     15  C   UNL A   1      33.956  20.896  26.187  1.00  0.00     0.243 C 
ATOM     16  O   UNL A   1      34.413  21.163  27.303  1.00  0.00    -0.273 OA
ATOM     17  N   UNL A   1      33.237  19.735  26.080  1.00  0.00    -0.267 N 
ATOM     18  H   UNL A   1      33.268  19.129  26.856  1.00  0.00     0.191 HD
BRANCH  17  19
ATOM     19  N   UNL A   1      32.469  19.317  24.998  1.00  0.00    -0.263 N 
ATOM     20  C   UNL A   1      32.733  18.201  24.222  1.00  0.00     0.273 C 
ATOM     21  H   UNL A   1      31.678  19.854  24.767  1.00  0.00     0.191 HD
ATOM     22  O   UNL A   1      32.160  18.053  23.146  1.00  0.00    -0.267 OA
BRANCH  20  23
ATOM     23  C   UNL A   1      33.671  17.214  24.720  1.00  0.00     0.082 A 
ATOM     24  C   UNL A   1      35.091  17.212  24.621  1.00  0.00     0.056 A 
ATOM     25  C   UNL A   1      33.341  15.992  25.283  1.00  0.00     0.113 A 
ATOM     26  C   UNL A   1      35.522  16.011  25.129  1.00  0.00     0.196 A 
ATOM     27  O   UNL A   1      34.467  15.272  25.551  1.00  0.00    -0.469 OA
ATOM     28  C   UNL A   1      32.062  15.323  25.600  1.00  0.00     0.088 C 
ENDBRANCH  20  23
ENDBRANCH  17  19
ENDBRANCH  14  15
ENDBRANCH   3   5
ENDBRANCH   2   3
ENDBRANCH   1   2
BRANCH   1  29
ATOM     29  C   UNL A   1      38.749  19.998  25.012  1.00  0.00     0.275 C 
BRANCH  29  30
ATOM     30  O   UNL A   1      39.476  19.638  26.204  1.00  0.00    -0.458 OA
BRANCH  30  31
ATOM     31  C   UNL A   1      40.825  19.730  26.110  1.00  0.00     0.338 C 
ATOM     32  O   UNL A   1      41.587  18.928  25.603  1.00  0.00    -0.246 OA
BRANCH  31  33
ATOM     33  C   UNL A   1      41.272  21.050  26.590  1.00  0.00     0.060 A 
ATOM     34  C   UNL A   1      41.128  21.332  27.950  1.00  0.00     0.016 A 
ATOM     35  C   UNL A   1      41.764  22.020  25.716  1.00  0.00     0.016 A 
ATOM     36  C   UNL A   1      41.529  22.563  28.457  1.00  0.00     0.010 A 
ATOM     37  C   UNL A   1      42.128  23.274  26.218  1.00  0.00     0.010 A 
ATOM     38  C   UNL A   1      42.024  23.545  27.592  1.00  0.00    -0.014 A 
BRANCH  38  39
ATOM     39  C   UNL A   1      42.362  24.873  28.145  1.00  0.00     0.031 A 
ATOM     40  C   UNL A   1      43.800  25.242  28.341  1.00  0.00     0.074 A 
ATOM     41  C   UNL A   1      41.386  25.767  28.382  1.00  0.00     0.049 A 
ATOM     42  N   UNL A   1      44.310  26.362  28.782  1.00  0.00    -0.248 NA
ATOM     43  C   UNL A   1      44.793  24.213  27.999  1.00  0.00     0.031 C 
ATOM     44  C   UNL A   1      39.962  25.530  28.161  1.00  0.00     0.029 A 
ATOM     45  N   UNL A   1      41.448  27.070  28.805  1.00  0.00    -0.354 N 
ATOM     46  C   UNL A   1      45.683  26.159  28.816  1.00  0.00     0.074 A 
ATOM     47  C   UNL A   1      45.927  24.819  28.322  1.00  0.00     0.031 C 
ATOM     48  C   UNL A   1      39.291  26.674  28.372  1.00  0.00     0.029 A 
ATOM     49  C   UNL A   1      40.228  27.703  28.814  1.00  0.00     0.049 A 
ATOM     50  H   UNL A   1      42.286  27.510  29.076  1.00  0.00     0.167 HD
ATOM     51  C   UNL A   1      46.646  27.002  29.257  1.00  0.00     0.031 A 
ATOM     52  C   UNL A   1      39.908  28.968  29.149  1.00  0.00     0.031 A 
ATOM     53  C   UNL A   1      46.388  28.317  29.777  1.00  0.00     0.049 A 
ATOM     54  C   UNL A   1      40.998  29.875  29.659  1.00  0.00     0.074 A 
ATOM     55  C   UNL A   1      47.286  29.230  30.303  1.00  0.00     0.029 A 
ATOM     56  N   UNL A   1      45.133  28.906  29.843  1.00  0.00    -0.354 N 
ATOM     57  N   UNL A   1      42.291  29.661  29.724  1.00  0.00    -0.248 NA
ATOM     58  C   UNL A   1      40.579  31.186  30.173  1.00  0.00     0.031 C 
ATOM     59  C   UNL A   1      46.566  30.349  30.738  1.00  0.00     0.029 A 
ATOM     60  C   UNL A   1      45.230  30.160  30.423  1.00  0.00     0.049 A 
ATOM     61  H   UNL A   1      44.299  28.494  29.525  1.00  0.00     0.167 HD
ATOM     62  C   UNL A   1      42.837  30.804  30.295  1.00  0.00     0.074 A 
ATOM     63  C   UNL A   1      41.742  31.727  30.510  1.00  0.00     0.031 C 
ATOM     64  C   UNL A   1      44.124  31.059  30.635  1.00  0.00     0.031 A 
BRANCH  51  65
ATOM     65  C   UNL A   1      48.052  26.475  29.290  1.00  0.00    -0.014 A 
ATOM     66  C   UNL A   1      48.928  26.632  28.205  1.00  0.00     0.009 A 
ATOM     67  C   UNL A   1      48.507  25.807  30.439  1.00  0.00     0.009 A 
ATOM     68  C   UNL A   1      50.218  26.097  28.258  1.00  0.00     0.001 A 
ATOM     69  C   UNL A   1      49.804  25.300  30.500  1.00  0.00     0.001 A 
ATOM     70  C   UNL A   1      50.657  25.436  29.406  1.00  0.00     0.000 A 
ENDBRANCH  51  65
BRANCH  52  71
ATOM     71  C   UNL A   1      38.502  29.451  29.057  1.00  0.00    -0.014 A 
ATOM     72  C   UNL A   1      37.634  29.329  30.154  1.00  0.00     0.009 A 
ATOM     73  C   UNL A   1      38.007  30.004  27.866  1.00  0.00     0.009 A 
ATOM     74  C   UNL A   1      36.298  29.729  30.051  1.00  0.00     0.001 A 
ATOM     75  C   UNL A   1      36.682  30.438  27.778  1.00  0.00     0.001 A 
ATOM     76  C   UNL A   1      35.825  30.288  28.866  1.00  0.00     0.000 A 
ENDBRANCH  52  71
BRANCH  64  77
ATOM     77  C   UNL A   1      44.415  32.388  31.273  1.00  0.00    -0.014 A 
ATOM     78  C   UNL A   1      44.718  33.516  30.494  1.00  0.00     0.009 A 
ATOM     79  C   UNL A   1      44.339  32.526  32.668  1.00  0.00     0.009 A 
ATOM     80  C   UNL A   1      44.969  34.748  31.101  1.00  0.00     0.001 A 
ATOM     81  C   UNL A   1      44.562  33.765  33.270  1.00  0.00     0.001 A 
ATOM     82  C   UNL A   1      44.886  34.872  32.488  1.00  0.00     0.000 A 
ENDBRANCH  64  77
ENDBRANCH  38  39
ENDBRANCH  31  33
ENDBRANCH  30  31
ENDBRANCH  29  30
ENDBRANCH   1  29
TORSDOF 14
ENDMDL
MODEL 3
REMARK VINA RESULT:     -11.6      2.233      5.817
REMARK SMILES CC(C)=C1[C@H]2CC[C@@H]1[C@H](C(=O)NNC(=O)c1ccoc1C)[C@H]2C(=O)OCCOC(=O)c1ccc(-c2c3nc(c(-c4ccccc4)c4ccc([nH]4)c(-c4ccccc4)c4nc(c(-c5ccccc5)c5ccc2[nH]5)C=C4)C=C3)cc1
REMARK SMILES IDX 26 1 25 2 23 3 24 4 22 5 1 6 2 7 3 8 4 9 5 10 8 11 6 12 7 13
REMARK SMILES IDX 9 14 10 15 11 16 12 17 13 19 14 20 15 22 16 23 17 24 20 25
REMARK SMILES IDX 18 26 19 27 21 28 27 29 28 30 29 31 30 32 31 33 32 34 78 35
REMARK SMILES IDX 33 36 77 37 34 38 35 39 36 40 71 41 37 42 76 43 70 44 72 45
REMARK SMILES IDX 38 46 75 47 69 48 68 49 39 51 61 52 46 53 60 54 47 55 50 56
REMARK SMILES IDX 59 57 73 58 48 59 49 60 58 62 74 63 51 64 40 65 41 66 45 67
REMARK SMILES IDX 42 68 44 69 43 70 62 71 63 72 67 73 64 74 66 75 65 76 52 77
REMARK SMILES IDX 53 78 57 79 54 80 56 81 55 82
REMARK H PARENT 12 18 13 21 72 50 50 61
REMARK Flexibility Score: inf
ROOT
ATOM      1  C   UNL A   1      36.729  22.063  23.776  1.00  0.00     0.274 C 
ENDROOT
BRANCH   1   2
ATOM      2  O   UNL A   1      35.347  22.420  23.955  1.00  0.00    -0.462 OA
BRANCH   2   3
ATOM      3  C   UNL A   1      35.102  23.492  24.737  1.00  0.00     0.310 C 
ATOM      4  O   UNL A   1      35.667  24.578  24.626  1.00  0.00    -0.252 OA
BRANCH   3   5
ATOM      5  C   UNL A   1      34.060  23.278  25.817  1.00  0.00     0.119 C 
ATOM      6  C   UNL A   1      30.485  24.105  22.997  1.00  0.00     0.039 C 
ATOM      7  C   UNL A   1      31.488  24.687  23.946  1.00  0.00    -0.077 C 
ATOM      8  C   UNL A   1      31.848  26.139  23.762  1.00  0.00     0.039 C 
ATOM      9  C   UNL A   1      32.017  23.970  24.951  1.00  0.00    -0.064 C 
ATOM     10  C   UNL A   1      33.018  24.393  25.982  1.00  0.00     0.030 C 
ATOM     11  C   UNL A   1      31.786  22.566  25.453  1.00  0.00     0.029 C 
ATOM     12  C   UNL A   1      32.196  24.137  27.254  1.00  0.00     0.009 C 
ATOM     13  C   UNL A   1      31.303  22.945  26.868  1.00  0.00     0.009 C 
ATOM     14  C   UNL A   1      33.242  22.015  25.471  1.00  0.00     0.102 C 
BRANCH  14  15
ATOM     15  C   UNL A   1      33.401  20.824  26.420  1.00  0.00     0.243 C 
ATOM     16  O   UNL A   1      33.800  20.989  27.578  1.00  0.00    -0.273 OA
ATOM     17  N   UNL A   1      33.037  19.548  26.075  1.00  0.00    -0.267 N 
ATOM     18  H   UNL A   1      33.265  18.839  26.719  1.00  0.00     0.191 HD
BRANCH  17  19
ATOM     19  N   UNL A   1      32.383  19.145  24.914  1.00  0.00    -0.263 N 
ATOM     20  C   UNL A   1      32.763  18.077  24.120  1.00  0.00     0.273 C 
ATOM     21  H   UNL A   1      31.590  19.657  24.638  1.00  0.00     0.191 HD
ATOM     22  O   UNL A   1      32.290  17.951  22.994  1.00  0.00    -0.267 OA
BRANCH  20  23
ATOM     23  C   UNL A   1      33.701  17.111  24.657  1.00  0.00     0.082 A 
ATOM     24  C   UNL A   1      35.122  17.118  24.580  1.00  0.00     0.056 A 
ATOM     25  C   UNL A   1      33.372  15.900  25.246  1.00  0.00     0.113 A 
ATOM     26  C   UNL A   1      35.555  15.934  25.125  1.00  0.00     0.196 A 
ATOM     27  O   UNL A   1      34.499  15.197  25.548  1.00  0.00    -0.469 OA
ATOM     28  C   UNL A   1      32.094  15.228  25.559  1.00  0.00     0.088 C 
ENDBRANCH  20  23
ENDBRANCH  17  19
ENDBRANCH  14  15
ENDBRANCH   3   5
ENDBRANCH   2   3
ENDBRANCH   1   2
BRANCH   1  29
ATOM     29  C   UNL A   1      37.105  20.923  24.724  1.00  0.00     0.275 C 
BRANCH  29  30
ATOM     30  O   UNL A   1      37.608  21.413  25.983  1.00  0.00    -0.458 OA
BRANCH  30  31
ATOM     31  C   UNL A   1      38.934  21.221  26.191  1.00  0.00     0.338 C 
ATOM     32  O   UNL A   1      39.586  20.225  25.937  1.00  0.00    -0.246 OA
BRANCH  31  33
ATOM     33  C   UNL A   1      39.555  22.475  26.653  1.00  0.00     0.060 A 
ATOM     34  C   UNL A   1      39.043  23.677  26.162  1.00  0.00     0.016 A 
ATOM     35  C   UNL A   1      40.663  22.474  27.502  1.00  0.00     0.016 A 
ATOM     36  C   UNL A   1      39.593  24.889  26.562  1.00  0.00     0.010 A 
ATOM     37  C   UNL A   1      41.245  23.692  27.871  1.00  0.00     0.010 A 
ATOM     38  C   UNL A   1      40.705  24.903  27.412  1.00  0.00    -0.014 A 
BRANCH  38  39
ATOM     39  C   UNL A   1      41.323  26.202  27.751  1.00  0.00     0.031 A 
ATOM     40  C   UNL A   1      42.609  26.597  27.093  1.00  0.00     0.074 A 
ATOM     41  C   UNL A   1      40.684  27.052  28.574  1.00  0.00     0.049 A 
ATOM     42  N   UNL A   1      43.298  27.700  27.227  1.00  0.00    -0.248 NA
ATOM     43  C   UNL A   1      43.199  25.619  26.167  1.00  0.00     0.031 C 
ATOM     44  C   UNL A   1      39.397  26.791  29.212  1.00  0.00     0.029 A 
ATOM     45  N   UNL A   1      41.002  28.327  28.968  1.00  0.00    -0.354 N 
ATOM     46  C   UNL A   1      44.428  27.532  26.438  1.00  0.00     0.074 A 
ATOM     47  C   UNL A   1      44.317  26.234  25.806  1.00  0.00     0.031 C 
ATOM     48  C   UNL A   1      38.994  27.901  29.852  1.00  0.00     0.029 A 
ATOM     49  C   UNL A   1      40.028  28.925  29.731  1.00  0.00     0.049 A 
ATOM     50  H   UNL A   1      41.847  28.772  28.726  1.00  0.00     0.167 HD
ATOM     51  C   UNL A   1      45.480  28.371  26.289  1.00  0.00     0.031 A 
ATOM     52  C   UNL A   1      39.984  30.157  30.274  1.00  0.00     0.031 A 
ATOM     53  C   UNL A   1      45.595  29.643  26.949  1.00  0.00     0.049 A 
ATOM     54  C   UNL A   1      41.180  31.059  30.110  1.00  0.00     0.074 A 
ATOM     55  C   UNL A   1      46.645  30.544  26.910  1.00  0.00     0.029 A 
ATOM     56  N   UNL A   1      44.626  30.193  27.775  1.00  0.00    -0.354 N 
ATOM     57  N   UNL A   1      42.263  30.876  29.393  1.00  0.00    -0.248 NA
ATOM     58  C   UNL A   1      41.161  32.322  30.860  1.00  0.00     0.031 C 
ATOM     59  C   UNL A   1      46.333  31.613  27.758  1.00  0.00     0.029 A 
ATOM     60  C   UNL A   1      45.063  31.409  28.272  1.00  0.00     0.049 A 
ATOM     61  H   UNL A   1      43.756  29.779  27.978  1.00  0.00     0.167 HD
ATOM     62  C   UNL A   1      43.057  31.994  29.612  1.00  0.00     0.074 A 
ATOM     63  C   UNL A   1      42.309  32.872  30.488  1.00  0.00     0.031 C 
ATOM     64  C   UNL A   1      44.304  32.262  29.151  1.00  0.00     0.031 A 
BRANCH  51  65
ATOM     65  C   UNL A   1      46.631  27.882  25.457  1.00  0.00    -0.014 A 
ATOM     66  C   UNL A   1      46.693  28.104  24.073  1.00  0.00     0.009 A 
ATOM     67  C   UNL A   1      47.678  27.182  26.081  1.00  0.00     0.009 A 
ATOM     68  C   UNL A   1      47.763  27.603  23.326  1.00  0.00     0.001 A 
ATOM     69  C   UNL A   1      48.758  26.708  25.337  1.00  0.00     0.001 A 
ATOM     70  C   UNL A   1      48.796  26.910  23.959  1.00  0.00     0.000 A 
ENDBRANCH  51  65
BRANCH  52  71
ATOM     71  C   UNL A   1      38.798  30.606  31.054  1.00  0.00    -0.014 A 
ATOM     72  C   UNL A   1      37.762  31.320  30.428  1.00  0.00     0.009 A 
ATOM     73  C   UNL A   1      38.705  30.357  32.432  1.00  0.00     0.009 A 
ATOM     74  C   UNL A   1      36.674  31.793  31.170  1.00  0.00     0.001 A 
ATOM     75  C   UNL A   1      37.600  30.797  33.164  1.00  0.00     0.001 A 
ATOM     76  C   UNL A   1      36.592  31.525  32.536  1.00  0.00     0.000 A 
ENDBRANCH  52  71
BRANCH  64  77
ATOM     77  C   UNL A   1      44.933  33.556  29.587  1.00  0.00    -0.014 A 
ATOM     78  C   UNL A   1      44.747  34.737  28.851  1.00  0.00     0.009 A 
ATOM     79  C   UNL A   1      45.683  33.604  30.773  1.00  0.00     0.009 A 
ATOM     80  C   UNL A   1      45.325  35.933  29.278  1.00  0.00     0.001 A 
ATOM     81  C   UNL A   1      46.235  34.808  31.213  1.00  0.00     0.001 A 
ATOM     82  C   UNL A   1      46.064  35.969  30.461  1.00  0.00     0.000 A 
ENDBRANCH  64  77
ENDBRANCH  38  39
ENDBRANCH  31  33
ENDBRANCH  30  31
ENDBRANCH  29  30
ENDBRANCH   1  29
TORSDOF 14
ENDMDL
