MODEL 1
REMARK VINA RESULT:     -11.2      0.000      0.000
REMARK SMILES CC(C)C[C@H](NC(=O)[C@H](Cc1ccccc1)NC(=O)CNC(=O)CNC(=O)OCc1ccccc1)C(=O)OCCOC(=O)c1ccc(-c2c3nc(c(-c4ccccc4)c4ccc([nH]4)c(-c4ccccc4)c4nc(c(-c5ccccc5)c5ccc2[nH]5)C=C4)C=C3)cc1
REMARK SMILES IDX 6 1 7 2 8 3 5 5 4 6 2 7 1 8 3 9 36 10 37 11 38 12 39 13
REMARK SMILES IDX 40 14 41 15 42 16 43 17 44 18 45 19 91 20 46 21 90 22 47 23
REMARK SMILES IDX 48 24 49 25 84 26 50 27 89 28 83 29 85 30 51 31 88 32 82 33
REMARK SMILES IDX 81 34 52 36 74 37 59 38 73 39 60 40 63 41 72 42 86 43 61 44
REMARK SMILES IDX 62 45 71 47 87 48 64 49 53 50 54 51 58 52 55 53 57 54 56 55
REMARK SMILES IDX 75 56 76 57 80 58 77 59 79 60 78 61 65 62 66 63 70 64 67 65
REMARK SMILES IDX 69 66 68 67 9 68 17 69 18 70 19 72 20 73 21 74 22 75 23 77
REMARK SMILES IDX 24 78 25 79 26 80 27 82 28 83 29 84 30 85 31 86 35 87 32 88
REMARK SMILES IDX 34 89 33 90 10 91 11 92 12 93 16 94 13 95 15 96 14 97
REMARK H PARENT 6 4 85 35 63 46 17 71 21 76 25 81
REMARK Flexibility Score: inf
ROOT
ATOM      1  N   UNL A   1      33.284  25.426  25.636  1.00  0.00    -0.341 N 
ATOM      2  C   UNL A   1      33.108  26.562  24.805  1.00  0.00     0.243 C 
ATOM      3  O   UNL A   1      34.146  27.172  24.501  1.00  0.00    -0.273 OA
ATOM      4  H   UNL A   1      33.642  25.638  26.528  1.00  0.00     0.164 HD
ENDROOT
BRANCH   1   5
ATOM      5  C   UNL A   1      33.025  23.931  25.410  1.00  0.00     0.192 C 
BRANCH   5   6
ATOM      6  C   UNL A   1      33.368  23.389  23.985  1.00  0.00     0.040 C 
BRANCH   6   7
ATOM      7  C   UNL A   1      32.235  23.189  22.978  1.00  0.00    -0.015 C 
ATOM      8  C   UNL A   1      32.150  21.732  22.564  1.00  0.00     0.007 C 
ATOM      9  C   UNL A   1      30.940  23.676  23.654  1.00  0.00     0.007 C 
ENDBRANCH   6   7
ENDBRANCH   5   6
BRANCH   5  10
ATOM     10  C   UNL A   1      33.906  22.976  26.188  1.00  0.00     0.328 C 
ATOM     11  O   UNL A   1      33.720  22.674  27.363  1.00  0.00    -0.250 OA
BRANCH  10  12
ATOM     12  O   UNL A   1      34.852  22.433  25.390  1.00  0.00    -0.461 OA
BRANCH  12  13
ATOM     13  C   UNL A   1      35.603  21.455  26.082  1.00  0.00     0.274 C 
BRANCH  13  14
ATOM     14  C   UNL A   1      36.636  20.941  25.113  1.00  0.00     0.275 C 
BRANCH  14  15
ATOM     15  O   UNL A   1      37.922  21.635  25.131  1.00  0.00    -0.458 OA
BRANCH  15  16
ATOM     16  C   UNL A   1      38.939  21.443  25.996  1.00  0.00     0.338 C 
ATOM     17  O   UNL A   1      39.477  20.458  26.454  1.00  0.00    -0.246 OA
BRANCH  16  18
ATOM     18  C   UNL A   1      39.354  22.683  26.539  1.00  0.00     0.060 A 
ATOM     19  C   UNL A   1      40.525  22.709  27.266  1.00  0.00     0.016 A 
ATOM     20  C   UNL A   1      38.607  23.800  26.177  1.00  0.00     0.016 A 
ATOM     21  C   UNL A   1      41.037  23.943  27.510  1.00  0.00     0.010 A 
ATOM     22  C   UNL A   1      39.262  24.983  26.152  1.00  0.00     0.010 A 
ATOM     23  C   UNL A   1      40.453  25.049  26.864  1.00  0.00    -0.014 A 
BRANCH  23  24
ATOM     24  C   UNL A   1      41.083  26.335  27.040  1.00  0.00     0.031 A 
ATOM     25  C   UNL A   1      40.483  27.251  28.043  1.00  0.00     0.074 A 
ATOM     26  C   UNL A   1      42.239  26.502  26.385  1.00  0.00     0.049 A 
ATOM     27  N   UNL A   1      40.981  28.353  28.515  1.00  0.00    -0.248 NA
ATOM     28  C   UNL A   1      39.151  26.907  28.586  1.00  0.00     0.031 C 
ATOM     29  C   UNL A   1      42.803  25.573  25.391  1.00  0.00     0.029 A 
ATOM     30  N   UNL A   1      43.198  27.448  26.544  1.00  0.00    -0.354 N 
ATOM     31  C   UNL A   1      40.026  28.826  29.399  1.00  0.00     0.074 A 
ATOM     32  C   UNL A   1      38.884  27.955  29.343  1.00  0.00     0.031 C 
ATOM     33  C   UNL A   1      44.067  25.933  25.129  1.00  0.00     0.029 A 
ATOM     34  C   UNL A   1      44.354  27.151  25.870  1.00  0.00     0.049 A 
ATOM     35  H   UNL A   1      43.076  28.260  27.086  1.00  0.00     0.167 HD
ATOM     36  C   UNL A   1      40.138  29.885  30.222  1.00  0.00     0.031 A 
ATOM     37  C   UNL A   1      45.518  27.814  25.881  1.00  0.00     0.031 A 
ATOM     38  C   UNL A   1      41.312  30.703  30.237  1.00  0.00     0.049 A 
ATOM     39  C   UNL A   1      45.588  29.011  26.780  1.00  0.00     0.074 A 
ATOM     40  C   UNL A   1      41.566  31.838  30.974  1.00  0.00     0.029 A 
ATOM     41  N   UNL A   1      42.443  30.448  29.465  1.00  0.00    -0.354 N 
ATOM     42  N   UNL A   1      44.682  29.471  27.614  1.00  0.00    -0.248 NA
ATOM     43  C   UNL A   1      46.832  29.777  26.746  1.00  0.00     0.031 C 
ATOM     44  C   UNL A   1      42.833  32.303  30.605  1.00  0.00     0.029 A 
ATOM     45  C   UNL A   1      43.396  31.417  29.694  1.00  0.00     0.049 A 
ATOM     46  H   UNL A   1      42.547  29.687  28.849  1.00  0.00     0.167 HD
ATOM     47  C   UNL A   1      45.243  30.588  28.207  1.00  0.00     0.074 A 
ATOM     48  C   UNL A   1      46.590  30.695  27.670  1.00  0.00     0.031 C 
ATOM     49  C   UNL A   1      44.709  31.464  29.097  1.00  0.00     0.031 A 
BRANCH  36  50
ATOM     50  C   UNL A   1      38.958  30.197  31.090  1.00  0.00    -0.014 A 
ATOM     51  C   UNL A   1      37.896  30.997  30.631  1.00  0.00     0.009 A 
ATOM     52  C   UNL A   1      38.933  29.730  32.411  1.00  0.00     0.009 A 
ATOM     53  C   UNL A   1      36.849  31.341  31.487  1.00  0.00     0.001 A 
ATOM     54  C   UNL A   1      37.870  30.049  33.254  1.00  0.00     0.001 A 
ATOM     55  C   UNL A   1      36.833  30.860  32.795  1.00  0.00     0.000 A 
ENDBRANCH  36  50
BRANCH  37  56
ATOM     56  C   UNL A   1      46.634  27.380  25.005  1.00  0.00    -0.014 A 
ATOM     57  C   UNL A   1      47.495  26.337  25.370  1.00  0.00     0.009 A 
ATOM     58  C   UNL A   1      46.835  28.019  23.768  1.00  0.00     0.009 A 
ATOM     59  C   UNL A   1      48.554  25.970  24.534  1.00  0.00     0.001 A 
ATOM     60  C   UNL A   1      47.868  27.626  22.918  1.00  0.00     0.001 A 
ATOM     61  C   UNL A   1      48.737  26.612  23.309  1.00  0.00     0.000 A 
ENDBRANCH  37  56
BRANCH  49  62
ATOM     62  C   UNL A   1      45.609  32.581  29.526  1.00  0.00    -0.014 A 
ATOM     63  C   UNL A   1      46.468  32.437  30.627  1.00  0.00     0.009 A 
ATOM     64  C   UNL A   1      45.599  33.786  28.809  1.00  0.00     0.009 A 
ATOM     65  C   UNL A   1      47.257  33.507  31.040  1.00  0.00     0.001 A 
ATOM     66  C   UNL A   1      46.423  34.838  29.200  1.00  0.00     0.001 A 
ATOM     67  C   UNL A   1      47.236  34.703  30.325  1.00  0.00     0.000 A 
ENDBRANCH  49  62
ENDBRANCH  23  24
ENDBRANCH  16  18
ENDBRANCH  15  16
ENDBRANCH  14  15
ENDBRANCH  13  14
ENDBRANCH  12  13
ENDBRANCH  10  12
ENDBRANCH   5  10
ENDBRANCH   1   5
BRANCH   2  68
ATOM     68  C   UNL A   1      31.631  27.290  24.548  1.00  0.00     0.175 C 
BRANCH  68  69
ATOM     69  N   UNL A   1      31.395  27.936  25.859  1.00  0.00    -0.342 N 
ATOM     70  C   UNL A   1      31.926  28.978  26.530  1.00  0.00     0.240 C 
ATOM     71  H   UNL A   1      30.674  27.496  26.366  1.00  0.00     0.164 HD
ATOM     72  O   UNL A   1      31.363  29.266  27.595  1.00  0.00    -0.273 OA
BRANCH  70  73
ATOM     73  C   UNL A   1      33.016  29.923  26.003  1.00  0.00     0.216 C 
BRANCH  73  74
ATOM     74  N   UNL A   1      34.443  29.703  26.204  1.00  0.00    -0.346 N 
ATOM     75  C   UNL A   1      35.144  29.838  27.381  1.00  0.00     0.239 C 
ATOM     76  H   UNL A   1      34.962  29.428  25.414  1.00  0.00     0.164 HD
ATOM     77  O   UNL A   1      36.028  29.008  27.616  1.00  0.00    -0.273 OA
BRANCH  75  78
ATOM     78  C   UNL A   1      34.902  30.997  28.362  1.00  0.00     0.219 C 
BRANCH  78  79
ATOM     79  N   UNL A   1      35.190  32.278  27.779  1.00  0.00    -0.312 N 
ATOM     80  C   UNL A   1      34.664  33.484  28.096  1.00  0.00     0.407 C 
ATOM     81  H   UNL A   1      35.856  32.279  27.055  1.00  0.00     0.167 HD
ATOM     82  O   UNL A   1      34.814  34.442  27.349  1.00  0.00    -0.225 OA
BRANCH  80  83
ATOM     83  O   UNL A   1      33.998  33.483  29.267  1.00  0.00    -0.445 OA
BRANCH  83  84
ATOM     84  C   UNL A   1      34.842  33.720  30.396  1.00  0.00     0.270 C 
BRANCH  84  85
ATOM     85  C   UNL A   1      34.322  34.847  31.253  1.00  0.00    -0.011 A 
ATOM     86  C   UNL A   1      34.880  35.104  32.511  1.00  0.00     0.007 A 
ATOM     87  C   UNL A   1      33.306  35.687  30.773  1.00  0.00     0.007 A 
ATOM     88  C   UNL A   1      34.411  36.167  33.283  1.00  0.00     0.000 A 
ATOM     89  C   UNL A   1      32.845  36.754  31.543  1.00  0.00     0.000 A 
ATOM     90  C   UNL A   1      33.394  36.990  32.801  1.00  0.00     0.000 A 
ENDBRANCH  84  85
ENDBRANCH  83  84
ENDBRANCH  80  83
ENDBRANCH  78  79
ENDBRANCH  75  78
ENDBRANCH  73  74
ENDBRANCH  70  73
ENDBRANCH  68  69
BRANCH  68  91
ATOM     91  C   UNL A   1      31.408  28.536  23.402  1.00  0.00     0.070 C 
BRANCH  91  92
ATOM     92  C   UNL A   1      30.090  29.403  23.259  1.00  0.00    -0.045 A 
ATOM     93  C   UNL A   1      29.981  30.693  23.771  1.00  0.00     0.004 A 
ATOM     94  C   UNL A   1      28.902  28.960  22.644  1.00  0.00     0.004 A 
ATOM     95  C   UNL A   1      28.723  31.339  23.898  1.00  0.00     0.000 A 
ATOM     96  C   UNL A   1      27.629  29.535  22.833  1.00  0.00     0.000 A 
ATOM     97  C   UNL A   1      27.534  30.717  23.525  1.00  0.00     0.000 A 
ENDBRANCH  91  92
ENDBRANCH  68  91
ENDBRANCH   2  68
TORSDOF 25
ENDMDL
MODEL 2
REMARK VINA RESULT:     -11.1      1.211      5.690
REMARK SMILES CC(C)C[C@H](NC(=O)[C@H](Cc1ccccc1)NC(=O)CNC(=O)CNC(=O)OCc1ccccc1)C(=O)OCCOC(=O)c1ccc(-c2c3nc(c(-c4ccccc4)c4ccc([nH]4)c(-c4ccccc4)c4nc(c(-c5ccccc5)c5ccc2[nH]5)C=C4)C=C3)cc1
REMARK SMILES IDX 6 1 7 2 8 3 5 5 4 6 2 7 1 8 3 9 36 10 37 11 38 12 39 13
REMARK SMILES IDX 40 14 41 15 42 16 43 17 44 18 45 19 91 20 46 21 90 22 47 23
REMARK SMILES IDX 48 24 49 25 84 26 50 27 89 28 83 29 85 30 51 31 88 32 82 33
REMARK SMILES IDX 81 34 52 36 74 37 59 38 73 39 60 40 63 41 72 42 86 43 61 44
REMARK SMILES IDX 62 45 71 47 87 48 64 49 53 50 54 51 58 52 55 53 57 54 56 55
REMARK SMILES IDX 75 56 76 57 80 58 77 59 79 60 78 61 65 62 66 63 70 64 67 65
REMARK SMILES IDX 69 66 68 67 9 68 17 69 18 70 19 72 20 73 21 74 22 75 23 77
REMARK SMILES IDX 24 78 25 79 26 80 27 82 28 83 29 84 30 85 31 86 35 87 32 88
REMARK SMILES IDX 34 89 33 90 10 91 11 92 12 93 16 94 13 95 15 96 14 97
REMARK H PARENT 6 4 85 35 63 46 17 71 21 76 25 81
REMARK Flexibility Score: inf
ROOT
ATOM      1  N   UNL A   1      33.938  26.109  25.008  1.00  0.00    -0.341 N 
ATOM      2  C   UNL A   1      33.291  27.079  24.201  1.00  0.00     0.243 C 
ATOM      3  O   UNL A   1      34.022  27.695  23.409  1.00  0.00    -0.273 OA
ATOM      4  H   UNL A   1      34.604  26.487  25.627  1.00  0.00     0.164 HD
ENDROOT
BRANCH   1   5
ATOM      5  C   UNL A   1      33.802  24.583  25.100  1.00  0.00     0.192 C 
BRANCH   5   6
ATOM      6  C   UNL A   1      32.493  23.980  24.494  1.00  0.00     0.040 C 
BRANCH   6   7
ATOM      7  C   UNL A   1      31.793  22.839  25.232  1.00  0.00    -0.015 C 
ATOM      8  C   UNL A   1      32.178  21.504  24.623  1.00  0.00     0.007 C 
ATOM      9  C   UNL A   1      32.206  22.941  26.713  1.00  0.00     0.007 C 
ENDBRANCH   6   7
ENDBRANCH   5   6
BRANCH   5  10
ATOM     10  C   UNL A   1      34.778  23.774  24.273  1.00  0.00     0.328 C 
ATOM     11  O   UNL A   1      34.851  23.829  23.049  1.00  0.00    -0.250 OA
BRANCH  10  12
ATOM     12  O   UNL A   1      35.614  23.067  25.067  1.00  0.00    -0.461 OA
BRANCH  12  13
ATOM     13  C   UNL A   1      35.697  21.719  24.648  1.00  0.00     0.274 C 
BRANCH  13  14
ATOM     14  C   UNL A   1      37.138  21.310  24.800  1.00  0.00     0.275 C 
BRANCH  14  15
ATOM     15  O   UNL A   1      37.912  22.067  25.780  1.00  0.00    -0.458 OA
BRANCH  15  16
ATOM     16  C   UNL A   1      39.112  21.737  26.302  1.00  0.00     0.338 C 
ATOM     17  O   UNL A   1      39.572  20.717  26.768  1.00  0.00    -0.246 OA
BRANCH  16  18
ATOM     18  C   UNL A   1      39.928  22.888  26.406  1.00  0.00     0.060 A 
ATOM     19  C   UNL A   1      39.374  24.106  26.070  1.00  0.00     0.016 A 
ATOM     20  C   UNL A   1      41.188  22.707  26.969  1.00  0.00     0.016 A 
ATOM     21  C   UNL A   1      40.077  25.199  26.462  1.00  0.00     0.010 A 
ATOM     22  C   UNL A   1      41.720  23.769  27.616  1.00  0.00     0.010 A 
ATOM     23  C   UNL A   1      41.182  25.013  27.314  1.00  0.00    -0.014 A 
BRANCH  23  24
ATOM     24  C   UNL A   1      41.844  26.194  27.816  1.00  0.00     0.031 A 
ATOM     25  C   UNL A   1      43.130  26.571  27.177  1.00  0.00     0.074 A 
ATOM     26  C   UNL A   1      41.144  26.909  28.705  1.00  0.00     0.049 A 
ATOM     27  N   UNL A   1      43.793  27.679  27.314  1.00  0.00    -0.248 NA
ATOM     28  C   UNL A   1      43.773  25.588  26.279  1.00  0.00     0.031 C 
ATOM     29  C   UNL A   1      39.870  26.501  29.323  1.00  0.00     0.029 A 
ATOM     30  N   UNL A   1      41.343  28.174  29.150  1.00  0.00    -0.354 N 
ATOM     31  C   UNL A   1      44.920  27.520  26.525  1.00  0.00     0.074 A 
ATOM     32  C   UNL A   1      44.910  26.190  25.982  1.00  0.00     0.031 C 
ATOM     33  C   UNL A   1      39.343  27.552  29.965  1.00  0.00     0.029 A 
ATOM     34  C   UNL A   1      40.280  28.660  29.866  1.00  0.00     0.049 A 
ATOM     35  H   UNL A   1      42.164  28.689  28.978  1.00  0.00     0.167 HD
ATOM     36  C   UNL A   1      45.855  28.448  26.253  1.00  0.00     0.031 A 
ATOM     37  C   UNL A   1      40.106  29.889  30.370  1.00  0.00     0.031 A 
ATOM     38  C   UNL A   1      45.796  29.762  26.818  1.00  0.00     0.049 A 
ATOM     39  C   UNL A   1      41.190  30.882  30.077  1.00  0.00     0.074 A 
ATOM     40  C   UNL A   1      46.688  30.802  26.683  1.00  0.00     0.029 A 
ATOM     41  N   UNL A   1      44.759  30.208  27.632  1.00  0.00    -0.354 N 
ATOM     42  N   UNL A   1      42.267  30.734  29.338  1.00  0.00    -0.248 NA
ATOM     43  C   UNL A   1      41.039  32.205  30.679  1.00  0.00     0.031 C 
ATOM     44  C   UNL A   1      46.216  31.863  27.463  1.00  0.00     0.029 A 
ATOM     45  C   UNL A   1      44.995  31.508  28.025  1.00  0.00     0.049 A 
ATOM     46  H   UNL A   1      43.972  29.674  27.889  1.00  0.00     0.167 HD
ATOM     47  C   UNL A   1      42.931  31.947  29.386  1.00  0.00     0.074 A 
ATOM     48  C   UNL A   1      42.098  32.830  30.186  1.00  0.00     0.031 C 
ATOM     49  C   UNL A   1      44.122  32.311  28.845  1.00  0.00     0.031 A 
BRANCH  36  50
ATOM     50  C   UNL A   1      46.988  28.030  25.366  1.00  0.00    -0.014 A 
ATOM     51  C   UNL A   1      46.884  28.080  23.965  1.00  0.00     0.009 A 
ATOM     52  C   UNL A   1      48.161  27.524  25.941  1.00  0.00     0.009 A 
ATOM     53  C   UNL A   1      47.923  27.607  23.161  1.00  0.00     0.001 A 
ATOM     54  C   UNL A   1      49.210  27.082  25.136  1.00  0.00     0.001 A 
ATOM     55  C   UNL A   1      49.088  27.116  23.748  1.00  0.00     0.000 A 
ENDBRANCH  36  50
BRANCH  37  56
ATOM     56  C   UNL A   1      38.916  30.196  31.200  1.00  0.00    -0.014 A 
ATOM     57  C   UNL A   1      37.645  30.366  30.633  1.00  0.00     0.009 A 
ATOM     58  C   UNL A   1      39.053  30.310  32.595  1.00  0.00     0.009 A 
ATOM     59  C   UNL A   1      36.548  30.681  31.441  1.00  0.00     0.001 A 
ATOM     60  C   UNL A   1      37.951  30.586  33.403  1.00  0.00     0.001 A 
ATOM     61  C   UNL A   1      36.701  30.787  32.824  1.00  0.00     0.000 A 
ENDBRANCH  37  56
BRANCH  49  62
ATOM     62  C   UNL A   1      44.549  33.723  29.109  1.00  0.00    -0.014 A 
ATOM     63  C   UNL A   1      45.349  34.041  30.217  1.00  0.00     0.009 A 
ATOM     64  C   UNL A   1      44.151  34.738  28.229  1.00  0.00     0.009 A 
ATOM     65  C   UNL A   1      45.690  35.366  30.473  1.00  0.00     0.001 A 
ATOM     66  C   UNL A   1      44.531  36.056  28.464  1.00  0.00     0.001 A 
ATOM     67  C   UNL A   1      45.284  36.370  29.595  1.00  0.00     0.000 A 
ENDBRANCH  49  62
ENDBRANCH  23  24
ENDBRANCH  16  18
ENDBRANCH  15  16
ENDBRANCH  14  15
ENDBRANCH  13  14
ENDBRANCH  12  13
ENDBRANCH  10  12
ENDBRANCH   5  10
ENDBRANCH   1   5
BRANCH   2  68
ATOM     68  C   UNL A   1      31.760  27.660  24.516  1.00  0.00     0.175 C 
BRANCH  68  69
ATOM     69  N   UNL A   1      31.676  27.472  25.982  1.00  0.00    -0.342 N 
ATOM     70  C   UNL A   1      32.048  28.181  27.067  1.00  0.00     0.240 C 
ATOM     71  H   UNL A   1      31.243  26.622  26.225  1.00  0.00     0.164 HD
ATOM     72  O   UNL A   1      31.699  27.706  28.157  1.00  0.00    -0.273 OA
BRANCH  70  73
ATOM     73  C   UNL A   1      32.685  29.579  27.052  1.00  0.00     0.216 C 
BRANCH  73  74
ATOM     74  N   UNL A   1      34.063  29.835  26.652  1.00  0.00    -0.346 N 
ATOM     75  C   UNL A   1      35.072  30.345  27.437  1.00  0.00     0.239 C 
ATOM     76  H   UNL A   1      34.299  29.620  25.721  1.00  0.00     0.164 HD
ATOM     77  O   UNL A   1      36.201  29.867  27.296  1.00  0.00    -0.273 OA
BRANCH  75  78
ATOM     78  C   UNL A   1      34.850  31.505  28.423  1.00  0.00     0.219 C 
BRANCH  78  79
ATOM     79  N   UNL A   1      33.841  32.423  27.971  1.00  0.00    -0.312 N 
ATOM     80  C   UNL A   1      33.648  33.710  28.341  1.00  0.00     0.407 C 
ATOM     81  H   UNL A   1      33.207  32.070  27.306  1.00  0.00     0.167 HD
ATOM     82  O   UNL A   1      32.602  34.285  28.066  1.00  0.00    -0.225 OA
BRANCH  80  83
ATOM     83  O   UNL A   1      34.694  34.234  29.009  1.00  0.00    -0.445 OA
BRANCH  83  84
ATOM     84  C   UNL A   1      34.493  34.278  30.423  1.00  0.00     0.270 C 
BRANCH  84  85
ATOM     85  C   UNL A   1      35.804  34.290  31.171  1.00  0.00    -0.011 A 
ATOM     86  C   UNL A   1      35.830  34.411  32.565  1.00  0.00     0.007 A 
ATOM     87  C   UNL A   1      37.012  34.123  30.478  1.00  0.00     0.007 A 
ATOM     88  C   UNL A   1      37.046  34.391  33.249  1.00  0.00     0.000 A 
ATOM     89  C   UNL A   1      38.225  34.095  31.165  1.00  0.00     0.000 A 
ATOM     90  C   UNL A   1      38.242  34.234  32.550  1.00  0.00     0.000 A 
ENDBRANCH  84  85
ENDBRANCH  83  84
ENDBRANCH  80  83
ENDBRANCH  78  79
ENDBRANCH  75  78
ENDBRANCH  73  74
ENDBRANCH  70  73
ENDBRANCH  68  69
BRANCH  68  91
ATOM     91  C   UNL A   1      31.326  29.291  24.259  1.00  0.00     0.070 C 
BRANCH  91  92
ATOM     92  C   UNL A   1      29.930  29.771  23.685  1.00  0.00    -0.045 A 
ATOM     93  C   UNL A   1      29.446  31.063  23.872  1.00  0.00     0.004 A 
ATOM     94  C   UNL A   1      29.034  28.953  22.969  1.00  0.00     0.004 A 
ATOM     95  C   UNL A   1      28.090  31.393  23.615  1.00  0.00     0.000 A 
ATOM     96  C   UNL A   1      27.662  29.222  22.784  1.00  0.00     0.000 A 
ATOM     97  C   UNL A   1      27.172  30.445  23.170  1.00  0.00     0.000 A 
ENDBRANCH  91  92
ENDBRANCH  68  91
ENDBRANCH   2  68
TORSDOF 25
ENDMDL
MODEL 3
REMARK VINA RESULT:     -10.6      3.654      9.173
REMARK SMILES CC(C)C[C@H](NC(=O)[C@H](Cc1ccccc1)NC(=O)CNC(=O)CNC(=O)OCc1ccccc1)C(=O)OCCOC(=O)c1ccc(-c2c3nc(c(-c4ccccc4)c4ccc([nH]4)c(-c4ccccc4)c4nc(c(-c5ccccc5)c5ccc2[nH]5)C=C4)C=C3)cc1
REMARK SMILES IDX 6 1 7 2 8 3 5 5 4 6 2 7 1 8 3 9 36 10 37 11 38 12 39 13
REMARK SMILES IDX 40 14 41 15 42 16 43 17 44 18 45 19 91 20 46 21 90 22 47 23
REMARK SMILES IDX 48 24 49 25 84 26 50 27 89 28 83 29 85 30 51 31 88 32 82 33
REMARK SMILES IDX 81 34 52 36 74 37 59 38 73 39 60 40 63 41 72 42 86 43 61 44
REMARK SMILES IDX 62 45 71 47 87 48 64 49 53 50 54 51 58 52 55 53 57 54 56 55
REMARK SMILES IDX 75 56 76 57 80 58 77 59 79 60 78 61 65 62 66 63 70 64 67 65
REMARK SMILES IDX 69 66 68 67 9 68 17 69 18 70 19 72 20 73 21 74 22 75 23 77
REMARK SMILES IDX 24 78 25 79 26 80 27 82 28 83 29 84 30 85 31 86 35 87 32 88
REMARK SMILES IDX 34 89 33 90 10 91 11 92 12 93 16 94 13 95 15 96 14 97
REMARK H PARENT 6 4 85 35 63 46 17 71 21 76 25 81
REMARK Flexibility Score: inf
ROOT
ATOM      1  N   UNL A   1      33.617  25.526  25.935  1.00  0.00    -0.341 N 
ATOM      2  C   UNL A   1      33.749  24.121  25.789  1.00  0.00     0.243 C 
ATOM      3  O   UNL A   1      33.734  23.467  26.844  1.00  0.00    -0.273 OA
ATOM      4  H   UNL A   1      34.360  25.946  26.424  1.00  0.00     0.164 HD
ENDROOT
BRANCH   1   5
ATOM      5  C   UNL A   1      32.536  26.515  25.477  1.00  0.00     0.192 C 
BRANCH   5   6
ATOM      6  C   UNL A   1      31.209  25.877  24.955  1.00  0.00     0.040 C 
BRANCH   6   7
ATOM      7  C   UNL A   1      30.920  25.897  23.454  1.00  0.00    -0.015 C 
ATOM      8  C   UNL A   1      32.204  26.099  22.672  1.00  0.00     0.007 C 
ATOM      9  C   UNL A   1      30.236  24.561  23.110  1.00  0.00     0.007 C 
ENDBRANCH   6   7
ENDBRANCH   5   6
BRANCH   5  10
ATOM     10  C   UNL A   1      31.916  27.374  26.559  1.00  0.00     0.328 C 
ATOM     11  O   UNL A   1      32.084  27.190  27.761  1.00  0.00    -0.250 OA
BRANCH  10  12
ATOM     12  O   UNL A   1      31.243  28.416  26.022  1.00  0.00    -0.461 OA
BRANCH  12  13
ATOM     13  C   UNL A   1      32.127  29.324  25.393  1.00  0.00     0.274 C 
BRANCH  13  14
ATOM     14  C   UNL A   1      32.383  30.430  26.382  1.00  0.00     0.275 C 
BRANCH  14  15
ATOM     15  O   UNL A   1      33.770  30.588  26.812  1.00  0.00    -0.458 OA
BRANCH  15  16
ATOM     16  C   UNL A   1      34.240  31.437  27.749  1.00  0.00     0.338 C 
ATOM     17  O   UNL A   1      33.789  32.423  28.290  1.00  0.00    -0.246 OA
BRANCH  16  18
ATOM     18  C   UNL A   1      35.591  31.133  28.043  1.00  0.00     0.060 A 
ATOM     19  C   UNL A   1      36.453  32.184  28.280  1.00  0.00     0.016 A 
ATOM     20  C   UNL A   1      35.904  29.786  28.200  1.00  0.00     0.016 A 
ATOM     21  C   UNL A   1      37.642  31.852  28.843  1.00  0.00     0.010 A 
ATOM     22  C   UNL A   1      36.936  29.498  29.025  1.00  0.00     0.010 A 
ATOM     23  C   UNL A   1      37.822  30.532  29.297  1.00  0.00    -0.014 A 
BRANCH  23  24
ATOM     24  C   UNL A   1      39.046  30.229  30.000  1.00  0.00     0.031 A 
ATOM     25  C   UNL A   1      39.093  30.554  31.448  1.00  0.00     0.074 A 
ATOM     26  C   UNL A   1      39.956  29.543  29.296  1.00  0.00     0.049 A 
ATOM     27  N   UNL A   1      39.989  30.194  32.316  1.00  0.00    -0.248 NA
ATOM     28  C   UNL A   1      38.014  31.397  32.005  1.00  0.00     0.031 C 
ATOM     29  C   UNL A   1      39.878  29.242  27.856  1.00  0.00     0.029 A 
ATOM     30  N   UNL A   1      41.058  28.876  29.721  1.00  0.00    -0.354 N 
ATOM     31  C   UNL A   1      39.579  30.767  33.508  1.00  0.00     0.074 A 
ATOM     32  C   UNL A   1      38.414  31.569  33.250  1.00  0.00     0.031 C 
ATOM     33  C   UNL A   1      40.823  28.343  27.550  1.00  0.00     0.029 A 
ATOM     34  C   UNL A   1      41.606  28.081  28.747  1.00  0.00     0.049 A 
ATOM     35  H   UNL A   1      41.424  28.954  30.631  1.00  0.00     0.167 HD
ATOM     36  C   UNL A   1      40.125  30.584  34.724  1.00  0.00     0.031 A 
ATOM     37  C   UNL A   1      42.634  27.229  28.848  1.00  0.00     0.031 A 
ATOM     38  C   UNL A   1      41.279  29.759  34.913  1.00  0.00     0.049 A 
ATOM     39  C   UNL A   1      43.240  27.084  30.212  1.00  0.00     0.074 A 
ATOM     40  C   UNL A   1      41.983  29.507  36.069  1.00  0.00     0.029 A 
ATOM     41  N   UNL A   1      41.891  29.038  33.890  1.00  0.00    -0.354 N 
ATOM     42  N   UNL A   1      42.862  27.633  31.346  1.00  0.00    -0.248 NA
ATOM     43  C   UNL A   1      44.403  26.206  30.316  1.00  0.00     0.031 C 
ATOM     44  C   UNL A   1      43.058  28.677  35.734  1.00  0.00     0.029 A 
ATOM     45  C   UNL A   1      42.980  28.353  34.384  1.00  0.00     0.049 A 
ATOM     46  H   UNL A   1      41.589  29.021  32.953  1.00  0.00     0.167 HD
ATOM     47  C   UNL A   1      43.746  27.171  32.305  1.00  0.00     0.074 A 
ATOM     48  C   UNL A   1      44.641  26.253  31.619  1.00  0.00     0.031 C 
ATOM     49  C   UNL A   1      43.837  27.476  33.625  1.00  0.00     0.031 A 
BRANCH  36  50
ATOM     50  C   UNL A   1      39.497  31.320  35.868  1.00  0.00    -0.014 A 
ATOM     51  C   UNL A   1      38.224  30.975  36.357  1.00  0.00     0.009 A 
ATOM     52  C   UNL A   1      40.165  32.415  36.431  1.00  0.00     0.009 A 
ATOM     53  C   UNL A   1      37.627  31.728  37.368  1.00  0.00     0.001 A 
ATOM     54  C   UNL A   1      39.579  33.147  37.463  1.00  0.00     0.001 A 
ATOM     55  C   UNL A   1      38.308  32.809  37.926  1.00  0.00     0.000 A 
ENDBRANCH  36  50
BRANCH  37  56
ATOM     56  C   UNL A   1      43.141  26.521  27.648  1.00  0.00    -0.014 A 
ATOM     57  C   UNL A   1      43.356  27.188  26.434  1.00  0.00     0.009 A 
ATOM     58  C   UNL A   1      43.429  25.146  27.722  1.00  0.00     0.009 A 
ATOM     59  C   UNL A   1      43.810  26.486  25.314  1.00  0.00     0.001 A 
ATOM     60  C   UNL A   1      43.918  24.456  26.614  1.00  0.00     0.001 A 
ATOM     61  C   UNL A   1      44.094  25.123  25.405  1.00  0.00     0.000 A 
ENDBRANCH  37  56
BRANCH  49  62
ATOM     62  C   UNL A   1      44.937  26.788  34.374  1.00  0.00    -0.014 A 
ATOM     63  C   UNL A   1      44.752  25.507  34.916  1.00  0.00     0.009 A 
ATOM     64  C   UNL A   1      46.173  27.432  34.526  1.00  0.00     0.009 A 
ATOM     65  C   UNL A   1      45.770  24.909  35.653  1.00  0.00     0.001 A 
ATOM     66  C   UNL A   1      47.202  26.811  35.227  1.00  0.00     0.001 A 
ATOM     67  C   UNL A   1      46.994  25.559  35.805  1.00  0.00     0.000 A 
ENDBRANCH  49  62
ENDBRANCH  23  24
ENDBRANCH  16  18
ENDBRANCH  15  16
ENDBRANCH  14  15
ENDBRANCH  13  14
ENDBRANCH  12  13
ENDBRANCH  10  12
ENDBRANCH   5  10
ENDBRANCH   1   5
BRANCH   2  68
ATOM     68  C   UNL A   1      34.273  23.390  24.386  1.00  0.00     0.175 C 
BRANCH  68  69
ATOM     69  N   UNL A   1      35.331  22.493  24.905  1.00  0.00    -0.342 N 
ATOM     70  C   UNL A   1      36.574  22.656  25.402  1.00  0.00     0.240 C 
ATOM     71  H   UNL A   1      35.061  21.546  24.880  1.00  0.00     0.164 HD
ATOM     72  O   UNL A   1      37.112  21.626  25.831  1.00  0.00    -0.273 OA
BRANCH  70  73
ATOM     73  C   UNL A   1      37.275  24.001  25.644  1.00  0.00     0.216 C 
BRANCH  73  74
ATOM     74  N   UNL A   1      37.997  24.328  26.867  1.00  0.00    -0.346 N 
ATOM     75  C   UNL A   1      39.360  24.302  27.057  1.00  0.00     0.239 C 
ATOM     76  H   UNL A   1      37.452  24.598  27.641  1.00  0.00     0.164 HD
ATOM     77  O   UNL A   1      39.858  25.201  27.741  1.00  0.00    -0.273 OA
BRANCH  75  78
ATOM     78  C   UNL A   1      40.253  23.180  26.500  1.00  0.00     0.219 C 
BRANCH  78  79
ATOM     79  N   UNL A   1      40.196  21.987  27.299  1.00  0.00    -0.312 N 
ATOM     80  C   UNL A   1      40.920  20.851  27.167  1.00  0.00     0.407 C 
ATOM     81  H   UNL A   1      39.546  21.996  28.038  1.00  0.00     0.167 HD
ATOM     82  O   UNL A   1      40.585  19.831  27.756  1.00  0.00    -0.225 OA
BRANCH  80  83
ATOM     83  O   UNL A   1      41.984  20.989  26.353  1.00  0.00    -0.445 OA
BRANCH  83  84
ATOM     84  C   UNL A   1      42.558  19.741  25.961  1.00  0.00     0.270 C 
BRANCH  84  85
ATOM     85  C   UNL A   1      43.973  19.911  25.466  1.00  0.00    -0.011 A 
ATOM     86  C   UNL A   1      44.540  21.185  25.346  1.00  0.00     0.007 A 
ATOM     87  C   UNL A   1      44.758  18.785  25.173  1.00  0.00     0.007 A 
ATOM     88  C   UNL A   1      45.860  21.329  24.915  1.00  0.00     0.000 A 
ATOM     89  C   UNL A   1      46.079  18.932  24.751  1.00  0.00     0.000 A 
ATOM     90  C   UNL A   1      46.628  20.204  24.617  1.00  0.00     0.000 A 
ENDBRANCH  84  85
ENDBRANCH  83  84
ENDBRANCH  80  83
ENDBRANCH  78  79
ENDBRANCH  75  78
ENDBRANCH  73  74
ENDBRANCH  70  73
ENDBRANCH  68  69
BRANCH  68  91
ATOM     91  C   UNL A   1      33.267  22.380  23.445  1.00  0.00     0.070 C 
BRANCH  91  92
ATOM     92  C   UNL A   1      32.808  20.924  23.867  1.00  0.00    -0.045 A 
ATOM     93  C   UNL A   1      32.857  20.474  25.184  1.00  0.00     0.004 A 
ATOM     94  C   UNL A   1      32.342  19.940  22.974  1.00  0.00     0.004 A 
ATOM     95  C   UNL A   1      32.727  19.097  25.504  1.00  0.00     0.000 A 
ATOM     96  C   UNL A   1      32.292  18.557  23.245  1.00  0.00     0.000 A 
ATOM     97  C   UNL A   1      32.549  18.125  24.523  1.00  0.00     0.000 A 
ENDBRANCH  91  92
ENDBRANCH  68  91
ENDBRANCH   2  68
TORSDOF 25
ENDMDL
