MODEL 1
REMARK VINA RESULT:     -10.5      0.000      0.000
REMARK SMILES Cc1nsc(NC[C@@H]2C[C@H]3CC[C@@H]2C3)c1C(=O)OCCOC(=O)c1ccc(-c2c3nc(c(-c4ccccc4)c4ccc([nH]4)c(-c4ccccc4)c4nc(c(-c5ccccc5)c5ccc2[nH]5)C=C4)C=C3)cc1
REMARK SMILES IDX 19 1 18 2 16 3 17 4 15 5 1 6 2 7 3 8 4 9 5 10 6 11 7 13 8 14
REMARK SMILES IDX 9 15 13 16 10 17 12 18 14 19 11 20 20 21 21 22 22 23 23 24
REMARK SMILES IDX 24 25 25 26 71 27 26 28 70 29 27 30 28 31 29 32 64 33 30 34
REMARK SMILES IDX 69 35 63 36 65 37 31 38 68 39 62 40 61 41 32 43 54 44 39 45
REMARK SMILES IDX 53 46 40 47 43 48 52 49 66 50 41 51 42 52 51 54 67 55 44 56
REMARK SMILES IDX 33 57 34 58 38 59 35 60 37 61 36 62 55 63 56 64 60 65 57 66
REMARK SMILES IDX 59 67 58 68 45 69 46 70 50 71 47 72 49 73 48 74
REMARK H PARENT 6 12 65 42 43 53
REMARK Flexibility Score: inf
ROOT
ATOM      1  C   UNL A   1      44.937  23.591  26.653  1.00  0.00     0.275 C 
ENDROOT
BRANCH   1   2
ATOM      2  O   UNL A   1      45.073  22.358  25.925  1.00  0.00    -0.458 OA
BRANCH   2   3
ATOM      3  C   UNL A   1      43.965  21.924  25.256  1.00  0.00     0.343 C 
ATOM      4  O   UNL A   1      43.367  22.625  24.438  1.00  0.00    -0.246 OA
BRANCH   3   5
ATOM      5  C   UNL A   1      43.612  20.529  25.519  1.00  0.00     0.117 A 
ATOM      6  C   UNL A   1      45.174  19.224  23.830  1.00  0.00     0.069 C 
ATOM      7  C   UNL A   1      44.147  19.333  24.906  1.00  0.00     0.068 A 
ATOM      8  N   UNL A   1      43.685  18.177  25.386  1.00  0.00    -0.195 NA
ATOM      9  S   UNL A   1      42.535  18.480  26.524  1.00  0.00    -0.018 S 
ATOM     10  C   UNL A   1      42.600  20.189  26.425  1.00  0.00     0.124 A 
BRANCH  10  11
ATOM     11  N   UNL A   1      41.797  21.065  27.088  1.00  0.00    -0.375 N 
ATOM     12  H   UNL A   1      42.153  21.432  27.928  1.00  0.00     0.161 HD
BRANCH  11  13
ATOM     13  C   UNL A   1      40.479  21.519  26.700  1.00  0.00     0.117 C 
BRANCH  13  14
ATOM     14  C   UNL A   1      40.084  22.870  27.337  1.00  0.00     0.012 C 
ATOM     15  C   UNL A   1      39.089  23.763  26.553  1.00  0.00     0.009 C 
ATOM     16  C   UNL A   1      41.283  23.833  27.550  1.00  0.00    -0.006 C 
ATOM     17  C   UNL A   1      39.839  25.104  26.430  1.00  0.00    -0.011 C 
ATOM     18  C   UNL A   1      40.870  24.904  28.585  1.00  0.00     0.004 C 
ATOM     19  C   UNL A   1      41.291  24.657  26.264  1.00  0.00     0.007 C 
ATOM     20  C   UNL A   1      39.868  25.773  27.811  1.00  0.00     0.004 C 
ENDBRANCH  13  14
ENDBRANCH  11  13
ENDBRANCH  10  11
ENDBRANCH   3   5
ENDBRANCH   2   3
ENDBRANCH   1   2
BRANCH   1  21
ATOM     21  C   UNL A   1      44.945  23.357  28.160  1.00  0.00     0.275 C 
BRANCH  21  22
ATOM     22  O   UNL A   1      45.223  24.563  28.869  1.00  0.00    -0.458 OA
BRANCH  22  23
ATOM     23  C   UNL A   1      44.372  24.853  29.882  1.00  0.00     0.338 C 
ATOM     24  O   UNL A   1      43.801  24.061  30.605  1.00  0.00    -0.246 OA
BRANCH  23  25
ATOM     25  C   UNL A   1      44.071  26.291  29.841  1.00  0.00     0.060 A 
ATOM     26  C   UNL A   1      43.798  26.916  31.061  1.00  0.00     0.016 A 
ATOM     27  C   UNL A   1      43.781  26.905  28.614  1.00  0.00     0.016 A 
ATOM     28  C   UNL A   1      43.032  28.063  31.050  1.00  0.00     0.010 A 
ATOM     29  C   UNL A   1      42.997  28.033  28.606  1.00  0.00     0.010 A 
ATOM     30  C   UNL A   1      42.565  28.548  29.824  1.00  0.00    -0.014 A 
BRANCH  30  31
ATOM     31  C   UNL A   1      41.678  29.689  29.831  1.00  0.00     0.031 A 
ATOM     32  C   UNL A   1      42.402  30.963  29.656  1.00  0.00     0.074 A 
ATOM     33  C   UNL A   1      40.339  29.567  29.873  1.00  0.00     0.049 A 
ATOM     34  N   UNL A   1      42.662  31.850  30.557  1.00  0.00    -0.248 NA
ATOM     35  C   UNL A   1      43.098  31.178  28.374  1.00  0.00     0.031 C 
ATOM     36  C   UNL A   1      39.536  28.349  29.721  1.00  0.00     0.029 A 
ATOM     37  N   UNL A   1      39.397  30.543  29.958  1.00  0.00    -0.354 N 
ATOM     38  C   UNL A   1      43.367  32.846  29.893  1.00  0.00     0.074 A 
ATOM     39  C   UNL A   1      43.805  32.274  28.647  1.00  0.00     0.031 C 
ATOM     40  C   UNL A   1      38.246  28.691  29.490  1.00  0.00     0.029 A 
ATOM     41  C   UNL A   1      38.114  30.132  29.624  1.00  0.00     0.049 A 
ATOM     42  H   UNL A   1      39.608  31.465  30.234  1.00  0.00     0.167 HD
ATOM     43  C   UNL A   1      43.241  34.150  30.257  1.00  0.00     0.031 A 
ATOM     44  C   UNL A   1      37.046  30.940  29.407  1.00  0.00     0.031 A 
ATOM     45  C   UNL A   1      42.639  34.275  31.561  1.00  0.00     0.049 A 
ATOM     46  C   UNL A   1      37.349  32.250  30.027  1.00  0.00     0.074 A 
ATOM     47  C   UNL A   1      42.979  33.922  32.849  1.00  0.00     0.029 A 
ATOM     48  N   UNL A   1      41.285  34.502  31.559  1.00  0.00    -0.354 N 
ATOM     49  N   UNL A   1      37.482  32.425  31.311  1.00  0.00    -0.248 NA
ATOM     50  C   UNL A   1      37.937  33.288  29.195  1.00  0.00     0.031 C 
ATOM     51  C   UNL A   1      41.746  33.582  33.483  1.00  0.00     0.029 A 
ATOM     52  C   UNL A   1      40.705  33.798  32.577  1.00  0.00     0.049 A 
ATOM     53  H   UNL A   1      40.807  35.082  30.923  1.00  0.00     0.167 HD
ATOM     54  C   UNL A   1      38.523  33.332  31.440  1.00  0.00     0.074 A 
ATOM     55  C   UNL A   1      38.673  33.922  30.111  1.00  0.00     0.031 C 
ATOM     56  C   UNL A   1      39.344  33.301  32.533  1.00  0.00     0.031 A 
BRANCH  43  57
ATOM     57  C   UNL A   1      43.158  35.273  29.244  1.00  0.00    -0.014 A 
ATOM     58  C   UNL A   1      43.855  36.464  29.513  1.00  0.00     0.009 A 
ATOM     59  C   UNL A   1      42.198  35.327  28.214  1.00  0.00     0.009 A 
ATOM     60  C   UNL A   1      43.549  37.655  28.842  1.00  0.00     0.001 A 
ATOM     61  C   UNL A   1      41.919  36.503  27.514  1.00  0.00     0.001 A 
ATOM     62  C   UNL A   1      42.574  37.675  27.850  1.00  0.00     0.000 A 
ENDBRANCH  43  57
BRANCH  44  63
ATOM     63  C   UNL A   1      35.970  30.770  28.404  1.00  0.00    -0.014 A 
ATOM     64  C   UNL A   1      35.854  29.594  27.645  1.00  0.00     0.009 A 
ATOM     65  C   UNL A   1      34.882  31.664  28.388  1.00  0.00     0.009 A 
ATOM     66  C   UNL A   1      34.686  29.315  26.919  1.00  0.00     0.001 A 
ATOM     67  C   UNL A   1      33.716  31.385  27.665  1.00  0.00     0.001 A 
ATOM     68  C   UNL A   1      33.614  30.205  26.938  1.00  0.00     0.000 A 
ENDBRANCH  44  63
BRANCH  56  69
ATOM     69  C   UNL A   1      38.888  32.506  33.730  1.00  0.00    -0.014 A 
ATOM     70  C   UNL A   1      39.216  31.156  33.942  1.00  0.00     0.009 A 
ATOM     71  C   UNL A   1      38.227  33.200  34.755  1.00  0.00     0.009 A 
ATOM     72  C   UNL A   1      38.876  30.520  35.142  1.00  0.00     0.001 A 
ATOM     73  C   UNL A   1      37.907  32.572  35.958  1.00  0.00     0.001 A 
ATOM     74  C   UNL A   1      38.229  31.231  36.151  1.00  0.00     0.000 A 
ENDBRANCH  56  69
ENDBRANCH  30  31
ENDBRANCH  23  25
ENDBRANCH  22  23
ENDBRANCH  21  22
ENDBRANCH   1  21
TORSDOF 14
ENDMDL
MODEL 2
REMARK VINA RESULT:     -10.3      4.839     11.386
REMARK SMILES Cc1nsc(NC[C@@H]2C[C@H]3CC[C@@H]2C3)c1C(=O)OCCOC(=O)c1ccc(-c2c3nc(c(-c4ccccc4)c4ccc([nH]4)c(-c4ccccc4)c4nc(c(-c5ccccc5)c5ccc2[nH]5)C=C4)C=C3)cc1
REMARK SMILES IDX 19 1 18 2 16 3 17 4 15 5 1 6 2 7 3 8 4 9 5 10 6 11 7 13 8 14
REMARK SMILES IDX 9 15 13 16 10 17 12 18 14 19 11 20 20 21 21 22 22 23 23 24
REMARK SMILES IDX 24 25 25 26 71 27 26 28 70 29 27 30 28 31 29 32 64 33 30 34
REMARK SMILES IDX 69 35 63 36 65 37 31 38 68 39 62 40 61 41 32 43 54 44 39 45
REMARK SMILES IDX 53 46 40 47 43 48 52 49 66 50 41 51 42 52 51 54 67 55 44 56
REMARK SMILES IDX 33 57 34 58 38 59 35 60 37 61 36 62 55 63 56 64 60 65 57 66
REMARK SMILES IDX 59 67 58 68 45 69 46 70 50 71 47 72 49 73 48 74
REMARK H PARENT 6 12 65 42 43 53
REMARK Flexibility Score: inf
ROOT
ATOM      1  C   UNL A   1      36.824  33.482  32.754  1.00  0.00     0.275 C 
ENDROOT
BRANCH   1   2
ATOM      2  O   UNL A   1      35.995  34.430  32.059  1.00  0.00    -0.458 OA
BRANCH   2   3
ATOM      3  C   UNL A   1      34.688  34.077  31.881  1.00  0.00     0.343 C 
ATOM      4  O   UNL A   1      34.173  33.122  32.464  1.00  0.00    -0.246 OA
BRANCH   3   5
ATOM      5  C   UNL A   1      33.932  34.985  31.019  1.00  0.00     0.117 A 
ATOM      6  C   UNL A   1      32.494  36.355  32.767  1.00  0.00     0.069 C 
ATOM      7  C   UNL A   1      32.974  36.000  31.400  1.00  0.00     0.068 A 
ATOM      8  N   UNL A   1      32.476  36.734  30.402  1.00  0.00    -0.195 NA
ATOM      9  S   UNL A   1      33.070  36.182  28.970  1.00  0.00    -0.018 S 
ATOM     10  C   UNL A   1      34.028  34.921  29.624  1.00  0.00     0.124 A 
BRANCH  10  11
ATOM     11  N   UNL A   1      34.739  34.000  28.916  1.00  0.00    -0.375 N 
ATOM     12  H   UNL A   1      35.668  34.242  28.698  1.00  0.00     0.161 HD
BRANCH  11  13
ATOM     13  C   UNL A   1      34.288  32.708  28.449  1.00  0.00     0.117 C 
BRANCH  13  14
ATOM     14  C   UNL A   1      35.439  31.784  27.994  1.00  0.00     0.012 C 
ATOM     15  C   UNL A   1      35.088  30.305  27.691  1.00  0.00     0.009 C 
ATOM     16  C   UNL A   1      36.573  31.637  29.044  1.00  0.00    -0.006 C 
ATOM     17  C   UNL A   1      36.061  29.519  28.592  1.00  0.00    -0.011 C 
ATOM     18  C   UNL A   1      37.836  31.109  28.327  1.00  0.00     0.004 C 
ATOM     19  C   UNL A   1      36.147  30.403  29.835  1.00  0.00     0.007 C 
ATOM     20  C   UNL A   1      37.475  29.650  28.010  1.00  0.00     0.004 C 
ENDBRANCH  13  14
ENDBRANCH  11  13
ENDBRANCH  10  11
ENDBRANCH   3   5
ENDBRANCH   2   3
ENDBRANCH   1   2
BRANCH   1  21
ATOM     21  C   UNL A   1      38.165  34.092  33.147  1.00  0.00     0.275 C 
BRANCH  21  22
ATOM     22  O   UNL A   1      39.224  33.149  32.999  1.00  0.00    -0.458 OA
BRANCH  22  23
ATOM     23  C   UNL A   1      40.108  33.417  32.007  1.00  0.00     0.338 C 
ATOM     24  O   UNL A   1      40.556  34.505  31.703  1.00  0.00    -0.246 OA
BRANCH  23  25
ATOM     25  C   UNL A   1      40.288  32.201  31.202  1.00  0.00     0.060 A 
ATOM     26  C   UNL A   1      39.434  31.129  31.473  1.00  0.00     0.016 A 
ATOM     27  C   UNL A   1      41.450  32.045  30.432  1.00  0.00     0.016 A 
ATOM     28  C   UNL A   1      39.861  29.856  31.156  1.00  0.00     0.010 A 
ATOM     29  C   UNL A   1      41.885  30.775  30.138  1.00  0.00     0.010 A 
ATOM     30  C   UNL A   1      41.125  29.697  30.578  1.00  0.00    -0.014 A 
BRANCH  30  31
ATOM     31  C   UNL A   1      41.607  28.354  30.345  1.00  0.00     0.031 A 
ATOM     32  C   UNL A   1      42.336  27.810  31.507  1.00  0.00     0.074 A 
ATOM     33  C   UNL A   1      41.308  27.659  29.233  1.00  0.00     0.049 A 
ATOM     34  N   UNL A   1      43.611  27.659  31.635  1.00  0.00    -0.248 NA
ATOM     35  C   UNL A   1      41.573  27.605  32.752  1.00  0.00     0.031 C 
ATOM     36  C   UNL A   1      40.336  27.996  28.189  1.00  0.00     0.029 A 
ATOM     37  N   UNL A   1      41.748  26.430  28.853  1.00  0.00    -0.354 N 
ATOM     38  C   UNL A   1      43.788  27.125  32.906  1.00  0.00     0.074 A 
ATOM     39  C   UNL A   1      42.554  27.341  33.613  1.00  0.00     0.031 C 
ATOM     40  C   UNL A   1      40.093  26.898  27.433  1.00  0.00     0.029 A 
ATOM     41  C   UNL A   1      40.995  25.837  27.849  1.00  0.00     0.049 A 
ATOM     42  H   UNL A   1      42.535  25.997  29.257  1.00  0.00     0.167 HD
ATOM     43  C   UNL A   1      44.797  26.249  33.159  1.00  0.00     0.031 A 
ATOM     44  C   UNL A   1      41.073  24.543  27.447  1.00  0.00     0.031 A 
ATOM     45  C   UNL A   1      45.791  26.277  32.115  1.00  0.00     0.049 A 
ATOM     46  C   UNL A   1      42.374  24.013  27.915  1.00  0.00     0.074 A 
ATOM     47  C   UNL A   1      46.684  27.201  31.619  1.00  0.00     0.029 A 
ATOM     48  N   UNL A   1      45.652  25.306  31.154  1.00  0.00    -0.354 N 
ATOM     49  N   UNL A   1      43.524  24.434  27.473  1.00  0.00    -0.248 NA
ATOM     50  C   UNL A   1      42.417  23.317  29.192  1.00  0.00     0.031 C 
ATOM     51  C   UNL A   1      46.754  26.940  30.217  1.00  0.00     0.029 A 
ATOM     52  C   UNL A   1      45.949  25.835  29.929  1.00  0.00     0.049 A 
ATOM     53  H   UNL A   1      45.382  24.374  31.321  1.00  0.00     0.167 HD
ATOM     54  C   UNL A   1      44.348  24.454  28.588  1.00  0.00     0.074 A 
ATOM     55  C   UNL A   1      43.654  23.636  29.581  1.00  0.00     0.031 C 
ATOM     56  C   UNL A   1      45.364  25.363  28.690  1.00  0.00     0.031 A 
BRANCH  43  57
ATOM     57  C   UNL A   1      44.613  25.027  34.035  1.00  0.00    -0.014 A 
ATOM     58  C   UNL A   1      45.294  24.981  35.264  1.00  0.00     0.009 A 
ATOM     59  C   UNL A   1      44.060  23.814  33.578  1.00  0.00     0.009 A 
ATOM     60  C   UNL A   1      45.477  23.773  35.951  1.00  0.00     0.001 A 
ATOM     61  C   UNL A   1      44.206  22.616  34.280  1.00  0.00     0.001 A 
ATOM     62  C   UNL A   1      44.941  22.590  35.453  1.00  0.00     0.000 A 
ENDBRANCH  43  57
BRANCH  44  63
ATOM     63  C   UNL A   1      39.964  23.658  27.023  1.00  0.00    -0.014 A 
ATOM     64  C   UNL A   1      38.724  24.178  26.620  1.00  0.00     0.009 A 
ATOM     65  C   UNL A   1      40.220  22.300  26.750  1.00  0.00     0.009 A 
ATOM     66  C   UNL A   1      37.788  23.376  25.949  1.00  0.00     0.001 A 
ATOM     67  C   UNL A   1      39.288  21.500  26.079  1.00  0.00     0.001 A 
ATOM     68  C   UNL A   1      38.075  22.041  25.670  1.00  0.00     0.000 A 
ENDBRANCH  44  63
BRANCH  56  69
ATOM     69  C   UNL A   1      45.777  26.097  27.438  1.00  0.00    -0.014 A 
ATOM     70  C   UNL A   1      46.781  25.645  26.564  1.00  0.00     0.009 A 
ATOM     71  C   UNL A   1      45.010  27.208  27.057  1.00  0.00     0.009 A 
ATOM     72  C   UNL A   1      47.016  26.302  25.351  1.00  0.00     0.001 A 
ATOM     73  C   UNL A   1      45.232  27.849  25.839  1.00  0.00     0.001 A 
ATOM     74  C   UNL A   1      46.236  27.398  24.987  1.00  0.00     0.000 A 
ENDBRANCH  56  69
ENDBRANCH  30  31
ENDBRANCH  23  25
ENDBRANCH  22  23
ENDBRANCH  21  22
ENDBRANCH   1  21
TORSDOF 14
ENDMDL
MODEL 3
REMARK VINA RESULT:     -10.3      5.007     10.275
REMARK SMILES Cc1nsc(NC[C@@H]2C[C@H]3CC[C@@H]2C3)c1C(=O)OCCOC(=O)c1ccc(-c2c3nc(c(-c4ccccc4)c4ccc([nH]4)c(-c4ccccc4)c4nc(c(-c5ccccc5)c5ccc2[nH]5)C=C4)C=C3)cc1
REMARK SMILES IDX 19 1 18 2 16 3 17 4 15 5 1 6 2 7 3 8 4 9 5 10 6 11 7 13 8 14
REMARK SMILES IDX 9 15 13 16 10 17 12 18 14 19 11 20 20 21 21 22 22 23 23 24
REMARK SMILES IDX 24 25 25 26 71 27 26 28 70 29 27 30 28 31 29 32 64 33 30 34
REMARK SMILES IDX 69 35 63 36 65 37 31 38 68 39 62 40 61 41 32 43 54 44 39 45
REMARK SMILES IDX 53 46 40 47 43 48 52 49 66 50 41 51 42 52 51 54 67 55 44 56
REMARK SMILES IDX 33 57 34 58 38 59 35 60 37 61 36 62 55 63 56 64 60 65 57 66
REMARK SMILES IDX 59 67 58 68 45 69 46 70 50 71 47 72 49 73 48 74
REMARK H PARENT 6 12 65 42 43 53
REMARK Flexibility Score: inf
ROOT
ATOM      1  C   UNL A   1      32.585  29.254  27.205  1.00  0.00     0.275 C 
ENDROOT
BRANCH   1   2
ATOM      2  O   UNL A   1      33.418  28.404  26.398  1.00  0.00    -0.458 OA
BRANCH   2   3
ATOM      3  C   UNL A   1      33.029  28.226  25.101  1.00  0.00     0.343 C 
ATOM      4  O   UNL A   1      33.266  29.052  24.219  1.00  0.00    -0.246 OA
BRANCH   3   5
ATOM      5  C   UNL A   1      32.398  26.933  24.835  1.00  0.00     0.117 A 
ATOM      6  C   UNL A   1      34.375  25.237  25.295  1.00  0.00     0.069 C 
ATOM      7  C   UNL A   1      32.979  25.612  24.929  1.00  0.00     0.068 A 
ATOM      8  N   UNL A   1      32.150  24.594  24.687  1.00  0.00    -0.195 NA
ATOM      9  S   UNL A   1      30.674  25.183  24.257  1.00  0.00    -0.018 S 
ATOM     10  C   UNL A   1      31.080  26.843  24.373  1.00  0.00     0.124 A 
BRANCH  10  11
ATOM     11  N   UNL A   1      30.276  27.893  24.049  1.00  0.00    -0.375 N 
ATOM     12  H   UNL A   1      30.083  28.532  24.772  1.00  0.00     0.161 HD
BRANCH  11  13
ATOM     13  C   UNL A   1      29.673  28.178  22.765  1.00  0.00     0.117 C 
BRANCH  13  14
ATOM     14  C   UNL A   1      29.523  29.688  22.480  1.00  0.00     0.012 C 
ATOM     15  C   UNL A   1      29.632  30.655  23.687  1.00  0.00     0.009 C 
ATOM     16  C   UNL A   1      28.144  30.076  21.881  1.00  0.00    -0.006 C 
ATOM     17  C   UNL A   1      28.320  31.461  23.614  1.00  0.00    -0.011 C 
ATOM     18  C   UNL A   1      28.274  31.465  21.217  1.00  0.00     0.004 C 
ATOM     19  C   UNL A   1      27.319  30.419  23.119  1.00  0.00     0.007 C 
ATOM     20  C   UNL A   1      28.403  32.416  22.415  1.00  0.00     0.004 C 
ENDBRANCH  13  14
ENDBRANCH  11  13
ENDBRANCH  10  11
ENDBRANCH   3   5
ENDBRANCH   2   3
ENDBRANCH   1   2
BRANCH   1  21
ATOM     21  C   UNL A   1      33.113  30.684  27.244  1.00  0.00     0.275 C 
BRANCH  21  22
ATOM     22  O   UNL A   1      34.527  30.717  27.064  1.00  0.00    -0.458 OA
BRANCH  22  23
ATOM     23  C   UNL A   1      35.182  31.671  27.768  1.00  0.00     0.338 C 
ATOM     24  O   UNL A   1      35.094  32.874  27.626  1.00  0.00    -0.246 OA
BRANCH  23  25
ATOM     25  C   UNL A   1      36.197  31.017  28.608  1.00  0.00     0.060 A 
ATOM     26  C   UNL A   1      37.259  31.809  29.050  1.00  0.00     0.016 A 
ATOM     27  C   UNL A   1      36.234  29.618  28.687  1.00  0.00     0.016 A 
ATOM     28  C   UNL A   1      38.449  31.188  29.369  1.00  0.00     0.010 A 
ATOM     29  C   UNL A   1      37.426  29.002  28.981  1.00  0.00     0.010 A 
ATOM     30  C   UNL A   1      38.537  29.798  29.236  1.00  0.00    -0.014 A 
BRANCH  30  31
ATOM     31  C   UNL A   1      39.816  29.168  29.472  1.00  0.00     0.031 A 
ATOM     32  C   UNL A   1      40.129  29.056  30.910  1.00  0.00     0.074 A 
ATOM     33  C   UNL A   1      40.561  28.644  28.482  1.00  0.00     0.049 A 
ATOM     34  N   UNL A   1      40.969  29.763  31.589  1.00  0.00    -0.248 NA
ATOM     35  C   UNL A   1      39.256  28.197  31.730  1.00  0.00     0.031 C 
ATOM     36  C   UNL A   1      40.181  28.424  27.083  1.00  0.00     0.029 A 
ATOM     37  N   UNL A   1      41.802  28.094  28.549  1.00  0.00    -0.354 N 
ATOM     38  C   UNL A   1      40.885  29.277  32.889  1.00  0.00     0.074 A 
ATOM     39  C   UNL A   1      39.672  28.506  32.958  1.00  0.00     0.031 C 
ATOM     40  C   UNL A   1      41.071  27.583  26.505  1.00  0.00     0.029 A 
ATOM     41  C   UNL A   1      42.150  27.328  27.445  1.00  0.00     0.049 A 
ATOM     42  H   UNL A   1      42.403  28.226  29.318  1.00  0.00     0.167 HD
ATOM     43  C   UNL A   1      41.979  29.256  33.696  1.00  0.00     0.031 A 
ATOM     44  C   UNL A   1      43.217  26.495  27.352  1.00  0.00     0.031 A 
ATOM     45  C   UNL A   1      43.027  30.102  33.183  1.00  0.00     0.049 A 
ATOM     46  C   UNL A   1      44.175  26.885  28.412  1.00  0.00     0.074 A 
ATOM     47  C   UNL A   1      43.190  31.451  32.954  1.00  0.00     0.029 A 
ATOM     48  N   UNL A   1      43.987  29.457  32.443  1.00  0.00    -0.354 N 
ATOM     49  N   UNL A   1      44.805  28.025  28.429  1.00  0.00    -0.248 NA
ATOM     50  C   UNL A   1      44.112  26.191  29.688  1.00  0.00     0.031 C 
ATOM     51  C   UNL A   1      44.004  31.537  31.785  1.00  0.00     0.029 A 
ATOM     52  C   UNL A   1      44.350  30.244  31.386  1.00  0.00     0.049 A 
ATOM     53  H   UNL A   1      44.357  28.567  32.644  1.00  0.00     0.167 HD
ATOM     54  C   UNL A   1      44.830  28.397  29.765  1.00  0.00     0.074 A 
ATOM     55  C   UNL A   1      44.507  27.176  30.500  1.00  0.00     0.031 C 
ATOM     56  C   UNL A   1      44.824  29.716  30.122  1.00  0.00     0.031 A 
BRANCH  43  57
ATOM     57  C   UNL A   1      42.290  28.092  34.615  1.00  0.00    -0.014 A 
ATOM     58  C   UNL A   1      42.752  26.896  34.038  1.00  0.00     0.009 A 
ATOM     59  C   UNL A   1      41.863  28.019  35.956  1.00  0.00     0.009 A 
ATOM     60  C   UNL A   1      42.713  25.685  34.742  1.00  0.00     0.001 A 
ATOM     61  C   UNL A   1      41.860  26.821  36.674  1.00  0.00     0.001 A 
ATOM     62  C   UNL A   1      42.257  25.648  36.056  1.00  0.00     0.000 A 
ENDBRANCH  43  57
BRANCH  44  63
ATOM     63  C   UNL A   1      43.288  25.186  26.664  1.00  0.00    -0.014 A 
ATOM     64  C   UNL A   1      42.397  24.145  26.976  1.00  0.00     0.009 A 
ATOM     65  C   UNL A   1      44.063  25.051  25.497  1.00  0.00     0.009 A 
ATOM     66  C   UNL A   1      42.272  23.027  26.138  1.00  0.00     0.001 A 
ATOM     67  C   UNL A   1      43.937  23.936  24.659  1.00  0.00     0.001 A 
ATOM     68  C   UNL A   1      43.034  22.927  24.976  1.00  0.00     0.000 A 
ENDBRANCH  44  63
BRANCH  56  69
ATOM     69  C   UNL A   1      45.136  30.734  29.053  1.00  0.00    -0.014 A 
ATOM     70  C   UNL A   1      44.165  31.310  28.216  1.00  0.00     0.009 A 
ATOM     71  C   UNL A   1      46.445  31.236  29.000  1.00  0.00     0.009 A 
ATOM     72  C   UNL A   1      44.504  32.348  27.341  1.00  0.00     0.001 A 
ATOM     73  C   UNL A   1      46.778  32.284  28.143  1.00  0.00     0.001 A 
ATOM     74  C   UNL A   1      45.809  32.839  27.312  1.00  0.00     0.000 A 
ENDBRANCH  56  69
ENDBRANCH  30  31
ENDBRANCH  23  25
ENDBRANCH  22  23
ENDBRANCH  21  22
ENDBRANCH   1  21
TORSDOF 14
ENDMDL
