MODEL 1
REMARK VINA RESULT:     -10.5      0.000      0.000
REMARK SMILES O=C(OCCOC(=O)[C@@]1([NH2+]C2CC2)CC[C@@H]([N@@H+]2CC[N@@H+]3CCC[C@@H]3C2)C1)c1ccc(-c2c3nc(c(-c4ccccc4)c4ccc([nH]4)c(-c4ccccc4)c4nc(c(-c5ccccc5)c5ccc2[nH]5)C=C4)C=C3)cc1
REMARK SMILES IDX 4 1 3 2 2 3 1 4 27 5 28 6 74 7 29 8 73 9 30 10 31 11 32 12
REMARK SMILES IDX 67 13 33 14 72 15 66 16 68 17 34 18 71 19 65 20 64 21 35 23
REMARK SMILES IDX 57 24 42 25 56 26 43 27 46 28 55 29 69 30 44 31 45 32 54 34
REMARK SMILES IDX 70 35 47 36 36 37 37 38 41 39 38 40 40 41 39 42 58 43 59 44
REMARK SMILES IDX 63 45 60 46 62 47 61 48 48 49 49 50 53 51 50 52 52 53 51 54
REMARK SMILES IDX 5 55 6 56 7 57 8 58 9 59 14 60 26 61 15 62 16 63 10 64 11 67
REMARK SMILES IDX 12 68 13 69 17 70 18 71 25 72 19 74 24 75 20 76 23 77 21 78
REMARK SMILES IDX 22 80
REMARK H PARENT 68 22 46 33 10 65 10 66 17 73 20 79
REMARK Flexibility Score: inf
ROOT
ATOM      1  C   UNL A   1      39.133  19.914  25.400  1.00  0.00     0.275 C 
ENDROOT
BRANCH   1   2
ATOM      2  O   UNL A   1      40.111  19.534  26.381  1.00  0.00    -0.458 OA
BRANCH   2   3
ATOM      3  C   UNL A   1      41.414  19.718  26.133  1.00  0.00     0.338 C 
ATOM      4  O   UNL A   1      42.156  18.896  25.602  1.00  0.00    -0.246 OA
BRANCH   3   5
ATOM      5  C   UNL A   1      41.818  21.083  26.568  1.00  0.00     0.060 A 
ATOM      6  C   UNL A   1      42.069  22.088  25.622  1.00  0.00     0.016 A 
ATOM      7  C   UNL A   1      41.840  21.402  27.930  1.00  0.00     0.016 A 
ATOM      8  C   UNL A   1      42.305  23.398  26.030  1.00  0.00     0.010 A 
ATOM      9  C   UNL A   1      42.042  22.729  28.337  1.00  0.00     0.010 A 
ATOM     10  C   UNL A   1      42.272  23.735  27.388  1.00  0.00    -0.014 A 
BRANCH  10  11
ATOM     11  C   UNL A   1      42.639  25.121  27.778  1.00  0.00     0.031 A 
ATOM     12  C   UNL A   1      41.553  26.031  28.179  1.00  0.00     0.074 A 
ATOM     13  C   UNL A   1      43.899  25.593  27.754  1.00  0.00     0.049 A 
ATOM     14  N   UNL A   1      41.653  27.208  28.718  1.00  0.00    -0.248 NA
ATOM     15  C   UNL A   1      40.191  25.596  27.850  1.00  0.00     0.031 C 
ATOM     16  C   UNL A   1      44.973  24.851  27.160  1.00  0.00     0.029 A 
ATOM     17  N   UNL A   1      44.527  26.717  28.231  1.00  0.00    -0.354 N 
ATOM     18  C   UNL A   1      40.367  27.700  28.720  1.00  0.00     0.074 A 
ATOM     19  C   UNL A   1      39.512  26.695  28.124  1.00  0.00     0.031 C 
ATOM     20  C   UNL A   1      46.151  25.451  27.372  1.00  0.00     0.029 A 
ATOM     21  C   UNL A   1      45.912  26.603  28.211  1.00  0.00     0.049 A 
ATOM     22  H   UNL A   1      44.048  27.515  28.551  1.00  0.00     0.167 HD
ATOM     23  C   UNL A   1      39.959  28.908  29.160  1.00  0.00     0.031 A 
ATOM     24  C   UNL A   1      46.852  27.271  28.912  1.00  0.00     0.031 A 
ATOM     25  C   UNL A   1      40.857  29.893  29.692  1.00  0.00     0.049 A 
ATOM     26  C   UNL A   1      46.355  28.464  29.672  1.00  0.00     0.074 A 
ATOM     27  C   UNL A   1      40.580  31.164  30.147  1.00  0.00     0.029 A 
ATOM     28  N   UNL A   1      42.230  29.702  29.831  1.00  0.00    -0.354 N 
ATOM     29  N   UNL A   1      45.117  28.880  29.801  1.00  0.00    -0.248 NA
ATOM     30  C   UNL A   1      47.355  29.311  30.332  1.00  0.00     0.031 C 
ATOM     31  C   UNL A   1      41.788  31.748  30.552  1.00  0.00     0.029 A 
ATOM     32  C   UNL A   1      42.813  30.828  30.385  1.00  0.00     0.049 A 
ATOM     33  H   UNL A   1      42.714  28.885  29.574  1.00  0.00     0.167 HD
ATOM     34  C   UNL A   1      45.192  30.072  30.490  1.00  0.00     0.074 A 
ATOM     35  C   UNL A   1      46.585  30.256  30.857  1.00  0.00     0.031 C 
ATOM     36  C   UNL A   1      44.207  30.971  30.729  1.00  0.00     0.031 A 
BRANCH  23  37
ATOM     37  C   UNL A   1      38.499  29.176  28.979  1.00  0.00    -0.014 A 
ATOM     38  C   UNL A   1      38.015  29.715  27.772  1.00  0.00     0.009 A 
ATOM     39  C   UNL A   1      37.637  29.075  30.079  1.00  0.00     0.009 A 
ATOM     40  C   UNL A   1      36.719  30.222  27.698  1.00  0.00     0.001 A 
ATOM     41  C   UNL A   1      36.328  29.548  29.988  1.00  0.00     0.001 A 
ATOM     42  C   UNL A   1      35.878  30.141  28.808  1.00  0.00     0.000 A 
ENDBRANCH  23  37
BRANCH  24  43
ATOM     43  C   UNL A   1      48.277  26.813  29.027  1.00  0.00    -0.014 A 
ATOM     44  C   UNL A   1      48.642  25.934  30.067  1.00  0.00     0.009 A 
ATOM     45  C   UNL A   1      49.286  27.230  28.146  1.00  0.00     0.009 A 
ATOM     46  C   UNL A   1      49.969  25.522  30.246  1.00  0.00     0.001 A 
ATOM     47  C   UNL A   1      50.609  26.786  28.302  1.00  0.00     0.001 A 
ATOM     48  C   UNL A   1      50.953  25.946  29.358  1.00  0.00     0.000 A 
ENDBRANCH  24  43
BRANCH  36  49
ATOM     49  C   UNL A   1      44.635  32.246  31.378  1.00  0.00    -0.014 A 
ATOM     50  C   UNL A   1      45.044  33.340  30.597  1.00  0.00     0.009 A 
ATOM     51  C   UNL A   1      44.593  32.370  32.772  1.00  0.00     0.009 A 
ATOM     52  C   UNL A   1      45.428  34.532  31.207  1.00  0.00     0.001 A 
ATOM     53  C   UNL A   1      44.952  33.572  33.377  1.00  0.00     0.001 A 
ATOM     54  C   UNL A   1      45.375  34.648  32.595  1.00  0.00     0.000 A 
ENDBRANCH  36  49
ENDBRANCH  10  11
ENDBRANCH   3   5
ENDBRANCH   2   3
ENDBRANCH   1   2
BRANCH   1  55
ATOM     55  C   UNL A   1      38.332  21.224  25.509  1.00  0.00     0.274 C 
BRANCH  55  56
ATOM     56  O   UNL A   1      37.133  21.333  24.722  1.00  0.00    -0.457 OA
BRANCH  56  57
ATOM     57  C   UNL A   1      36.369  22.431  25.033  1.00  0.00     0.368 C 
ATOM     58  O   UNL A   1      36.773  23.585  24.907  1.00  0.00    -0.245 OA
BRANCH  57  59
ATOM     59  C   UNL A   1      35.049  22.084  25.762  1.00  0.00     0.200 C 
ATOM     60  C   UNL A   1      34.758  22.622  27.159  1.00  0.00     0.087 C 
ATOM     61  C   UNL A   1      33.922  22.830  24.937  1.00  0.00     0.146 C 
ATOM     62  C   UNL A   1      33.235  22.571  27.202  1.00  0.00     0.072 C 
ATOM     63  C   UNL A   1      32.832  23.313  25.924  1.00  0.00     0.191 C 
BRANCH  59  64
ATOM     64  N   UNL A   1      34.838  20.606  25.745  1.00  0.00    -0.329 N 
ATOM     65  H   UNL A   1      34.526  20.353  26.683  1.00  0.00     0.347 HD
ATOM     66  H   UNL A   1      35.739  20.266  25.412  1.00  0.00     0.347 HD
BRANCH  64  67
ATOM     67  C   UNL A   1      33.900  19.957  24.811  1.00  0.00     0.183 C 
ATOM     68  C   UNL A   1      33.949  18.540  24.326  1.00  0.00     0.071 C 
ATOM     69  C   UNL A   1      32.894  18.944  25.312  1.00  0.00     0.071 C 
ENDBRANCH  64  67
ENDBRANCH  59  64
BRANCH  63  70
ATOM     70  N   UNL A   1      32.613  24.768  26.074  1.00  0.00    -0.323 N 
ATOM     71  C   UNL A   1      31.213  25.188  25.858  1.00  0.00     0.324 C 
ATOM     72  C   UNL A   1      33.562  25.825  25.687  1.00  0.00     0.328 C 
ATOM     73  H   UNL A   1      32.906  24.735  27.051  1.00  0.00     0.348 HD
ATOM     74  C   UNL A   1      30.974  26.687  25.504  1.00  0.00     0.324 C 
ATOM     75  C   UNL A   1      33.197  27.192  26.373  1.00  0.00     0.240 C 
ATOM     76  N   UNL A   1      31.793  27.622  26.267  1.00  0.00    -0.323 N 
ATOM     77  C   UNL A   1      34.044  28.415  26.028  1.00  0.00     0.077 C 
ATOM     78  C   UNL A   1      31.764  29.002  25.786  1.00  0.00     0.263 C 
ATOM     79  H   UNL A   1      31.355  27.609  27.187  1.00  0.00     0.348 HD
ATOM     80  C   UNL A   1      33.084  29.572  26.272  1.00  0.00     0.068 C 
ENDBRANCH  63  70
ENDBRANCH  57  59
ENDBRANCH  56  57
ENDBRANCH  55  56
ENDBRANCH   1  55
TORSDOF 14
ENDMDL
MODEL 2
REMARK VINA RESULT:     -10.5      3.016      7.832
REMARK SMILES O=C(OCCOC(=O)[C@@]1([NH2+]C2CC2)CC[C@@H]([N@@H+]2CC[N@@H+]3CCC[C@@H]3C2)C1)c1ccc(-c2c3nc(c(-c4ccccc4)c4ccc([nH]4)c(-c4ccccc4)c4nc(c(-c5ccccc5)c5ccc2[nH]5)C=C4)C=C3)cc1
REMARK SMILES IDX 4 1 3 2 2 3 1 4 27 5 28 6 74 7 29 8 73 9 30 10 31 11 32 12
REMARK SMILES IDX 67 13 33 14 72 15 66 16 68 17 34 18 71 19 65 20 64 21 35 23
REMARK SMILES IDX 57 24 42 25 56 26 43 27 46 28 55 29 69 30 44 31 45 32 54 34
REMARK SMILES IDX 70 35 47 36 36 37 37 38 41 39 38 40 40 41 39 42 58 43 59 44
REMARK SMILES IDX 63 45 60 46 62 47 61 48 48 49 49 50 53 51 50 52 52 53 51 54
REMARK SMILES IDX 5 55 6 56 7 57 8 58 9 59 14 60 26 61 15 62 16 63 10 64 11 67
REMARK SMILES IDX 12 68 13 69 17 70 18 71 25 72 19 74 24 75 20 76 23 77 21 78
REMARK SMILES IDX 22 80
REMARK H PARENT 68 22 46 33 10 65 10 66 17 73 20 79
REMARK Flexibility Score: inf
ROOT
ATOM      1  C   UNL A   1      33.821  30.309  26.889  1.00  0.00     0.275 C 
ENDROOT
BRANCH   1   2
ATOM      2  O   UNL A   1      34.896  29.582  27.504  1.00  0.00    -0.458 OA
BRANCH   2   3
ATOM      3  C   UNL A   1      35.626  30.156  28.470  1.00  0.00     0.338 C 
ATOM      4  O   UNL A   1      35.204  30.974  29.283  1.00  0.00    -0.246 OA
BRANCH   3   5
ATOM      5  C   UNL A   1      37.015  29.626  28.429  1.00  0.00     0.060 A 
ATOM      6  C   UNL A   1      37.773  29.703  27.250  1.00  0.00     0.016 A 
ATOM      7  C   UNL A   1      37.615  29.150  29.599  1.00  0.00     0.016 A 
ATOM      8  C   UNL A   1      39.117  29.339  27.251  1.00  0.00     0.010 A 
ATOM      9  C   UNL A   1      38.977  28.819  29.606  1.00  0.00     0.010 A 
ATOM     10  C   UNL A   1      39.737  28.916  28.431  1.00  0.00    -0.014 A 
BRANCH  10  11
ATOM     11  C   UNL A   1      41.141  28.436  28.356  1.00  0.00     0.031 A 
ATOM     12  C   UNL A   1      41.370  27.056  27.894  1.00  0.00     0.074 A 
ATOM     13  C   UNL A   1      42.203  29.179  28.716  1.00  0.00     0.049 A 
ATOM     14  N   UNL A   1      42.498  26.492  27.586  1.00  0.00    -0.248 NA
ATOM     15  C   UNL A   1      40.192  26.182  27.859  1.00  0.00     0.031 C 
ATOM     16  C   UNL A   1      42.053  30.435  29.390  1.00  0.00     0.029 A 
ATOM     17  N   UNL A   1      43.564  29.068  28.569  1.00  0.00    -0.354 N 
ATOM     18  C   UNL A   1      42.184  25.165  27.398  1.00  0.00     0.074 A 
ATOM     19  C   UNL A   1      40.763  25.013  27.633  1.00  0.00     0.031 C 
ATOM     20  C   UNL A   1      43.232  31.056  29.526  1.00  0.00     0.029 A 
ATOM     21  C   UNL A   1      44.229  30.254  28.855  1.00  0.00     0.049 A 
ATOM     22  H   UNL A   1      44.017  28.240  28.291  1.00  0.00     0.167 HD
ATOM     23  C   UNL A   1      43.032  24.164  27.087  1.00  0.00     0.031 A 
ATOM     24  C   UNL A   1      45.455  30.678  28.482  1.00  0.00     0.031 A 
ATOM     25  C   UNL A   1      44.444  24.357  26.920  1.00  0.00     0.049 A 
ATOM     26  C   UNL A   1      46.323  29.638  27.840  1.00  0.00     0.074 A 
ATOM     27  C   UNL A   1      45.420  23.427  26.630  1.00  0.00     0.029 A 
ATOM     28  N   UNL A   1      45.082  25.590  27.037  1.00  0.00    -0.354 N 
ATOM     29  N   UNL A   1      46.006  28.403  27.528  1.00  0.00    -0.248 NA
ATOM     30  C   UNL A   1      47.713  30.004  27.548  1.00  0.00     0.031 C 
ATOM     31  C   UNL A   1      46.651  24.094  26.584  1.00  0.00     0.029 A 
ATOM     32  C   UNL A   1      46.439  25.448  26.806  1.00  0.00     0.049 A 
ATOM     33  H   UNL A   1      44.633  26.438  27.252  1.00  0.00     0.167 HD
ATOM     34  C   UNL A   1      47.171  27.822  27.073  1.00  0.00     0.074 A 
ATOM     35  C   UNL A   1      48.175  28.869  27.037  1.00  0.00     0.031 C 
ATOM     36  C   UNL A   1      47.405  26.518  26.786  1.00  0.00     0.031 A 
BRANCH  23  37
ATOM     37  C   UNL A   1      42.397  22.812  27.004  1.00  0.00    -0.014 A 
ATOM     38  C   UNL A   1      41.895  22.332  25.779  1.00  0.00     0.009 A 
ATOM     39  C   UNL A   1      42.125  22.104  28.181  1.00  0.00     0.009 A 
ATOM     40  C   UNL A   1      41.064  21.214  25.751  1.00  0.00     0.001 A 
ATOM     41  C   UNL A   1      41.325  20.962  28.142  1.00  0.00     0.001 A 
ATOM     42  C   UNL A   1      40.777  20.531  26.933  1.00  0.00     0.000 A 
ENDBRANCH  23  37
BRANCH  24  43
ATOM     43  C   UNL A   1      45.902  32.107  28.591  1.00  0.00    -0.014 A 
ATOM     44  C   UNL A   1      46.589  32.534  29.746  1.00  0.00     0.009 A 
ATOM     45  C   UNL A   1      45.657  33.061  27.592  1.00  0.00     0.009 A 
ATOM     46  C   UNL A   1      46.979  33.869  29.914  1.00  0.00     0.001 A 
ATOM     47  C   UNL A   1      46.082  34.390  27.744  1.00  0.00     0.001 A 
ATOM     48  C   UNL A   1      46.728  34.797  28.909  1.00  0.00     0.000 A 
ENDBRANCH  24  43
BRANCH  36  49
ATOM     49  C   UNL A   1      48.821  26.171  26.456  1.00  0.00    -0.014 A 
ATOM     50  C   UNL A   1      49.329  26.408  25.168  1.00  0.00     0.009 A 
ATOM     51  C   UNL A   1      49.660  25.643  27.444  1.00  0.00     0.009 A 
ATOM     52  C   UNL A   1      50.654  26.097  24.870  1.00  0.00     0.001 A 
ATOM     53  C   UNL A   1      50.991  25.358  27.148  1.00  0.00     0.001 A 
ATOM     54  C   UNL A   1      51.484  25.579  25.862  1.00  0.00     0.000 A 
ENDBRANCH  36  49
ENDBRANCH  10  11
ENDBRANCH   3   5
ENDBRANCH   2   3
ENDBRANCH   1   2
BRANCH   1  55
ATOM     55  C   UNL A   1      32.353  29.863  27.019  1.00  0.00     0.274 C 
BRANCH  55  56
ATOM     56  O   UNL A   1      31.632  29.600  25.803  1.00  0.00    -0.457 OA
BRANCH  56  57
ATOM     57  C   UNL A   1      31.561  28.267  25.483  1.00  0.00     0.368 C 
ATOM     58  O   UNL A   1      31.240  27.400  26.295  1.00  0.00    -0.245 OA
BRANCH  57  59
ATOM     59  C   UNL A   1      32.135  27.930  24.087  1.00  0.00     0.200 C 
ATOM     60  C   UNL A   1      33.630  27.711  23.882  1.00  0.00     0.087 C 
ATOM     61  C   UNL A   1      31.595  26.476  23.767  1.00  0.00     0.146 C 
ATOM     62  C   UNL A   1      33.651  26.850  22.624  1.00  0.00     0.072 C 
ATOM     63  C   UNL A   1      32.683  25.714  22.972  1.00  0.00     0.191 C 
BRANCH  59  64
ATOM     64  N   UNL A   1      31.637  28.920  23.086  1.00  0.00    -0.329 N 
ATOM     65  H   UNL A   1      32.348  28.966  22.355  1.00  0.00     0.347 HD
ATOM     66  H   UNL A   1      31.465  29.741  23.666  1.00  0.00     0.347 HD
BRANCH  64  67
ATOM     67  C   UNL A   1      30.345  28.757  22.395  1.00  0.00     0.183 C 
ATOM     68  C   UNL A   1      28.981  28.990  22.969  1.00  0.00     0.071 C 
ATOM     69  C   UNL A   1      29.538  29.967  21.978  1.00  0.00     0.071 C 
ENDBRANCH  64  67
ENDBRANCH  59  64
BRANCH  63  70
ATOM     70  N   UNL A   1      33.298  24.518  23.588  1.00  0.00    -0.323 N 
ATOM     71  C   UNL A   1      32.635  24.079  24.832  1.00  0.00     0.324 C 
ATOM     72  C   UNL A   1      34.736  24.199  23.597  1.00  0.00     0.328 C 
ATOM     73  H   UNL A   1      33.085  23.956  22.764  1.00  0.00     0.348 HD
ATOM     74  C   UNL A   1      33.470  23.180  25.795  1.00  0.00     0.324 C 
ATOM     75  C   UNL A   1      34.977  22.685  23.942  1.00  0.00     0.240 C 
ATOM     76  N   UNL A   1      34.271  22.164  25.124  1.00  0.00    -0.323 N 
ATOM     77  C   UNL A   1      36.419  22.198  24.058  1.00  0.00     0.077 C 
ATOM     78  C   UNL A   1      35.238  21.478  25.978  1.00  0.00     0.263 C 
ATOM     79  H   UNL A   1      33.574  21.477  24.838  1.00  0.00     0.348 HD
ATOM     80  C   UNL A   1      36.300  21.008  25.001  1.00  0.00     0.068 C 
ENDBRANCH  63  70
ENDBRANCH  57  59
ENDBRANCH  56  57
ENDBRANCH  55  56
ENDBRANCH   1  55
TORSDOF 14
ENDMDL
MODEL 3
REMARK VINA RESULT:     -10.4      3.633      5.328
REMARK SMILES O=C(OCCOC(=O)[C@@]1([NH2+]C2CC2)CC[C@@H]([N@@H+]2CC[N@@H+]3CCC[C@@H]3C2)C1)c1ccc(-c2c3nc(c(-c4ccccc4)c4ccc([nH]4)c(-c4ccccc4)c4nc(c(-c5ccccc5)c5ccc2[nH]5)C=C4)C=C3)cc1
REMARK SMILES IDX 4 1 3 2 2 3 1 4 27 5 28 6 74 7 29 8 73 9 30 10 31 11 32 12
REMARK SMILES IDX 67 13 33 14 72 15 66 16 68 17 34 18 71 19 65 20 64 21 35 23
REMARK SMILES IDX 57 24 42 25 56 26 43 27 46 28 55 29 69 30 44 31 45 32 54 34
REMARK SMILES IDX 70 35 47 36 36 37 37 38 41 39 38 40 40 41 39 42 58 43 59 44
REMARK SMILES IDX 63 45 60 46 62 47 61 48 48 49 49 50 53 51 50 52 52 53 51 54
REMARK SMILES IDX 5 55 6 56 7 57 8 58 9 59 14 60 26 61 15 62 16 63 10 64 11 67
REMARK SMILES IDX 12 68 13 69 17 70 18 71 25 72 19 74 24 75 20 76 23 77 21 78
REMARK SMILES IDX 22 80
REMARK H PARENT 68 22 46 33 10 65 10 66 17 73 20 79
REMARK Flexibility Score: inf
ROOT
ATOM      1  C   UNL A   1      37.705  22.919  25.836  1.00  0.00     0.275 C 
ENDROOT
BRANCH   1   2
ATOM      2  O   UNL A   1      38.426  24.151  26.001  1.00  0.00    -0.458 OA
BRANCH   2   3
ATOM      3  C   UNL A   1      39.651  24.142  26.545  1.00  0.00     0.338 C 
ATOM      4  O   UNL A   1      40.543  23.345  26.265  1.00  0.00    -0.246 OA
BRANCH   3   5
ATOM      5  C   UNL A   1      39.775  25.264  27.514  1.00  0.00     0.060 A 
ATOM      6  C   UNL A   1      40.471  26.431  27.169  1.00  0.00     0.016 A 
ATOM      7  C   UNL A   1      39.100  25.205  28.738  1.00  0.00     0.016 A 
ATOM      8  C   UNL A   1      40.465  27.534  28.018  1.00  0.00     0.010 A 
ATOM      9  C   UNL A   1      39.064  26.329  29.575  1.00  0.00     0.010 A 
ATOM     10  C   UNL A   1      39.745  27.502  29.217  1.00  0.00    -0.014 A 
BRANCH  10  11
ATOM     11  C   UNL A   1      39.860  28.662  30.139  1.00  0.00     0.031 A 
ATOM     12  C   UNL A   1      38.787  29.670  30.110  1.00  0.00     0.074 A 
ATOM     13  C   UNL A   1      40.901  28.853  30.969  1.00  0.00     0.049 A 
ATOM     14  N   UNL A   1      38.590  30.654  30.935  1.00  0.00    -0.248 NA
ATOM     15  C   UNL A   1      37.875  29.612  28.961  1.00  0.00     0.031 C 
ATOM     16  C   UNL A   1      42.086  28.050  30.892  1.00  0.00     0.029 A 
ATOM     17  N   UNL A   1      41.163  29.690  32.025  1.00  0.00    -0.354 N 
ATOM     18  C   UNL A   1      37.579  31.392  30.361  1.00  0.00     0.074 A 
ATOM     19  C   UNL A   1      37.212  30.742  29.121  1.00  0.00     0.031 C 
ATOM     20  C   UNL A   1      42.927  28.330  31.897  1.00  0.00     0.029 A 
ATOM     21  C   UNL A   1      42.279  29.296  32.754  1.00  0.00     0.049 A 
ATOM     22  H   UNL A   1      40.620  30.482  32.242  1.00  0.00     0.167 HD
ATOM     23  C   UNL A   1      37.037  32.534  30.832  1.00  0.00     0.031 A 
ATOM     24  C   UNL A   1      42.639  29.584  34.022  1.00  0.00     0.031 A 
ATOM     25  C   UNL A   1      37.477  33.169  32.041  1.00  0.00     0.049 A 
ATOM     26  C   UNL A   1      41.833  30.660  34.686  1.00  0.00     0.074 A 
ATOM     27  C   UNL A   1      37.034  34.340  32.617  1.00  0.00     0.029 A 
ATOM     28  N   UNL A   1      38.485  32.669  32.863  1.00  0.00    -0.354 N 
ATOM     29  N   UNL A   1      40.781  31.288  34.215  1.00  0.00    -0.248 NA
ATOM     30  C   UNL A   1      42.272  31.115  36.010  1.00  0.00     0.031 C 
ATOM     31  C   UNL A   1      37.781  34.556  33.783  1.00  0.00     0.029 A 
ATOM     32  C   UNL A   1      38.665  33.500  33.954  1.00  0.00     0.049 A 
ATOM     33  H   UNL A   1      38.995  31.845  32.692  1.00  0.00     0.167 HD
ATOM     34  C   UNL A   1      40.477  32.259  35.145  1.00  0.00     0.074 A 
ATOM     35  C   UNL A   1      41.380  32.063  36.265  1.00  0.00     0.031 C 
ATOM     36  C   UNL A   1      39.581  33.270  35.045  1.00  0.00     0.031 A 
BRANCH  23  37
ATOM     37  C   UNL A   1      35.987  33.134  29.953  1.00  0.00    -0.014 A 
ATOM     38  C   UNL A   1      36.347  33.848  28.794  1.00  0.00     0.009 A 
ATOM     39  C   UNL A   1      34.655  33.155  30.384  1.00  0.00     0.009 A 
ATOM     40  C   UNL A   1      35.407  34.637  28.134  1.00  0.00     0.001 A 
ATOM     41  C   UNL A   1      33.708  33.915  29.697  1.00  0.00     0.001 A 
ATOM     42  C   UNL A   1      34.088  34.672  28.588  1.00  0.00     0.000 A 
ENDBRANCH  23  37
BRANCH  24  43
ATOM     43  C   UNL A   1      43.693  28.824  34.774  1.00  0.00    -0.014 A 
ATOM     44  C   UNL A   1      45.033  29.262  34.726  1.00  0.00     0.009 A 
ATOM     45  C   UNL A   1      43.413  27.673  35.524  1.00  0.00     0.009 A 
ATOM     46  C   UNL A   1      46.057  28.555  35.368  1.00  0.00     0.001 A 
ATOM     47  C   UNL A   1      44.435  26.986  36.200  1.00  0.00     0.001 A 
ATOM     48  C   UNL A   1      45.756  27.417  36.110  1.00  0.00     0.000 A 
ENDBRANCH  24  43
BRANCH  36  49
ATOM     49  C   UNL A   1      39.586  34.256  36.168  1.00  0.00    -0.014 A 
ATOM     50  C   UNL A   1      38.823  34.021  37.324  1.00  0.00     0.009 A 
ATOM     51  C   UNL A   1      40.386  35.402  36.089  1.00  0.00     0.009 A 
ATOM     52  C   UNL A   1      38.844  34.935  38.375  1.00  0.00     0.001 A 
ATOM     53  C   UNL A   1      40.424  36.300  37.153  1.00  0.00     0.001 A 
ATOM     54  C   UNL A   1      39.649  36.069  38.290  1.00  0.00     0.000 A 
ENDBRANCH  36  49
ENDBRANCH  10  11
ENDBRANCH   3   5
ENDBRANCH   2   3
ENDBRANCH   1   2
BRANCH   1  55
ATOM     55  C   UNL A   1      37.117  22.492  24.479  1.00  0.00     0.274 C 
BRANCH  55  56
ATOM     56  O   UNL A   1      35.716  22.169  24.438  1.00  0.00    -0.457 OA
BRANCH  56  57
ATOM     57  C   UNL A   1      35.384  21.065  25.183  1.00  0.00     0.368 C 
ATOM     58  O   UNL A   1      36.004  20.005  25.122  1.00  0.00    -0.245 OA
BRANCH  57  59
ATOM     59  C   UNL A   1      34.036  21.201  25.930  1.00  0.00     0.200 C 
ATOM     60  C   UNL A   1      33.886  22.147  27.117  1.00  0.00     0.087 C 
ATOM     61  C   UNL A   1      33.067  21.902  24.892  1.00  0.00     0.146 C 
ATOM     62  C   UNL A   1      32.385  22.414  27.116  1.00  0.00     0.072 C 
ATOM     63  C   UNL A   1      32.116  22.844  25.671  1.00  0.00     0.191 C 
BRANCH  59  64
ATOM     64  N   UNL A   1      33.531  19.848  26.307  1.00  0.00    -0.329 N 
ATOM     65  H   UNL A   1      32.986  19.976  27.161  1.00  0.00     0.347 HD
ATOM     66  H   UNL A   1      34.391  19.302  26.343  1.00  0.00     0.347 HD
BRANCH  64  67
ATOM     67  C   UNL A   1      32.692  19.041  25.402  1.00  0.00     0.183 C 
ATOM     68  C   UNL A   1      33.166  18.077  24.358  1.00  0.00     0.071 C 
ATOM     69  C   UNL A   1      32.543  17.551  25.616  1.00  0.00     0.071 C 
ENDBRANCH  64  67
ENDBRANCH  59  64
BRANCH  63  70
ATOM     70  N   UNL A   1      32.197  24.298  25.412  1.00  0.00    -0.323 N 
ATOM     71  C   UNL A   1      33.182  24.667  24.375  1.00  0.00     0.324 C 
ATOM     72  C   UNL A   1      32.048  25.360  26.421  1.00  0.00     0.328 C 
ATOM     73  H   UNL A   1      31.223  24.322  25.109  1.00  0.00     0.348 HD
ATOM     74  C   UNL A   1      33.694  26.139  24.383  1.00  0.00     0.324 C 
ATOM     75  C   UNL A   1      31.763  26.749  25.742  1.00  0.00     0.240 C 
ATOM     76  N   UNL A   1      32.660  27.133  24.640  1.00  0.00    -0.323 N 
ATOM     77  C   UNL A   1      31.646  27.976  26.643  1.00  0.00     0.077 C 
ATOM     78  C   UNL A   1      33.152  28.486  24.891  1.00  0.00     0.263 C 
ATOM     79  H   UNL A   1      32.141  27.155  23.762  1.00  0.00     0.348 HD
ATOM     80  C   UNL A   1      32.046  29.116  25.717  1.00  0.00     0.068 C 
ENDBRANCH  63  70
ENDBRANCH  57  59
ENDBRANCH  56  57
ENDBRANCH  55  56
ENDBRANCH   1  55
TORSDOF 14
ENDMDL
