MODEL 1
REMARK VINA RESULT:     -10.3      0.000      0.000
REMARK SMILES CC(C)C[C@H](CNC(=O)NC[C@H]1CCC(=O)N1)C(=O)OCCOC(=O)c1ccc(-c2c3nc(c(-c4ccccc4)c4ccc([nH]4)c(-c4ccccc4)c4nc(c(-c5ccccc5)c5ccc2[nH]5)C=C4)C=C3)cc1
REMARK SMILES IDX 21 1 20 2 18 3 19 4 5 5 4 6 2 7 1 8 3 9 6 10 7 11 8 12 9 14
REMARK SMILES IDX 10 15 11 17 12 18 13 19 17 20 14 21 15 22 16 24 22 25 23 26
REMARK SMILES IDX 24 27 25 28 26 29 27 30 73 31 28 32 72 33 29 34 30 35 31 36
REMARK SMILES IDX 66 37 32 38 71 39 65 40 67 41 33 42 70 43 64 44 63 45 34 47
REMARK SMILES IDX 56 48 41 49 55 50 42 51 45 52 54 53 68 54 43 55 44 56 53 58
REMARK SMILES IDX 69 59 46 60 35 61 36 62 40 63 37 64 39 65 38 66 57 67 58 68
REMARK SMILES IDX 62 69 59 70 61 71 60 72 47 73 48 74 52 75 49 76 51 77 50 78
REMARK H PARENT 7 13 10 16 17 23 67 46 45 57
REMARK Flexibility Score: inf
ROOT
ATOM      1  C   UNL A   1      31.887  29.164  26.805  1.00  0.00     0.274 C 
ENDROOT
BRANCH   1   2
ATOM      2  O   UNL A   1      31.162  29.078  25.560  1.00  0.00    -0.462 OA
BRANCH   2   3
ATOM      3  C   UNL A   1      31.843  28.528  24.522  1.00  0.00     0.310 C 
ATOM      4  O   UNL A   1      32.921  27.950  24.621  1.00  0.00    -0.252 OA
BRANCH   3   5
ATOM      5  C   UNL A   1      31.209  28.812  23.171  1.00  0.00     0.119 C 
BRANCH   5   6
ATOM      6  C   UNL A   1      30.001  29.724  23.473  1.00  0.00     0.020 C 
BRANCH   6   7
ATOM      7  C   UNL A   1      28.797  29.721  22.516  1.00  0.00    -0.017 C 
ATOM      8  C   UNL A   1      27.477  30.050  23.226  1.00  0.00     0.007 C 
ATOM      9  C   UNL A   1      29.043  30.771  21.426  1.00  0.00     0.007 C 
ENDBRANCH   6   7
ENDBRANCH   5   6
BRANCH   5  10
ATOM     10  C   UNL A   1      30.938  27.576  22.312  1.00  0.00     0.133 C 
BRANCH  10  11
ATOM     11  N   UNL A   1      32.134  26.908  21.827  1.00  0.00    -0.337 N 
ATOM     12  C   UNL A   1      32.363  25.622  21.512  1.00  0.00     0.314 C 
ATOM     13  H   UNL A   1      32.912  27.500  21.708  1.00  0.00     0.165 HD
ATOM     14  O   UNL A   1      33.226  25.380  20.668  1.00  0.00    -0.249 OA
ATOM     15  N   UNL A   1      31.696  24.597  22.060  1.00  0.00    -0.336 N 
ATOM     16  H   UNL A   1      31.767  23.759  21.548  1.00  0.00     0.165 HD
BRANCH  15  17
ATOM     17  C   UNL A   1      30.891  24.482  23.262  1.00  0.00     0.142 C 
BRANCH  17  18
ATOM     18  C   UNL A   1      31.602  23.668  24.359  1.00  0.00     0.101 C 
ATOM     19  C   UNL A   1      32.472  24.557  25.247  1.00  0.00     0.036 C 
ATOM     20  N   UNL A   1      30.673  23.109  25.310  1.00  0.00    -0.352 N 
ATOM     21  C   UNL A   1      31.513  25.027  26.342  1.00  0.00     0.102 C 
ATOM     22  C   UNL A   1      30.566  23.860  26.464  1.00  0.00     0.220 C 
ATOM     23  H   UNL A   1      30.168  22.278  25.153  1.00  0.00     0.163 HD
ATOM     24  O   UNL A   1      29.803  23.632  27.378  1.00  0.00    -0.275 OA
ENDBRANCH  17  18
ENDBRANCH  15  17
ENDBRANCH  10  11
ENDBRANCH   5  10
ENDBRANCH   3   5
ENDBRANCH   2   3
ENDBRANCH   1   2
BRANCH   1  25
ATOM     25  C   UNL A   1      32.702  30.455  26.880  1.00  0.00     0.275 C 
BRANCH  25  26
ATOM     26  O   UNL A   1      34.077  30.138  27.156  1.00  0.00    -0.458 OA
BRANCH  26  27
ATOM     27  C   UNL A   1      34.640  30.810  28.185  1.00  0.00     0.338 C 
ATOM     28  O   UNL A   1      34.181  31.771  28.777  1.00  0.00    -0.246 OA
BRANCH  27  29
ATOM     29  C   UNL A   1      35.965  30.228  28.474  1.00  0.00     0.060 A 
ATOM     30  C   UNL A   1      36.251  29.672  29.723  1.00  0.00     0.016 A 
ATOM     31  C   UNL A   1      36.955  30.296  27.496  1.00  0.00     0.016 A 
ATOM     32  C   UNL A   1      37.536  29.222  30.016  1.00  0.00     0.010 A 
ATOM     33  C   UNL A   1      38.225  29.781  27.765  1.00  0.00     0.010 A 
ATOM     34  C   UNL A   1      38.531  29.256  29.033  1.00  0.00    -0.014 A 
BRANCH  34  35
ATOM     35  C   UNL A   1      39.897  28.750  29.315  1.00  0.00     0.031 A 
ATOM     36  C   UNL A   1      40.912  29.649  29.963  1.00  0.00     0.074 A 
ATOM     37  C   UNL A   1      40.236  27.498  28.953  1.00  0.00     0.049 A 
ATOM     38  N   UNL A   1      42.196  29.460  30.128  1.00  0.00    -0.248 NA
ATOM     39  C   UNL A   1      40.418  30.934  30.484  1.00  0.00     0.031 C 
ATOM     40  C   UNL A   1      39.333  26.512  28.356  1.00  0.00     0.029 A 
ATOM     41  N   UNL A   1      41.441  26.845  29.023  1.00  0.00    -0.354 N 
ATOM     42  C   UNL A   1      42.672  30.616  30.735  1.00  0.00     0.074 A 
ATOM     43  C   UNL A   1      41.541  31.503  30.900  1.00  0.00     0.031 C 
ATOM     44  C   UNL A   1      40.012  25.379  28.122  1.00  0.00     0.029 A 
ATOM     45  C   UNL A   1      41.410  25.582  28.482  1.00  0.00     0.049 A 
ATOM     46  H   UNL A   1      42.248  27.243  29.422  1.00  0.00     0.167 HD
ATOM     47  C   UNL A   1      43.939  30.910  31.114  1.00  0.00     0.031 A 
ATOM     48  C   UNL A   1      42.403  24.702  28.261  1.00  0.00     0.031 A 
ATOM     49  C   UNL A   1      45.059  30.019  30.954  1.00  0.00     0.049 A 
ATOM     50  C   UNL A   1      43.809  25.077  28.631  1.00  0.00     0.074 A 
ATOM     51  C   UNL A   1      46.379  30.217  31.319  1.00  0.00     0.029 A 
ATOM     52  N   UNL A   1      44.987  28.758  30.382  1.00  0.00    -0.354 N 
ATOM     53  N   UNL A   1      44.250  26.178  29.191  1.00  0.00    -0.248 NA
ATOM     54  C   UNL A   1      44.857  24.090  28.335  1.00  0.00     0.031 C 
ATOM     55  C   UNL A   1      47.115  29.096  30.923  1.00  0.00     0.029 A 
ATOM     56  C   UNL A   1      46.243  28.175  30.364  1.00  0.00     0.049 A 
ATOM     57  H   UNL A   1      44.165  28.338  30.039  1.00  0.00     0.167 HD
ATOM     58  C   UNL A   1      45.620  26.008  29.333  1.00  0.00     0.074 A 
ATOM     59  C   UNL A   1      45.935  24.691  28.817  1.00  0.00     0.031 C 
ATOM     60  C   UNL A   1      46.537  26.865  29.846  1.00  0.00     0.031 A 
BRANCH  47  61
ATOM     61  C   UNL A   1      44.189  32.271  31.702  1.00  0.00    -0.014 A 
ATOM     62  C   UNL A   1      44.514  33.372  30.895  1.00  0.00     0.009 A 
ATOM     63  C   UNL A   1      44.066  32.460  33.088  1.00  0.00     0.009 A 
ATOM     64  C   UNL A   1      44.741  34.626  31.468  1.00  0.00     0.001 A 
ATOM     65  C   UNL A   1      44.266  33.719  33.655  1.00  0.00     0.001 A 
ATOM     66  C   UNL A   1      44.612  34.800  32.845  1.00  0.00     0.000 A 
ENDBRANCH  47  61
BRANCH  48  67
ATOM     67  C   UNL A   1      42.108  23.394  27.619  1.00  0.00    -0.014 A 
ATOM     68  C   UNL A   1      41.690  22.300  28.390  1.00  0.00     0.009 A 
ATOM     69  C   UNL A   1      42.239  23.236  26.230  1.00  0.00     0.009 A 
ATOM     70  C   UNL A   1      41.428  21.068  27.786  1.00  0.00     0.001 A 
ATOM     71  C   UNL A   1      41.946  22.013  25.625  1.00  0.00     0.001 A 
ATOM     72  C   UNL A   1      41.549  20.927  26.404  1.00  0.00     0.000 A 
ENDBRANCH  48  67
BRANCH  60  73
ATOM     73  C   UNL A   1      47.959  26.385  29.909  1.00  0.00    -0.014 A 
ATOM     74  C   UNL A   1      48.472  25.771  31.062  1.00  0.00     0.009 A 
ATOM     75  C   UNL A   1      48.786  26.522  28.784  1.00  0.00     0.009 A 
ATOM     76  C   UNL A   1      49.798  25.334  31.097  1.00  0.00     0.001 A 
ATOM     77  C   UNL A   1      50.102  26.061  28.812  1.00  0.00     0.001 A 
ATOM     78  C   UNL A   1      50.609  25.476  29.971  1.00  0.00     0.000 A 
ENDBRANCH  60  73
ENDBRANCH  34  35
ENDBRANCH  27  29
ENDBRANCH  26  27
ENDBRANCH  25  26
ENDBRANCH   1  25
TORSDOF 17
ENDMDL
MODEL 2
REMARK VINA RESULT:     -10.3      1.329      3.423
REMARK SMILES CC(C)C[C@H](CNC(=O)NC[C@H]1CCC(=O)N1)C(=O)OCCOC(=O)c1ccc(-c2c3nc(c(-c4ccccc4)c4ccc([nH]4)c(-c4ccccc4)c4nc(c(-c5ccccc5)c5ccc2[nH]5)C=C4)C=C3)cc1
REMARK SMILES IDX 21 1 20 2 18 3 19 4 5 5 4 6 2 7 1 8 3 9 6 10 7 11 8 12 9 14
REMARK SMILES IDX 10 15 11 17 12 18 13 19 17 20 14 21 15 22 16 24 22 25 23 26
REMARK SMILES IDX 24 27 25 28 26 29 27 30 73 31 28 32 72 33 29 34 30 35 31 36
REMARK SMILES IDX 66 37 32 38 71 39 65 40 67 41 33 42 70 43 64 44 63 45 34 47
REMARK SMILES IDX 56 48 41 49 55 50 42 51 45 52 54 53 68 54 43 55 44 56 53 58
REMARK SMILES IDX 69 59 46 60 35 61 36 62 40 63 37 64 39 65 38 66 57 67 58 68
REMARK SMILES IDX 62 69 59 70 61 71 60 72 47 73 48 74 52 75 49 76 51 77 50 78
REMARK H PARENT 7 13 10 16 17 23 67 46 45 57
REMARK Flexibility Score: inf
ROOT
ATOM      1  C   UNL A   1      32.402  28.764  27.478  1.00  0.00     0.274 C 
ENDROOT
BRANCH   1   2
ATOM      2  O   UNL A   1      33.231  27.854  26.725  1.00  0.00    -0.462 OA
BRANCH   2   3
ATOM      3  C   UNL A   1      32.769  27.523  25.492  1.00  0.00     0.310 C 
ATOM      4  O   UNL A   1      33.145  28.036  24.443  1.00  0.00    -0.252 OA
BRANCH   3   5
ATOM      5  C   UNL A   1      31.617  26.532  25.530  1.00  0.00     0.119 C 
BRANCH   5   6
ATOM      6  C   UNL A   1      32.254  25.157  25.236  1.00  0.00     0.020 C 
BRANCH   6   7
ATOM      7  C   UNL A   1      31.390  23.890  25.337  1.00  0.00    -0.017 C 
ATOM      8  C   UNL A   1      32.033  22.680  24.648  1.00  0.00     0.007 C 
ATOM      9  C   UNL A   1      31.186  23.559  26.821  1.00  0.00     0.007 C 
ENDBRANCH   6   7
ENDBRANCH   5   6
BRANCH   5  10
ATOM     10  C   UNL A   1      30.402  26.920  24.687  1.00  0.00     0.133 C 
BRANCH  10  11
ATOM     11  N   UNL A   1      30.504  26.559  23.284  1.00  0.00    -0.337 N 
ATOM     12  C   UNL A   1      30.951  27.250  22.222  1.00  0.00     0.314 C 
ATOM     13  H   UNL A   1      30.190  25.649  23.074  1.00  0.00     0.165 HD
ATOM     14  O   UNL A   1      31.421  26.614  21.277  1.00  0.00    -0.249 OA
ATOM     15  N   UNL A   1      30.920  28.586  22.144  1.00  0.00    -0.336 N 
ATOM     16  H   UNL A   1      31.518  28.957  21.455  1.00  0.00     0.165 HD
BRANCH  15  17
ATOM     17  C   UNL A   1      30.176  29.594  22.876  1.00  0.00     0.142 C 
BRANCH  17  18
ATOM     18  C   UNL A   1      29.089  30.256  22.009  1.00  0.00     0.101 C 
ATOM     19  C   UNL A   1      27.719  30.206  22.684  1.00  0.00     0.036 C 
ATOM     20  N   UNL A   1      29.300  31.675  21.860  1.00  0.00    -0.352 N 
ATOM     21  C   UNL A   1      27.687  31.476  23.536  1.00  0.00     0.102 C 
ATOM     22  C   UNL A   1      28.533  32.427  22.728  1.00  0.00     0.220 C 
ATOM     23  H   UNL A   1      29.925  32.066  21.209  1.00  0.00     0.163 HD
ATOM     24  O   UNL A   1      28.584  33.634  22.840  1.00  0.00    -0.275 OA
ENDBRANCH  17  18
ENDBRANCH  15  17
ENDBRANCH  10  11
ENDBRANCH   5  10
ENDBRANCH   3   5
ENDBRANCH   2   3
ENDBRANCH   1   2
BRANCH   1  25
ATOM     25  C   UNL A   1      32.808  30.215  27.226  1.00  0.00     0.275 C 
BRANCH  25  26
ATOM     26  O   UNL A   1      34.242  30.320  27.229  1.00  0.00    -0.458 OA
BRANCH  26  27
ATOM     27  C   UNL A   1      34.793  30.820  28.359  1.00  0.00     0.338 C 
ATOM     28  O   UNL A   1      34.317  31.661  29.101  1.00  0.00    -0.246 OA
BRANCH  27  29
ATOM     29  C   UNL A   1      36.127  30.220  28.552  1.00  0.00     0.060 A 
ATOM     30  C   UNL A   1      36.504  29.682  29.785  1.00  0.00     0.016 A 
ATOM     31  C   UNL A   1      37.035  30.252  27.497  1.00  0.00     0.016 A 
ATOM     32  C   UNL A   1      37.801  29.215  29.983  1.00  0.00     0.010 A 
ATOM     33  C   UNL A   1      38.314  29.720  27.673  1.00  0.00     0.010 A 
ATOM     34  C   UNL A   1      38.714  29.213  28.923  1.00  0.00    -0.014 A 
BRANCH  34  35
ATOM     35  C   UNL A   1      40.090  28.688  29.104  1.00  0.00     0.031 A 
ATOM     36  C   UNL A   1      41.183  29.598  29.587  1.00  0.00     0.074 A 
ATOM     37  C   UNL A   1      40.364  27.406  28.796  1.00  0.00     0.049 A 
ATOM     38  N   UNL A   1      42.473  29.384  29.640  1.00  0.00    -0.248 NA
ATOM     39  C   UNL A   1      40.771  30.927  30.066  1.00  0.00     0.031 C 
ATOM     40  C   UNL A   1      39.384  26.409  28.357  1.00  0.00     0.029 A 
ATOM     41  N   UNL A   1      41.555  26.725  28.792  1.00  0.00    -0.354 N 
ATOM     42  C   UNL A   1      43.031  30.563  30.118  1.00  0.00     0.074 A 
ATOM     43  C   UNL A   1      41.941  31.491  30.332  1.00  0.00     0.031 C 
ATOM     44  C   UNL A   1      40.012  25.245  28.135  1.00  0.00     0.029 A 
ATOM     45  C   UNL A   1      41.444  25.431  28.343  1.00  0.00     0.049 A 
ATOM     46  H   UNL A   1      42.406  27.125  29.083  1.00  0.00     0.167 HD
ATOM     47  C   UNL A   1      44.335  30.845  30.351  1.00  0.00     0.031 A 
ATOM     48  C   UNL A   1      42.391  24.511  28.086  1.00  0.00     0.031 A 
ATOM     49  C   UNL A   1      45.414  29.914  30.144  1.00  0.00     0.049 A 
ATOM     50  C   UNL A   1      43.834  24.869  28.292  1.00  0.00     0.074 A 
ATOM     51  C   UNL A   1      46.768  30.099  30.364  1.00  0.00     0.029 A 
ATOM     52  N   UNL A   1      45.258  28.621  29.668  1.00  0.00    -0.354 N 
ATOM     53  N   UNL A   1      44.352  25.991  28.730  1.00  0.00    -0.248 NA
ATOM     54  C   UNL A   1      44.825  23.836  27.963  1.00  0.00     0.031 C 
ATOM     55  C   UNL A   1      47.437  28.934  29.975  1.00  0.00     0.029 A 
ATOM     56  C   UNL A   1      46.494  28.003  29.567  1.00  0.00     0.049 A 
ATOM     57  H   UNL A   1      44.398  28.204  29.436  1.00  0.00     0.167 HD
ATOM     58  C   UNL A   1      45.725  25.792  28.750  1.00  0.00     0.074 A 
ATOM     59  C   UNL A   1      45.959  24.436  28.296  1.00  0.00     0.031 C 
ATOM     60  C   UNL A   1      46.707  26.654  29.112  1.00  0.00     0.031 A 
BRANCH  47  61
ATOM     61  C   UNL A   1      44.672  32.234  30.819  1.00  0.00    -0.014 A 
ATOM     62  C   UNL A   1      44.917  33.276  29.911  1.00  0.00     0.009 A 
ATOM     63  C   UNL A   1      44.712  32.510  32.195  1.00  0.00     0.009 A 
ATOM     64  C   UNL A   1      45.227  34.557  30.374  1.00  0.00     0.001 A 
ATOM     65  C   UNL A   1      44.995  33.797  32.654  1.00  0.00     0.001 A 
ATOM     66  C   UNL A   1      45.261  34.818  31.743  1.00  0.00     0.000 A 
ENDBRANCH  47  61
BRANCH  48  67
ATOM     67  C   UNL A   1      42.005  23.173  27.566  1.00  0.00    -0.014 A 
ATOM     68  C   UNL A   1      41.656  22.139  28.446  1.00  0.00     0.009 A 
ATOM     69  C   UNL A   1      41.980  22.925  26.184  1.00  0.00     0.009 A 
ATOM     70  C   UNL A   1      41.308  20.878  27.955  1.00  0.00     0.001 A 
ATOM     71  C   UNL A   1      41.602  21.674  25.694  1.00  0.00     0.001 A 
ATOM     72  C   UNL A   1      41.275  20.649  26.580  1.00  0.00     0.000 A 
ENDBRANCH  48  67
BRANCH  60  73
ATOM     73  C   UNL A   1      48.117  26.139  29.069  1.00  0.00    -0.014 A 
ATOM     74  C   UNL A   1      48.847  26.110  27.870  1.00  0.00     0.009 A 
ATOM     75  C   UNL A   1      48.732  25.706  30.254  1.00  0.00     0.009 A 
ATOM     76  C   UNL A   1      50.157  25.625  27.856  1.00  0.00     0.001 A 
ATOM     77  C   UNL A   1      50.049  25.247  30.240  1.00  0.00     0.001 A 
ATOM     78  C   UNL A   1      50.757  25.199  29.040  1.00  0.00     0.000 A 
ENDBRANCH  60  73
ENDBRANCH  34  35
ENDBRANCH  27  29
ENDBRANCH  26  27
ENDBRANCH  25  26
ENDBRANCH   1  25
TORSDOF 17
ENDMDL
MODEL 3
REMARK VINA RESULT:     -10.2      4.462      7.853
REMARK SMILES CC(C)C[C@H](CNC(=O)NC[C@H]1CCC(=O)N1)C(=O)OCCOC(=O)c1ccc(-c2c3nc(c(-c4ccccc4)c4ccc([nH]4)c(-c4ccccc4)c4nc(c(-c5ccccc5)c5ccc2[nH]5)C=C4)C=C3)cc1
REMARK SMILES IDX 21 1 20 2 18 3 19 4 5 5 4 6 2 7 1 8 3 9 6 10 7 11 8 12 9 14
REMARK SMILES IDX 10 15 11 17 12 18 13 19 17 20 14 21 15 22 16 24 22 25 23 26
REMARK SMILES IDX 24 27 25 28 26 29 27 30 73 31 28 32 72 33 29 34 30 35 31 36
REMARK SMILES IDX 66 37 32 38 71 39 65 40 67 41 33 42 70 43 64 44 63 45 34 47
REMARK SMILES IDX 56 48 41 49 55 50 42 51 45 52 54 53 68 54 43 55 44 56 53 58
REMARK SMILES IDX 69 59 46 60 35 61 36 62 40 63 37 64 39 65 38 66 57 67 58 68
REMARK SMILES IDX 62 69 59 70 61 71 60 72 47 73 48 74 52 75 49 76 51 77 50 78
REMARK H PARENT 7 13 10 16 17 23 67 46 45 57
REMARK Flexibility Score: inf
ROOT
ATOM      1  C   UNL A   1      36.300  21.428  25.509  1.00  0.00     0.274 C 
ENDROOT
BRANCH   1   2
ATOM      2  O   UNL A   1      35.069  20.830  25.052  1.00  0.00    -0.462 OA
BRANCH   2   3
ATOM      3  C   UNL A   1      34.046  20.839  25.944  1.00  0.00     0.310 C 
ATOM      4  O   UNL A   1      34.137  21.216  27.108  1.00  0.00    -0.252 OA
BRANCH   3   5
ATOM      5  C   UNL A   1      32.777  20.201  25.406  1.00  0.00     0.119 C 
BRANCH   5   6
ATOM      6  C   UNL A   1      33.239  19.288  24.251  1.00  0.00     0.020 C 
BRANCH   6   7
ATOM      7  C   UNL A   1      33.672  17.845  24.557  1.00  0.00    -0.017 C 
ATOM      8  C   UNL A   1      32.758  17.158  25.579  1.00  0.00     0.007 C 
ATOM      9  C   UNL A   1      33.642  17.041  23.252  1.00  0.00     0.007 C 
ENDBRANCH   6   7
ENDBRANCH   5   6
BRANCH   5  10
ATOM     10  C   UNL A   1      31.642  21.179  25.098  1.00  0.00     0.133 C 
BRANCH  10  11
ATOM     11  N   UNL A   1      31.399  22.165  26.136  1.00  0.00    -0.337 N 
ATOM     12  C   UNL A   1      30.702  23.314  26.121  1.00  0.00     0.314 C 
ATOM     13  H   UNL A   1      31.818  21.956  27.003  1.00  0.00     0.165 HD
ATOM     14  O   UNL A   1      30.207  23.702  27.179  1.00  0.00    -0.249 OA
ATOM     15  N   UNL A   1      30.511  24.047  25.016  1.00  0.00    -0.336 N 
ATOM     16  H   UNL A   1      29.771  24.691  25.091  1.00  0.00     0.165 HD
BRANCH  15  17
ATOM     17  C   UNL A   1      31.185  24.078  23.731  1.00  0.00     0.142 C 
BRANCH  17  18
ATOM     18  C   UNL A   1      31.242  25.499  23.141  1.00  0.00     0.101 C 
ATOM     19  C   UNL A   1      32.501  26.244  23.584  1.00  0.00     0.036 C 
ATOM     20  N   UNL A   1      31.388  25.487  21.707  1.00  0.00    -0.352 N 
ATOM     21  C   UNL A   1      33.540  25.860  22.529  1.00  0.00     0.102 C 
ATOM     22  C   UNL A   1      32.694  25.671  21.296  1.00  0.00     0.220 C 
ATOM     23  H   UNL A   1      30.636  25.361  21.084  1.00  0.00     0.163 HD
ATOM     24  O   UNL A   1      33.078  25.634  20.147  1.00  0.00    -0.275 OA
ENDBRANCH  17  18
ENDBRANCH  15  17
ENDBRANCH  10  11
ENDBRANCH   5  10
ENDBRANCH   3   5
ENDBRANCH   2   3
ENDBRANCH   1   2
BRANCH   1  25
ATOM     25  C   UNL A   1      37.512  20.634  25.025  1.00  0.00     0.275 C 
BRANCH  25  26
ATOM     26  O   UNL A   1      38.718  21.302  25.432  1.00  0.00    -0.458 OA
BRANCH  26  27
ATOM     27  C   UNL A   1      39.758  20.499  25.749  1.00  0.00     0.338 C 
ATOM     28  O   UNL A   1      39.776  19.281  25.747  1.00  0.00    -0.246 OA
BRANCH  27  29
ATOM     29  C   UNL A   1      40.902  21.333  26.167  1.00  0.00     0.060 A 
ATOM     30  C   UNL A   1      42.203  20.825  26.164  1.00  0.00     0.016 A 
ATOM     31  C   UNL A   1      40.657  22.625  26.627  1.00  0.00     0.016 A 
ATOM     32  C   UNL A   1      43.258  21.587  26.660  1.00  0.00     0.010 A 
ATOM     33  C   UNL A   1      41.725  23.415  27.058  1.00  0.00     0.010 A 
ATOM     34  C   UNL A   1      43.031  22.897  27.095  1.00  0.00    -0.014 A 
BRANCH  34  35
ATOM     35  C   UNL A   1      44.147  23.737  27.595  1.00  0.00     0.031 A 
ATOM     36  C   UNL A   1      44.356  23.906  29.073  1.00  0.00     0.074 A 
ATOM     37  C   UNL A   1      44.947  24.379  26.722  1.00  0.00     0.049 A 
ATOM     38  N   UNL A   1      45.152  24.730  29.706  1.00  0.00    -0.248 NA
ATOM     39  C   UNL A   1      43.558  23.041  29.956  1.00  0.00     0.031 C 
ATOM     40  C   UNL A   1      44.876  24.264  25.263  1.00  0.00     0.029 A 
ATOM     41  N   UNL A   1      45.970  25.267  26.936  1.00  0.00    -0.354 N 
ATOM     42  C   UNL A   1      44.922  24.513  31.059  1.00  0.00     0.074 A 
ATOM     43  C   UNL A   1      43.907  23.486  31.155  1.00  0.00     0.031 C 
ATOM     44  C   UNL A   1      45.819  25.046  24.715  1.00  0.00     0.029 A 
ATOM     45  C   UNL A   1      46.509  25.770  25.776  1.00  0.00     0.049 A 
ATOM     46  H   UNL A   1      46.287  25.520  27.833  1.00  0.00     0.167 HD
ATOM     47  C   UNL A   1      45.502  25.119  32.122  1.00  0.00     0.031 A 
ATOM     48  C   UNL A   1      47.426  26.736  25.586  1.00  0.00     0.031 A 
ATOM     49  C   UNL A   1      46.518  26.134  32.019  1.00  0.00     0.049 A 
ATOM     50  C   UNL A   1      48.008  27.438  26.779  1.00  0.00     0.074 A 
ATOM     51  C   UNL A   1      47.179  26.800  33.036  1.00  0.00     0.029 A 
ATOM     52  N   UNL A   1      47.020  26.629  30.824  1.00  0.00    -0.354 N 
ATOM     53  N   UNL A   1      47.772  27.235  28.052  1.00  0.00    -0.248 NA
ATOM     54  C   UNL A   1      48.978  28.507  26.508  1.00  0.00     0.031 C 
ATOM     55  C   UNL A   1      48.046  27.733  32.457  1.00  0.00     0.029 A 
ATOM     56  C   UNL A   1      47.967  27.607  31.079  1.00  0.00     0.049 A 
ATOM     57  H   UNL A   1      46.744  26.330  29.928  1.00  0.00     0.167 HD
ATOM     58  C   UNL A   1      48.580  28.134  28.735  1.00  0.00     0.074 A 
ATOM     59  C   UNL A   1      49.324  28.872  27.735  1.00  0.00     0.031 C 
ATOM     60  C   UNL A   1      48.696  28.331  30.071  1.00  0.00     0.031 A 
BRANCH  47  61
ATOM     61  C   UNL A   1      45.021  24.729  33.492  1.00  0.00    -0.014 A 
ATOM     62  C   UNL A   1      43.889  25.324  34.070  1.00  0.00     0.009 A 
ATOM     63  C   UNL A   1      45.695  23.723  34.202  1.00  0.00     0.009 A 
ATOM     64  C   UNL A   1      43.463  24.942  35.344  1.00  0.00     0.001 A 
ATOM     65  C   UNL A   1      45.251  23.324  35.463  1.00  0.00     0.001 A 
ATOM     66  C   UNL A   1      44.140  23.939  36.038  1.00  0.00     0.000 A 
ENDBRANCH  47  61
BRANCH  48  67
ATOM     67  C   UNL A   1      47.820  27.124  24.206  1.00  0.00    -0.014 A 
ATOM     68  C   UNL A   1      47.059  28.052  23.480  1.00  0.00     0.009 A 
ATOM     69  C   UNL A   1      48.964  26.570  23.609  1.00  0.00     0.009 A 
ATOM     70  C   UNL A   1      47.424  28.402  22.179  1.00  0.00     0.001 A 
ATOM     71  C   UNL A   1      49.344  26.945  22.320  1.00  0.00     0.001 A 
ATOM     72  C   UNL A   1      48.569  27.855  21.602  1.00  0.00     0.000 A 
ENDBRANCH  48  67
BRANCH  60  73
ATOM     73  C   UNL A   1      49.693  29.359  30.524  1.00  0.00    -0.014 A 
ATOM     74  C   UNL A   1      51.035  29.021  30.758  1.00  0.00     0.009 A 
ATOM     75  C   UNL A   1      49.287  30.692  30.688  1.00  0.00     0.009 A 
ATOM     76  C   UNL A   1      51.943  29.994  31.181  1.00  0.00     0.001 A 
ATOM     77  C   UNL A   1      50.202  31.667  31.085  1.00  0.00     0.001 A 
ATOM     78  C   UNL A   1      51.527  31.316  31.339  1.00  0.00     0.000 A 
ENDBRANCH  60  73
ENDBRANCH  34  35
ENDBRANCH  27  29
ENDBRANCH  26  27
ENDBRANCH  25  26
ENDBRANCH   1  25
TORSDOF 17
ENDMDL
