MODEL 1
REMARK VINA RESULT:     -11.7      0.000      0.000
REMARK SMILES Cc1cccc(Cn2c(=O)c3sccc3n(CC(=O)OCCOC(=O)c3ccc(-c4c5nc(c(-c6ccccc6)c6ccc([nH]6)c(-c6ccccc6)c6nc(c(-c7ccccc7)c7ccc4[nH]7)C=C6)C=C5)cc3)c2=O)c1
REMARK SMILES IDX 21 1 20 2 18 3 19 4 17 5 16 6 8 7 9 8 74 9 10 10 11 11 75 12
REMARK SMILES IDX 12 13 15 14 13 15 14 16 7 17 6 18 1 19 2 20 3 21 76 22 4 23
REMARK SMILES IDX 5 24 22 25 23 26 24 27 25 28 26 29 27 30 73 31 28 32 72 33
REMARK SMILES IDX 29 34 30 35 31 36 66 37 32 38 71 39 65 40 67 41 33 42 70 43
REMARK SMILES IDX 64 44 63 45 34 47 56 48 41 49 55 50 42 51 45 52 54 53 68 54
REMARK SMILES IDX 43 55 44 56 53 58 69 59 46 60 35 61 36 62 40 63 37 64 39 65
REMARK SMILES IDX 38 66 57 67 58 68 62 69 59 70 61 71 60 72 47 73 48 74 52 75
REMARK SMILES IDX 49 76 51 77 50 78
REMARK H PARENT 67 46 45 57
REMARK Flexibility Score: inf
ROOT
ATOM      1  C   UNL A   1      33.219  29.424  25.436  1.00  0.00     0.274 C 
ENDROOT
BRANCH   1   2
ATOM      2  O   UNL A   1      33.673  28.254  24.770  1.00  0.00    -0.461 OA
BRANCH   2   3
ATOM      3  C   UNL A   1      33.644  28.302  23.403  1.00  0.00     0.326 C 
ATOM      4  O   UNL A   1      34.494  28.805  22.708  1.00  0.00    -0.250 OA
BRANCH   3   5
ATOM      5  C   UNL A   1      32.429  27.541  22.889  1.00  0.00     0.250 C 
BRANCH   5   6
ATOM      6  N   UNL A   1      32.479  26.214  23.460  1.00  0.00    -0.281 N 
ATOM      7  N   UNL A   1      33.459  24.065  23.340  1.00  0.00    -0.254 N 
ATOM      8  C   UNL A   1      32.609  23.506  24.295  1.00  0.00     0.274 A 
ATOM      9  C   UNL A   1      33.245  25.298  22.752  1.00  0.00     0.332 A 
ATOM     10  O   UNL A   1      32.647  22.318  24.607  1.00  0.00    -0.268 OA
ATOM     11  C   UNL A   1      31.676  24.458  24.851  1.00  0.00     0.116 A 
ATOM     12  O   UNL A   1      33.706  25.591  21.645  1.00  0.00    -0.247 OA
ATOM     13  S   UNL A   1      30.470  24.069  25.981  1.00  0.00    -0.136 S 
ATOM     14  C   UNL A   1      31.660  25.781  24.498  1.00  0.00     0.070 A 
ATOM     15  C   UNL A   1      29.947  25.700  26.061  1.00  0.00     0.068 A 
ATOM     16  C   UNL A   1      30.706  26.520  25.253  1.00  0.00     0.039 A 
BRANCH   7  17
ATOM     17  C   UNL A   1      34.584  23.300  22.826  1.00  0.00     0.166 C 
BRANCH  17  18
ATOM     18  C   UNL A   1      35.637  23.088  23.906  1.00  0.00    -0.028 A 
ATOM     19  C   UNL A   1      38.102  20.396  25.003  1.00  0.00     0.044 C 
ATOM     20  C   UNL A   1      37.300  21.661  24.973  1.00  0.00    -0.051 A 
ATOM     21  C   UNL A   1      37.534  22.648  25.938  1.00  0.00     0.003 A 
ATOM     22  C   UNL A   1      36.338  21.878  23.975  1.00  0.00     0.009 A 
ATOM     23  C   UNL A   1      36.846  23.854  25.885  1.00  0.00     0.001 A 
ATOM     24  C   UNL A   1      35.926  24.079  24.864  1.00  0.00     0.005 A 
ENDBRANCH  17  18
ENDBRANCH   7  17
ENDBRANCH   5   6
ENDBRANCH   3   5
ENDBRANCH   2   3
ENDBRANCH   1   2
BRANCH   1  25
ATOM     25  C   UNL A   1      33.814  29.510  26.849  1.00  0.00     0.275 C 
BRANCH  25  26
ATOM     26  O   UNL A   1      34.374  30.780  27.318  1.00  0.00    -0.458 OA
BRANCH  26  27
ATOM     27  C   UNL A   1      35.152  31.115  28.376  1.00  0.00     0.338 C 
ATOM     28  O   UNL A   1      34.795  31.941  29.207  1.00  0.00    -0.246 OA
BRANCH  27  29
ATOM     29  C   UNL A   1      36.400  30.373  28.599  1.00  0.00     0.060 A 
ATOM     30  C   UNL A   1      36.543  29.565  29.744  1.00  0.00     0.016 A 
ATOM     31  C   UNL A   1      37.390  30.411  27.635  1.00  0.00     0.016 A 
ATOM     32  C   UNL A   1      37.631  28.695  29.855  1.00  0.00     0.010 A 
ATOM     33  C   UNL A   1      38.366  29.447  27.661  1.00  0.00     0.010 A 
ATOM     34  C   UNL A   1      38.526  28.625  28.789  1.00  0.00    -0.014 A 
BRANCH  34  35
ATOM     35  C   UNL A   1      39.861  28.054  28.864  1.00  0.00     0.031 A 
ATOM     36  C   UNL A   1      40.244  26.708  28.392  1.00  0.00     0.074 A 
ATOM     37  C   UNL A   1      40.771  28.991  29.231  1.00  0.00     0.049 A 
ATOM     38  N   UNL A   1      41.370  26.160  28.702  1.00  0.00    -0.248 NA
ATOM     39  C   UNL A   1      39.426  25.846  27.544  1.00  0.00     0.031 C 
ATOM     40  C   UNL A   1      42.217  28.980  29.124  1.00  0.00     0.029 A 
ATOM     41  N   UNL A   1      40.524  30.207  29.886  1.00  0.00    -0.354 N 
ATOM     42  C   UNL A   1      41.573  25.099  27.844  1.00  0.00     0.074 A 
ATOM     43  C   UNL A   1      40.289  24.868  27.230  1.00  0.00     0.031 C 
ATOM     44  C   UNL A   1      42.700  29.916  29.968  1.00  0.00     0.029 A 
ATOM     45  C   UNL A   1      41.576  30.385  30.773  1.00  0.00     0.049 A 
ATOM     46  H   UNL A   1      39.759  30.812  29.746  1.00  0.00     0.167 HD
ATOM     47  C   UNL A   1      42.847  24.654  27.646  1.00  0.00     0.031 A 
ATOM     48  C   UNL A   1      41.405  30.160  32.116  1.00  0.00     0.031 A 
ATOM     49  C   UNL A   1      43.790  25.351  28.524  1.00  0.00     0.049 A 
ATOM     50  C   UNL A   1      42.273  29.018  32.625  1.00  0.00     0.074 A 
ATOM     51  C   UNL A   1      44.703  26.375  28.330  1.00  0.00     0.029 A 
ATOM     52  N   UNL A   1      43.623  25.242  29.894  1.00  0.00    -0.354 N 
ATOM     53  N   UNL A   1      42.881  28.167  31.846  1.00  0.00    -0.248 NA
ATOM     54  C   UNL A   1      42.444  28.683  34.039  1.00  0.00     0.031 C 
ATOM     55  C   UNL A   1      45.045  26.907  29.608  1.00  0.00     0.029 A 
ATOM     56  C   UNL A   1      44.365  26.186  30.574  1.00  0.00     0.049 A 
ATOM     57  H   UNL A   1      43.045  24.573  30.329  1.00  0.00     0.167 HD
ATOM     58  C   UNL A   1      43.527  27.229  32.590  1.00  0.00     0.074 A 
ATOM     59  C   UNL A   1      43.196  27.570  33.963  1.00  0.00     0.031 C 
ATOM     60  C   UNL A   1      44.273  26.236  32.026  1.00  0.00     0.031 A 
BRANCH  47  61
ATOM     61  C   UNL A   1      43.298  23.771  26.502  1.00  0.00    -0.014 A 
ATOM     62  C   UNL A   1      43.131  22.374  26.607  1.00  0.00     0.009 A 
ATOM     63  C   UNL A   1      43.921  24.221  25.326  1.00  0.00     0.009 A 
ATOM     64  C   UNL A   1      43.625  21.481  25.647  1.00  0.00     0.001 A 
ATOM     65  C   UNL A   1      44.433  23.332  24.365  1.00  0.00     0.001 A 
ATOM     66  C   UNL A   1      44.295  21.960  24.531  1.00  0.00     0.000 A 
ENDBRANCH  47  61
BRANCH  48  67
ATOM     67  C   UNL A   1      40.027  30.446  32.645  1.00  0.00    -0.014 A 
ATOM     68  C   UNL A   1      39.461  31.724  32.442  1.00  0.00     0.009 A 
ATOM     69  C   UNL A   1      39.177  29.417  33.077  1.00  0.00     0.009 A 
ATOM     70  C   UNL A   1      38.081  31.934  32.560  1.00  0.00     0.001 A 
ATOM     71  C   UNL A   1      37.799  29.637  33.222  1.00  0.00     0.001 A 
ATOM     72  C   UNL A   1      37.247  30.884  32.933  1.00  0.00     0.000 A 
ENDBRANCH  48  67
BRANCH  60  73
ATOM     73  C   UNL A   1      44.990  25.199  32.831  1.00  0.00    -0.014 A 
ATOM     74  C   UNL A   1      44.343  24.059  33.323  1.00  0.00     0.009 A 
ATOM     75  C   UNL A   1      46.328  25.405  33.220  1.00  0.00     0.009 A 
ATOM     76  C   UNL A   1      45.030  23.125  34.104  1.00  0.00     0.001 A 
ATOM     77  C   UNL A   1      47.008  24.491  34.025  1.00  0.00     0.001 A 
ATOM     78  C   UNL A   1      46.361  23.342  34.453  1.00  0.00     0.000 A 
ENDBRANCH  60  73
ENDBRANCH  34  35
ENDBRANCH  27  29
ENDBRANCH  26  27
ENDBRANCH  25  26
ENDBRANCH   1  25
TORSDOF 14
ENDMDL
MODEL 2
REMARK VINA RESULT:     -11.3      1.448      2.114
REMARK SMILES Cc1cccc(Cn2c(=O)c3sccc3n(CC(=O)OCCOC(=O)c3ccc(-c4c5nc(c(-c6ccccc6)c6ccc([nH]6)c(-c6ccccc6)c6nc(c(-c7ccccc7)c7ccc4[nH]7)C=C6)C=C5)cc3)c2=O)c1
REMARK SMILES IDX 21 1 20 2 18 3 19 4 17 5 16 6 8 7 9 8 74 9 10 10 11 11 75 12
REMARK SMILES IDX 12 13 15 14 13 15 14 16 7 17 6 18 1 19 2 20 3 21 76 22 4 23
REMARK SMILES IDX 5 24 22 25 23 26 24 27 25 28 26 29 27 30 73 31 28 32 72 33
REMARK SMILES IDX 29 34 30 35 31 36 66 37 32 38 71 39 65 40 67 41 33 42 70 43
REMARK SMILES IDX 64 44 63 45 34 47 56 48 41 49 55 50 42 51 45 52 54 53 68 54
REMARK SMILES IDX 43 55 44 56 53 58 69 59 46 60 35 61 36 62 40 63 37 64 39 65
REMARK SMILES IDX 38 66 57 67 58 68 62 69 59 70 61 71 60 72 47 73 48 74 52 75
REMARK SMILES IDX 49 76 51 77 50 78
REMARK H PARENT 67 46 45 57
REMARK Flexibility Score: inf
ROOT
ATOM      1  C   UNL A   1      33.309  29.052  26.997  1.00  0.00     0.274 C 
ENDROOT
BRANCH   1   2
ATOM      2  O   UNL A   1      31.972  28.636  26.751  1.00  0.00    -0.461 OA
BRANCH   2   3
ATOM      3  C   UNL A   1      31.767  27.283  26.738  1.00  0.00     0.326 C 
ATOM      4  O   UNL A   1      30.699  26.742  26.895  1.00  0.00    -0.250 OA
BRANCH   3   5
ATOM      5  C   UNL A   1      33.070  26.570  26.398  1.00  0.00     0.250 C 
BRANCH   5   6
ATOM      6  N   UNL A   1      32.785  25.637  25.332  1.00  0.00    -0.281 N 
ATOM      7  N   UNL A   1      32.302  23.391  24.772  1.00  0.00    -0.254 N 
ATOM      8  C   UNL A   1      32.393  23.602  23.395  1.00  0.00     0.274 A 
ATOM      9  C   UNL A   1      32.732  24.305  25.717  1.00  0.00     0.332 A 
ATOM     10  O   UNL A   1      32.270  22.697  22.573  1.00  0.00    -0.268 OA
ATOM     11  C   UNL A   1      32.668  24.977  23.049  1.00  0.00     0.116 A 
ATOM     12  O   UNL A   1      33.059  23.969  26.858  1.00  0.00    -0.247 OA
ATOM     13  S   UNL A   1      32.904  25.536  21.463  1.00  0.00    -0.136 S 
ATOM     14  C   UNL A   1      32.787  25.972  23.982  1.00  0.00     0.070 A 
ATOM     15  C   UNL A   1      33.108  27.149  22.008  1.00  0.00     0.068 A 
ATOM     16  C   UNL A   1      32.970  27.248  23.377  1.00  0.00     0.039 A 
BRANCH   7  17
ATOM     17  C   UNL A   1      31.837  22.112  25.286  1.00  0.00     0.166 C 
BRANCH  17  18
ATOM     18  C   UNL A   1      32.887  21.028  25.079  1.00  0.00    -0.028 A 
ATOM     19  C   UNL A   1      36.683  20.705  25.004  1.00  0.00     0.044 C 
ATOM     20  C   UNL A   1      35.227  20.370  24.903  1.00  0.00    -0.051 A 
ATOM     21  C   UNL A   1      34.840  19.053  24.626  1.00  0.00     0.003 A 
ATOM     22  C   UNL A   1      34.248  21.354  25.106  1.00  0.00     0.009 A 
ATOM     23  C   UNL A   1      33.493  18.713  24.594  1.00  0.00     0.001 A 
ATOM     24  C   UNL A   1      32.529  19.687  24.843  1.00  0.00     0.005 A 
ENDBRANCH  17  18
ENDBRANCH   7  17
ENDBRANCH   5   6
ENDBRANCH   3   5
ENDBRANCH   2   3
ENDBRANCH   1   2
BRANCH   1  25
ATOM     25  C   UNL A   1      33.416  30.583  26.954  1.00  0.00     0.275 C 
BRANCH  25  26
ATOM     26  O   UNL A   1      34.662  31.229  27.374  1.00  0.00    -0.458 OA
BRANCH  26  27
ATOM     27  C   UNL A   1      35.307  31.315  28.563  1.00  0.00     0.338 C 
ATOM     28  O   UNL A   1      34.849  31.955  29.502  1.00  0.00    -0.246 OA
BRANCH  27  29
ATOM     29  C   UNL A   1      36.520  30.514  28.770  1.00  0.00     0.060 A 
ATOM     30  C   UNL A   1      36.624  29.671  29.894  1.00  0.00     0.016 A 
ATOM     31  C   UNL A   1      37.514  30.534  27.811  1.00  0.00     0.016 A 
ATOM     32  C   UNL A   1      37.672  28.751  29.985  1.00  0.00     0.010 A 
ATOM     33  C   UNL A   1      38.447  29.528  27.814  1.00  0.00     0.010 A 
ATOM     34  C   UNL A   1      38.567  28.670  28.920  1.00  0.00    -0.014 A 
BRANCH  34  35
ATOM     35  C   UNL A   1      39.876  28.041  28.984  1.00  0.00     0.031 A 
ATOM     36  C   UNL A   1      40.195  26.681  28.504  1.00  0.00     0.074 A 
ATOM     37  C   UNL A   1      40.829  28.934  29.349  1.00  0.00     0.049 A 
ATOM     38  N   UNL A   1      41.297  26.081  28.804  1.00  0.00    -0.248 NA
ATOM     39  C   UNL A   1      39.334  25.859  27.658  1.00  0.00     0.031 C 
ATOM     40  C   UNL A   1      42.272  28.859  29.232  1.00  0.00     0.029 A 
ATOM     41  N   UNL A   1      40.640  30.157  30.010  1.00  0.00    -0.354 N 
ATOM     42  C   UNL A   1      41.447  25.016  27.941  1.00  0.00     0.074 A 
ATOM     43  C   UNL A   1      40.150  24.845  27.334  1.00  0.00     0.031 C 
ATOM     44  C   UNL A   1      42.802  29.769  30.076  1.00  0.00     0.029 A 
ATOM     45  C   UNL A   1      41.706  30.283  30.891  1.00  0.00     0.049 A 
ATOM     46  H   UNL A   1      39.903  30.796  29.878  1.00  0.00     0.167 HD
ATOM     47  C   UNL A   1      42.699  24.515  27.732  1.00  0.00     0.031 A 
ATOM     48  C   UNL A   1      41.533  30.061  32.234  1.00  0.00     0.031 A 
ATOM     49  C   UNL A   1      43.678  25.166  28.607  1.00  0.00     0.049 A 
ATOM     50  C   UNL A   1      42.352  28.879  32.733  1.00  0.00     0.074 A 
ATOM     51  C   UNL A   1      44.635  26.149  28.411  1.00  0.00     0.029 A 
ATOM     52  N   UNL A   1      43.514  25.058  29.978  1.00  0.00    -0.354 N 
ATOM     53  N   UNL A   1      42.917  28.005  31.947  1.00  0.00    -0.248 NA
ATOM     54  C   UNL A   1      42.518  28.531  34.144  1.00  0.00     0.031 C 
ATOM     55  C   UNL A   1      45.008  26.660  29.689  1.00  0.00     0.029 A 
ATOM     56  C   UNL A   1      44.303  25.965  30.657  1.00  0.00     0.049 A 
ATOM     57  H   UNL A   1      42.910  24.414  30.414  1.00  0.00     0.167 HD
ATOM     58  C   UNL A   1      43.525  27.036  32.682  1.00  0.00     0.074 A 
ATOM     59  C   UNL A   1      43.218  27.386  34.059  1.00  0.00     0.031 C 
ATOM     60  C   UNL A   1      44.222  26.013  32.109  1.00  0.00     0.031 A 
BRANCH  47  61
ATOM     61  C   UNL A   1      43.102  23.618  26.582  1.00  0.00    -0.014 A 
ATOM     62  C   UNL A   1      42.960  22.222  26.719  1.00  0.00     0.009 A 
ATOM     63  C   UNL A   1      43.659  24.056  25.368  1.00  0.00     0.009 A 
ATOM     64  C   UNL A   1      43.416  21.318  25.750  1.00  0.00     0.001 A 
ATOM     65  C   UNL A   1      44.132  23.156  24.397  1.00  0.00     0.001 A 
ATOM     66  C   UNL A   1      44.022  21.786  24.593  1.00  0.00     0.000 A 
ENDBRANCH  47  61
BRANCH  48  67
ATOM     67  C   UNL A   1      40.173  30.406  32.774  1.00  0.00    -0.014 A 
ATOM     68  C   UNL A   1      39.681  31.720  32.617  1.00  0.00     0.009 A 
ATOM     69  C   UNL A   1      39.265  29.412  33.168  1.00  0.00     0.009 A 
ATOM     70  C   UNL A   1      38.315  32.005  32.743  1.00  0.00     0.001 A 
ATOM     71  C   UNL A   1      37.901  29.705  33.321  1.00  0.00     0.001 A 
ATOM     72  C   UNL A   1      37.422  30.992  33.078  1.00  0.00     0.000 A 
ENDBRANCH  48  67
BRANCH  60  73
ATOM     73  C   UNL A   1      44.897  24.941  32.906  1.00  0.00    -0.014 A 
ATOM     74  C   UNL A   1      44.252  23.745  33.242  1.00  0.00     0.009 A 
ATOM     75  C   UNL A   1      46.180  25.162  33.445  1.00  0.00     0.009 A 
ATOM     76  C   UNL A   1      44.896  22.778  34.020  1.00  0.00     0.001 A 
ATOM     77  C   UNL A   1      46.813  24.212  34.245  1.00  0.00     0.001 A 
ATOM     78  C   UNL A   1      46.175  23.011  34.519  1.00  0.00     0.000 A 
ENDBRANCH  60  73
ENDBRANCH  34  35
ENDBRANCH  27  29
ENDBRANCH  26  27
ENDBRANCH  25  26
ENDBRANCH   1  25
TORSDOF 14
ENDMDL
MODEL 3
REMARK VINA RESULT:     -11.2      2.877      8.262
REMARK SMILES Cc1cccc(Cn2c(=O)c3sccc3n(CC(=O)OCCOC(=O)c3ccc(-c4c5nc(c(-c6ccccc6)c6ccc([nH]6)c(-c6ccccc6)c6nc(c(-c7ccccc7)c7ccc4[nH]7)C=C6)C=C5)cc3)c2=O)c1
REMARK SMILES IDX 21 1 20 2 18 3 19 4 17 5 16 6 8 7 9 8 74 9 10 10 11 11 75 12
REMARK SMILES IDX 12 13 15 14 13 15 14 16 7 17 6 18 1 19 2 20 3 21 76 22 4 23
REMARK SMILES IDX 5 24 22 25 23 26 24 27 25 28 26 29 27 30 73 31 28 32 72 33
REMARK SMILES IDX 29 34 30 35 31 36 66 37 32 38 71 39 65 40 67 41 33 42 70 43
REMARK SMILES IDX 64 44 63 45 34 47 56 48 41 49 55 50 42 51 45 52 54 53 68 54
REMARK SMILES IDX 43 55 44 56 53 58 69 59 46 60 35 61 36 62 40 63 37 64 39 65
REMARK SMILES IDX 38 66 57 67 58 68 62 69 59 70 61 71 60 72 47 73 48 74 52 75
REMARK SMILES IDX 49 76 51 77 50 78
REMARK H PARENT 67 46 45 57
REMARK Flexibility Score: inf
ROOT
ATOM      1  C   UNL A   1      36.573  21.440  25.025  1.00  0.00     0.274 C 
ENDROOT
BRANCH   1   2
ATOM      2  O   UNL A   1      36.209  22.285  23.942  1.00  0.00    -0.461 OA
BRANCH   2   3
ATOM      3  C   UNL A   1      35.543  23.430  24.283  1.00  0.00     0.326 C 
ATOM      4  O   UNL A   1      35.799  24.124  25.238  1.00  0.00    -0.250 OA
BRANCH   3   5
ATOM      5  C   UNL A   1      34.496  23.749  23.223  1.00  0.00     0.250 C 
BRANCH   5   6
ATOM      6  N   UNL A   1      33.319  24.229  23.911  1.00  0.00    -0.281 N 
ATOM      7  N   UNL A   1      32.012  26.119  24.473  1.00  0.00    -0.254 N 
ATOM      8  C   UNL A   1      31.175  25.416  25.341  1.00  0.00     0.274 A 
ATOM      9  C   UNL A   1      33.197  25.610  23.972  1.00  0.00     0.332 A 
ATOM     10  O   UNL A   1      30.283  25.958  25.990  1.00  0.00    -0.268 OA
ATOM     11  C   UNL A   1      31.484  24.007  25.409  1.00  0.00     0.116 A 
ATOM     12  O   UNL A   1      34.119  26.338  23.593  1.00  0.00    -0.247 OA
ATOM     13  S   UNL A   1      30.691  22.901  26.426  1.00  0.00    -0.136 S 
ATOM     14  C   UNL A   1      32.474  23.422  24.665  1.00  0.00     0.070 A 
ATOM     15  C   UNL A   1      31.632  21.598  25.828  1.00  0.00     0.068 A 
ATOM     16  C   UNL A   1      32.514  22.011  24.852  1.00  0.00     0.039 A 
BRANCH   7  17
ATOM     17  C   UNL A   1      31.718  27.502  24.134  1.00  0.00     0.166 C 
BRANCH  17  18
ATOM     18  C   UNL A   1      32.165  28.441  25.247  1.00  0.00    -0.028 A 
ATOM     19  C   UNL A   1      31.392  31.955  26.502  1.00  0.00     0.044 C 
ATOM     20  C   UNL A   1      32.030  30.608  26.355  1.00  0.00    -0.051 A 
ATOM     21  C   UNL A   1      33.031  30.217  27.252  1.00  0.00     0.003 A 
ATOM     22  C   UNL A   1      31.618  29.726  25.344  1.00  0.00     0.009 A 
ATOM     23  C   UNL A   1      33.586  28.946  27.169  1.00  0.00     0.001 A 
ATOM     24  C   UNL A   1      33.138  28.060  26.192  1.00  0.00     0.005 A 
ENDBRANCH  17  18
ENDBRANCH   7  17
ENDBRANCH   5   6
ENDBRANCH   3   5
ENDBRANCH   2   3
ENDBRANCH   1   2
BRANCH   1  25
ATOM     25  C   UNL A   1      38.077  21.544  25.313  1.00  0.00     0.275 C 
BRANCH  25  26
ATOM     26  O   UNL A   1      38.567  22.592  26.211  1.00  0.00    -0.458 OA
BRANCH  26  27
ATOM     27  C   UNL A   1      39.805  23.062  26.499  1.00  0.00     0.338 C 
ATOM     28  O   UNL A   1      40.819  22.441  26.202  1.00  0.00    -0.246 OA
BRANCH  27  29
ATOM     29  C   UNL A   1      39.937  24.410  27.064  1.00  0.00     0.060 A 
ATOM     30  C   UNL A   1      40.461  25.456  26.279  1.00  0.00     0.016 A 
ATOM     31  C   UNL A   1      39.464  24.657  28.339  1.00  0.00     0.016 A 
ATOM     32  C   UNL A   1      40.390  26.776  26.732  1.00  0.00     0.010 A 
ATOM     33  C   UNL A   1      39.243  25.957  28.716  1.00  0.00     0.010 A 
ATOM     34  C   UNL A   1      39.751  27.018  27.946  1.00  0.00    -0.014 A 
BRANCH  34  35
ATOM     35  C   UNL A   1      39.880  28.242  28.720  1.00  0.00     0.031 A 
ATOM     36  C   UNL A   1      38.859  29.306  28.815  1.00  0.00     0.074 A 
ATOM     37  C   UNL A   1      40.972  28.198  29.523  1.00  0.00     0.049 A 
ATOM     38  N   UNL A   1      39.117  30.470  29.308  1.00  0.00    -0.248 NA
ATOM     39  C   UNL A   1      37.472  29.188  28.375  1.00  0.00     0.031 C 
ATOM     40  C   UNL A   1      41.318  29.010  30.674  1.00  0.00     0.029 A 
ATOM     41  N   UNL A   1      42.096  27.370  29.386  1.00  0.00    -0.354 N 
ATOM     42  C   UNL A   1      37.914  31.089  29.578  1.00  0.00     0.074 A 
ATOM     43  C   UNL A   1      36.929  30.310  28.870  1.00  0.00     0.031 C 
ATOM     44  C   UNL A   1      42.644  28.877  30.888  1.00  0.00     0.029 A 
ATOM     45  C   UNL A   1      43.189  28.146  29.749  1.00  0.00     0.049 A 
ATOM     46  H   UNL A   1      42.109  26.430  29.092  1.00  0.00     0.167 HD
ATOM     47  C   UNL A   1      37.889  32.094  30.501  1.00  0.00     0.031 A 
ATOM     48  C   UNL A   1      44.028  28.661  28.793  1.00  0.00     0.031 A 
ATOM     49  C   UNL A   1      39.242  32.416  30.963  1.00  0.00     0.049 A 
ATOM     50  C   UNL A   1      44.017  30.184  28.776  1.00  0.00     0.074 A 
ATOM     51  C   UNL A   1      39.958  32.122  32.111  1.00  0.00     0.029 A 
ATOM     52  N   UNL A   1      40.169  32.858  30.035  1.00  0.00    -0.354 N 
ATOM     53  N   UNL A   1      43.117  30.909  29.381  1.00  0.00    -0.248 NA
ATOM     54  C   UNL A   1      44.949  31.004  28.004  1.00  0.00     0.031 C 
ATOM     55  C   UNL A   1      41.339  32.352  31.838  1.00  0.00     0.029 A 
ATOM     56  C   UNL A   1      41.453  32.816  30.539  1.00  0.00     0.049 A 
ATOM     57  H   UNL A   1      39.941  33.165  29.127  1.00  0.00     0.167 HD
ATOM     58  C   UNL A   1      43.334  32.229  29.136  1.00  0.00     0.074 A 
ATOM     59  C   UNL A   1      44.475  32.242  28.236  1.00  0.00     0.031 C 
ATOM     60  C   UNL A   1      42.557  33.210  29.677  1.00  0.00     0.031 A 
BRANCH  47  61
ATOM     61  C   UNL A   1      36.646  32.628  31.180  1.00  0.00    -0.014 A 
ATOM     62  C   UNL A   1      35.851  33.576  30.504  1.00  0.00     0.009 A 
ATOM     63  C   UNL A   1      36.218  32.289  32.474  1.00  0.00     0.009 A 
ATOM     64  C   UNL A   1      34.752  34.205  31.105  1.00  0.00     0.001 A 
ATOM     65  C   UNL A   1      35.126  32.925  33.090  1.00  0.00     0.001 A 
ATOM     66  C   UNL A   1      34.400  33.893  32.410  1.00  0.00     0.000 A 
ENDBRANCH  47  61
BRANCH  48  67
ATOM     67  C   UNL A   1      44.182  27.826  27.553  1.00  0.00    -0.014 A 
ATOM     68  C   UNL A   1      44.593  26.481  27.673  1.00  0.00     0.009 A 
ATOM     69  C   UNL A   1      43.662  28.242  26.318  1.00  0.00     0.009 A 
ATOM     70  C   UNL A   1      44.389  25.564  26.634  1.00  0.00     0.001 A 
ATOM     71  C   UNL A   1      43.485  27.327  25.268  1.00  0.00     0.001 A 
ATOM     72  C   UNL A   1      43.818  25.984  25.437  1.00  0.00     0.000 A 
ENDBRANCH  48  67
BRANCH  60  73
ATOM     73  C   UNL A   1      42.786  34.665  29.416  1.00  0.00    -0.014 A 
ATOM     74  C   UNL A   1      43.462  35.488  30.326  1.00  0.00     0.009 A 
ATOM     75  C   UNL A   1      42.217  35.280  28.284  1.00  0.00     0.009 A 
ATOM     76  C   UNL A   1      43.628  36.853  30.073  1.00  0.00     0.001 A 
ATOM     77  C   UNL A   1      42.355  36.646  28.043  1.00  0.00     0.001 A 
ATOM     78  C   UNL A   1      43.076  37.430  28.931  1.00  0.00     0.000 A 
ENDBRANCH  60  73
ENDBRANCH  34  35
ENDBRANCH  27  29
ENDBRANCH  26  27
ENDBRANCH  25  26
ENDBRANCH   1  25
TORSDOF 14
ENDMDL
