MODEL 1
REMARK VINA RESULT:     -10.6      0.000      0.000
REMARK SMILES C[C@H]1CC[C@@](C(=O)OCCOC(=O)c2ccc(-c3c4nc(c(-c5ccccc5)c5ccc([nH]5)c(-c5ccccc5)c5nc(c(-c6ccccc6)c6ccc3[nH]6)C=C5)C=C4)cc2)(C2CCCCC2)C1
REMARK SMILES IDX 10 1 9 2 8 3 6 4 7 5 5 6 1 7 2 8 3 9 68 10 4 11 62 12 63 13
REMARK SMILES IDX 67 14 64 15 66 16 65 17 11 18 12 19 13 20 14 21 15 22 61 23
REMARK SMILES IDX 16 24 60 25 17 26 18 27 19 28 54 29 20 30 59 31 53 32 55 33
REMARK SMILES IDX 21 34 58 35 52 36 51 37 22 39 44 40 29 41 43 42 30 43 33 44
REMARK SMILES IDX 42 45 56 46 31 47 32 48 41 50 57 51 34 52 23 53 24 54 28 55
REMARK SMILES IDX 25 56 27 57 26 58 45 59 46 60 50 61 47 62 49 63 48 64 35 65
REMARK SMILES IDX 36 66 40 67 37 68 39 69 38 70
REMARK H PARENT 55 38 33 49
REMARK Flexibility Score: inf
ROOT
ATOM      1  C   UNL A   1      35.667  20.894  25.149  1.00  0.00     0.275 C 
ENDROOT
BRANCH   1   2
ATOM      2  C   UNL A   1      35.102  21.311  26.506  1.00  0.00     0.274 C 
BRANCH   2   3
ATOM      3  O   UNL A   1      35.020  22.751  26.606  1.00  0.00    -0.462 OA
BRANCH   3   4
ATOM      4  C   UNL A   1      33.775  23.299  26.599  1.00  0.00     0.312 C 
ATOM      5  O   UNL A   1      32.860  22.919  27.323  1.00  0.00    -0.252 OA
BRANCH   4   6
ATOM      6  C   UNL A   1      33.575  24.377  25.502  1.00  0.00     0.071 C 
ATOM      7  C   UNL A   1      32.636  22.638  22.243  1.00  0.00     0.007 C 
ATOM      8  C   UNL A   1      33.409  22.992  23.503  1.00  0.00    -0.013 C 
ATOM      9  C   UNL A   1      34.530  23.987  23.247  1.00  0.00     0.004 C 
ATOM     10  C   UNL A   1      32.550  23.729  24.529  1.00  0.00     0.022 C 
ATOM     11  C   UNL A   1      34.821  24.622  24.605  1.00  0.00     0.019 C 
BRANCH   6  12
ATOM     12  C   UNL A   1      33.057  25.697  26.201  1.00  0.00     0.006 C 
ATOM     13  C   UNL A   1      33.897  26.939  25.807  1.00  0.00     0.005 C 
ATOM     14  C   UNL A   1      31.559  25.996  25.967  1.00  0.00     0.005 C 
ATOM     15  C   UNL A   1      33.410  28.217  26.489  1.00  0.00     0.000 C 
ATOM     16  C   UNL A   1      31.097  27.290  26.637  1.00  0.00     0.000 C 
ATOM     17  C   UNL A   1      31.939  28.482  26.211  1.00  0.00     0.000 C 
ENDBRANCH   6  12
ENDBRANCH   4   6
ENDBRANCH   3   4
ENDBRANCH   2   3
ENDBRANCH   1   2
BRANCH   1  18
ATOM     18  O   UNL A   1      36.822  21.701  24.875  1.00  0.00    -0.458 OA
BRANCH  18  19
ATOM     19  C   UNL A   1      37.996  21.283  25.400  1.00  0.00     0.338 C 
ATOM     20  O   UNL A   1      38.480  20.168  25.309  1.00  0.00    -0.246 OA
BRANCH  19  21
ATOM     21  C   UNL A   1      38.667  22.422  26.078  1.00  0.00     0.060 A 
ATOM     22  C   UNL A   1      38.131  23.707  26.020  1.00  0.00     0.016 A 
ATOM     23  C   UNL A   1      39.909  22.232  26.689  1.00  0.00     0.016 A 
ATOM     24  C   UNL A   1      38.874  24.801  26.462  1.00  0.00     0.010 A 
ATOM     25  C   UNL A   1      40.610  23.326  27.218  1.00  0.00     0.010 A 
ATOM     26  C   UNL A   1      40.129  24.638  27.066  1.00  0.00    -0.014 A 
BRANCH  26  27
ATOM     27  C   UNL A   1      40.955  25.825  27.460  1.00  0.00     0.031 A 
ATOM     28  C   UNL A   1      40.436  26.823  28.473  1.00  0.00     0.074 A 
ATOM     29  C   UNL A   1      42.195  26.021  26.963  1.00  0.00     0.049 A 
ATOM     30  N   UNL A   1      40.875  28.028  28.747  1.00  0.00    -0.248 NA
ATOM     31  C   UNL A   1      39.264  26.423  29.269  1.00  0.00     0.031 C 
ATOM     32  C   UNL A   1      42.899  25.135  26.035  1.00  0.00     0.029 A 
ATOM     33  N   UNL A   1      43.099  27.032  27.196  1.00  0.00    -0.354 N 
ATOM     34  C   UNL A   1      39.978  28.560  29.667  1.00  0.00     0.074 A 
ATOM     35  C   UNL A   1      38.988  27.539  29.930  1.00  0.00     0.031 C 
ATOM     36  C   UNL A   1      44.145  25.592  25.846  1.00  0.00     0.029 A 
ATOM     37  C   UNL A   1      44.290  26.870  26.530  1.00  0.00     0.049 A 
ATOM     38  H   UNL A   1      42.911  27.798  27.785  1.00  0.00     0.167 HD
ATOM     39  C   UNL A   1      39.969  29.794  30.228  1.00  0.00     0.031 A 
ATOM     40  C   UNL A   1      45.362  27.677  26.419  1.00  0.00     0.031 A 
ATOM     41  C   UNL A   1      40.996  30.786  30.044  1.00  0.00     0.049 A 
ATOM     42  C   UNL A   1      45.335  29.041  27.041  1.00  0.00     0.074 A 
ATOM     43  C   UNL A   1      41.064  32.066  30.569  1.00  0.00     0.029 A 
ATOM     44  N   UNL A   1      42.154  30.594  29.310  1.00  0.00    -0.354 N 
ATOM     45  N   UNL A   1      44.405  29.591  27.782  1.00  0.00    -0.248 NA
ATOM     46  C   UNL A   1      46.488  29.912  26.771  1.00  0.00     0.031 C 
ATOM     47  C   UNL A   1      42.255  32.659  30.133  1.00  0.00     0.029 A 
ATOM     48  C   UNL A   1      42.942  31.732  29.368  1.00  0.00     0.049 A 
ATOM     49  H   UNL A   1      42.383  29.772  28.820  1.00  0.00     0.167 HD
ATOM     50  C   UNL A   1      44.849  30.879  28.048  1.00  0.00     0.074 A 
ATOM     51  C   UNL A   1      46.149  31.015  27.425  1.00  0.00     0.031 C 
ATOM     52  C   UNL A   1      44.224  31.866  28.731  1.00  0.00     0.031 A 
BRANCH  39  53
ATOM     53  C   UNL A   1      38.777  30.174  31.059  1.00  0.00    -0.014 A 
ATOM     54  C   UNL A   1      38.772  30.041  32.454  1.00  0.00     0.009 A 
ATOM     55  C   UNL A   1      37.658  30.740  30.424  1.00  0.00     0.009 A 
ATOM     56  C   UNL A   1      37.659  30.448  33.196  1.00  0.00     0.001 A 
ATOM     57  C   UNL A   1      36.558  31.165  31.169  1.00  0.00     0.001 A 
ATOM     58  C   UNL A   1      36.557  31.014  32.554  1.00  0.00     0.000 A 
ENDBRANCH  39  53
BRANCH  40  59
ATOM     59  C   UNL A   1      46.526  27.247  25.600  1.00  0.00    -0.014 A 
ATOM     60  C   UNL A   1      47.478  26.362  26.125  1.00  0.00     0.009 A 
ATOM     61  C   UNL A   1      46.677  27.710  24.283  1.00  0.00     0.009 A 
ATOM     62  C   UNL A   1      48.563  25.953  25.345  1.00  0.00     0.001 A 
ATOM     63  C   UNL A   1      47.744  27.275  23.497  1.00  0.00     0.001 A 
ATOM     64  C   UNL A   1      48.689  26.400  24.031  1.00  0.00     0.000 A 
ENDBRANCH  40  59
BRANCH  52  65
ATOM     65  C   UNL A   1      44.940  33.178  28.838  1.00  0.00    -0.014 A 
ATOM     66  C   UNL A   1      44.810  34.151  27.834  1.00  0.00     0.009 A 
ATOM     67  C   UNL A   1      45.742  33.453  29.956  1.00  0.00     0.009 A 
ATOM     68  C   UNL A   1      45.494  35.362  27.934  1.00  0.00     0.001 A 
ATOM     69  C   UNL A   1      46.410  34.673  30.062  1.00  0.00     0.001 A 
ATOM     70  C   UNL A   1      46.292  35.623  29.048  1.00  0.00     0.000 A 
ENDBRANCH  52  65
ENDBRANCH  26  27
ENDBRANCH  19  21
ENDBRANCH  18  19
ENDBRANCH   1  18
TORSDOF 12
ENDMDL
MODEL 2
REMARK VINA RESULT:     -10.6      4.185      8.922
REMARK SMILES C[C@H]1CC[C@@](C(=O)OCCOC(=O)c2ccc(-c3c4nc(c(-c5ccccc5)c5ccc([nH]5)c(-c5ccccc5)c5nc(c(-c6ccccc6)c6ccc3[nH]6)C=C5)C=C4)cc2)(C2CCCCC2)C1
REMARK SMILES IDX 10 1 9 2 8 3 6 4 7 5 5 6 1 7 2 8 3 9 68 10 4 11 62 12 63 13
REMARK SMILES IDX 67 14 64 15 66 16 65 17 11 18 12 19 13 20 14 21 15 22 61 23
REMARK SMILES IDX 16 24 60 25 17 26 18 27 19 28 54 29 20 30 59 31 53 32 55 33
REMARK SMILES IDX 21 34 58 35 52 36 51 37 22 39 44 40 29 41 43 42 30 43 33 44
REMARK SMILES IDX 42 45 56 46 31 47 32 48 41 50 57 51 34 52 23 53 24 54 28 55
REMARK SMILES IDX 25 56 27 57 26 58 45 59 46 60 50 61 47 62 49 63 48 64 35 65
REMARK SMILES IDX 36 66 40 67 37 68 39 69 38 70
REMARK H PARENT 55 38 33 49
REMARK Flexibility Score: inf
ROOT
ATOM      1  C   UNL A   1      34.530  33.307  29.563  1.00  0.00     0.275 C 
ENDROOT
BRANCH   1   2
ATOM      2  C   UNL A   1      35.046  34.102  30.761  1.00  0.00     0.274 C 
BRANCH   2   3
ATOM      3  O   UNL A   1      36.091  33.374  31.447  1.00  0.00    -0.462 OA
BRANCH   3   4
ATOM      4  C   UNL A   1      36.849  34.074  32.333  1.00  0.00     0.312 C 
ATOM      5  O   UNL A   1      36.494  35.128  32.850  1.00  0.00    -0.252 OA
BRANCH   4   6
ATOM      6  C   UNL A   1      38.267  33.481  32.543  1.00  0.00     0.071 C 
ATOM      7  C   UNL A   1      37.933  29.752  33.258  1.00  0.00     0.007 C 
ATOM      8  C   UNL A   1      37.729  31.254  33.375  1.00  0.00    -0.013 C 
ATOM      9  C   UNL A   1      38.639  31.893  34.411  1.00  0.00     0.004 C 
ATOM     10  C   UNL A   1      38.118  31.999  32.099  1.00  0.00     0.022 C 
ATOM     11  C   UNL A   1      38.705  33.371  34.031  1.00  0.00     0.019 C 
BRANCH   6  12
ATOM     12  C   UNL A   1      39.283  34.318  31.669  1.00  0.00     0.006 C 
ATOM     13  C   UNL A   1      40.760  34.008  32.024  1.00  0.00     0.005 C 
ATOM     14  C   UNL A   1      39.082  34.173  30.144  1.00  0.00     0.005 C 
ATOM     15  C   UNL A   1      41.748  34.824  31.192  1.00  0.00     0.000 C 
ATOM     16  C   UNL A   1      40.095  34.977  29.328  1.00  0.00     0.000 C 
ATOM     17  C   UNL A   1      41.527  34.630  29.701  1.00  0.00     0.000 C 
ENDBRANCH   6  12
ENDBRANCH   4   6
ENDBRANCH   3   4
ENDBRANCH   2   3
ENDBRANCH   1   2
BRANCH   1  18
ATOM     18  O   UNL A   1      34.790  31.915  29.799  1.00  0.00    -0.458 OA
BRANCH  18  19
ATOM     19  C   UNL A   1      34.756  31.099  28.722  1.00  0.00     0.338 C 
ATOM     20  O   UNL A   1      33.875  31.036  27.882  1.00  0.00    -0.246 OA
BRANCH  19  21
ATOM     21  C   UNL A   1      36.008  30.300  28.668  1.00  0.00     0.060 A 
ATOM     22  C   UNL A   1      36.454  29.592  29.782  1.00  0.00     0.016 A 
ATOM     23  C   UNL A   1      36.810  30.344  27.526  1.00  0.00     0.016 A 
ATOM     24  C   UNL A   1      37.731  29.033  29.796  1.00  0.00     0.010 A 
ATOM     25  C   UNL A   1      38.056  29.699  27.513  1.00  0.00     0.010 A 
ATOM     26  C   UNL A   1      38.562  29.076  28.668  1.00  0.00    -0.014 A 
BRANCH  26  27
ATOM     27  C   UNL A   1      39.964  28.548  28.721  1.00  0.00     0.031 A 
ATOM     28  C   UNL A   1      41.102  29.429  29.190  1.00  0.00     0.074 A 
ATOM     29  C   UNL A   1      40.251  27.269  28.399  1.00  0.00     0.049 A 
ATOM     30  N   UNL A   1      42.394  29.248  29.064  1.00  0.00    -0.248 NA
ATOM     31  C   UNL A   1      40.743  30.683  29.873  1.00  0.00     0.031 C 
ATOM     32  C   UNL A   1      39.285  26.246  27.997  1.00  0.00     0.029 A 
ATOM     33  N   UNL A   1      41.454  26.602  28.384  1.00  0.00    -0.354 N 
ATOM     34  C   UNL A   1      42.992  30.402  29.559  1.00  0.00     0.074 A 
ATOM     35  C   UNL A   1      41.925  31.266  30.016  1.00  0.00     0.031 C 
ATOM     36  C   UNL A   1      39.915  25.071  27.859  1.00  0.00     0.029 A 
ATOM     37  C   UNL A   1      41.347  25.278  28.032  1.00  0.00     0.049 A 
ATOM     38  H   UNL A   1      42.312  27.033  28.606  1.00  0.00     0.167 HD
ATOM     39  C   UNL A   1      44.308  30.723  29.610  1.00  0.00     0.031 A 
ATOM     40  C   UNL A   1      42.286  24.340  27.808  1.00  0.00     0.031 A 
ATOM     41  C   UNL A   1      45.382  29.838  29.242  1.00  0.00     0.049 A 
ATOM     42  C   UNL A   1      43.738  24.711  27.863  1.00  0.00     0.074 A 
ATOM     43  C   UNL A   1      46.746  30.083  29.256  1.00  0.00     0.029 A 
ATOM     44  N   UNL A   1      45.217  28.525  28.834  1.00  0.00    -0.354 N 
ATOM     45  N   UNL A   1      44.283  25.858  28.182  1.00  0.00    -0.248 NA
ATOM     46  C   UNL A   1      44.701  23.667  27.483  1.00  0.00     0.031 C 
ATOM     47  C   UNL A   1      47.405  28.923  28.834  1.00  0.00     0.029 A 
ATOM     48  C   UNL A   1      46.453  27.948  28.593  1.00  0.00     0.049 A 
ATOM     49  H   UNL A   1      44.350  28.070  28.730  1.00  0.00     0.167 HD
ATOM     50  C   UNL A   1      45.651  25.682  28.019  1.00  0.00     0.074 A 
ATOM     51  C   UNL A   1      45.855  24.307  27.613  1.00  0.00     0.031 C 
ATOM     52  C   UNL A   1      46.645  26.587  28.172  1.00  0.00     0.031 A 
BRANCH  39  53
ATOM     53  C   UNL A   1      44.670  32.118  30.031  1.00  0.00    -0.014 A 
ATOM     54  C   UNL A   1      44.915  32.449  31.371  1.00  0.00     0.009 A 
ATOM     55  C   UNL A   1      44.831  33.106  29.044  1.00  0.00     0.009 A 
ATOM     56  C   UNL A   1      45.294  33.749  31.717  1.00  0.00     0.001 A 
ATOM     57  C   UNL A   1      45.231  34.397  29.390  1.00  0.00     0.001 A 
ATOM     58  C   UNL A   1      45.456  34.719  30.727  1.00  0.00     0.000 A 
ENDBRANCH  39  53
BRANCH  40  59
ATOM     59  C   UNL A   1      41.875  22.967  27.412  1.00  0.00    -0.014 A 
ATOM     60  C   UNL A   1      41.812  22.605  26.059  1.00  0.00     0.009 A 
ATOM     61  C   UNL A   1      41.559  22.011  28.390  1.00  0.00     0.009 A 
ATOM     62  C   UNL A   1      41.437  21.309  25.695  1.00  0.00     0.001 A 
ATOM     63  C   UNL A   1      41.215  20.709  28.024  1.00  0.00     0.001 A 
ATOM     64  C   UNL A   1      41.149  20.361  26.676  1.00  0.00     0.000 A 
ENDBRANCH  40  59
BRANCH  52  65
ATOM     65  C   UNL A   1      48.042  26.115  27.900  1.00  0.00    -0.014 A 
ATOM     66  C   UNL A   1      48.846  25.616  28.936  1.00  0.00     0.009 A 
ATOM     67  C   UNL A   1      48.556  26.156  26.595  1.00  0.00     0.009 A 
ATOM     68  C   UNL A   1      50.150  25.195  28.676  1.00  0.00     0.001 A 
ATOM     69  C   UNL A   1      49.854  25.717  26.334  1.00  0.00     0.001 A 
ATOM     70  C   UNL A   1      50.653  25.245  27.376  1.00  0.00     0.000 A 
ENDBRANCH  52  65
ENDBRANCH  26  27
ENDBRANCH  19  21
ENDBRANCH  18  19
ENDBRANCH   1  18
TORSDOF 12
ENDMDL
MODEL 3
REMARK VINA RESULT:     -10.4      2.703      6.893
REMARK SMILES C[C@H]1CC[C@@](C(=O)OCCOC(=O)c2ccc(-c3c4nc(c(-c5ccccc5)c5ccc([nH]5)c(-c5ccccc5)c5nc(c(-c6ccccc6)c6ccc3[nH]6)C=C5)C=C4)cc2)(C2CCCCC2)C1
REMARK SMILES IDX 10 1 9 2 8 3 6 4 7 5 5 6 1 7 2 8 3 9 68 10 4 11 62 12 63 13
REMARK SMILES IDX 67 14 64 15 66 16 65 17 11 18 12 19 13 20 14 21 15 22 61 23
REMARK SMILES IDX 16 24 60 25 17 26 18 27 19 28 54 29 20 30 59 31 53 32 55 33
REMARK SMILES IDX 21 34 58 35 52 36 51 37 22 39 44 40 29 41 43 42 30 43 33 44
REMARK SMILES IDX 42 45 56 46 31 47 32 48 41 50 57 51 34 52 23 53 24 54 28 55
REMARK SMILES IDX 25 56 27 57 26 58 45 59 46 60 50 61 47 62 49 63 48 64 35 65
REMARK SMILES IDX 36 66 40 67 37 68 39 69 38 70
REMARK H PARENT 55 38 33 49
REMARK Flexibility Score: inf
ROOT
ATOM      1  C   UNL A   1      33.268  30.868  27.530  1.00  0.00     0.275 C 
ENDROOT
BRANCH   1   2
ATOM      2  C   UNL A   1      33.443  29.379  27.233  1.00  0.00     0.274 C 
BRANCH   2   3
ATOM      3  O   UNL A   1      32.381  28.900  26.376  1.00  0.00    -0.462 OA
BRANCH   3   4
ATOM      4  C   UNL A   1      31.669  27.829  26.818  1.00  0.00     0.312 C 
ATOM      5  O   UNL A   1      31.181  27.753  27.941  1.00  0.00    -0.252 OA
BRANCH   4   6
ATOM      6  C   UNL A   1      31.627  26.650  25.812  1.00  0.00     0.071 C 
ATOM      7  C   UNL A   1      30.118  27.895  22.540  1.00  0.00     0.007 C 
ATOM      8  C   UNL A   1      30.271  27.603  24.024  1.00  0.00    -0.013 C 
ATOM      9  C   UNL A   1      29.586  26.311  24.443  1.00  0.00     0.004 C 
ATOM     10  C   UNL A   1      31.723  27.345  24.424  1.00  0.00     0.022 C 
ATOM     11  C   UNL A   1      30.264  25.904  25.751  1.00  0.00     0.019 C 
BRANCH   6  12
ATOM     12  C   UNL A   1      32.836  25.685  26.136  1.00  0.00     0.006 C 
ATOM     13  C   UNL A   1      32.367  24.244  26.461  1.00  0.00     0.005 C 
ATOM     14  C   UNL A   1      33.923  25.635  25.040  1.00  0.00     0.005 C 
ATOM     15  C   UNL A   1      33.530  23.308  26.789  1.00  0.00     0.000 C 
ATOM     16  C   UNL A   1      35.065  24.676  25.374  1.00  0.00     0.000 C 
ATOM     17  C   UNL A   1      34.561  23.274  25.672  1.00  0.00     0.000 C 
ENDBRANCH   6  12
ENDBRANCH   4   6
ENDBRANCH   3   4
ENDBRANCH   2   3
ENDBRANCH   1   2
BRANCH   1  18
ATOM     18  O   UNL A   1      34.571  31.462  27.639  1.00  0.00    -0.458 OA
BRANCH  18  19
ATOM     19  C   UNL A   1      35.145  31.450  28.863  1.00  0.00     0.338 C 
ATOM     20  O   UNL A   1      34.723  31.990  29.871  1.00  0.00    -0.246 OA
BRANCH  19  21
ATOM     21  C   UNL A   1      36.372  30.613  28.825  1.00  0.00     0.060 A 
ATOM     22  C   UNL A   1      36.913  30.083  29.995  1.00  0.00     0.016 A 
ATOM     23  C   UNL A   1      37.059  30.443  27.622  1.00  0.00     0.016 A 
ATOM     24  C   UNL A   1      38.176  29.493  29.982  1.00  0.00     0.010 A 
ATOM     25  C   UNL A   1      38.287  29.764  27.600  1.00  0.00     0.010 A 
ATOM     26  C   UNL A   1      38.894  29.323  28.789  1.00  0.00    -0.014 A 
BRANCH  26  27
ATOM     27  C   UNL A   1      40.285  28.766  28.799  1.00  0.00     0.031 A 
ATOM     28  C   UNL A   1      41.456  29.625  29.224  1.00  0.00     0.074 A 
ATOM     29  C   UNL A   1      40.534  27.479  28.474  1.00  0.00     0.049 A 
ATOM     30  N   UNL A   1      42.740  29.416  29.056  1.00  0.00    -0.248 NA
ATOM     31  C   UNL A   1      41.146  30.889  29.911  1.00  0.00     0.031 C 
ATOM     32  C   UNL A   1      39.533  26.475  28.110  1.00  0.00     0.029 A 
ATOM     33  N   UNL A   1      41.722  26.786  28.422  1.00  0.00    -0.354 N 
ATOM     34  C   UNL A   1      43.378  30.559  29.523  1.00  0.00     0.074 A 
ATOM     35  C   UNL A   1      42.345  31.447  30.012  1.00  0.00     0.031 C 
ATOM     36  C   UNL A   1      40.134  25.286  27.958  1.00  0.00     0.029 A 
ATOM     37  C   UNL A   1      41.575  25.464  28.081  1.00  0.00     0.049 A 
ATOM     38  H   UNL A   1      42.595  27.200  28.613  1.00  0.00     0.167 HD
ATOM     39  C   UNL A   1      44.701  30.852  29.528  1.00  0.00     0.031 A 
ATOM     40  C   UNL A   1      42.485  24.505  27.830  1.00  0.00     0.031 A 
ATOM     41  C   UNL A   1      45.743  29.943  29.130  1.00  0.00     0.049 A 
ATOM     42  C   UNL A   1      43.946  24.846  27.835  1.00  0.00     0.074 A 
ATOM     43  C   UNL A   1      47.111  30.159  29.096  1.00  0.00     0.029 A 
ATOM     44  N   UNL A   1      45.537  28.632  28.734  1.00  0.00    -0.354 N 
ATOM     45  N   UNL A   1      44.526  25.982  28.129  1.00  0.00    -0.248 NA
ATOM     46  C   UNL A   1      44.873  23.780  27.428  1.00  0.00     0.031 C 
ATOM     47  C   UNL A   1      47.732  28.983  28.658  1.00  0.00     0.029 A 
ATOM     48  C   UNL A   1      46.751  28.027  28.455  1.00  0.00     0.049 A 
ATOM     49  H   UNL A   1      44.658  28.195  28.662  1.00  0.00     0.167 HD
ATOM     50  C   UNL A   1      45.883  25.776  27.921  1.00  0.00     0.074 A 
ATOM     51  C   UNL A   1      46.044  24.395  27.516  1.00  0.00     0.031 C 
ATOM     52  C   UNL A   1      46.901  26.660  28.036  1.00  0.00     0.031 A 
BRANCH  39  53
ATOM     53  C   UNL A   1      45.107  32.241  29.929  1.00  0.00    -0.014 A 
ATOM     54  C   UNL A   1      45.470  32.558  31.246  1.00  0.00     0.009 A 
ATOM     55  C   UNL A   1      45.186  33.238  28.942  1.00  0.00     0.009 A 
ATOM     56  C   UNL A   1      45.885  33.852  31.569  1.00  0.00     0.001 A 
ATOM     57  C   UNL A   1      45.622  34.524  29.264  1.00  0.00     0.001 A 
ATOM     58  C   UNL A   1      45.965  34.832  30.579  1.00  0.00     0.000 A 
ENDBRANCH  39  53
BRANCH  40  59
ATOM     59  C   UNL A   1      42.033  23.139  27.456  1.00  0.00    -0.014 A 
ATOM     60  C   UNL A   1      42.016  22.737  26.113  1.00  0.00     0.009 A 
ATOM     61  C   UNL A   1      41.630  22.229  28.446  1.00  0.00     0.009 A 
ATOM     62  C   UNL A   1      41.601  21.448  25.770  1.00  0.00     0.001 A 
ATOM     63  C   UNL A   1      41.246  20.932  28.102  1.00  0.00     0.001 A 
ATOM     64  C   UNL A   1      41.227  20.545  26.764  1.00  0.00     0.000 A 
ENDBRANCH  40  59
BRANCH  52  65
ATOM     65  C   UNL A   1      48.277  26.158  27.719  1.00  0.00    -0.014 A 
ATOM     66  C   UNL A   1      48.827  26.330  26.439  1.00  0.00     0.009 A 
ATOM     67  C   UNL A   1      49.038  25.520  28.709  1.00  0.00     0.009 A 
ATOM     68  C   UNL A   1      50.101  25.843  26.148  1.00  0.00     0.001 A 
ATOM     69  C   UNL A   1      50.321  25.051  28.421  1.00  0.00     0.001 A 
ATOM     70  C   UNL A   1      50.848  25.207  27.139  1.00  0.00     0.000 A 
ENDBRANCH  52  65
ENDBRANCH  26  27
ENDBRANCH  19  21
ENDBRANCH  18  19
ENDBRANCH   1  18
TORSDOF 12
ENDMDL
