MODEL 1
REMARK VINA RESULT:     -11.7      0.000      0.000
REMARK SMILES Cc1ccc(S(=O)(=O)N(CC(=O)OCCOC(=O)c2ccc(-c3c4nc(c(-c5ccccc5)c5ccc([nH]5)c(-c5ccccc5)c5nc(c(-c6ccccc6)c6ccc3[nH]6)C=C5)C=C4)cc2)c2cc(Cl)cc(Cl)c2)cc1
REMARK SMILES IDX 14 1 13 2 11 3 12 4 10 5 9 6 6 7 7 8 8 9 5 10 1 11 2 12 3 13
REMARK SMILES IDX 76 14 4 15 75 16 67 17 68 18 74 19 69 20 72 21 70 22 71 23
REMARK SMILES IDX 73 24 15 25 16 26 17 27 18 28 19 29 20 30 66 31 21 32 65 33
REMARK SMILES IDX 22 34 23 35 24 36 59 37 25 38 64 39 58 40 60 41 26 42 63 43
REMARK SMILES IDX 57 44 56 45 27 47 49 48 34 49 48 50 35 51 38 52 47 53 61 54
REMARK SMILES IDX 36 55 37 56 46 58 62 59 39 60 28 61 29 62 33 63 30 64 32 65
REMARK SMILES IDX 31 66 50 67 51 68 55 69 52 70 54 71 53 72 40 73 41 74 45 75
REMARK SMILES IDX 42 76 44 77 43 78
REMARK H PARENT 60 46 38 57
REMARK Flexibility Score: inf
ROOT
ATOM      1  C   UNL A   1      32.378  29.944  26.703  1.00  0.00     0.274 C 
ENDROOT
BRANCH   1   2
ATOM      2  O   UNL A   1      31.713  28.892  26.006  1.00  0.00    -0.461 OA
BRANCH   2   3
ATOM      3  C   UNL A   1      31.289  27.813  26.714  1.00  0.00     0.326 C 
ATOM      4  O   UNL A   1      31.200  27.771  27.920  1.00  0.00    -0.250 OA
BRANCH   3   5
ATOM      5  C   UNL A   1      30.969  26.711  25.742  1.00  0.00     0.258 C 
BRANCH   5   6
ATOM      6  N   UNL A   1      31.942  25.989  24.862  1.00  0.00    -0.255 N 
BRANCH   6   7
ATOM      7  S   UNL A   1      31.309  25.827  23.250  1.00  0.00     0.264 S 
ATOM      8  O   UNL A   1      30.477  24.647  23.252  1.00  0.00    -0.201 OA
ATOM      9  O   UNL A   1      32.337  26.022  22.246  1.00  0.00    -0.201 OA
BRANCH   7  10
ATOM     10  C   UNL A   1      30.213  27.236  23.044  1.00  0.00     0.088 A 
ATOM     11  C   UNL A   1      27.723  30.713  22.534  1.00  0.00     0.044 C 
ATOM     12  C   UNL A   1      28.574  29.485  22.691  1.00  0.00    -0.051 A 
ATOM     13  C   UNL A   1      29.936  29.541  22.368  1.00  0.00     0.005 A 
ATOM     14  C   UNL A   1      28.045  28.294  23.211  1.00  0.00     0.005 A 
ATOM     15  C   UNL A   1      30.751  28.419  22.529  1.00  0.00     0.022 A 
ATOM     16  C   UNL A   1      28.862  27.171  23.398  1.00  0.00     0.022 A 
ENDBRANCH   7  10
ENDBRANCH   6   7
BRANCH   6  17
ATOM     17  C   UNL A   1      32.874  24.949  25.343  1.00  0.00     0.055 A 
ATOM     18  C   UNL A   1      32.601  24.080  26.406  1.00  0.00     0.047 A 
ATOM     19  C   UNL A   1      34.175  24.858  24.823  1.00  0.00     0.047 A 
ATOM     20  C   UNL A   1      33.542  23.154  26.892  1.00  0.00     0.044 A 
ATOM     21  C   UNL A   1      35.105  23.909  25.283  1.00  0.00     0.044 A 
ATOM     22  Cl  UNL A   1      33.132  22.119  28.211  1.00  0.00    -0.084 Cl
ATOM     23  C   UNL A   1      34.797  23.057  26.328  1.00  0.00     0.041 A 
ATOM     24  Cl  UNL A   1      36.655  23.801  24.541  1.00  0.00    -0.084 Cl
ENDBRANCH   6  17
ENDBRANCH   5   6
ENDBRANCH   3   5
ENDBRANCH   2   3
ENDBRANCH   1   2
BRANCH   1  25
ATOM     25  C   UNL A   1      33.918  29.895  26.590  1.00  0.00     0.275 C 
BRANCH  25  26
ATOM     26  O   UNL A   1      34.774  30.072  27.774  1.00  0.00    -0.458 OA
BRANCH  26  27
ATOM     27  C   UNL A   1      35.903  30.783  28.046  1.00  0.00     0.338 C 
ATOM     28  O   UNL A   1      35.918  32.004  28.127  1.00  0.00    -0.246 OA
BRANCH  27  29
ATOM     29  C   UNL A   1      37.078  30.024  28.469  1.00  0.00     0.060 A 
ATOM     30  C   UNL A   1      37.050  29.151  29.575  1.00  0.00     0.016 A 
ATOM     31  C   UNL A   1      38.177  30.097  27.650  1.00  0.00     0.016 A 
ATOM     32  C   UNL A   1      38.121  28.278  29.780  1.00  0.00     0.010 A 
ATOM     33  C   UNL A   1      39.030  29.039  27.654  1.00  0.00     0.010 A 
ATOM     34  C   UNL A   1      39.088  28.207  28.779  1.00  0.00    -0.014 A 
BRANCH  34  35
ATOM     35  C   UNL A   1      40.414  27.622  28.889  1.00  0.00     0.031 A 
ATOM     36  C   UNL A   1      40.781  26.343  28.283  1.00  0.00     0.074 A 
ATOM     37  C   UNL A   1      41.323  28.531  29.319  1.00  0.00     0.049 A 
ATOM     38  N   UNL A   1      41.661  25.544  28.778  1.00  0.00    -0.248 NA
ATOM     39  C   UNL A   1      40.191  25.868  27.033  1.00  0.00     0.031 C 
ATOM     40  C   UNL A   1      42.766  28.559  29.231  1.00  0.00     0.029 A 
ATOM     41  N   UNL A   1      41.021  29.722  29.999  1.00  0.00    -0.354 N 
ATOM     42  C   UNL A   1      42.007  24.685  27.756  1.00  0.00     0.074 A 
ATOM     43  C   UNL A   1      40.963  24.806  26.763  1.00  0.00     0.031 C 
ATOM     44  C   UNL A   1      43.218  29.494  30.098  1.00  0.00     0.029 A 
ATOM     45  C   UNL A   1      42.070  29.988  30.859  1.00  0.00     0.049 A 
ATOM     46  H   UNL A   1      40.211  30.268  29.883  1.00  0.00     0.167 HD
ATOM     47  C   UNL A   1      43.266  24.166  27.693  1.00  0.00     0.031 A 
ATOM     48  C   UNL A   1      41.847  29.879  32.204  1.00  0.00     0.031 A 
ATOM     49  C   UNL A   1      44.134  24.801  28.682  1.00  0.00     0.049 A 
ATOM     50  C   UNL A   1      42.626  28.699  32.732  1.00  0.00     0.074 A 
ATOM     51  C   UNL A   1      45.034  25.847  28.552  1.00  0.00     0.029 A 
ATOM     52  N   UNL A   1      43.881  24.664  30.042  1.00  0.00    -0.354 N 
ATOM     53  N   UNL A   1      42.953  27.666  32.005  1.00  0.00    -0.248 NA
ATOM     54  C   UNL A   1      43.103  28.601  34.105  1.00  0.00     0.031 C 
ATOM     55  C   UNL A   1      45.246  26.403  29.838  1.00  0.00     0.029 A 
ATOM     56  C   UNL A   1      44.492  25.684  30.749  1.00  0.00     0.049 A 
ATOM     57  H   UNL A   1      43.342  23.945  30.444  1.00  0.00     0.167 HD
ATOM     58  C   UNL A   1      43.762  26.845  32.733  1.00  0.00     0.074 A 
ATOM     59  C   UNL A   1      43.789  27.446  34.057  1.00  0.00     0.031 C 
ATOM     60  C   UNL A   1      44.379  25.756  32.198  1.00  0.00     0.031 A 
BRANCH  47  61
ATOM     61  C   UNL A   1      43.788  23.401  26.500  1.00  0.00    -0.014 A 
ATOM     62  C   UNL A   1      44.454  24.081  25.462  1.00  0.00     0.009 A 
ATOM     63  C   UNL A   1      43.674  22.006  26.358  1.00  0.00     0.009 A 
ATOM     64  C   UNL A   1      44.912  23.424  24.313  1.00  0.00     0.001 A 
ATOM     65  C   UNL A   1      44.112  21.346  25.199  1.00  0.00     0.001 A 
ATOM     66  C   UNL A   1      44.725  22.057  24.172  1.00  0.00     0.000 A 
ENDBRANCH  47  61
BRANCH  48  67
ATOM     67  C   UNL A   1      40.448  30.230  32.643  1.00  0.00    -0.014 A 
ATOM     68  C   UNL A   1      39.910  31.480  32.259  1.00  0.00     0.009 A 
ATOM     69  C   UNL A   1      39.552  29.256  33.115  1.00  0.00     0.009 A 
ATOM     70  C   UNL A   1      38.527  31.714  32.262  1.00  0.00     0.001 A 
ATOM     71  C   UNL A   1      38.168  29.502  33.137  1.00  0.00     0.001 A 
ATOM     72  C   UNL A   1      37.655  30.717  32.683  1.00  0.00     0.000 A 
ENDBRANCH  48  67
BRANCH  60  73
ATOM     73  C   UNL A   1      45.050  24.688  33.005  1.00  0.00    -0.014 A 
ATOM     74  C   UNL A   1      46.334  24.833  33.542  1.00  0.00     0.009 A 
ATOM     75  C   UNL A   1      44.307  23.552  33.389  1.00  0.00     0.009 A 
ATOM     76  C   UNL A   1      46.876  23.856  34.380  1.00  0.00     0.001 A 
ATOM     77  C   UNL A   1      44.824  22.601  34.266  1.00  0.00     0.001 A 
ATOM     78  C   UNL A   1      46.117  22.747  34.749  1.00  0.00     0.000 A 
ENDBRANCH  60  73
ENDBRANCH  34  35
ENDBRANCH  27  29
ENDBRANCH  26  27
ENDBRANCH  25  26
ENDBRANCH   1  25
TORSDOF 15
ENDMDL
MODEL 2
REMARK VINA RESULT:     -11.7      3.732      8.742
REMARK SMILES Cc1ccc(S(=O)(=O)N(CC(=O)OCCOC(=O)c2ccc(-c3c4nc(c(-c5ccccc5)c5ccc([nH]5)c(-c5ccccc5)c5nc(c(-c6ccccc6)c6ccc3[nH]6)C=C5)C=C4)cc2)c2cc(Cl)cc(Cl)c2)cc1
REMARK SMILES IDX 14 1 13 2 11 3 12 4 10 5 9 6 6 7 7 8 8 9 5 10 1 11 2 12 3 13
REMARK SMILES IDX 76 14 4 15 75 16 67 17 68 18 74 19 69 20 72 21 70 22 71 23
REMARK SMILES IDX 73 24 15 25 16 26 17 27 18 28 19 29 20 30 66 31 21 32 65 33
REMARK SMILES IDX 22 34 23 35 24 36 59 37 25 38 64 39 58 40 60 41 26 42 63 43
REMARK SMILES IDX 57 44 56 45 27 47 49 48 34 49 48 50 35 51 38 52 47 53 61 54
REMARK SMILES IDX 36 55 37 56 46 58 62 59 39 60 28 61 29 62 33 63 30 64 32 65
REMARK SMILES IDX 31 66 50 67 51 68 55 69 52 70 54 71 53 72 40 73 41 74 45 75
REMARK SMILES IDX 42 76 44 77 43 78
REMARK H PARENT 60 46 38 57
REMARK Flexibility Score: inf
ROOT
ATOM      1  C   UNL A   1      36.327  22.429  25.822  1.00  0.00     0.274 C 
ENDROOT
BRANCH   1   2
ATOM      2  O   UNL A   1      36.098  21.928  24.506  1.00  0.00    -0.461 OA
BRANCH   2   3
ATOM      3  C   UNL A   1      35.763  22.809  23.527  1.00  0.00     0.326 C 
ATOM      4  O   UNL A   1      36.547  23.315  22.757  1.00  0.00    -0.250 OA
BRANCH   3   5
ATOM      5  C   UNL A   1      34.277  23.033  23.586  1.00  0.00     0.258 C 
BRANCH   5   6
ATOM      6  N   UNL A   1      33.519  23.691  24.697  1.00  0.00    -0.255 N 
BRANCH   6   7
ATOM      7  S   UNL A   1      32.153  22.722  25.167  1.00  0.00     0.264 S 
ATOM      8  O   UNL A   1      31.043  23.156  24.353  1.00  0.00    -0.201 OA
ATOM      9  O   UNL A   1      32.035  22.620  26.609  1.00  0.00    -0.201 OA
BRANCH   7  10
ATOM     10  C   UNL A   1      32.568  21.056  24.636  1.00  0.00     0.088 A 
ATOM     11  C   UNL A   1      33.444  17.076  23.243  1.00  0.00     0.044 C 
ATOM     12  C   UNL A   1      33.168  18.471  23.730  1.00  0.00    -0.051 A 
ATOM     13  C   UNL A   1      32.417  19.345  22.934  1.00  0.00     0.005 A 
ATOM     14  C   UNL A   1      33.601  18.899  24.994  1.00  0.00     0.005 A 
ATOM     15  C   UNL A   1      32.128  20.638  23.377  1.00  0.00     0.022 A 
ATOM     16  C   UNL A   1      33.295  20.186  25.455  1.00  0.00     0.022 A 
ENDBRANCH   7  10
ENDBRANCH   6   7
BRANCH   6  17
ATOM     17  C   UNL A   1      33.418  25.154  24.874  1.00  0.00     0.055 A 
ATOM     18  C   UNL A   1      32.831  25.773  25.983  1.00  0.00     0.047 A 
ATOM     19  C   UNL A   1      33.806  26.028  23.845  1.00  0.00     0.047 A 
ATOM     20  C   UNL A   1      32.678  27.167  26.084  1.00  0.00     0.044 A 
ATOM     21  C   UNL A   1      33.687  27.424  23.958  1.00  0.00     0.044 A 
ATOM     22  Cl  UNL A   1      31.938  27.856  27.483  1.00  0.00    -0.084 Cl
ATOM     23  C   UNL A   1      33.113  28.002  25.075  1.00  0.00     0.041 A 
ATOM     24  Cl  UNL A   1      34.260  28.437  22.690  1.00  0.00    -0.084 Cl
ENDBRANCH   6  17
ENDBRANCH   5   6
ENDBRANCH   3   5
ENDBRANCH   2   3
ENDBRANCH   1   2
BRANCH   1  25
ATOM     25  C   UNL A   1      37.317  23.613  25.878  1.00  0.00     0.275 C 
BRANCH  25  26
ATOM     26  O   UNL A   1      38.761  23.390  26.051  1.00  0.00    -0.458 OA
BRANCH  26  27
ATOM     27  C   UNL A   1      39.650  23.585  27.064  1.00  0.00     0.338 C 
ATOM     28  O   UNL A   1      40.379  22.699  27.490  1.00  0.00    -0.246 OA
BRANCH  27  29
ATOM     29  C   UNL A   1      39.876  24.964  27.491  1.00  0.00     0.060 A 
ATOM     30  C   UNL A   1      40.276  25.973  26.591  1.00  0.00     0.016 A 
ATOM     31  C   UNL A   1      39.546  25.261  28.789  1.00  0.00     0.016 A 
ATOM     32  C   UNL A   1      40.239  27.306  27.004  1.00  0.00     0.010 A 
ATOM     33  C   UNL A   1      39.191  26.544  29.065  1.00  0.00     0.010 A 
ATOM     34  C   UNL A   1      39.650  27.577  28.239  1.00  0.00    -0.014 A 
BRANCH  34  35
ATOM     35  C   UNL A   1      39.760  28.807  29.005  1.00  0.00     0.031 A 
ATOM     36  C   UNL A   1      38.655  29.749  29.176  1.00  0.00     0.074 A 
ATOM     37  C   UNL A   1      40.868  28.807  29.786  1.00  0.00     0.049 A 
ATOM     38  N   UNL A   1      38.813  31.019  29.319  1.00  0.00    -0.248 NA
ATOM     39  C   UNL A   1      37.259  29.320  29.228  1.00  0.00     0.031 C 
ATOM     40  C   UNL A   1      41.214  29.580  30.958  1.00  0.00     0.029 A 
ATOM     41  N   UNL A   1      41.997  27.995  29.595  1.00  0.00    -0.354 N 
ATOM     42  C   UNL A   1      37.627  31.490  29.841  1.00  0.00     0.074 A 
ATOM     43  C   UNL A   1      36.648  30.451  29.608  1.00  0.00     0.031 C 
ATOM     44  C   UNL A   1      42.546  29.455  31.161  1.00  0.00     0.029 A 
ATOM     45  C   UNL A   1      43.099  28.702  30.035  1.00  0.00     0.049 A 
ATOM     46  H   UNL A   1      42.002  27.086  29.217  1.00  0.00     0.167 HD
ATOM     47  C   UNL A   1      37.624  32.571  30.671  1.00  0.00     0.031 A 
ATOM     48  C   UNL A   1      44.005  29.132  29.105  1.00  0.00     0.031 A 
ATOM     49  C   UNL A   1      38.990  32.949  31.029  1.00  0.00     0.049 A 
ATOM     50  C   UNL A   1      43.941  30.638  29.023  1.00  0.00     0.074 A 
ATOM     51  C   UNL A   1      39.745  32.644  32.150  1.00  0.00     0.029 A 
ATOM     52  N   UNL A   1      39.883  33.387  30.058  1.00  0.00    -0.354 N 
ATOM     53  N   UNL A   1      42.874  31.331  29.313  1.00  0.00    -0.248 NA
ATOM     54  C   UNL A   1      45.067  31.469  28.622  1.00  0.00     0.031 C 
ATOM     55  C   UNL A   1      41.112  32.809  31.814  1.00  0.00     0.029 A 
ATOM     56  C   UNL A   1      41.185  33.233  30.499  1.00  0.00     0.049 A 
ATOM     57  H   UNL A   1      39.626  33.754  29.181  1.00  0.00     0.167 HD
ATOM     58  C   UNL A   1      43.179  32.659  29.268  1.00  0.00     0.074 A 
ATOM     59  C   UNL A   1      44.550  32.700  28.784  1.00  0.00     0.031 C 
ATOM     60  C   UNL A   1      42.306  33.628  29.661  1.00  0.00     0.031 A 
BRANCH  47  61
ATOM     61  C   UNL A   1      36.410  33.012  31.453  1.00  0.00    -0.014 A 
ATOM     62  C   UNL A   1      35.451  33.852  30.854  1.00  0.00     0.009 A 
ATOM     63  C   UNL A   1      36.147  32.610  32.775  1.00  0.00     0.009 A 
ATOM     64  C   UNL A   1      34.335  34.329  31.554  1.00  0.00     0.001 A 
ATOM     65  C   UNL A   1      35.041  33.100  33.488  1.00  0.00     0.001 A 
ATOM     66  C   UNL A   1      34.139  33.967  32.879  1.00  0.00     0.000 A 
ENDBRANCH  47  61
BRANCH  48  67
ATOM     67  C   UNL A   1      44.160  28.228  27.909  1.00  0.00    -0.014 A 
ATOM     68  C   UNL A   1      44.448  26.860  28.125  1.00  0.00     0.009 A 
ATOM     69  C   UNL A   1      43.707  28.602  26.633  1.00  0.00     0.009 A 
ATOM     70  C   UNL A   1      44.205  25.896  27.135  1.00  0.00     0.001 A 
ATOM     71  C   UNL A   1      43.486  27.634  25.636  1.00  0.00     0.001 A 
ATOM     72  C   UNL A   1      43.706  26.282  25.896  1.00  0.00     0.000 A 
ENDBRANCH  48  67
BRANCH  60  73
ATOM     73  C   UNL A   1      42.490  35.088  29.382  1.00  0.00    -0.014 A 
ATOM     74  C   UNL A   1      43.303  35.915  30.165  1.00  0.00     0.009 A 
ATOM     75  C   UNL A   1      41.964  35.630  28.191  1.00  0.00     0.009 A 
ATOM     76  C   UNL A   1      43.531  37.245  29.805  1.00  0.00     0.001 A 
ATOM     77  C   UNL A   1      42.232  36.940  27.801  1.00  0.00     0.001 A 
ATOM     78  C   UNL A   1      43.005  37.752  28.619  1.00  0.00     0.000 A 
ENDBRANCH  60  73
ENDBRANCH  34  35
ENDBRANCH  27  29
ENDBRANCH  26  27
ENDBRANCH  25  26
ENDBRANCH   1  25
TORSDOF 15
ENDMDL
MODEL 3
REMARK VINA RESULT:     -11.6      2.040      3.772
REMARK SMILES Cc1ccc(S(=O)(=O)N(CC(=O)OCCOC(=O)c2ccc(-c3c4nc(c(-c5ccccc5)c5ccc([nH]5)c(-c5ccccc5)c5nc(c(-c6ccccc6)c6ccc3[nH]6)C=C5)C=C4)cc2)c2cc(Cl)cc(Cl)c2)cc1
REMARK SMILES IDX 14 1 13 2 11 3 12 4 10 5 9 6 6 7 7 8 8 9 5 10 1 11 2 12 3 13
REMARK SMILES IDX 76 14 4 15 75 16 67 17 68 18 74 19 69 20 72 21 70 22 71 23
REMARK SMILES IDX 73 24 15 25 16 26 17 27 18 28 19 29 20 30 66 31 21 32 65 33
REMARK SMILES IDX 22 34 23 35 24 36 59 37 25 38 64 39 58 40 60 41 26 42 63 43
REMARK SMILES IDX 57 44 56 45 27 47 49 48 34 49 48 50 35 51 38 52 47 53 61 54
REMARK SMILES IDX 36 55 37 56 46 58 62 59 39 60 28 61 29 62 33 63 30 64 32 65
REMARK SMILES IDX 31 66 50 67 51 68 55 69 52 70 54 71 53 72 40 73 41 74 45 75
REMARK SMILES IDX 42 76 44 77 43 78
REMARK H PARENT 60 46 38 57
REMARK Flexibility Score: inf
ROOT
ATOM      1  C   UNL A   1      32.507  30.208  26.033  1.00  0.00     0.274 C 
ENDROOT
BRANCH   1   2
ATOM      2  O   UNL A   1      33.421  29.579  25.137  1.00  0.00    -0.461 OA
BRANCH   2   3
ATOM      3  C   UNL A   1      33.436  28.221  25.074  1.00  0.00     0.326 C 
ATOM      4  O   UNL A   1      33.573  27.489  26.027  1.00  0.00    -0.250 OA
BRANCH   3   5
ATOM      5  C   UNL A   1      33.263  27.817  23.636  1.00  0.00     0.258 C 
BRANCH   5   6
ATOM      6  N   UNL A   1      32.062  27.155  23.036  1.00  0.00    -0.255 N 
BRANCH   6   7
ATOM      7  S   UNL A   1      32.533  26.060  21.769  1.00  0.00     0.264 S 
ATOM      8  O   UNL A   1      33.901  26.379  21.437  1.00  0.00    -0.201 OA
ATOM      9  O   UNL A   1      31.514  25.955  20.742  1.00  0.00    -0.201 OA
BRANCH   7  10
ATOM     10  C   UNL A   1      32.550  24.440  22.546  1.00  0.00     0.088 A 
ATOM     11  C   UNL A   1      32.436  20.590  24.473  1.00  0.00     0.044 C 
ATOM     12  C   UNL A   1      32.485  21.919  23.775  1.00  0.00    -0.051 A 
ATOM     13  C   UNL A   1      31.312  22.674  23.641  1.00  0.00     0.005 A 
ATOM     14  C   UNL A   1      33.695  22.448  23.302  1.00  0.00     0.005 A 
ATOM     15  C   UNL A   1      31.339  23.923  23.018  1.00  0.00     0.022 A 
ATOM     16  C   UNL A   1      33.734  23.712  22.696  1.00  0.00     0.022 A 
ENDBRANCH   7  10
ENDBRANCH   6   7
BRANCH   6  17
ATOM     17  C   UNL A   1      30.733  27.792  22.935  1.00  0.00     0.055 A 
ATOM     18  C   UNL A   1      30.514  29.072  22.412  1.00  0.00     0.047 A 
ATOM     19  C   UNL A   1      29.600  27.177  23.492  1.00  0.00     0.047 A 
ATOM     20  C   UNL A   1      29.247  29.683  22.404  1.00  0.00     0.044 A 
ATOM     21  C   UNL A   1      28.327  27.771  23.453  1.00  0.00     0.044 A 
ATOM     22  Cl  UNL A   1      29.056  31.267  21.746  1.00  0.00    -0.084 Cl
ATOM     23  C   UNL A   1      28.143  29.033  22.917  1.00  0.00     0.041 A 
ATOM     24  Cl  UNL A   1      26.967  26.922  24.083  1.00  0.00    -0.084 Cl
ENDBRANCH   6  17
ENDBRANCH   5   6
ENDBRANCH   3   5
ENDBRANCH   2   3
ENDBRANCH   1   2
BRANCH   1  25
ATOM     25  C   UNL A   1      33.145  30.657  27.366  1.00  0.00     0.275 C 
BRANCH  25  26
ATOM     26  O   UNL A   1      34.541  30.324  27.692  1.00  0.00    -0.458 OA
BRANCH  26  27
ATOM     27  C   UNL A   1      35.655  31.045  27.998  1.00  0.00     0.338 C 
ATOM     28  O   UNL A   1      35.654  32.265  28.091  1.00  0.00    -0.246 OA
BRANCH  27  29
ATOM     29  C   UNL A   1      36.829  30.296  28.438  1.00  0.00     0.060 A 
ATOM     30  C   UNL A   1      36.796  29.436  29.555  1.00  0.00     0.016 A 
ATOM     31  C   UNL A   1      37.933  30.361  27.626  1.00  0.00     0.016 A 
ATOM     32  C   UNL A   1      37.867  28.570  29.778  1.00  0.00     0.010 A 
ATOM     33  C   UNL A   1      38.789  29.305  27.649  1.00  0.00     0.010 A 
ATOM     34  C   UNL A   1      38.842  28.489  28.785  1.00  0.00    -0.014 A 
BRANCH  34  35
ATOM     35  C   UNL A   1      40.169  27.908  28.911  1.00  0.00     0.031 A 
ATOM     36  C   UNL A   1      40.546  26.627  28.318  1.00  0.00     0.074 A 
ATOM     37  C   UNL A   1      41.070  28.823  29.344  1.00  0.00     0.049 A 
ATOM     38  N   UNL A   1      41.424  25.834  28.827  1.00  0.00    -0.248 NA
ATOM     39  C   UNL A   1      39.969  26.141  27.066  1.00  0.00     0.031 C 
ATOM     40  C   UNL A   1      42.514  28.856  29.269  1.00  0.00     0.029 A 
ATOM     41  N   UNL A   1      40.759  30.018  30.012  1.00  0.00    -0.354 N 
ATOM     42  C   UNL A   1      41.782  24.969  27.814  1.00  0.00     0.074 A 
ATOM     43  C   UNL A   1      40.747  25.080  26.810  1.00  0.00     0.031 C 
ATOM     44  C   UNL A   1      42.955  29.798  30.135  1.00  0.00     0.029 A 
ATOM     45  C   UNL A   1      41.798  30.294  30.881  1.00  0.00     0.049 A 
ATOM     46  H   UNL A   1      39.947  30.561  29.886  1.00  0.00     0.167 HD
ATOM     47  C   UNL A   1      43.043  24.454  27.767  1.00  0.00     0.031 A 
ATOM     48  C   UNL A   1      41.562  30.193  32.224  1.00  0.00     0.031 A 
ATOM     49  C   UNL A   1      43.900  25.099  28.760  1.00  0.00     0.049 A 
ATOM     50  C   UNL A   1      42.341  29.020  32.768  1.00  0.00     0.074 A 
ATOM     51  C   UNL A   1      44.798  26.147  28.631  1.00  0.00     0.029 A 
ATOM     52  N   UNL A   1      43.634  24.971  30.118  1.00  0.00    -0.354 N 
ATOM     53  N   UNL A   1      42.678  27.983  32.051  1.00  0.00    -0.248 NA
ATOM     54  C   UNL A   1      42.804  28.933  34.146  1.00  0.00     0.031 C 
ATOM     55  C   UNL A   1      44.996  26.713  29.915  1.00  0.00     0.029 A 
ATOM     56  C   UNL A   1      44.235  25.997  30.824  1.00  0.00     0.049 A 
ATOM     57  H   UNL A   1      43.095  24.252  30.520  1.00  0.00     0.167 HD
ATOM     58  C   UNL A   1      43.483  27.170  32.793  1.00  0.00     0.074 A 
ATOM     59  C   UNL A   1      43.495  27.780  34.113  1.00  0.00     0.031 C 
ATOM     60  C   UNL A   1      44.109  26.079  32.271  1.00  0.00     0.031 A 
BRANCH  47  61
ATOM     61  C   UNL A   1      43.579  23.683  26.584  1.00  0.00    -0.014 A 
ATOM     62  C   UNL A   1      43.384  22.291  26.501  1.00  0.00     0.009 A 
ATOM     63  C   UNL A   1      44.263  24.282  25.510  1.00  0.00     0.009 A 
ATOM     64  C   UNL A   1      43.905  21.526  25.450  1.00  0.00     0.001 A 
ATOM     65  C   UNL A   1      44.805  23.517  24.464  1.00  0.00     0.001 A 
ATOM     66  C   UNL A   1      44.632  22.137  24.439  1.00  0.00     0.000 A 
ENDBRANCH  47  61
BRANCH  48  67
ATOM     67  C   UNL A   1      40.158  30.542  32.647  1.00  0.00    -0.014 A 
ATOM     68  C   UNL A   1      39.606  31.772  32.218  1.00  0.00     0.009 A 
ATOM     69  C   UNL A   1      39.273  29.575  33.152  1.00  0.00     0.009 A 
ATOM     70  C   UNL A   1      38.221  31.989  32.210  1.00  0.00     0.001 A 
ATOM     71  C   UNL A   1      37.886  29.805  33.162  1.00  0.00     0.001 A 
ATOM     72  C   UNL A   1      37.359  30.997  32.665  1.00  0.00     0.000 A 
ENDBRANCH  48  67
BRANCH  60  73
ATOM     73  C   UNL A   1      44.775  25.019  33.092  1.00  0.00    -0.014 A 
ATOM     74  C   UNL A   1      44.175  23.787  33.375  1.00  0.00     0.009 A 
ATOM     75  C   UNL A   1      46.125  25.187  33.464  1.00  0.00     0.009 A 
ATOM     76  C   UNL A   1      44.876  22.786  34.052  1.00  0.00     0.001 A 
ATOM     77  C   UNL A   1      46.843  24.173  34.092  1.00  0.00     0.001 A 
ATOM     78  C   UNL A   1      46.211  22.977  34.400  1.00  0.00     0.000 A 
ENDBRANCH  60  73
ENDBRANCH  34  35
ENDBRANCH  27  29
ENDBRANCH  26  27
ENDBRANCH  25  26
ENDBRANCH   1  25
TORSDOF 15
ENDMDL
