MODEL 1
REMARK VINA RESULT:      -9.9      0.000      0.000
REMARK SMILES C#Cc1cc(Cl)cc2c1O[C@H](C(F)(F)F)C(C(=O)OCCOC(=O)c1ccc(-c3c4nc(c(-c5ccccc5)c5ccc([nH]5)c(-c5ccccc5)c5nc(c(-c6ccccc6)c6ccc3[nH]6)C=C5)C=C4)cc1)=C2
REMARK SMILES IDX 21 1 20 2 19 3 17 4 18 5 16 6 3 7 4 8 9 9 5 10 8 11 10 12
REMARK SMILES IDX 6 13 7 14 73 15 11 16 2 17 1 18 12 19 13 20 14 21 15 22
REMARK SMILES IDX 22 23 23 24 24 25 25 26 26 27 72 28 27 29 71 30 28 31 29 32
REMARK SMILES IDX 30 33 65 34 31 35 70 36 64 37 66 38 32 39 69 40 63 41 62 42
REMARK SMILES IDX 33 44 55 45 40 46 54 47 41 48 44 49 53 50 67 51 42 52 43 53
REMARK SMILES IDX 52 55 68 56 45 57 34 58 35 59 39 60 36 61 38 62 37 63 56 64
REMARK SMILES IDX 57 65 61 66 58 67 60 68 59 69 46 70 47 71 51 72 48 73 50 74
REMARK SMILES IDX 49 75
REMARK H PARENT 66 43 44 54
REMARK Flexibility Score: inf
ROOT
ATOM      1  C   UNL A   1      41.027  19.848  26.170  1.00  0.00     0.275 C 
ENDROOT
BRANCH   1   2
ATOM      2  C   UNL A   1      42.456  19.949  26.712  1.00  0.00     0.275 C 
BRANCH   2   3
ATOM      3  O   UNL A   1      43.352  20.520  25.733  1.00  0.00    -0.459 OA
BRANCH   3   4
ATOM      4  C   UNL A   1      43.293  21.864  25.602  1.00  0.00     0.338 C 
ATOM      5  O   UNL A   1      42.460  22.495  24.970  1.00  0.00    -0.246 OA
BRANCH   4   6
ATOM      6  C   UNL A   1      44.387  22.517  26.347  1.00  0.00     0.087 C 
ATOM      7  C   UNL A   1      47.342  24.852  28.180  1.00  0.00     0.068 A 
ATOM      8  C   UNL A   1      46.996  25.655  29.276  1.00  0.00     0.041 A 
ATOM      9  C   UNL A   1      46.385  24.014  27.587  1.00  0.00     0.143 A 
ATOM     10  C   UNL A   1      45.704  25.608  29.792  1.00  0.00     0.043 A 
ATOM     11  C   UNL A   1      45.094  23.984  28.112  1.00  0.00     0.020 A 
ATOM     12  O   UNL A   1      46.765  23.241  26.521  1.00  0.00    -0.474 OA
ATOM     13  Cl  UNL A   1      45.273  26.599  31.130  1.00  0.00    -0.084 Cl
ATOM     14  C   UNL A   1      44.752  24.772  29.221  1.00  0.00     0.032 A 
ATOM     15  C   UNL A   1      44.083  23.170  27.472  1.00  0.00     0.027 C 
ATOM     16  C   UNL A   1      45.750  22.566  25.725  1.00  0.00     0.316 C 
BRANCH   7  17
ATOM     17  C   UNL A   1      48.677  24.923  27.670  1.00  0.00    -0.067 C 
ATOM     18  C   UNL A   1      49.795  24.985  27.233  1.00  0.00     0.010 C 
ENDBRANCH   7  17
BRANCH  16  19
ATOM     19  C   UNL A   1      45.693  23.205  24.329  1.00  0.00     0.430 C 
ATOM     20  F   UNL A   1      45.216  22.338  23.405  1.00  0.00    -0.167 F 
ATOM     21  F   UNL A   1      44.869  24.282  24.309  1.00  0.00    -0.167 F 
ATOM     22  F   UNL A   1      46.910  23.621  23.910  1.00  0.00    -0.167 F 
ENDBRANCH  16  19
ENDBRANCH   4   6
ENDBRANCH   3   4
ENDBRANCH   2   3
ENDBRANCH   1   2
BRANCH   1  23
ATOM     23  O   UNL A   1      40.105  20.578  27.001  1.00  0.00    -0.458 OA
BRANCH  23  24
ATOM     24  C   UNL A   1      39.417  21.543  26.359  1.00  0.00     0.338 C 
ATOM     25  O   UNL A   1      38.601  21.406  25.461  1.00  0.00    -0.246 OA
BRANCH  24  26
ATOM     26  C   UNL A   1      39.676  22.854  26.965  1.00  0.00     0.060 A 
ATOM     27  C   UNL A   1      39.158  23.970  26.325  1.00  0.00     0.016 A 
ATOM     28  C   UNL A   1      40.623  23.005  27.971  1.00  0.00     0.016 A 
ATOM     29  C   UNL A   1      39.734  25.215  26.525  1.00  0.00     0.010 A 
ATOM     30  C   UNL A   1      41.060  24.292  28.310  1.00  0.00     0.010 A 
ATOM     31  C   UNL A   1      40.667  25.409  27.550  1.00  0.00    -0.014 A 
BRANCH  31  32
ATOM     32  C   UNL A   1      41.217  26.771  27.806  1.00  0.00     0.031 A 
ATOM     33  C   UNL A   1      42.560  27.171  27.248  1.00  0.00     0.074 A 
ATOM     34  C   UNL A   1      40.499  27.663  28.523  1.00  0.00     0.049 A 
ATOM     35  N   UNL A   1      43.274  28.238  27.508  1.00  0.00    -0.248 NA
ATOM     36  C   UNL A   1      43.192  26.253  26.284  1.00  0.00     0.031 C 
ATOM     37  C   UNL A   1      39.155  27.438  29.067  1.00  0.00     0.029 A 
ATOM     38  N   UNL A   1      40.790  28.949  28.908  1.00  0.00    -0.354 N 
ATOM     39  C   UNL A   1      44.451  28.096  26.781  1.00  0.00     0.074 A 
ATOM     40  C   UNL A   1      44.370  26.830  26.088  1.00  0.00     0.031 C 
ATOM     41  C   UNL A   1      38.717  28.561  29.652  1.00  0.00     0.029 A 
ATOM     42  C   UNL A   1      39.791  29.541  29.646  1.00  0.00     0.049 A 
ATOM     43  H   UNL A   1      41.632  29.402  28.679  1.00  0.00     0.167 HD
ATOM     44  C   UNL A   1      45.500  28.948  26.698  1.00  0.00     0.031 A 
ATOM     45  C   UNL A   1      39.752  30.718  30.297  1.00  0.00     0.031 A 
ATOM     46  C   UNL A   1      45.557  30.222  27.365  1.00  0.00     0.049 A 
ATOM     47  C   UNL A   1      40.968  31.595  30.269  1.00  0.00     0.074 A 
ATOM     48  C   UNL A   1      46.577  31.158  27.345  1.00  0.00     0.029 A 
ATOM     49  N   UNL A   1      44.547  30.747  28.156  1.00  0.00    -0.354 N 
ATOM     50  N   UNL A   1      42.092  31.424  29.616  1.00  0.00    -0.248 NA
ATOM     51  C   UNL A   1      40.917  32.821  31.075  1.00  0.00     0.031 C 
ATOM     52  C   UNL A   1      46.212  32.219  28.175  1.00  0.00     0.029 A 
ATOM     53  C   UNL A   1      44.933  31.981  28.652  1.00  0.00     0.049 A 
ATOM     54  H   UNL A   1      43.684  30.309  28.339  1.00  0.00     0.167 HD
ATOM     55  C   UNL A   1      42.872  32.532  29.914  1.00  0.00     0.074 A 
ATOM     56  C   UNL A   1      42.083  33.380  30.784  1.00  0.00     0.031 C 
ATOM     57  C   UNL A   1      44.132  32.817  29.508  1.00  0.00     0.031 A 
BRANCH  44  58
ATOM     58  C   UNL A   1      46.690  28.538  25.871  1.00  0.00    -0.014 A 
ATOM     59  C   UNL A   1      47.970  28.430  26.433  1.00  0.00     0.009 A 
ATOM     60  C   UNL A   1      46.504  28.157  24.532  1.00  0.00     0.009 A 
ATOM     61  C   UNL A   1      49.041  27.964  25.668  1.00  0.00     0.001 A 
ATOM     62  C   UNL A   1      47.570  27.661  23.777  1.00  0.00     0.001 A 
ATOM     63  C   UNL A   1      48.839  27.569  24.346  1.00  0.00     0.000 A 
ENDBRANCH  44  58
BRANCH  45  64
ATOM     64  C   UNL A   1      38.540  31.109  31.068  1.00  0.00    -0.014 A 
ATOM     65  C   UNL A   1      38.446  30.825  32.439  1.00  0.00     0.009 A 
ATOM     66  C   UNL A   1      37.470  31.772  30.442  1.00  0.00     0.009 A 
ATOM     67  C   UNL A   1      37.302  31.176  33.159  1.00  0.00     0.001 A 
ATOM     68  C   UNL A   1      36.345  32.158  31.173  1.00  0.00     0.001 A 
ATOM     69  C   UNL A   1      36.256  31.849  32.528  1.00  0.00     0.000 A 
ENDBRANCH  45  64
BRANCH  57  70
ATOM     70  C   UNL A   1      44.729  34.118  29.965  1.00  0.00    -0.014 A 
ATOM     71  C   UNL A   1      45.519  34.187  31.123  1.00  0.00     0.009 A 
ATOM     72  C   UNL A   1      44.560  35.271  29.184  1.00  0.00     0.009 A 
ATOM     73  C   UNL A   1      46.108  35.394  31.501  1.00  0.00     0.001 A 
ATOM     74  C   UNL A   1      45.181  36.468  29.545  1.00  0.00     0.001 A 
ATOM     75  C   UNL A   1      45.947  36.530  30.707  1.00  0.00     0.000 A 
ENDBRANCH  57  70
ENDBRANCH  31  32
ENDBRANCH  24  26
ENDBRANCH  23  24
ENDBRANCH   1  23
TORSDOF 13
ENDMDL
MODEL 2
REMARK VINA RESULT:      -9.6      5.945     11.301
REMARK SMILES C#Cc1cc(Cl)cc2c1O[C@H](C(F)(F)F)C(C(=O)OCCOC(=O)c1ccc(-c3c4nc(c(-c5ccccc5)c5ccc([nH]5)c(-c5ccccc5)c5nc(c(-c6ccccc6)c6ccc3[nH]6)C=C5)C=C4)cc1)=C2
REMARK SMILES IDX 21 1 20 2 19 3 17 4 18 5 16 6 3 7 4 8 9 9 5 10 8 11 10 12
REMARK SMILES IDX 6 13 7 14 73 15 11 16 2 17 1 18 12 19 13 20 14 21 15 22
REMARK SMILES IDX 22 23 23 24 24 25 25 26 26 27 72 28 27 29 71 30 28 31 29 32
REMARK SMILES IDX 30 33 65 34 31 35 70 36 64 37 66 38 32 39 69 40 63 41 62 42
REMARK SMILES IDX 33 44 55 45 40 46 54 47 41 48 44 49 53 50 67 51 42 52 43 53
REMARK SMILES IDX 52 55 68 56 45 57 34 58 35 59 39 60 36 61 38 62 37 63 56 64
REMARK SMILES IDX 57 65 61 66 58 67 60 68 59 69 46 70 47 71 51 72 48 73 50 74
REMARK SMILES IDX 49 75
REMARK H PARENT 66 43 44 54
REMARK Flexibility Score: inf
ROOT
ATOM      1  C   UNL A   1      33.475  33.897  28.320  1.00  0.00     0.275 C 
ENDROOT
BRANCH   1   2
ATOM      2  C   UNL A   1      34.145  34.935  29.225  1.00  0.00     0.275 C 
BRANCH   2   3
ATOM      3  O   UNL A   1      33.979  34.602  30.622  1.00  0.00    -0.459 OA
BRANCH   3   4
ATOM      4  C   UNL A   1      34.711  33.556  31.063  1.00  0.00     0.338 C 
ATOM      5  O   UNL A   1      34.403  32.376  31.001  1.00  0.00    -0.246 OA
BRANCH   4   6
ATOM      6  C   UNL A   1      35.989  34.013  31.646  1.00  0.00     0.087 C 
ATOM      7  C   UNL A   1      39.669  34.770  33.497  1.00  0.00     0.068 A 
ATOM      8  C   UNL A   1      40.853  34.411  32.837  1.00  0.00     0.041 A 
ATOM      9  C   UNL A   1      38.426  34.584  32.873  1.00  0.00     0.143 A 
ATOM     10  C   UNL A   1      40.798  33.887  31.549  1.00  0.00     0.043 A 
ATOM     11  C   UNL A   1      38.389  34.050  31.585  1.00  0.00     0.020 A 
ATOM     12  O   UNL A   1      37.293  34.952  33.551  1.00  0.00    -0.474 OA
ATOM     13  Cl  UNL A   1      42.247  33.437  30.739  1.00  0.00    -0.084 Cl
ATOM     14  C   UNL A   1      39.574  33.711  30.915  1.00  0.00     0.032 A 
ATOM     15  C   UNL A   1      37.112  33.797  30.954  1.00  0.00     0.027 C 
ATOM     16  C   UNL A   1      35.990  34.538  33.050  1.00  0.00     0.316 C 
BRANCH   7  17
ATOM     17  C   UNL A   1      39.755  35.305  34.821  1.00  0.00    -0.067 C 
ATOM     18  C   UNL A   1      39.827  35.765  35.930  1.00  0.00     0.010 C 
ENDBRANCH   7  17
BRANCH  16  19
ATOM     19  C   UNL A   1      35.377  33.514  34.018  1.00  0.00     0.430 C 
ATOM     20  F   UNL A   1      35.885  32.275  33.817  1.00  0.00    -0.167 F 
ATOM     21  F   UNL A   1      35.639  33.833  35.310  1.00  0.00    -0.167 F 
ATOM     22  F   UNL A   1      34.033  33.432  33.888  1.00  0.00    -0.167 F 
ENDBRANCH  16  19
ENDBRANCH   4   6
ENDBRANCH   3   4
ENDBRANCH   2   3
ENDBRANCH   1   2
BRANCH   1  23
ATOM     23  O   UNL A   1      34.457  33.107  27.623  1.00  0.00    -0.458 OA
BRANCH  23  24
ATOM     24  C   UNL A   1      34.278  31.774  27.726  1.00  0.00     0.338 C 
ATOM     25  O   UNL A   1      33.243  31.147  27.570  1.00  0.00    -0.246 OA
BRANCH  24  26
ATOM     26  C   UNL A   1      35.561  31.095  27.944  1.00  0.00     0.060 A 
ATOM     27  C   UNL A   1      35.524  29.770  28.349  1.00  0.00     0.016 A 
ATOM     28  C   UNL A   1      36.750  31.812  28.014  1.00  0.00     0.016 A 
ATOM     29  C   UNL A   1      36.601  29.220  29.027  1.00  0.00     0.010 A 
ATOM     30  C   UNL A   1      37.896  31.185  28.519  1.00  0.00     0.010 A 
ATOM     31  C   UNL A   1      37.822  29.900  29.088  1.00  0.00    -0.014 A 
BRANCH  31  32
ATOM     32  C   UNL A   1      38.996  29.262  29.749  1.00  0.00     0.031 A 
ATOM     33  C   UNL A   1      39.399  29.662  31.147  1.00  0.00     0.074 A 
ATOM     34  C   UNL A   1      39.692  28.301  29.103  1.00  0.00     0.049 A 
ATOM     35  N   UNL A   1      40.483  29.349  31.812  1.00  0.00    -0.248 NA
ATOM     36  C   UNL A   1      38.476  30.537  31.892  1.00  0.00     0.031 C 
ATOM     37  C   UNL A   1      39.376  27.764  27.775  1.00  0.00     0.029 A 
ATOM     38  N   UNL A   1      40.803  27.589  29.481  1.00  0.00    -0.354 N 
ATOM     39  C   UNL A   1      40.394  30.022  33.026  1.00  0.00     0.074 A 
ATOM     40  C   UNL A   1      39.163  30.780  33.000  1.00  0.00     0.031 C 
ATOM     41  C   UNL A   1      40.226  26.772  27.480  1.00  0.00     0.029 A 
ATOM     42  C   UNL A   1      41.227  26.687  28.532  1.00  0.00     0.049 A 
ATOM     43  H   UNL A   1      41.255  27.712  30.346  1.00  0.00     0.167 HD
ATOM     44  C   UNL A   1      41.258  30.002  34.067  1.00  0.00     0.031 A 
ATOM     45  C   UNL A   1      42.326  25.913  28.476  1.00  0.00     0.031 A 
ATOM     46  C   UNL A   1      42.464  29.217  34.098  1.00  0.00     0.049 A 
ATOM     47  C   UNL A   1      43.316  25.989  29.600  1.00  0.00     0.074 A 
ATOM     48  C   UNL A   1      43.407  29.129  35.107  1.00  0.00     0.029 A 
ATOM     49  N   UNL A   1      42.884  28.370  33.083  1.00  0.00    -0.354 N 
ATOM     50  N   UNL A   1      43.241  26.667  30.719  1.00  0.00    -0.248 NA
ATOM     51  C   UNL A   1      44.548  25.204  29.450  1.00  0.00     0.031 C 
ATOM     52  C   UNL A   1      44.429  28.281  34.677  1.00  0.00     0.029 A 
ATOM     53  C   UNL A   1      44.087  27.780  33.432  1.00  0.00     0.049 A 
ATOM     54  H   UNL A   1      42.399  28.213  32.240  1.00  0.00     0.167 HD
ATOM     55  C   UNL A   1      44.403  26.371  31.417  1.00  0.00     0.074 A 
ATOM     56  C   UNL A   1      45.153  25.433  30.607  1.00  0.00     0.031 C 
ATOM     57  C   UNL A   1      44.814  26.841  32.619  1.00  0.00     0.031 A 
BRANCH  44  58
ATOM     58  C   UNL A   1      40.954  30.864  35.264  1.00  0.00    -0.014 A 
ATOM     59  C   UNL A   1      41.867  31.824  35.725  1.00  0.00     0.009 A 
ATOM     60  C   UNL A   1      39.693  30.779  35.877  1.00  0.00     0.009 A 
ATOM     61  C   UNL A   1      41.527  32.671  36.782  1.00  0.00     0.001 A 
ATOM     62  C   UNL A   1      39.344  31.648  36.912  1.00  0.00     0.001 A 
ATOM     63  C   UNL A   1      40.263  32.591  37.367  1.00  0.00     0.000 A 
ENDBRANCH  44  58
BRANCH  45  64
ATOM     64  C   UNL A   1      42.570  25.039  27.295  1.00  0.00    -0.014 A 
ATOM     65  C   UNL A   1      42.081  23.725  27.269  1.00  0.00     0.009 A 
ATOM     66  C   UNL A   1      43.288  25.514  26.184  1.00  0.00     0.009 A 
ATOM     67  C   UNL A   1      42.324  22.899  26.169  1.00  0.00     0.001 A 
ATOM     68  C   UNL A   1      43.495  24.700  25.068  1.00  0.00     0.001 A 
ATOM     69  C   UNL A   1      43.024  23.389  25.067  1.00  0.00     0.000 A 
ENDBRANCH  45  64
BRANCH  57  70
ATOM     70  C   UNL A   1      46.118  26.321  33.155  1.00  0.00    -0.014 A 
ATOM     71  C   UNL A   1      46.173  25.139  33.910  1.00  0.00     0.009 A 
ATOM     72  C   UNL A   1      47.313  26.984  32.836  1.00  0.00     0.009 A 
ATOM     73  C   UNL A   1      47.401  24.645  34.354  1.00  0.00     0.001 A 
ATOM     74  C   UNL A   1      48.541  26.468  33.250  1.00  0.00     0.001 A 
ATOM     75  C   UNL A   1      48.583  25.304  34.015  1.00  0.00     0.000 A 
ENDBRANCH  57  70
ENDBRANCH  31  32
ENDBRANCH  24  26
ENDBRANCH  23  24
ENDBRANCH   1  23
TORSDOF 13
ENDMDL
MODEL 3
REMARK VINA RESULT:      -9.6      4.744      9.518
REMARK SMILES C#Cc1cc(Cl)cc2c1O[C@H](C(F)(F)F)C(C(=O)OCCOC(=O)c1ccc(-c3c4nc(c(-c5ccccc5)c5ccc([nH]5)c(-c5ccccc5)c5nc(c(-c6ccccc6)c6ccc3[nH]6)C=C5)C=C4)cc1)=C2
REMARK SMILES IDX 21 1 20 2 19 3 17 4 18 5 16 6 3 7 4 8 9 9 5 10 8 11 10 12
REMARK SMILES IDX 6 13 7 14 73 15 11 16 2 17 1 18 12 19 13 20 14 21 15 22
REMARK SMILES IDX 22 23 23 24 24 25 25 26 26 27 72 28 27 29 71 30 28 31 29 32
REMARK SMILES IDX 30 33 65 34 31 35 70 36 64 37 66 38 32 39 69 40 63 41 62 42
REMARK SMILES IDX 33 44 55 45 40 46 54 47 41 48 44 49 53 50 67 51 42 52 43 53
REMARK SMILES IDX 52 55 68 56 45 57 34 58 35 59 39 60 36 61 38 62 37 63 56 64
REMARK SMILES IDX 57 65 61 66 58 67 60 68 59 69 46 70 47 71 51 72 48 73 50 74
REMARK SMILES IDX 49 75
REMARK H PARENT 66 43 44 54
REMARK Flexibility Score: inf
ROOT
ATOM      1  C   UNL A   1      36.424  20.677  24.998  1.00  0.00     0.275 C 
ENDROOT
BRANCH   1   2
ATOM      2  C   UNL A   1      35.045  21.343  25.001  1.00  0.00     0.275 C 
BRANCH   2   3
ATOM      3  O   UNL A   1      35.155  22.783  24.945  1.00  0.00    -0.459 OA
BRANCH   3   4
ATOM      4  C   UNL A   1      34.960  23.336  23.728  1.00  0.00     0.338 C 
ATOM      5  O   UNL A   1      35.417  22.937  22.668  1.00  0.00    -0.246 OA
BRANCH   4   6
ATOM      6  C   UNL A   1      34.086  24.522  23.820  1.00  0.00     0.087 C 
ATOM      7  C   UNL A   1      31.342  27.609  24.513  1.00  0.00     0.068 A 
ATOM      8  C   UNL A   1      31.588  28.523  25.547  1.00  0.00     0.041 A 
ATOM      9  C   UNL A   1      32.275  26.603  24.220  1.00  0.00     0.143 A 
ATOM     10  C   UNL A   1      32.772  28.447  26.274  1.00  0.00     0.043 A 
ATOM     11  C   UNL A   1      33.452  26.536  24.964  1.00  0.00     0.020 A 
ATOM     12  O   UNL A   1      31.998  25.732  23.198  1.00  0.00    -0.474 OA
ATOM     13  Cl  UNL A   1      33.074  29.560  27.550  1.00  0.00    -0.084 Cl
ATOM     14  C   UNL A   1      33.710  27.463  25.984  1.00  0.00     0.032 A 
ATOM     15  C   UNL A   1      34.395  25.467  24.712  1.00  0.00     0.027 C 
ATOM     16  C   UNL A   1      32.807  24.532  23.038  1.00  0.00     0.316 C 
BRANCH   7  17
ATOM     17  C   UNL A   1      30.116  27.712  23.783  1.00  0.00    -0.067 C 
ATOM     18  C   UNL A   1      29.083  27.806  23.174  1.00  0.00     0.010 C 
ENDBRANCH   7  17
BRANCH  16  19
ATOM     19  C   UNL A   1      31.952  23.298  23.368  1.00  0.00     0.430 C 
ATOM     20  F   UNL A   1      32.062  22.952  24.672  1.00  0.00    -0.167 F 
ATOM     21  F   UNL A   1      30.636  23.531  23.141  1.00  0.00    -0.167 F 
ATOM     22  F   UNL A   1      32.305  22.223  22.627  1.00  0.00    -0.167 F 
ENDBRANCH  16  19
ENDBRANCH   4   6
ENDBRANCH   3   4
ENDBRANCH   2   3
ENDBRANCH   1   2
BRANCH   1  23
ATOM     23  O   UNL A   1      37.474  21.661  25.022  1.00  0.00    -0.458 OA
BRANCH  23  24
ATOM     24  C   UNL A   1      38.567  21.296  25.724  1.00  0.00     0.338 C 
ATOM     25  O   UNL A   1      39.141  20.219  25.704  1.00  0.00    -0.246 OA
BRANCH  24  26
ATOM     26  C   UNL A   1      39.103  22.437  26.476  1.00  0.00     0.060 A 
ATOM     27  C   UNL A   1      38.566  23.688  26.215  1.00  0.00     0.016 A 
ATOM     28  C   UNL A   1      40.279  22.323  27.209  1.00  0.00     0.016 A 
ATOM     29  C   UNL A   1      39.301  24.831  26.487  1.00  0.00     0.010 A 
ATOM     30  C   UNL A   1      40.919  23.486  27.657  1.00  0.00     0.010 A 
ATOM     31  C   UNL A   1      40.471  24.756  27.250  1.00  0.00    -0.014 A 
BRANCH  31  32
ATOM     32  C   UNL A   1      41.208  26.003  27.604  1.00  0.00     0.031 A 
ATOM     33  C   UNL A   1      40.599  27.009  28.550  1.00  0.00     0.074 A 
ATOM     34  C   UNL A   1      42.439  26.225  27.095  1.00  0.00     0.049 A 
ATOM     35  N   UNL A   1      41.007  28.220  28.836  1.00  0.00    -0.248 NA
ATOM     36  C   UNL A   1      39.368  26.614  29.256  1.00  0.00     0.031 C 
ATOM     37  C   UNL A   1      43.181  25.308  26.223  1.00  0.00     0.029 A 
ATOM     38  N   UNL A   1      43.297  27.287  27.249  1.00  0.00    -0.354 N 
ATOM     39  C   UNL A   1      40.062  28.743  29.713  1.00  0.00     0.074 A 
ATOM     40  C   UNL A   1      39.047  27.730  29.895  1.00  0.00     0.031 C 
ATOM     41  C   UNL A   1      44.396  25.814  25.974  1.00  0.00     0.029 A 
ATOM     42  C   UNL A   1      44.476  27.145  26.555  1.00  0.00     0.049 A 
ATOM     43  H   UNL A   1      43.087  28.074  27.801  1.00  0.00     0.167 HD
ATOM     44  C   UNL A   1      40.049  29.956  30.314  1.00  0.00     0.031 A 
ATOM     45  C   UNL A   1      45.493  28.003  26.355  1.00  0.00     0.031 A 
ATOM     46  C   UNL A   1      41.082  30.945  30.154  1.00  0.00     0.049 A 
ATOM     47  C   UNL A   1      45.402  29.376  26.952  1.00  0.00     0.074 A 
ATOM     48  C   UNL A   1      41.161  32.206  30.720  1.00  0.00     0.029 A 
ATOM     49  N   UNL A   1      42.225  30.779  29.387  1.00  0.00    -0.354 N 
ATOM     50  N   UNL A   1      44.479  29.872  27.739  1.00  0.00    -0.248 NA
ATOM     51  C   UNL A   1      46.485  30.312  26.624  1.00  0.00     0.031 C 
ATOM     52  C   UNL A   1      42.317  32.827  30.245  1.00  0.00     0.029 A 
ATOM     53  C   UNL A   1      42.999  31.926  29.443  1.00  0.00     0.049 A 
ATOM     54  H   UNL A   1      42.453  29.967  28.878  1.00  0.00     0.167 HD
ATOM     55  C   UNL A   1      44.883  31.170  28.021  1.00  0.00     0.074 A 
ATOM     56  C   UNL A   1      46.146  31.374  27.341  1.00  0.00     0.031 C 
ATOM     57  C   UNL A   1      44.258  32.109  28.769  1.00  0.00     0.031 A 
BRANCH  44  58
ATOM     58  C   UNL A   1      38.878  30.305  31.194  1.00  0.00    -0.014 A 
ATOM     59  C   UNL A   1      38.911  30.083  32.579  1.00  0.00     0.009 A 
ATOM     60  C   UNL A   1      37.765  30.958  30.639  1.00  0.00     0.009 A 
ATOM     61  C   UNL A   1      37.848  30.495  33.386  1.00  0.00     0.001 A 
ATOM     62  C   UNL A   1      36.718  31.397  31.452  1.00  0.00     0.001 A 
ATOM     63  C   UNL A   1      36.759  31.162  32.825  1.00  0.00     0.000 A 
ENDBRANCH  44  58
BRANCH  45  64
ATOM     64  C   UNL A   1      46.657  27.606  25.515  1.00  0.00    -0.014 A 
ATOM     65  C   UNL A   1      46.680  27.905  24.144  1.00  0.00     0.009 A 
ATOM     66  C   UNL A   1      47.753  26.930  26.077  1.00  0.00     0.009 A 
ATOM     67  C   UNL A   1      47.762  27.517  23.352  1.00  0.00     0.001 A 
ATOM     68  C   UNL A   1      48.854  26.579  25.291  1.00  0.00     0.001 A 
ATOM     69  C   UNL A   1      48.851  26.862  23.927  1.00  0.00     0.000 A 
ENDBRANCH  45  64
BRANCH  57  70
ATOM     70  C   UNL A   1      44.945  33.435  28.930  1.00  0.00    -0.014 A 
ATOM     71  C   UNL A   1      45.890  33.646  29.947  1.00  0.00     0.009 A 
ATOM     72  C   UNL A   1      44.699  34.461  28.005  1.00  0.00     0.009 A 
ATOM     73  C   UNL A   1      46.556  34.868  30.046  1.00  0.00     0.001 A 
ATOM     74  C   UNL A   1      45.393  35.669  28.084  1.00  0.00     0.001 A 
ATOM     75  C   UNL A   1      46.315  35.873  29.109  1.00  0.00     0.000 A 
ENDBRANCH  57  70
ENDBRANCH  31  32
ENDBRANCH  24  26
ENDBRANCH  23  24
ENDBRANCH   1  23
TORSDOF 13
ENDMDL
