MODEL 1
REMARK VINA RESULT:     -12.5      0.000      0.000
REMARK SMILES COc1ccc([C@H]2CC(c3ccc(S(C)(=O)=O)cc3)=NN2c2ccc(C(=O)OCCOC(=O)c3ccc(-c4c5nc(c(-c6ccccc6)c6ccc([nH]6)c(-c6ccccc6)c6nc(c(-c7ccccc7)c7ccc4[nH]7)C=C6)C=C5)cc3)cc2)cc1
REMARK SMILES IDX 29 1 28 2 26 3 27 4 25 5 22 6 23 7 83 8 24 9 82 10 21 11
REMARK SMILES IDX 7 12 8 13 9 14 20 15 6 16 3 17 4 18 85 19 5 20 84 21 2 22
REMARK SMILES IDX 1 23 10 24 11 25 19 26 12 27 18 28 13 29 14 30 15 31 16 32
REMARK SMILES IDX 17 33 30 34 31 35 32 36 33 37 34 38 35 39 81 40 36 41 80 42
REMARK SMILES IDX 37 43 38 44 39 45 74 46 40 47 79 48 73 49 75 50 41 51 78 52
REMARK SMILES IDX 72 53 71 54 42 56 64 57 49 58 63 59 50 60 53 61 62 62 76 63
REMARK SMILES IDX 51 64 52 65 61 67 77 68 54 69 43 70 44 71 48 72 45 73 47 74
REMARK SMILES IDX 46 75 65 76 66 77 70 78 67 79 69 80 68 81 55 82 56 83 60 84
REMARK SMILES IDX 57 85 59 86 58 87
REMARK H PARENT 75 55 53 66
REMARK Flexibility Score: inf
ROOT
ATOM      1  C   UNL A   1      40.358  20.937  26.529  1.00  0.00     0.275 C 
ENDROOT
BRANCH   1   2
ATOM      2  O   UNL A   1      39.263  21.483  25.763  1.00  0.00    -0.458 OA
BRANCH   2   3
ATOM      3  C   UNL A   1      38.781  22.666  26.213  1.00  0.00     0.338 C 
ATOM      4  O   UNL A   1      39.257  23.354  27.104  1.00  0.00    -0.246 OA
BRANCH   3   5
ATOM      5  C   UNL A   1      37.601  23.096  25.437  1.00  0.00     0.060 A 
ATOM      6  C   UNL A   1      35.147  23.732  24.201  1.00  0.00     0.060 A 
ATOM      7  C   UNL A   1      35.538  24.364  25.380  1.00  0.00     0.029 A 
ATOM      8  C   UNL A   1      36.037  22.815  23.619  1.00  0.00     0.029 A 
ATOM      9  C   UNL A   1      36.728  24.023  26.011  1.00  0.00     0.018 A 
ATOM     10  C   UNL A   1      37.270  22.509  24.217  1.00  0.00     0.018 A 
BRANCH   6  11
ATOM     11  N   UNL A   1      33.896  24.005  23.672  1.00  0.00    -0.257 N 
ATOM     12  C   UNL A   1      33.066  23.045  22.947  1.00  0.00     0.144 C 
ATOM     13  C   UNL A   1      31.764  23.827  22.721  1.00  0.00     0.091 C 
ATOM     14  C   UNL A   1      32.108  25.122  23.401  1.00  0.00     0.071 C 
ATOM     15  N   UNL A   1      33.283  25.192  23.936  1.00  0.00    -0.176 NA
BRANCH  12  16
ATOM     16  C   UNL A   1      32.845  21.747  23.714  1.00  0.00    -0.023 A 
ATOM     17  C   UNL A   1      32.547  19.349  25.180  1.00  0.00     0.118 A 
ATOM     18  C   UNL A   1      32.841  20.546  25.832  1.00  0.00     0.047 A 
ATOM     19  C   UNL A   1      32.347  19.355  23.801  1.00  0.00     0.047 A 
ATOM     20  C   UNL A   1      32.997  21.732  25.109  1.00  0.00     0.010 A 
ATOM     21  C   UNL A   1      32.485  20.547  23.076  1.00  0.00     0.010 A 
BRANCH  17  22
ATOM     22  O   UNL A   1      32.435  18.253  25.991  1.00  0.00    -0.497 OA
ATOM     23  C   UNL A   1      32.922  17.033  25.445  1.00  0.00     0.278 C 
ENDBRANCH  17  22
ENDBRANCH  12  16
BRANCH  14  24
ATOM     24  C   UNL A   1      31.176  26.255  23.378  1.00  0.00    -0.002 A 
ATOM     25  C   UNL A   1      31.667  27.506  22.985  1.00  0.00     0.011 A 
ATOM     26  C   UNL A   1      29.828  26.082  23.698  1.00  0.00     0.011 A 
ATOM     27  C   UNL A   1      30.794  28.588  22.873  1.00  0.00     0.021 A 
ATOM     28  C   UNL A   1      28.957  27.171  23.613  1.00  0.00     0.021 A 
ATOM     29  C   UNL A   1      29.443  28.414  23.191  1.00  0.00     0.067 A 
BRANCH  29  30
ATOM     30  S   UNL A   1      28.325  29.782  22.987  1.00  0.00     0.175 S 
ATOM     31  C   UNL A   1      28.508  30.256  21.289  1.00  0.00     0.163 C 
ATOM     32  O   UNL A   1      26.987  29.256  23.176  1.00  0.00    -0.224 OA
ATOM     33  O   UNL A   1      28.819  30.877  23.803  1.00  0.00    -0.224 OA
ENDBRANCH  29  30
ENDBRANCH  14  24
ENDBRANCH   6  11
ENDBRANCH   3   5
ENDBRANCH   2   3
ENDBRANCH   1   2
BRANCH   1  34
ATOM     34  C   UNL A   1      41.638  20.832  25.699  1.00  0.00     0.275 C 
BRANCH  34  35
ATOM     35  O   UNL A   1      42.689  21.626  26.281  1.00  0.00    -0.458 OA
BRANCH  35  36
ATOM     36  C   UNL A   1      42.890  22.830  25.704  1.00  0.00     0.338 C 
ATOM     37  O   UNL A   1      43.009  23.077  24.515  1.00  0.00    -0.246 OA
BRANCH  36  38
ATOM     38  C   UNL A   1      42.911  23.892  26.723  1.00  0.00     0.060 A 
ATOM     39  C   UNL A   1      42.526  23.579  28.019  1.00  0.00     0.016 A 
ATOM     40  C   UNL A   1      43.099  25.222  26.358  1.00  0.00     0.016 A 
ATOM     41  C   UNL A   1      42.148  24.588  28.899  1.00  0.00     0.010 A 
ATOM     42  C   UNL A   1      42.879  26.234  27.301  1.00  0.00     0.010 A 
ATOM     43  C   UNL A   1      42.342  25.936  28.568  1.00  0.00    -0.014 A 
BRANCH  43  44
ATOM     44  C   UNL A   1      41.977  27.016  29.534  1.00  0.00     0.031 A 
ATOM     45  C   UNL A   1      42.811  27.267  30.767  1.00  0.00     0.074 A 
ATOM     46  C   UNL A   1      40.888  27.786  29.317  1.00  0.00     0.049 A 
ATOM     47  N   UNL A   1      42.551  28.025  31.805  1.00  0.00    -0.248 NA
ATOM     48  C   UNL A   1      44.096  26.554  30.859  1.00  0.00     0.031 C 
ATOM     49  C   UNL A   1      39.998  27.693  28.157  1.00  0.00     0.029 A 
ATOM     50  N   UNL A   1      40.346  28.803  30.065  1.00  0.00    -0.354 N 
ATOM     51  C   UNL A   1      43.594  27.820  32.700  1.00  0.00     0.074 A 
ATOM     52  C   UNL A   1      44.493  26.867  32.084  1.00  0.00     0.031 C 
ATOM     53  C   UNL A   1      39.055  28.640  28.245  1.00  0.00     0.029 A 
ATOM     54  C   UNL A   1      39.201  29.332  29.518  1.00  0.00     0.049 A 
ATOM     55  H   UNL A   1      40.738  29.122  30.909  1.00  0.00     0.167 HD
ATOM     56  C   UNL A   1      43.785  28.368  33.926  1.00  0.00     0.031 A 
ATOM     57  C   UNL A   1      38.323  30.232  30.000  1.00  0.00     0.031 A 
ATOM     58  C   UNL A   1      42.918  29.356  34.516  1.00  0.00     0.049 A 
ATOM     59  C   UNL A   1      38.540  30.813  31.363  1.00  0.00     0.074 A 
ATOM     60  C   UNL A   1      43.053  30.005  35.732  1.00  0.00     0.029 A 
ATOM     61  N   UNL A   1      41.760  29.844  33.931  1.00  0.00    -0.354 N 
ATOM     62  N   UNL A   1      39.516  30.587  32.208  1.00  0.00    -0.248 NA
ATOM     63  C   UNL A   1      37.528  31.762  31.845  1.00  0.00     0.031 C 
ATOM     64  C   UNL A   1      41.947  30.846  35.906  1.00  0.00     0.029 A 
ATOM     65  C   UNL A   1      41.155  30.765  34.772  1.00  0.00     0.049 A 
ATOM     66  H   UNL A   1      41.417  29.576  33.048  1.00  0.00     0.167 HD
ATOM     67  C   UNL A   1      39.239  31.369  33.320  1.00  0.00     0.074 A 
ATOM     68  C   UNL A   1      38.020  32.095  33.030  1.00  0.00     0.031 C 
ATOM     69  C   UNL A   1      39.934  31.470  34.480  1.00  0.00     0.031 A 
BRANCH  56  70
ATOM     70  C   UNL A   1      44.948  27.866  34.741  1.00  0.00    -0.014 A 
ATOM     71  C   UNL A   1      46.216  28.464  34.681  1.00  0.00     0.009 A 
ATOM     72  C   UNL A   1      44.756  26.776  35.608  1.00  0.00     0.009 A 
ATOM     73  C   UNL A   1      47.276  27.951  35.434  1.00  0.00     0.001 A 
ATOM     74  C   UNL A   1      45.808  26.287  36.383  1.00  0.00     0.001 A 
ATOM     75  C   UNL A   1      47.071  26.867  36.286  1.00  0.00     0.000 A 
ENDBRANCH  56  70
BRANCH  57  76
ATOM     76  C   UNL A   1      37.120  30.577  29.197  1.00  0.00    -0.014 A 
ATOM     77  C   UNL A   1      36.943  31.871  28.687  1.00  0.00     0.009 A 
ATOM     78  C   UNL A   1      36.165  29.591  28.895  1.00  0.00     0.009 A 
ATOM     79  C   UNL A   1      35.832  32.170  27.895  1.00  0.00     0.001 A 
ATOM     80  C   UNL A   1      35.074  29.885  28.076  1.00  0.00     0.001 A 
ATOM     81  C   UNL A   1      34.905  31.176  27.581  1.00  0.00     0.000 A 
ENDBRANCH  57  76
BRANCH  69  82
ATOM     82  C   UNL A   1      39.399  32.422  35.512  1.00  0.00    -0.014 A 
ATOM     83  C   UNL A   1      38.483  31.997  36.487  1.00  0.00     0.009 A 
ATOM     84  C   UNL A   1      39.836  33.755  35.522  1.00  0.00     0.009 A 
ATOM     85  C   UNL A   1      37.990  32.900  37.431  1.00  0.00     0.001 A 
ATOM     86  C   UNL A   1      39.364  34.648  36.484  1.00  0.00     0.001 A 
ATOM     87  C   UNL A   1      38.434  34.223  37.432  1.00  0.00     0.000 A 
ENDBRANCH  69  82
ENDBRANCH  43  44
ENDBRANCH  36  38
ENDBRANCH  35  36
ENDBRANCH  34  35
ENDBRANCH   1  34
TORSDOF 16
ENDMDL
MODEL 2
REMARK VINA RESULT:     -12.4      1.618      6.045
REMARK SMILES COc1ccc([C@H]2CC(c3ccc(S(C)(=O)=O)cc3)=NN2c2ccc(C(=O)OCCOC(=O)c3ccc(-c4c5nc(c(-c6ccccc6)c6ccc([nH]6)c(-c6ccccc6)c6nc(c(-c7ccccc7)c7ccc4[nH]7)C=C6)C=C5)cc3)cc2)cc1
REMARK SMILES IDX 29 1 28 2 26 3 27 4 25 5 22 6 23 7 83 8 24 9 82 10 21 11
REMARK SMILES IDX 7 12 8 13 9 14 20 15 6 16 3 17 4 18 85 19 5 20 84 21 2 22
REMARK SMILES IDX 1 23 10 24 11 25 19 26 12 27 18 28 13 29 14 30 15 31 16 32
REMARK SMILES IDX 17 33 30 34 31 35 32 36 33 37 34 38 35 39 81 40 36 41 80 42
REMARK SMILES IDX 37 43 38 44 39 45 74 46 40 47 79 48 73 49 75 50 41 51 78 52
REMARK SMILES IDX 72 53 71 54 42 56 64 57 49 58 63 59 50 60 53 61 62 62 76 63
REMARK SMILES IDX 51 64 52 65 61 67 77 68 54 69 43 70 44 71 48 72 45 73 47 74
REMARK SMILES IDX 46 75 65 76 66 77 70 78 67 79 69 80 68 81 55 82 56 83 60 84
REMARK SMILES IDX 57 85 59 86 58 87
REMARK H PARENT 75 55 53 66
REMARK Flexibility Score: inf
ROOT
ATOM      1  C   UNL A   1      40.643  23.013  27.134  1.00  0.00     0.275 C 
ENDROOT
BRANCH   1   2
ATOM      2  O   UNL A   1      39.262  23.264  26.793  1.00  0.00    -0.458 OA
BRANCH   2   3
ATOM      3  C   UNL A   1      38.647  22.265  26.115  1.00  0.00     0.338 C 
ATOM      4  O   UNL A   1      38.943  21.080  26.138  1.00  0.00    -0.246 OA
BRANCH   3   5
ATOM      5  C   UNL A   1      37.481  22.766  25.359  1.00  0.00     0.060 A 
ATOM      6  C   UNL A   1      35.060  23.470  24.097  1.00  0.00     0.060 A 
ATOM      7  C   UNL A   1      35.316  23.849  25.414  1.00  0.00     0.029 A 
ATOM      8  C   UNL A   1      36.067  22.779  23.402  1.00  0.00     0.029 A 
ATOM      9  C   UNL A   1      36.492  23.469  26.049  1.00  0.00     0.018 A 
ATOM     10  C   UNL A   1      37.284  22.445  24.017  1.00  0.00     0.018 A 
BRANCH   6  11
ATOM     11  N   UNL A   1      33.823  23.757  23.541  1.00  0.00    -0.257 N 
ATOM     12  C   UNL A   1      33.003  22.807  22.791  1.00  0.00     0.144 C 
ATOM     13  C   UNL A   1      31.713  23.602  22.540  1.00  0.00     0.091 C 
ATOM     14  C   UNL A   1      32.052  24.890  23.235  1.00  0.00     0.071 C 
ATOM     15  N   UNL A   1      33.215  24.947  23.797  1.00  0.00    -0.176 NA
BRANCH  12  16
ATOM     16  C   UNL A   1      32.753  21.507  23.546  1.00  0.00    -0.023 A 
ATOM     17  C   UNL A   1      32.398  19.110  25.000  1.00  0.00     0.118 A 
ATOM     18  C   UNL A   1      32.586  20.320  25.666  1.00  0.00     0.047 A 
ATOM     19  C   UNL A   1      32.330  19.100  23.608  1.00  0.00     0.047 A 
ATOM     20  C   UNL A   1      32.771  21.506  24.949  1.00  0.00     0.010 A 
ATOM     21  C   UNL A   1      32.497  20.292  22.888  1.00  0.00     0.010 A 
BRANCH  17  22
ATOM     22  O   UNL A   1      32.245  18.016  25.807  1.00  0.00    -0.497 OA
ATOM     23  C   UNL A   1      32.770  16.797  25.294  1.00  0.00     0.278 C 
ENDBRANCH  17  22
ENDBRANCH  12  16
BRANCH  14  24
ATOM     24  C   UNL A   1      31.130  26.031  23.196  1.00  0.00    -0.002 A 
ATOM     25  C   UNL A   1      31.561  27.207  22.571  1.00  0.00     0.011 A 
ATOM     26  C   UNL A   1      29.845  25.933  23.732  1.00  0.00     0.011 A 
ATOM     27  C   UNL A   1      30.685  28.284  22.443  1.00  0.00     0.021 A 
ATOM     28  C   UNL A   1      28.974  27.021  23.630  1.00  0.00     0.021 A 
ATOM     29  C   UNL A   1      29.396  28.185  22.977  1.00  0.00     0.067 A 
BRANCH  29  30
ATOM     30  S   UNL A   1      28.264  29.539  22.757  1.00  0.00     0.175 S 
ATOM     31  C   UNL A   1      29.038  30.904  23.582  1.00  0.00     0.163 C 
ATOM     32  O   UNL A   1      28.227  29.823  21.336  1.00  0.00    -0.224 OA
ATOM     33  O   UNL A   1      27.050  29.219  23.486  1.00  0.00    -0.224 OA
ENDBRANCH  29  30
ENDBRANCH  14  24
ENDBRANCH   6  11
ENDBRANCH   3   5
ENDBRANCH   2   3
ENDBRANCH   1   2
BRANCH   1  34
ATOM     34  C   UNL A   1      41.593  23.953  26.390  1.00  0.00     0.275 C 
BRANCH  34  35
ATOM     35  O   UNL A   1      40.857  24.989  25.713  1.00  0.00    -0.458 OA
BRANCH  35  36
ATOM     36  C   UNL A   1      41.451  26.202  25.695  1.00  0.00     0.338 C 
ATOM     37  O   UNL A   1      42.308  26.600  24.923  1.00  0.00    -0.246 OA
BRANCH  36  38
ATOM     38  C   UNL A   1      40.892  27.064  26.748  1.00  0.00     0.060 A 
ATOM     39  C   UNL A   1      41.400  28.347  26.897  1.00  0.00     0.016 A 
ATOM     40  C   UNL A   1      40.035  26.542  27.712  1.00  0.00     0.016 A 
ATOM     41  C   UNL A   1      41.207  29.040  28.088  1.00  0.00     0.010 A 
ATOM     42  C   UNL A   1      39.707  27.313  28.834  1.00  0.00     0.010 A 
ATOM     43  C   UNL A   1      40.335  28.550  29.069  1.00  0.00    -0.014 A 
BRANCH  43  44
ATOM     44  C   UNL A   1      40.096  29.320  30.327  1.00  0.00     0.031 A 
ATOM     45  C   UNL A   1      38.967  30.318  30.422  1.00  0.00     0.074 A 
ATOM     46  C   UNL A   1      40.892  29.134  31.402  1.00  0.00     0.049 A 
ATOM     47  N   UNL A   1      38.720  31.206  31.354  1.00  0.00    -0.248 NA
ATOM     48  C   UNL A   1      38.001  30.338  29.311  1.00  0.00     0.031 C 
ATOM     49  C   UNL A   1      42.005  28.184  31.484  1.00  0.00     0.029 A 
ATOM     50  N   UNL A   1      40.886  29.737  32.637  1.00  0.00    -0.354 N 
ATOM     51  C   UNL A   1      37.625  31.936  30.907  1.00  0.00     0.074 A 
ATOM     52  C   UNL A   1      37.254  31.388  29.620  1.00  0.00     0.031 C 
ATOM     53  C   UNL A   1      42.539  28.232  32.711  1.00  0.00     0.029 A 
ATOM     54  C   UNL A   1      41.887  29.292  33.467  1.00  0.00     0.049 A 
ATOM     55  H   UNL A   1      40.228  30.420  32.903  1.00  0.00     0.167 HD
ATOM     56  C   UNL A   1      36.991  32.974  31.508  1.00  0.00     0.031 A 
ATOM     57  C   UNL A   1      42.288  29.718  34.680  1.00  0.00     0.031 A 
ATOM     58  C   UNL A   1      37.327  33.484  32.813  1.00  0.00     0.049 A 
ATOM     59  C   UNL A   1      41.587  30.876  35.320  1.00  0.00     0.074 A 
ATOM     60  C   UNL A   1      36.713  34.500  33.525  1.00  0.00     0.029 A 
ATOM     61  N   UNL A   1      38.364  33.013  33.604  1.00  0.00    -0.354 N 
ATOM     62  N   UNL A   1      40.572  31.575  34.871  1.00  0.00    -0.248 NA
ATOM     63  C   UNL A   1      42.094  31.315  36.627  1.00  0.00     0.031 C 
ATOM     64  C   UNL A   1      37.412  34.680  34.725  1.00  0.00     0.029 A 
ATOM     65  C   UNL A   1      38.424  33.736  34.785  1.00  0.00     0.049 A 
ATOM     66  H   UNL A   1      38.968  32.274  33.362  1.00  0.00     0.167 HD
ATOM     67  C   UNL A   1      40.316  32.532  35.842  1.00  0.00     0.074 A 
ATOM     68  C   UNL A   1      41.263  32.307  36.915  1.00  0.00     0.031 C 
ATOM     69  C   UNL A   1      39.380  33.513  35.839  1.00  0.00     0.031 A 
BRANCH  56  70
ATOM     70  C   UNL A   1      35.901  33.668  30.733  1.00  0.00    -0.014 A 
ATOM     71  C   UNL A   1      34.659  33.979  31.305  1.00  0.00     0.009 A 
ATOM     72  C   UNL A   1      36.142  34.037  29.398  1.00  0.00     0.009 A 
ATOM     73  C   UNL A   1      33.665  34.601  30.543  1.00  0.00     0.001 A 
ATOM     74  C   UNL A   1      35.159  34.687  28.649  1.00  0.00     0.001 A 
ATOM     75  C   UNL A   1      33.917  34.957  29.219  1.00  0.00     0.000 A 
ENDBRANCH  56  70
BRANCH  57  76
ATOM     76  C   UNL A   1      43.462  29.074  35.327  1.00  0.00    -0.014 A 
ATOM     77  C   UNL A   1      44.760  29.553  35.100  1.00  0.00     0.009 A 
ATOM     78  C   UNL A   1      43.279  28.002  36.218  1.00  0.00     0.009 A 
ATOM     79  C   UNL A   1      45.850  28.968  35.750  1.00  0.00     0.001 A 
ATOM     80  C   UNL A   1      44.366  27.443  36.890  1.00  0.00     0.001 A 
ATOM     81  C   UNL A   1      45.652  27.923  36.651  1.00  0.00     0.000 A 
ENDBRANCH  57  76
BRANCH  69  82
ATOM     82  C   UNL A   1      39.323  34.402  37.049  1.00  0.00    -0.014 A 
ATOM     83  C   UNL A   1      39.856  35.700  37.023  1.00  0.00     0.009 A 
ATOM     84  C   UNL A   1      38.708  33.941  38.222  1.00  0.00     0.009 A 
ATOM     85  C   UNL A   1      39.802  36.507  38.162  1.00  0.00     0.001 A 
ATOM     86  C   UNL A   1      38.630  34.759  39.350  1.00  0.00     0.001 A 
ATOM     87  C   UNL A   1      39.185  36.038  39.322  1.00  0.00     0.000 A 
ENDBRANCH  69  82
ENDBRANCH  43  44
ENDBRANCH  36  38
ENDBRANCH  35  36
ENDBRANCH  34  35
ENDBRANCH   1  34
TORSDOF 16
ENDMDL
MODEL 3
REMARK VINA RESULT:     -12.3      3.264      4.126
REMARK SMILES COc1ccc([C@H]2CC(c3ccc(S(C)(=O)=O)cc3)=NN2c2ccc(C(=O)OCCOC(=O)c3ccc(-c4c5nc(c(-c6ccccc6)c6ccc([nH]6)c(-c6ccccc6)c6nc(c(-c7ccccc7)c7ccc4[nH]7)C=C6)C=C5)cc3)cc2)cc1
REMARK SMILES IDX 29 1 28 2 26 3 27 4 25 5 22 6 23 7 83 8 24 9 82 10 21 11
REMARK SMILES IDX 7 12 8 13 9 14 20 15 6 16 3 17 4 18 85 19 5 20 84 21 2 22
REMARK SMILES IDX 1 23 10 24 11 25 19 26 12 27 18 28 13 29 14 30 15 31 16 32
REMARK SMILES IDX 17 33 30 34 31 35 32 36 33 37 34 38 35 39 81 40 36 41 80 42
REMARK SMILES IDX 37 43 38 44 39 45 74 46 40 47 79 48 73 49 75 50 41 51 78 52
REMARK SMILES IDX 72 53 71 54 42 56 64 57 49 58 63 59 50 60 53 61 62 62 76 63
REMARK SMILES IDX 51 64 52 65 61 67 77 68 54 69 43 70 44 71 48 72 45 73 47 74
REMARK SMILES IDX 46 75 65 76 66 77 70 78 67 79 69 80 68 81 55 82 56 83 60 84
REMARK SMILES IDX 57 85 59 86 58 87
REMARK H PARENT 75 55 53 66
REMARK Flexibility Score: inf
ROOT
ATOM      1  C   UNL A   1      40.070  20.777  26.678  1.00  0.00     0.275 C 
ENDROOT
BRANCH   1   2
ATOM      2  O   UNL A   1      39.140  21.410  25.774  1.00  0.00    -0.458 OA
BRANCH   2   3
ATOM      3  C   UNL A   1      38.762  22.663  26.123  1.00  0.00     0.338 C 
ATOM      4  O   UNL A   1      39.329  23.400  26.916  1.00  0.00    -0.246 OA
BRANCH   3   5
ATOM      5  C   UNL A   1      37.573  23.098  25.362  1.00  0.00     0.060 A 
ATOM      6  C   UNL A   1      35.113  23.692  24.118  1.00  0.00     0.060 A 
ATOM      7  C   UNL A   1      35.406  24.178  25.392  1.00  0.00     0.029 A 
ATOM      8  C   UNL A   1      36.102  22.948  23.453  1.00  0.00     0.029 A 
ATOM      9  C   UNL A   1      36.601  23.853  26.021  1.00  0.00     0.018 A 
ATOM     10  C   UNL A   1      37.337  22.667  24.058  1.00  0.00     0.018 A 
BRANCH   6  11
ATOM     11  N   UNL A   1      33.860  23.930  23.577  1.00  0.00    -0.257 N 
ATOM     12  C   UNL A   1      33.047  22.935  22.881  1.00  0.00     0.144 C 
ATOM     13  C   UNL A   1      31.735  23.691  22.626  1.00  0.00     0.091 C 
ATOM     14  C   UNL A   1      32.057  25.012  23.264  1.00  0.00     0.071 C 
ATOM     15  N   UNL A   1      33.230  25.116  23.800  1.00  0.00    -0.176 NA
BRANCH  12  16
ATOM     16  C   UNL A   1      32.841  21.660  23.690  1.00  0.00    -0.023 A 
ATOM     17  C   UNL A   1      32.357  19.274  25.126  1.00  0.00     0.118 A 
ATOM     18  C   UNL A   1      32.503  19.248  23.740  1.00  0.00     0.047 A 
ATOM     19  C   UNL A   1      32.507  20.481  25.806  1.00  0.00     0.047 A 
ATOM     20  C   UNL A   1      32.734  20.428  23.026  1.00  0.00     0.010 A 
ATOM     21  C   UNL A   1      32.757  21.662  25.093  1.00  0.00     0.010 A 
BRANCH  17  22
ATOM     22  O   UNL A   1      32.118  18.061  25.711  1.00  0.00    -0.497 OA
ATOM     23  C   UNL A   1      32.558  16.927  24.973  1.00  0.00     0.278 C 
ENDBRANCH  17  22
ENDBRANCH  12  16
BRANCH  14  24
ATOM     24  C   UNL A   1      31.110  26.130  23.201  1.00  0.00    -0.002 A 
ATOM     25  C   UNL A   1      31.507  27.295  22.532  1.00  0.00     0.011 A 
ATOM     26  C   UNL A   1      29.834  26.021  23.755  1.00  0.00     0.011 A 
ATOM     27  C   UNL A   1      30.605  28.348  22.382  1.00  0.00     0.021 A 
ATOM     28  C   UNL A   1      28.937  27.086  23.630  1.00  0.00     0.021 A 
ATOM     29  C   UNL A   1      29.325  28.238  22.935  1.00  0.00     0.067 A 
BRANCH  29  30
ATOM     30  S   UNL A   1      28.160  29.559  22.686  1.00  0.00     0.175 S 
ATOM     31  C   UNL A   1      28.845  30.929  23.578  1.00  0.00     0.163 C 
ATOM     32  O   UNL A   1      28.185  29.873  21.271  1.00  0.00    -0.224 OA
ATOM     33  O   UNL A   1      26.923  29.182  23.345  1.00  0.00    -0.224 OA
ENDBRANCH  29  30
ENDBRANCH  14  24
ENDBRANCH   6  11
ENDBRANCH   3   5
ENDBRANCH   2   3
ENDBRANCH   1   2
BRANCH   1  34
ATOM     34  C   UNL A   1      40.999  19.804  25.951  1.00  0.00     0.275 C 
BRANCH  34  35
ATOM     35  O   UNL A   1      42.345  19.916  26.450  1.00  0.00    -0.458 OA
BRANCH  35  36
ATOM     36  C   UNL A   1      43.127  20.810  25.807  1.00  0.00     0.338 C 
ATOM     37  O   UNL A   1      43.913  20.595  24.899  1.00  0.00    -0.246 OA
BRANCH  36  38
ATOM     38  C   UNL A   1      42.887  22.168  26.322  1.00  0.00     0.060 A 
ATOM     39  C   UNL A   1      42.683  23.198  25.415  1.00  0.00     0.016 A 
ATOM     40  C   UNL A   1      43.078  22.458  27.670  1.00  0.00     0.016 A 
ATOM     41  C   UNL A   1      42.851  24.521  25.811  1.00  0.00     0.010 A 
ATOM     42  C   UNL A   1      43.079  23.793  28.094  1.00  0.00     0.010 A 
ATOM     43  C   UNL A   1      43.025  24.847  27.162  1.00  0.00    -0.014 A 
BRANCH  43  44
ATOM     44  C   UNL A   1      43.160  26.273  27.589  1.00  0.00     0.031 A 
ATOM     45  C   UNL A   1      44.515  26.937  27.655  1.00  0.00     0.074 A 
ATOM     46  C   UNL A   1      42.066  26.991  27.925  1.00  0.00     0.049 A 
ATOM     47  N   UNL A   1      44.847  28.094  28.174  1.00  0.00    -0.248 NA
ATOM     48  C   UNL A   1      45.649  26.193  27.084  1.00  0.00     0.031 C 
ATOM     49  C   UNL A   1      40.684  26.507  27.882  1.00  0.00     0.029 A 
ATOM     50  N   UNL A   1      41.945  28.286  28.368  1.00  0.00    -0.354 N 
ATOM     51  C   UNL A   1      46.230  28.180  28.064  1.00  0.00     0.074 A 
ATOM     52  C   UNL A   1      46.676  26.959  27.427  1.00  0.00     0.031 C 
ATOM     53  C   UNL A   1      39.856  27.499  28.233  1.00  0.00     0.029 A 
ATOM     54  C   UNL A   1      40.648  28.653  28.636  1.00  0.00     0.049 A 
ATOM     55  H   UNL A   1      42.712  28.892  28.482  1.00  0.00     0.167 HD
ATOM     56  C   UNL A   1      47.056  29.179  28.463  1.00  0.00     0.031 A 
ATOM     57  C   UNL A   1      40.139  29.766  29.197  1.00  0.00     0.031 A 
ATOM     58  C   UNL A   1      46.607  30.417  29.048  1.00  0.00     0.049 A 
ATOM     59  C   UNL A   1      41.067  30.851  29.647  1.00  0.00     0.074 A 
ATOM     60  C   UNL A   1      47.363  31.509  29.441  1.00  0.00     0.029 A 
ATOM     61  N   UNL A   1      45.284  30.732  29.318  1.00  0.00    -0.354 N 
ATOM     62  N   UNL A   1      42.375  30.904  29.562  1.00  0.00    -0.248 NA
ATOM     63  C   UNL A   1      40.453  32.023  30.284  1.00  0.00     0.031 C 
ATOM     64  C   UNL A   1      46.502  32.462  29.998  1.00  0.00     0.029 A 
ATOM     65  C   UNL A   1      45.204  31.988  29.897  1.00  0.00     0.049 A 
ATOM     66  H   UNL A   1      44.514  30.148  29.126  1.00  0.00     0.167 HD
ATOM     67  C   UNL A   1      42.740  32.117  30.129  1.00  0.00     0.074 A 
ATOM     68  C   UNL A   1      41.515  32.779  30.529  1.00  0.00     0.031 C 
ATOM     69  C   UNL A   1      43.981  32.631  30.305  1.00  0.00     0.031 A 
BRANCH  56  70
ATOM     70  C   UNL A   1      48.539  28.951  28.333  1.00  0.00    -0.014 A 
ATOM     71  C   UNL A   1      49.253  29.311  27.179  1.00  0.00     0.009 A 
ATOM     72  C   UNL A   1      49.239  28.380  29.409  1.00  0.00     0.009 A 
ATOM     73  C   UNL A   1      50.625  29.059  27.089  1.00  0.00     0.001 A 
ATOM     74  C   UNL A   1      50.615  28.159  29.329  1.00  0.00     0.001 A 
ATOM     75  C   UNL A   1      51.305  28.487  28.164  1.00  0.00     0.000 A 
ENDBRANCH  56  70
BRANCH  57  76
ATOM     76  C   UNL A   1      38.673  29.863  29.421  1.00  0.00    -0.014 A 
ATOM     77  C   UNL A   1      38.088  29.350  30.588  1.00  0.00     0.009 A 
ATOM     78  C   UNL A   1      37.856  30.519  28.483  1.00  0.00     0.009 A 
ATOM     79  C   UNL A   1      36.715  29.489  30.808  1.00  0.00     0.001 A 
ATOM     80  C   UNL A   1      36.491  30.686  28.723  1.00  0.00     0.001 A 
ATOM     81  C   UNL A   1      35.921  30.165  29.882  1.00  0.00     0.000 A 
ENDBRANCH  57  76
BRANCH  69  82
ATOM     82  C   UNL A   1      44.072  33.990  30.940  1.00  0.00    -0.014 A 
ATOM     83  C   UNL A   1      44.001  35.159  30.167  1.00  0.00     0.009 A 
ATOM     84  C   UNL A   1      44.207  34.099  32.332  1.00  0.00     0.009 A 
ATOM     85  C   UNL A   1      44.098  36.412  30.775  1.00  0.00     0.001 A 
ATOM     86  C   UNL A   1      44.275  35.354  32.940  1.00  0.00     0.001 A 
ATOM     87  C   UNL A   1      44.230  36.509  32.160  1.00  0.00     0.000 A 
ENDBRANCH  69  82
ENDBRANCH  43  44
ENDBRANCH  36  38
ENDBRANCH  35  36
ENDBRANCH  34  35
ENDBRANCH   1  34
TORSDOF 16
ENDMDL
