MODEL 1
REMARK VINA RESULT:     -11.7      0.000      0.000
REMARK SMILES Cc1c(CC(=O)OCCOC(=O)c2ccc(-c3c4nc(c(-c5ccccc5)c5ccc([nH]5)c(-c5ccccc5)c5nc(c(-c6ccccc6)c6ccc3[nH]6)C=C5)C=C4)cc2)c2cc(O)ccc2n1C(=O)c1ccc(Cl)cc1
REMARK SMILES IDX 8 1 7 2 5 3 6 4 4 5 3 6 1 7 2 8 68 9 61 10 67 11 62 12 66 13
REMARK SMILES IDX 63 14 65 15 69 16 70 17 71 18 72 19 77 20 73 21 76 22 74 23
REMARK SMILES IDX 75 24 64 25 9 27 10 28 11 29 12 30 13 31 14 32 60 33 15 34
REMARK SMILES IDX 59 35 16 36 17 37 18 38 53 39 19 40 58 41 52 42 54 43 20 44
REMARK SMILES IDX 57 45 51 46 50 47 21 49 43 50 28 51 42 52 29 53 32 54 41 55
REMARK SMILES IDX 55 56 30 57 31 58 40 60 56 61 33 62 22 63 23 64 27 65 24 66
REMARK SMILES IDX 26 67 25 68 44 69 45 70 49 71 46 72 48 73 47 74 34 75 35 76
REMARK SMILES IDX 39 77 36 78 38 79 37 80
REMARK H PARENT 64 26 54 48 32 59
REMARK Flexibility Score: inf
ROOT
ATOM      1  C   UNL A   1      37.890  22.147  25.335  1.00  0.00     0.274 C 
ENDROOT
BRANCH   1   2
ATOM      2  O   UNL A   1      37.233  21.596  24.170  1.00  0.00    -0.462 OA
BRANCH   2   3
ATOM      3  C   UNL A   1      36.345  22.409  23.548  1.00  0.00     0.310 C 
ATOM      4  O   UNL A   1      36.661  23.291  22.751  1.00  0.00    -0.252 OA
BRANCH   3   5
ATOM      5  C   UNL A   1      34.900  22.206  23.921  1.00  0.00     0.160 C 
BRANCH   5   6
ATOM      6  C   UNL A   1      33.962  23.367  24.112  1.00  0.00    -0.008 A 
ATOM      7  C   UNL A   1      34.291  23.652  26.681  1.00  0.00     0.065 C 
ATOM      8  C   UNL A   1      33.720  23.981  25.336  1.00  0.00     0.028 A 
ATOM      9  N   UNL A   1      32.813  25.025  25.149  1.00  0.00    -0.280 N 
ATOM     10  C   UNL A   1      33.356  24.202  23.117  1.00  0.00     0.008 A 
ATOM     11  C   UNL A   1      32.749  25.280  23.773  1.00  0.00     0.057 A 
ATOM     12  C   UNL A   1      33.325  24.186  21.706  1.00  0.00     0.056 A 
ATOM     13  C   UNL A   1      32.214  26.365  23.036  1.00  0.00     0.031 A 
ATOM     14  C   UNL A   1      32.788  25.257  20.991  1.00  0.00     0.116 A 
ATOM     15  C   UNL A   1      32.242  26.341  21.642  1.00  0.00     0.048 A 
BRANCH   9  16
ATOM     16  C   UNL A   1      32.119  25.721  26.177  1.00  0.00     0.262 C 
ATOM     17  O   UNL A   1      31.169  25.179  26.737  1.00  0.00    -0.268 OA
BRANCH  16  18
ATOM     18  C   UNL A   1      32.454  27.078  26.631  1.00  0.00     0.040 A 
ATOM     19  C   UNL A   1      31.462  27.912  27.157  1.00  0.00     0.015 A 
ATOM     20  C   UNL A   1      33.765  27.530  26.457  1.00  0.00     0.015 A 
ATOM     21  C   UNL A   1      31.778  29.239  27.452  1.00  0.00     0.021 A 
ATOM     22  C   UNL A   1      34.073  28.857  26.753  1.00  0.00     0.021 A 
ATOM     23  C   UNL A   1      33.076  29.708  27.236  1.00  0.00     0.041 A 
ATOM     24  Cl  UNL A   1      33.446  31.359  27.543  1.00  0.00    -0.084 Cl
ENDBRANCH  16  18
ENDBRANCH   9  16
BRANCH  14  25
ATOM     25  O   UNL A   1      32.849  25.209  19.630  1.00  0.00    -0.508 OA
ATOM     26  H   UNL A   1      32.236  24.687  19.151  1.00  0.00     0.293 HD
ENDBRANCH  14  25
ENDBRANCH   5   6
ENDBRANCH   3   5
ENDBRANCH   2   3
ENDBRANCH   1   2
BRANCH   1  27
ATOM     27  C   UNL A   1      39.092  21.292  25.751  1.00  0.00     0.275 C 
BRANCH  27  28
ATOM     28  O   UNL A   1      39.623  21.821  26.974  1.00  0.00    -0.458 OA
BRANCH  28  29
ATOM     29  C   UNL A   1      40.834  22.430  26.901  1.00  0.00     0.338 C 
ATOM     30  O   UNL A   1      41.759  22.159  26.171  1.00  0.00    -0.246 OA
BRANCH  29  31
ATOM     31  C   UNL A   1      40.650  23.709  27.618  1.00  0.00     0.060 A 
ATOM     32  C   UNL A   1      39.423  24.373  27.573  1.00  0.00     0.016 A 
ATOM     33  C   UNL A   1      41.799  24.351  28.092  1.00  0.00     0.016 A 
ATOM     34  C   UNL A   1      39.381  25.727  27.868  1.00  0.00     0.010 A 
ATOM     35  C   UNL A   1      41.761  25.714  28.341  1.00  0.00     0.010 A 
ATOM     36  C   UNL A   1      40.564  26.409  28.183  1.00  0.00    -0.014 A 
BRANCH  36  37
ATOM     37  C   UNL A   1      40.458  27.802  28.586  1.00  0.00     0.031 A 
ATOM     38  C   UNL A   1      41.549  28.646  28.061  1.00  0.00     0.074 A 
ATOM     39  C   UNL A   1      39.494  28.395  29.310  1.00  0.00     0.049 A 
ATOM     40  N   UNL A   1      42.596  29.045  28.701  1.00  0.00    -0.248 NA
ATOM     41  C   UNL A   1      41.528  28.992  26.635  1.00  0.00     0.031 C 
ATOM     42  C   UNL A   1      38.151  27.926  29.640  1.00  0.00     0.029 A 
ATOM     43  N   UNL A   1      39.542  29.644  29.862  1.00  0.00    -0.354 N 
ATOM     44  C   UNL A   1      43.318  29.808  27.796  1.00  0.00     0.074 A 
ATOM     45  C   UNL A   1      42.698  29.616  26.508  1.00  0.00     0.031 C 
ATOM     46  C   UNL A   1      37.445  28.955  30.174  1.00  0.00     0.029 A 
ATOM     47  C   UNL A   1      38.338  30.088  30.378  1.00  0.00     0.049 A 
ATOM     48  H   UNL A   1      40.365  30.184  29.891  1.00  0.00     0.167 HD
ATOM     49  C   UNL A   1      44.257  30.701  28.202  1.00  0.00     0.031 A 
ATOM     50  C   UNL A   1      38.109  31.309  30.913  1.00  0.00     0.031 A 
ATOM     51  C   UNL A   1      44.585  30.543  29.596  1.00  0.00     0.049 A 
ATOM     52  C   UNL A   1      39.403  31.879  31.357  1.00  0.00     0.074 A 
ATOM     53  C   UNL A   1      45.203  29.578  30.359  1.00  0.00     0.029 A 
ATOM     54  N   UNL A   1      43.912  31.367  30.463  1.00  0.00    -0.354 N 
ATOM     55  N   UNL A   1      40.101  31.410  32.351  1.00  0.00    -0.248 NA
ATOM     56  C   UNL A   1      40.089  32.859  30.528  1.00  0.00     0.031 C 
ATOM     57  C   UNL A   1      44.596  29.658  31.647  1.00  0.00     0.029 A 
ATOM     58  C   UNL A   1      43.637  30.673  31.616  1.00  0.00     0.049 A 
ATOM     59  H   UNL A   1      43.666  32.304  30.289  1.00  0.00     0.167 HD
ATOM     60  C   UNL A   1      41.414  31.704  32.032  1.00  0.00     0.074 A 
ATOM     61  C   UNL A   1      41.327  32.743  31.016  1.00  0.00     0.031 C 
ATOM     62  C   UNL A   1      42.432  30.875  32.402  1.00  0.00     0.031 A 
BRANCH  49  63
ATOM     63  C   UNL A   1      44.615  31.947  27.439  1.00  0.00    -0.014 A 
ATOM     64  C   UNL A   1      43.782  33.080  27.367  1.00  0.00     0.009 A 
ATOM     65  C   UNL A   1      45.931  32.100  26.972  1.00  0.00     0.009 A 
ATOM     66  C   UNL A   1      44.227  34.296  26.843  1.00  0.00     0.001 A 
ATOM     67  C   UNL A   1      46.395  33.330  26.490  1.00  0.00     0.001 A 
ATOM     68  C   UNL A   1      45.543  34.426  26.423  1.00  0.00     0.000 A 
ENDBRANCH  49  63
BRANCH  50  69
ATOM     69  C   UNL A   1      36.876  32.121  30.915  1.00  0.00    -0.014 A 
ATOM     70  C   UNL A   1      36.327  32.561  29.699  1.00  0.00     0.009 A 
ATOM     71  C   UNL A   1      36.414  32.714  32.102  1.00  0.00     0.009 A 
ATOM     72  C   UNL A   1      35.388  33.596  29.665  1.00  0.00     0.001 A 
ATOM     73  C   UNL A   1      35.477  33.753  32.067  1.00  0.00     0.001 A 
ATOM     74  C   UNL A   1      34.978  34.205  30.848  1.00  0.00     0.000 A 
ENDBRANCH  50  69
BRANCH  62  75
ATOM     75  C   UNL A   1      42.176  29.903  33.530  1.00  0.00    -0.014 A 
ATOM     76  C   UNL A   1      42.363  30.350  34.849  1.00  0.00     0.009 A 
ATOM     77  C   UNL A   1      41.869  28.548  33.328  1.00  0.00     0.009 A 
ATOM     78  C   UNL A   1      42.243  29.473  35.930  1.00  0.00     0.001 A 
ATOM     79  C   UNL A   1      41.718  27.676  34.412  1.00  0.00     0.001 A 
ATOM     80  C   UNL A   1      41.913  28.139  35.711  1.00  0.00     0.000 A 
ENDBRANCH  62  75
ENDBRANCH  36  37
ENDBRANCH  29  31
ENDBRANCH  28  29
ENDBRANCH  27  28
ENDBRANCH   1  27
TORSDOF 15
ENDMDL
MODEL 2
REMARK VINA RESULT:     -11.6      2.697      7.977
REMARK SMILES Cc1c(CC(=O)OCCOC(=O)c2ccc(-c3c4nc(c(-c5ccccc5)c5ccc([nH]5)c(-c5ccccc5)c5nc(c(-c6ccccc6)c6ccc3[nH]6)C=C5)C=C4)cc2)c2cc(O)ccc2n1C(=O)c1ccc(Cl)cc1
REMARK SMILES IDX 8 1 7 2 5 3 6 4 4 5 3 6 1 7 2 8 68 9 61 10 67 11 62 12 66 13
REMARK SMILES IDX 63 14 65 15 69 16 70 17 71 18 72 19 77 20 73 21 76 22 74 23
REMARK SMILES IDX 75 24 64 25 9 27 10 28 11 29 12 30 13 31 14 32 60 33 15 34
REMARK SMILES IDX 59 35 16 36 17 37 18 38 53 39 19 40 58 41 52 42 54 43 20 44
REMARK SMILES IDX 57 45 51 46 50 47 21 49 43 50 28 51 42 52 29 53 32 54 41 55
REMARK SMILES IDX 55 56 30 57 31 58 40 60 56 61 33 62 22 63 23 64 27 65 24 66
REMARK SMILES IDX 26 67 25 68 44 69 45 70 49 71 46 72 48 73 47 74 34 75 35 76
REMARK SMILES IDX 39 77 36 78 38 79 37 80
REMARK H PARENT 64 26 54 48 32 59
REMARK Flexibility Score: inf
ROOT
ATOM      1  C   UNL A   1      32.156  30.541  26.474  1.00  0.00     0.274 C 
ENDROOT
BRANCH   1   2
ATOM      2  O   UNL A   1      32.606  29.210  26.818  1.00  0.00    -0.462 OA
BRANCH   2   3
ATOM      3  C   UNL A   1      31.635  28.281  26.994  1.00  0.00     0.310 C 
ATOM      4  O   UNL A   1      31.134  28.009  28.084  1.00  0.00    -0.252 OA
BRANCH   3   5
ATOM      5  C   UNL A   1      31.208  27.538  25.756  1.00  0.00     0.160 C 
BRANCH   5   6
ATOM      6  C   UNL A   1      31.840  26.231  25.362  1.00  0.00    -0.008 A 
ATOM      7  C   UNL A   1      34.032  27.205  24.343  1.00  0.00     0.065 C 
ATOM      8  C   UNL A   1      33.083  26.119  24.746  1.00  0.00     0.028 A 
ATOM      9  N   UNL A   1      33.366  24.769  24.536  1.00  0.00    -0.280 N 
ATOM     10  C   UNL A   1      31.457  24.901  25.736  1.00  0.00     0.008 A 
ATOM     11  C   UNL A   1      32.467  24.028  25.316  1.00  0.00     0.057 A 
ATOM     12  C   UNL A   1      30.375  24.357  26.461  1.00  0.00     0.056 A 
ATOM     13  C   UNL A   1      32.448  22.664  25.696  1.00  0.00     0.031 A 
ATOM     14  C   UNL A   1      30.363  23.010  26.823  1.00  0.00     0.116 A 
ATOM     15  C   UNL A   1      31.388  22.168  26.454  1.00  0.00     0.048 A 
BRANCH   9  16
ATOM     16  C   UNL A   1      34.403  24.253  23.711  1.00  0.00     0.262 C 
ATOM     17  O   UNL A   1      34.282  24.304  22.488  1.00  0.00    -0.268 OA
BRANCH  16  18
ATOM     18  C   UNL A   1      35.638  23.641  24.218  1.00  0.00     0.040 A 
ATOM     19  C   UNL A   1      36.145  22.478  23.628  1.00  0.00     0.015 A 
ATOM     20  C   UNL A   1      36.247  24.211  25.340  1.00  0.00     0.015 A 
ATOM     21  C   UNL A   1      37.240  21.843  24.215  1.00  0.00     0.021 A 
ATOM     22  C   UNL A   1      37.340  23.570  25.920  1.00  0.00     0.021 A 
ATOM     23  C   UNL A   1      37.823  22.383  25.364  1.00  0.00     0.041 A 
ATOM     24  Cl  UNL A   1      39.134  21.564  26.118  1.00  0.00    -0.084 Cl
ENDBRANCH  16  18
ENDBRANCH   9  16
BRANCH  14  25
ATOM     25  O   UNL A   1      29.321  22.563  27.580  1.00  0.00    -0.508 OA
ATOM     26  H   UNL A   1      29.085  21.657  27.563  1.00  0.00     0.293 HD
ENDBRANCH  14  25
ENDBRANCH   5   6
ENDBRANCH   3   5
ENDBRANCH   2   3
ENDBRANCH   1   2
BRANCH   1  27
ATOM     27  C   UNL A   1      32.950  31.609  27.234  1.00  0.00     0.275 C 
BRANCH  27  28
ATOM     28  O   UNL A   1      34.329  31.216  27.260  1.00  0.00    -0.458 OA
BRANCH  28  29
ATOM     29  C   UNL A   1      35.200  32.078  27.844  1.00  0.00     0.338 C 
ATOM     30  O   UNL A   1      35.028  33.247  28.102  1.00  0.00    -0.246 OA
BRANCH  29  31
ATOM     31  C   UNL A   1      36.242  31.212  28.433  1.00  0.00     0.060 A 
ATOM     32  C   UNL A   1      37.436  31.764  28.901  1.00  0.00     0.016 A 
ATOM     33  C   UNL A   1      36.111  29.832  28.248  1.00  0.00     0.016 A 
ATOM     34  C   UNL A   1      38.544  30.943  29.046  1.00  0.00     0.010 A 
ATOM     35  C   UNL A   1      37.233  29.024  28.350  1.00  0.00     0.010 A 
ATOM     36  C   UNL A   1      38.457  29.588  28.701  1.00  0.00    -0.014 A 
BRANCH  36  37
ATOM     37  C   UNL A   1      39.611  28.744  28.967  1.00  0.00     0.031 A 
ATOM     38  C   UNL A   1      39.860  28.531  30.406  1.00  0.00     0.074 A 
ATOM     39  C   UNL A   1      40.414  28.120  28.089  1.00  0.00     0.049 A 
ATOM     40  N   UNL A   1      40.738  29.130  31.137  1.00  0.00    -0.248 NA
ATOM     41  C   UNL A   1      38.957  27.634  31.136  1.00  0.00     0.031 C 
ATOM     42  C   UNL A   1      40.211  27.843  26.669  1.00  0.00     0.029 A 
ATOM     43  N   UNL A   1      41.616  27.530  28.362  1.00  0.00    -0.354 N 
ATOM     44  C   UNL A   1      40.594  28.595  32.408  1.00  0.00     0.074 A 
ATOM     45  C   UNL A   1      39.392  27.799  32.384  1.00  0.00     0.031 C 
ATOM     46  C   UNL A   1      41.166  26.975  26.250  1.00  0.00     0.029 A 
ATOM     47  C   UNL A   1      42.134  26.781  27.321  1.00  0.00     0.049 A 
ATOM     48  H   UNL A   1      42.075  27.628  29.227  1.00  0.00     0.167 HD
ATOM     49  C   UNL A   1      41.579  28.685  33.338  1.00  0.00     0.031 A 
ATOM     50  C   UNL A   1      43.270  26.047  27.363  1.00  0.00     0.031 A 
ATOM     51  C   UNL A   1      42.611  29.608  32.944  1.00  0.00     0.049 A 
ATOM     52  C   UNL A   1      44.133  26.576  28.445  1.00  0.00     0.074 A 
ATOM     53  C   UNL A   1      42.696  30.969  32.755  1.00  0.00     0.029 A 
ATOM     54  N   UNL A   1      43.705  29.052  32.329  1.00  0.00    -0.354 N 
ATOM     55  N   UNL A   1      44.711  27.742  28.409  1.00  0.00    -0.248 NA
ATOM     56  C   UNL A   1      44.176  25.905  29.736  1.00  0.00     0.031 C 
ATOM     57  C   UNL A   1      43.671  31.157  31.731  1.00  0.00     0.029 A 
ATOM     58  C   UNL A   1      44.144  29.901  31.343  1.00  0.00     0.049 A 
ATOM     59  H   UNL A   1      44.112  28.185  32.558  1.00  0.00     0.167 HD
ATOM     60  C   UNL A   1      44.812  28.128  29.733  1.00  0.00     0.074 A 
ATOM     61  C   UNL A   1      44.645  26.899  30.494  1.00  0.00     0.031 C 
ATOM     62  C   UNL A   1      44.724  29.441  30.093  1.00  0.00     0.031 A 
BRANCH  49  63
ATOM     63  C   UNL A   1      41.793  27.675  34.432  1.00  0.00    -0.014 A 
ATOM     64  C   UNL A   1      42.288  26.376  34.205  1.00  0.00     0.009 A 
ATOM     65  C   UNL A   1      41.731  28.102  35.769  1.00  0.00     0.009 A 
ATOM     66  C   UNL A   1      42.685  25.540  35.251  1.00  0.00     0.001 A 
ATOM     67  C   UNL A   1      42.172  27.285  36.817  1.00  0.00     0.001 A 
ATOM     68  C   UNL A   1      42.646  26.003  36.558  1.00  0.00     0.000 A 
ENDBRANCH  49  63
BRANCH  50  69
ATOM     69  C   UNL A   1      43.609  24.794  26.661  1.00  0.00    -0.014 A 
ATOM     70  C   UNL A   1      42.584  23.963  26.179  1.00  0.00     0.009 A 
ATOM     71  C   UNL A   1      44.909  24.266  26.730  1.00  0.00     0.009 A 
ATOM     72  C   UNL A   1      42.838  22.633  25.829  1.00  0.00     0.001 A 
ATOM     73  C   UNL A   1      45.163  22.934  26.383  1.00  0.00     0.001 A 
ATOM     74  C   UNL A   1      44.124  22.114  25.950  1.00  0.00     0.000 A 
ENDBRANCH  50  69
BRANCH  62  75
ATOM     75  C   UNL A   1      44.976  30.483  29.029  1.00  0.00    -0.014 A 
ATOM     76  C   UNL A   1      43.933  30.793  28.140  1.00  0.00     0.009 A 
ATOM     77  C   UNL A   1      46.230  31.079  28.811  1.00  0.00     0.009 A 
ATOM     78  C   UNL A   1      44.135  31.671  27.072  1.00  0.00     0.001 A 
ATOM     79  C   UNL A   1      46.423  31.981  27.760  1.00  0.00     0.001 A 
ATOM     80  C   UNL A   1      45.377  32.270  26.887  1.00  0.00     0.000 A 
ENDBRANCH  62  75
ENDBRANCH  36  37
ENDBRANCH  29  31
ENDBRANCH  28  29
ENDBRANCH  27  28
ENDBRANCH   1  27
TORSDOF 15
ENDMDL
MODEL 3
REMARK VINA RESULT:     -11.5      3.707      6.866
REMARK SMILES Cc1c(CC(=O)OCCOC(=O)c2ccc(-c3c4nc(c(-c5ccccc5)c5ccc([nH]5)c(-c5ccccc5)c5nc(c(-c6ccccc6)c6ccc3[nH]6)C=C5)C=C4)cc2)c2cc(O)ccc2n1C(=O)c1ccc(Cl)cc1
REMARK SMILES IDX 8 1 7 2 5 3 6 4 4 5 3 6 1 7 2 8 68 9 61 10 67 11 62 12 66 13
REMARK SMILES IDX 63 14 65 15 69 16 70 17 71 18 72 19 77 20 73 21 76 22 74 23
REMARK SMILES IDX 75 24 64 25 9 27 10 28 11 29 12 30 13 31 14 32 60 33 15 34
REMARK SMILES IDX 59 35 16 36 17 37 18 38 53 39 19 40 58 41 52 42 54 43 20 44
REMARK SMILES IDX 57 45 51 46 50 47 21 49 43 50 28 51 42 52 29 53 32 54 41 55
REMARK SMILES IDX 55 56 30 57 31 58 40 60 56 61 33 62 22 63 23 64 27 65 24 66
REMARK SMILES IDX 26 67 25 68 44 69 45 70 49 71 46 72 48 73 47 74 34 75 35 76
REMARK SMILES IDX 39 77 36 78 38 79 37 80
REMARK H PARENT 64 26 54 48 32 59
REMARK Flexibility Score: inf
ROOT
ATOM      1  C   UNL A   1      46.504  25.621  27.400  1.00  0.00     0.274 C 
ENDROOT
BRANCH   1   2
ATOM      2  O   UNL A   1      46.139  24.478  26.593  1.00  0.00    -0.462 OA
BRANCH   2   3
ATOM      3  C   UNL A   1      45.942  24.719  25.274  1.00  0.00     0.310 C 
ATOM      4  O   UNL A   1      46.402  25.691  24.677  1.00  0.00    -0.252 OA
BRANCH   3   5
ATOM      5  C   UNL A   1      45.066  23.729  24.551  1.00  0.00     0.160 C 
BRANCH   5   6
ATOM      6  C   UNL A   1      44.001  22.946  25.269  1.00  0.00    -0.008 A 
ATOM      7  C   UNL A   1      42.278  24.881  25.539  1.00  0.00     0.065 C 
ATOM      8  C   UNL A   1      42.786  23.480  25.686  1.00  0.00     0.028 A 
ATOM      9  N   UNL A   1      42.037  22.479  26.303  1.00  0.00    -0.280 N 
ATOM     10  C   UNL A   1      43.895  21.527  25.440  1.00  0.00     0.008 A 
ATOM     11  C   UNL A   1      42.630  21.252  25.974  1.00  0.00     0.057 A 
ATOM     12  C   UNL A   1      44.728  20.433  25.122  1.00  0.00     0.056 A 
ATOM     13  C   UNL A   1      42.171  19.918  26.094  1.00  0.00     0.031 A 
ATOM     14  C   UNL A   1      44.268  19.122  25.253  1.00  0.00     0.116 A 
ATOM     15  C   UNL A   1      43.002  18.859  25.727  1.00  0.00     0.048 A 
BRANCH   9  16
ATOM     16  C   UNL A   1      40.866  22.675  27.085  1.00  0.00     0.262 C 
ATOM     17  O   UNL A   1      40.970  22.820  28.301  1.00  0.00    -0.268 OA
BRANCH  16  18
ATOM     18  C   UNL A   1      39.502  22.713  26.539  1.00  0.00     0.040 A 
ATOM     19  C   UNL A   1      38.981  21.607  25.860  1.00  0.00     0.015 A 
ATOM     20  C   UNL A   1      38.774  23.901  26.657  1.00  0.00     0.015 A 
ATOM     21  C   UNL A   1      37.738  21.719  25.235  1.00  0.00     0.021 A 
ATOM     22  C   UNL A   1      37.535  24.005  26.029  1.00  0.00     0.021 A 
ATOM     23  C   UNL A   1      37.028  22.919  25.311  1.00  0.00     0.041 A 
ATOM     24  Cl  UNL A   1      35.526  23.073  24.488  1.00  0.00    -0.084 Cl
ENDBRANCH  16  18
ENDBRANCH   9  16
BRANCH  14  25
ATOM     25  O   UNL A   1      45.099  18.113  24.866  1.00  0.00    -0.508 OA
ATOM     26  H   UNL A   1      45.255  17.389  25.439  1.00  0.00     0.293 HD
ENDBRANCH  14  25
ENDBRANCH   5   6
ENDBRANCH   3   5
ENDBRANCH   2   3
ENDBRANCH   1   2
BRANCH   1  27
ATOM     27  C   UNL A   1      46.850  25.201  28.832  1.00  0.00     0.275 C 
BRANCH  27  28
ATOM     28  O   UNL A   1      45.638  24.823  29.499  1.00  0.00    -0.458 OA
BRANCH  28  29
ATOM     29  C   UNL A   1      45.437  25.337  30.740  1.00  0.00     0.338 C 
ATOM     30  O   UNL A   1      46.202  25.339  31.676  1.00  0.00    -0.246 OA
BRANCH  29  31
ATOM     31  C   UNL A   1      44.256  26.213  30.593  1.00  0.00     0.060 A 
ATOM     32  C   UNL A   1      43.493  26.177  29.424  1.00  0.00     0.016 A 
ATOM     33  C   UNL A   1      44.104  27.248  31.520  1.00  0.00     0.016 A 
ATOM     34  C   UNL A   1      42.681  27.259  29.119  1.00  0.00     0.010 A 
ATOM     35  C   UNL A   1      43.327  28.347  31.190  1.00  0.00     0.010 A 
ATOM     36  C   UNL A   1      42.655  28.372  29.969  1.00  0.00    -0.014 A 
BRANCH  36  37
ATOM     37  C   UNL A   1      41.713  29.437  29.665  1.00  0.00     0.031 A 
ATOM     38  C   UNL A   1      42.366  30.729  29.375  1.00  0.00     0.074 A 
ATOM     39  C   UNL A   1      40.374  29.372  29.572  1.00  0.00     0.049 A 
ATOM     40  N   UNL A   1      42.492  31.730  30.179  1.00  0.00    -0.248 NA
ATOM     41  C   UNL A   1      43.050  30.881  28.086  1.00  0.00     0.031 C 
ATOM     42  C   UNL A   1      39.503  28.207  29.440  1.00  0.00     0.029 A 
ATOM     43  N   UNL A   1      39.509  30.428  29.514  1.00  0.00    -0.354 N 
ATOM     44  C   UNL A   1      43.166  32.704  29.458  1.00  0.00     0.074 A 
ATOM     45  C   UNL A   1      43.616  32.077  28.240  1.00  0.00     0.031 C 
ATOM     46  C   UNL A   1      38.251  28.629  29.128  1.00  0.00     0.029 A 
ATOM     47  C   UNL A   1      38.205  30.083  29.212  1.00  0.00     0.049 A 
ATOM     48  H   UNL A   1      39.791  31.358  29.673  1.00  0.00     0.167 HD
ATOM     49  C   UNL A   1      43.137  34.012  29.823  1.00  0.00     0.031 A 
ATOM     50  C   UNL A   1      37.180  30.947  29.030  1.00  0.00     0.031 A 
ATOM     51  C   UNL A   1      42.589  34.193  31.142  1.00  0.00     0.049 A 
ATOM     52  C   UNL A   1      37.509  32.219  29.715  1.00  0.00     0.074 A 
ATOM     53  C   UNL A   1      42.976  33.866  32.423  1.00  0.00     0.029 A 
ATOM     54  N   UNL A   1      41.252  34.498  31.195  1.00  0.00    -0.354 N 
ATOM     55  N   UNL A   1      37.585  32.350  31.008  1.00  0.00    -0.248 NA
ATOM     56  C   UNL A   1      38.015  33.348  28.948  1.00  0.00     0.031 C 
ATOM     57  C   UNL A   1      41.767  33.656  33.149  1.00  0.00     0.029 A 
ATOM     58  C   UNL A   1      40.693  33.869  32.281  1.00  0.00     0.049 A 
ATOM     59  H   UNL A   1      40.770  35.074  30.559  1.00  0.00     0.167 HD
ATOM     60  C   UNL A   1      38.510  33.358  31.208  1.00  0.00     0.074 A 
ATOM     61  C   UNL A   1      38.591  34.048  29.929  1.00  0.00     0.031 C 
ATOM     62  C   UNL A   1      39.335  33.353  32.294  1.00  0.00     0.031 A 
BRANCH  49  63
ATOM     63  C   UNL A   1      43.267  35.156  28.854  1.00  0.00    -0.014 A 
ATOM     64  C   UNL A   1      42.504  35.266  27.676  1.00  0.00     0.009 A 
ATOM     65  C   UNL A   1      43.999  36.290  29.241  1.00  0.00     0.009 A 
ATOM     66  C   UNL A   1      42.483  36.436  26.913  1.00  0.00     0.001 A 
ATOM     67  C   UNL A   1      43.943  37.480  28.505  1.00  0.00     0.001 A 
ATOM     68  C   UNL A   1      43.187  37.551  27.340  1.00  0.00     0.000 A 
ENDBRANCH  49  63
BRANCH  50  69
ATOM     69  C   UNL A   1      35.998  30.835  28.153  1.00  0.00    -0.014 A 
ATOM     70  C   UNL A   1      35.033  31.856  28.146  1.00  0.00     0.009 A 
ATOM     71  C   UNL A   1      35.665  29.607  27.558  1.00  0.00     0.009 A 
ATOM     72  C   UNL A   1      33.759  31.639  27.612  1.00  0.00     0.001 A 
ATOM     73  C   UNL A   1      34.388  29.389  27.027  1.00  0.00     0.001 A 
ATOM     74  C   UNL A   1      33.431  30.400  27.070  1.00  0.00     0.000 A 
ENDBRANCH  50  69
BRANCH  62  75
ATOM     75  C   UNL A   1      38.930  32.516  33.484  1.00  0.00    -0.014 A 
ATOM     76  C   UNL A   1      38.257  33.147  34.545  1.00  0.00     0.009 A 
ATOM     77  C   UNL A   1      39.285  31.165  33.636  1.00  0.00     0.009 A 
ATOM     78  C   UNL A   1      37.947  32.451  35.716  1.00  0.00     0.001 A 
ATOM     79  C   UNL A   1      38.947  30.460  34.797  1.00  0.00     0.001 A 
ATOM     80  C   UNL A   1      38.285  31.106  35.838  1.00  0.00     0.000 A 
ENDBRANCH  62  75
ENDBRANCH  36  37
ENDBRANCH  29  31
ENDBRANCH  28  29
ENDBRANCH  27  28
ENDBRANCH   1  27
TORSDOF 15
ENDMDL
