MODEL 1
REMARK VINA RESULT:     -10.5      0.000      0.000
REMARK SMILES O=C(OCCOC(=O)c1ncc2ccccc2n1)c1ccc(-c2c3nc(c(-c4ccccc4)c4ccc([nH]4)c(-c4ccccc4)c4nc(c(-c5ccccc5)c5ccc2[nH]5)C=C4)C=C3)cc1
REMARK SMILES IDX 4 1 3 2 2 3 1 4 19 5 20 6 66 7 21 8 65 9 22 10 23 11 24 12
REMARK SMILES IDX 59 13 25 14 64 15 58 16 60 17 26 18 63 19 57 20 56 21 27 23
REMARK SMILES IDX 49 24 34 25 48 26 35 27 38 28 47 29 61 30 36 31 37 32 46 34
REMARK SMILES IDX 62 35 39 36 28 37 29 38 33 39 30 40 32 41 31 42 50 43 51 44
REMARK SMILES IDX 55 45 52 46 54 47 53 48 40 49 41 50 45 51 42 52 44 53 43 54
REMARK SMILES IDX 5 55 6 56 7 57 8 58 9 59 10 60 18 61 11 62 17 63 12 64 16 65
REMARK SMILES IDX 13 66 15 67 14 68
REMARK H PARENT 60 22 38 33
REMARK Flexibility Score: inf
ROOT
ATOM      1  C   UNL A   1      43.116  18.072  26.157  1.00  0.00     0.275 C 
ENDROOT
BRANCH   1   2
ATOM      2  O   UNL A   1      42.227  18.947  25.442  1.00  0.00    -0.458 OA
BRANCH   2   3
ATOM      3  C   UNL A   1      41.167  19.595  25.988  1.00  0.00     0.338 C 
ATOM      4  O   UNL A   1      40.025  19.171  25.835  1.00  0.00    -0.246 OA
BRANCH   3   5
ATOM      5  C   UNL A   1      41.340  20.961  26.556  1.00  0.00     0.060 A 
ATOM      6  C   UNL A   1      40.743  22.117  26.048  1.00  0.00     0.016 A 
ATOM      7  C   UNL A   1      42.244  21.086  27.624  1.00  0.00     0.016 A 
ATOM      8  C   UNL A   1      40.990  23.363  26.635  1.00  0.00     0.010 A 
ATOM      9  C   UNL A   1      42.493  22.329  28.215  1.00  0.00     0.010 A 
ATOM     10  C   UNL A   1      41.867  23.478  27.717  1.00  0.00    -0.014 A 
BRANCH  10  11
ATOM     11  C   UNL A   1      42.221  24.816  28.239  1.00  0.00     0.031 A 
ATOM     12  C   UNL A   1      43.633  25.084  28.666  1.00  0.00     0.074 A 
ATOM     13  C   UNL A   1      41.303  25.798  28.288  1.00  0.00     0.049 A 
ATOM     14  N   UNL A   1      44.165  26.199  29.098  1.00  0.00    -0.248 NA
ATOM     15  C   UNL A   1      44.577  23.960  28.567  1.00  0.00     0.031 C 
ATOM     16  C   UNL A   1      39.916  25.685  27.841  1.00  0.00     0.029 A 
ATOM     17  N   UNL A   1      41.401  27.085  28.753  1.00  0.00    -0.354 N 
ATOM     18  C   UNL A   1      45.515  25.925  29.267  1.00  0.00     0.074 A 
ATOM     19  C   UNL A   1      45.707  24.523  28.969  1.00  0.00     0.031 C 
ATOM     20  C   UNL A   1      39.276  26.837  28.108  1.00  0.00     0.029 A 
ATOM     21  C   UNL A   1      40.208  27.763  28.741  1.00  0.00     0.049 A 
ATOM     22  H   UNL A   1      42.245  27.484  29.066  1.00  0.00     0.167 HD
ATOM     23  C   UNL A   1      46.515  26.776  29.597  1.00  0.00     0.031 A 
ATOM     24  C   UNL A   1      39.898  28.987  29.209  1.00  0.00     0.031 A 
ATOM     25  C   UNL A   1      46.320  28.157  29.940  1.00  0.00     0.049 A 
ATOM     26  C   UNL A   1      40.989  29.855  29.763  1.00  0.00     0.074 A 
ATOM     27  C   UNL A   1      47.264  29.108  30.279  1.00  0.00     0.029 A 
ATOM     28  N   UNL A   1      45.082  28.778  30.007  1.00  0.00    -0.354 N 
ATOM     29  N   UNL A   1      42.269  29.599  29.872  1.00  0.00    -0.248 NA
ATOM     30  C   UNL A   1      40.596  31.193  30.226  1.00  0.00     0.031 C 
ATOM     31  C   UNL A   1      46.593  30.295  30.596  1.00  0.00     0.029 A 
ATOM     32  C   UNL A   1      45.234  30.093  30.413  1.00  0.00     0.049 A 
ATOM     33  H   UNL A   1      44.221  28.348  29.796  1.00  0.00     0.167 HD
ATOM     34  C   UNL A   1      42.846  30.761  30.363  1.00  0.00     0.074 A 
ATOM     35  C   UNL A   1      41.771  31.715  30.555  1.00  0.00     0.031 C 
ATOM     36  C   UNL A   1      44.153  31.024  30.604  1.00  0.00     0.031 A 
BRANCH  23  37
ATOM     37  C   UNL A   1      47.904  26.212  29.594  1.00  0.00    -0.014 A 
ATOM     38  C   UNL A   1      48.494  25.764  30.788  1.00  0.00     0.009 A 
ATOM     39  C   UNL A   1      48.638  26.141  28.402  1.00  0.00     0.009 A 
ATOM     40  C   UNL A   1      49.808  25.293  30.795  1.00  0.00     0.001 A 
ATOM     41  C   UNL A   1      49.946  25.651  28.409  1.00  0.00     0.001 A 
ATOM     42  C   UNL A   1      50.533  25.239  29.604  1.00  0.00     0.000 A 
ENDBRANCH  23  37
BRANCH  24  43
ATOM     43  C   UNL A   1      38.491  29.457  29.192  1.00  0.00    -0.014 A 
ATOM     44  C   UNL A   1      37.656  29.283  30.303  1.00  0.00     0.009 A 
ATOM     45  C   UNL A   1      37.975  30.068  28.038  1.00  0.00     0.009 A 
ATOM     46  C   UNL A   1      36.323  29.700  30.253  1.00  0.00     0.001 A 
ATOM     47  C   UNL A   1      36.649  30.500  27.998  1.00  0.00     0.001 A 
ATOM     48  C   UNL A   1      35.822  30.310  29.103  1.00  0.00     0.000 A 
ENDBRANCH  24  43
BRANCH  36  49
ATOM     49  C   UNL A   1      44.495  32.415  31.047  1.00  0.00    -0.014 A 
ATOM     50  C   UNL A   1      44.791  33.425  30.122  1.00  0.00     0.009 A 
ATOM     51  C   UNL A   1      44.490  32.719  32.418  1.00  0.00     0.009 A 
ATOM     52  C   UNL A   1      45.103  34.712  30.564  1.00  0.00     0.001 A 
ATOM     53  C   UNL A   1      44.779  34.011  32.855  1.00  0.00     0.001 A 
ATOM     54  C   UNL A   1      45.092  35.005  31.929  1.00  0.00     0.000 A 
ENDBRANCH  36  49
ENDBRANCH  10  11
ENDBRANCH   3   5
ENDBRANCH   2   3
ENDBRANCH   1   2
BRANCH   1  55
ATOM     55  C   UNL A   1      44.597  18.415  25.973  1.00  0.00     0.275 C 
BRANCH  55  56
ATOM     56  O   UNL A   1      44.851  19.137  24.760  1.00  0.00    -0.456 OA
BRANCH  56  57
ATOM     57  C   UNL A   1      45.952  19.948  24.804  1.00  0.00     0.376 C 
ATOM     58  O   UNL A   1      47.118  19.579  24.780  1.00  0.00    -0.242 OA
BRANCH  57  59
ATOM     59  C   UNL A   1      45.514  21.374  24.754  1.00  0.00     0.239 A 
ATOM     60  N   UNL A   1      44.229  21.578  24.402  1.00  0.00    -0.230 NA
ATOM     61  N   UNL A   1      46.403  22.322  25.120  1.00  0.00    -0.222 NA
ATOM     62  C   UNL A   1      43.807  22.851  24.481  1.00  0.00     0.124 A 
ATOM     63  C   UNL A   1      45.946  23.583  25.146  1.00  0.00     0.075 A 
ATOM     64  C   UNL A   1      44.610  23.908  24.874  1.00  0.00     0.019 A 
ATOM     65  C   UNL A   1      46.803  24.629  25.464  1.00  0.00     0.029 A 
ATOM     66  C   UNL A   1      44.134  25.227  25.004  1.00  0.00     0.012 A 
ATOM     67  C   UNL A   1      46.348  25.946  25.586  1.00  0.00     0.002 A 
ATOM     68  C   UNL A   1      45.008  26.242  25.376  1.00  0.00     0.001 A 
ENDBRANCH  57  59
ENDBRANCH  56  57
ENDBRANCH  55  56
ENDBRANCH   1  55
TORSDOF 11
ENDMDL
MODEL 2
REMARK VINA RESULT:     -10.3      5.901     11.800
REMARK SMILES O=C(OCCOC(=O)c1ncc2ccccc2n1)c1ccc(-c2c3nc(c(-c4ccccc4)c4ccc([nH]4)c(-c4ccccc4)c4nc(c(-c5ccccc5)c5ccc2[nH]5)C=C4)C=C3)cc1
REMARK SMILES IDX 4 1 3 2 2 3 1 4 19 5 20 6 66 7 21 8 65 9 22 10 23 11 24 12
REMARK SMILES IDX 59 13 25 14 64 15 58 16 60 17 26 18 63 19 57 20 56 21 27 23
REMARK SMILES IDX 49 24 34 25 48 26 35 27 38 28 47 29 61 30 36 31 37 32 46 34
REMARK SMILES IDX 62 35 39 36 28 37 29 38 33 39 30 40 32 41 31 42 50 43 51 44
REMARK SMILES IDX 55 45 52 46 54 47 53 48 40 49 41 50 45 51 42 52 44 53 43 54
REMARK SMILES IDX 5 55 6 56 7 57 8 58 9 59 10 60 18 61 11 62 17 63 12 64 16 65
REMARK SMILES IDX 13 66 15 67 14 68
REMARK H PARENT 60 22 38 33
REMARK Flexibility Score: inf
ROOT
ATOM      1  C   UNL A   1      33.381  36.343  29.497  1.00  0.00     0.275 C 
ENDROOT
BRANCH   1   2
ATOM      2  O   UNL A   1      32.632  35.176  29.121  1.00  0.00    -0.458 OA
BRANCH   2   3
ATOM      3  C   UNL A   1      33.110  34.152  28.370  1.00  0.00     0.338 C 
ATOM      4  O   UNL A   1      32.410  33.622  27.512  1.00  0.00    -0.246 OA
BRANCH   3   5
ATOM      5  C   UNL A   1      34.388  33.486  28.745  1.00  0.00     0.060 A 
ATOM      6  C   UNL A   1      34.491  32.371  29.580  1.00  0.00     0.016 A 
ATOM      7  C   UNL A   1      35.570  34.093  28.287  1.00  0.00     0.016 A 
ATOM      8  C   UNL A   1      35.742  31.832  29.898  1.00  0.00     0.010 A 
ATOM      9  C   UNL A   1      36.823  33.557  28.601  1.00  0.00     0.010 A 
ATOM     10  C   UNL A   1      36.914  32.422  29.415  1.00  0.00    -0.014 A 
BRANCH  10  11
ATOM     11  C   UNL A   1      38.230  31.922  29.869  1.00  0.00     0.031 A 
ATOM     12  C   UNL A   1      38.663  30.542  29.474  1.00  0.00     0.074 A 
ATOM     13  C   UNL A   1      39.052  32.708  30.587  1.00  0.00     0.049 A 
ATOM     14  N   UNL A   1      39.796  29.933  29.718  1.00  0.00    -0.248 NA
ATOM     15  C   UNL A   1      37.710  29.754  28.677  1.00  0.00     0.031 C 
ATOM     16  C   UNL A   1      38.778  34.089  30.978  1.00  0.00     0.029 A 
ATOM     17  N   UNL A   1      40.286  32.446  31.129  1.00  0.00    -0.354 N 
ATOM     18  C   UNL A   1      39.712  28.716  29.056  1.00  0.00     0.074 A 
ATOM     19  C   UNL A   1      38.393  28.638  28.469  1.00  0.00     0.031 C 
ATOM     20  C   UNL A   1      39.787  34.534  31.747  1.00  0.00     0.029 A 
ATOM     21  C   UNL A   1      40.773  33.471  31.900  1.00  0.00     0.049 A 
ATOM     22  H   UNL A   1      40.773  31.603  30.980  1.00  0.00     0.167 HD
ATOM     23  C   UNL A   1      40.666  27.766  28.912  1.00  0.00     0.031 A 
ATOM     24  C   UNL A   1      41.882  33.536  32.660  1.00  0.00     0.031 A 
ATOM     25  C   UNL A   1      41.960  27.819  29.533  1.00  0.00     0.049 A 
ATOM     26  C   UNL A   1      42.844  32.384  32.650  1.00  0.00     0.074 A 
ATOM     27  C   UNL A   1      43.003  26.916  29.443  1.00  0.00     0.029 A 
ATOM     28  N   UNL A   1      42.377  28.833  30.383  1.00  0.00    -0.354 N 
ATOM     29  N   UNL A   1      42.774  31.260  31.981  1.00  0.00    -0.248 NA
ATOM     30  C   UNL A   1      44.053  32.527  33.472  1.00  0.00     0.031 C 
ATOM     31  C   UNL A   1      44.037  27.360  30.277  1.00  0.00     0.029 A 
ATOM     32  C   UNL A   1      43.652  28.562  30.851  1.00  0.00     0.049 A 
ATOM     33  H   UNL A   1      41.846  29.627  30.619  1.00  0.00     0.167 HD
ATOM     34  C   UNL A   1      43.954  30.584  32.256  1.00  0.00     0.074 A 
ATOM     35  C   UNL A   1      44.710  31.414  33.173  1.00  0.00     0.031 C 
ATOM     36  C   UNL A   1      44.385  29.396  31.767  1.00  0.00     0.031 A 
BRANCH  23  37
ATOM     37  C   UNL A   1      40.321  26.596  28.039  1.00  0.00    -0.014 A 
ATOM     38  C   UNL A   1      39.559  25.530  28.545  1.00  0.00     0.009 A 
ATOM     39  C   UNL A   1      40.771  26.545  26.712  1.00  0.00     0.009 A 
ATOM     40  C   UNL A   1      39.288  24.415  27.750  1.00  0.00     0.001 A 
ATOM     41  C   UNL A   1      40.481  25.437  25.914  1.00  0.00     0.001 A 
ATOM     42  C   UNL A   1      39.750  24.369  26.435  1.00  0.00     0.000 A 
ENDBRANCH  23  37
BRANCH  24  43
ATOM     43  C   UNL A   1      42.135  34.725  33.510  1.00  0.00    -0.014 A 
ATOM     44  C   UNL A   1      41.650  34.793  34.823  1.00  0.00     0.009 A 
ATOM     45  C   UNL A   1      42.851  35.814  32.989  1.00  0.00     0.009 A 
ATOM     46  C   UNL A   1      41.866  35.938  35.595  1.00  0.00     0.001 A 
ATOM     47  C   UNL A   1      43.082  36.948  33.769  1.00  0.00     0.001 A 
ATOM     48  C   UNL A   1      42.584  37.012  35.069  1.00  0.00     0.000 A 
ENDBRANCH  24  43
BRANCH  36  49
ATOM     49  C   UNL A   1      45.759  28.954  32.173  1.00  0.00    -0.014 A 
ATOM     50  C   UNL A   1      45.960  28.128  33.288  1.00  0.00     0.009 A 
ATOM     51  C   UNL A   1      46.864  29.350  31.403  1.00  0.00     0.009 A 
ATOM     52  C   UNL A   1      47.252  27.729  33.641  1.00  0.00     0.001 A 
ATOM     53  C   UNL A   1      48.149  28.931  31.745  1.00  0.00     0.001 A 
ATOM     54  C   UNL A   1      48.343  28.127  32.866  1.00  0.00     0.000 A 
ENDBRANCH  36  49
ENDBRANCH  10  11
ENDBRANCH   3   5
ENDBRANCH   2   3
ENDBRANCH   1   2
BRANCH   1  55
ATOM     55  C   UNL A   1      32.847  37.041  30.751  1.00  0.00     0.275 C 
BRANCH  55  56
ATOM     56  O   UNL A   1      32.807  36.173  31.892  1.00  0.00    -0.456 OA
BRANCH  56  57
ATOM     57  C   UNL A   1      33.749  36.450  32.846  1.00  0.00     0.376 C 
ATOM     58  O   UNL A   1      33.885  37.513  33.436  1.00  0.00    -0.242 OA
BRANCH  57  59
ATOM     59  C   UNL A   1      34.513  35.205  33.157  1.00  0.00     0.239 A 
ATOM     60  N   UNL A   1      33.945  34.054  32.748  1.00  0.00    -0.230 NA
ATOM     61  N   UNL A   1      35.718  35.335  33.753  1.00  0.00    -0.222 NA
ATOM     62  C   UNL A   1      34.693  32.951  32.917  1.00  0.00     0.124 A 
ATOM     63  C   UNL A   1      36.411  34.202  33.937  1.00  0.00     0.075 A 
ATOM     64  C   UNL A   1      35.956  32.955  33.485  1.00  0.00     0.019 A 
ATOM     65  C   UNL A   1      37.639  34.233  34.586  1.00  0.00     0.029 A 
ATOM     66  C   UNL A   1      36.748  31.797  33.604  1.00  0.00     0.012 A 
ATOM     67  C   UNL A   1      38.433  33.089  34.722  1.00  0.00     0.002 A 
ATOM     68  C   UNL A   1      37.996  31.873  34.212  1.00  0.00     0.001 A 
ENDBRANCH  57  59
ENDBRANCH  56  57
ENDBRANCH  55  56
ENDBRANCH   1  55
TORSDOF 11
ENDMDL
MODEL 3
REMARK VINA RESULT:     -10.3      0.320      6.313
REMARK SMILES O=C(OCCOC(=O)c1ncc2ccccc2n1)c1ccc(-c2c3nc(c(-c4ccccc4)c4ccc([nH]4)c(-c4ccccc4)c4nc(c(-c5ccccc5)c5ccc2[nH]5)C=C4)C=C3)cc1
REMARK SMILES IDX 4 1 3 2 2 3 1 4 19 5 20 6 66 7 21 8 65 9 22 10 23 11 24 12
REMARK SMILES IDX 59 13 25 14 64 15 58 16 60 17 26 18 63 19 57 20 56 21 27 23
REMARK SMILES IDX 49 24 34 25 48 26 35 27 38 28 47 29 61 30 36 31 37 32 46 34
REMARK SMILES IDX 62 35 39 36 28 37 29 38 33 39 30 40 32 41 31 42 50 43 51 44
REMARK SMILES IDX 55 45 52 46 54 47 53 48 40 49 41 50 45 51 42 52 44 53 43 54
REMARK SMILES IDX 5 55 6 56 7 57 8 58 9 59 10 60 18 61 11 62 17 63 12 64 16 65
REMARK SMILES IDX 13 66 15 67 14 68
REMARK H PARENT 60 22 38 33
REMARK Flexibility Score: inf
ROOT
ATOM      1  C   UNL A   1      42.751  18.063  26.181  1.00  0.00     0.275 C 
ENDROOT
BRANCH   1   2
ATOM      2  O   UNL A   1      41.948  19.034  25.490  1.00  0.00    -0.458 OA
BRANCH   2   3
ATOM      3  C   UNL A   1      40.946  19.756  26.050  1.00  0.00     0.338 C 
ATOM      4  O   UNL A   1      39.774  19.413  25.918  1.00  0.00    -0.246 OA
BRANCH   3   5
ATOM      5  C   UNL A   1      41.222  21.109  26.608  1.00  0.00     0.060 A 
ATOM      6  C   UNL A   1      40.721  22.305  26.088  1.00  0.00     0.016 A 
ATOM      7  C   UNL A   1      42.129  21.171  27.680  1.00  0.00     0.016 A 
ATOM      8  C   UNL A   1      41.062  23.531  26.667  1.00  0.00     0.010 A 
ATOM      9  C   UNL A   1      42.472  22.395  28.263  1.00  0.00     0.010 A 
ATOM     10  C   UNL A   1      41.941  23.585  27.753  1.00  0.00    -0.014 A 
BRANCH  10  11
ATOM     11  C   UNL A   1      42.396  24.896  28.266  1.00  0.00     0.031 A 
ATOM     12  C   UNL A   1      41.417  26.030  28.344  1.00  0.00     0.074 A 
ATOM     13  C   UNL A   1      43.657  25.062  28.703  1.00  0.00     0.049 A 
ATOM     14  N   UNL A   1      41.594  27.240  28.812  1.00  0.00    -0.248 NA
ATOM     15  C   UNL A   1      40.055  25.761  27.859  1.00  0.00     0.031 C 
ATOM     16  C   UNL A   1      44.684  24.024  28.742  1.00  0.00     0.029 A 
ATOM     17  N   UNL A   1      44.293  26.179  29.184  1.00  0.00    -0.354 N 
ATOM     18  C   UNL A   1      40.352  27.854  28.731  1.00  0.00     0.074 A 
ATOM     19  C   UNL A   1      39.452  26.916  28.097  1.00  0.00     0.031 C 
ATOM     20  C   UNL A   1      45.839  24.566  29.168  1.00  0.00     0.029 A 
ATOM     21  C   UNL A   1      45.629  25.985  29.428  1.00  0.00     0.049 A 
ATOM     22  H   UNL A   1      43.835  27.037  29.339  1.00  0.00     0.167 HD
ATOM     23  C   UNL A   1      39.983  29.075  29.184  1.00  0.00     0.031 A 
ATOM     24  C   UNL A   1      46.581  26.861  29.801  1.00  0.00     0.031 A 
ATOM     25  C   UNL A   1      40.885  30.026  29.770  1.00  0.00     0.049 A 
ATOM     26  C   UNL A   1      46.191  28.276  30.112  1.00  0.00     0.074 A 
ATOM     27  C   UNL A   1      40.612  31.285  30.272  1.00  0.00     0.029 A 
ATOM     28  N   UNL A   1      42.250  29.824  29.912  1.00  0.00    -0.354 N 
ATOM     29  N   UNL A   1      45.004  28.829  30.075  1.00  0.00    -0.248 NA
ATOM     30  C   UNL A   1      47.267  29.177  30.547  1.00  0.00     0.031 C 
ATOM     31  C   UNL A   1      41.821  31.865  30.676  1.00  0.00     0.029 A 
ATOM     32  C   UNL A   1      42.840  30.948  30.464  1.00  0.00     0.049 A 
ATOM     33  H   UNL A   1      42.729  29.002  29.657  1.00  0.00     0.167 HD
ATOM     34  C   UNL A   1      45.179  30.126  30.536  1.00  0.00     0.074 A 
ATOM     35  C   UNL A   1      46.592  30.284  30.822  1.00  0.00     0.031 C 
ATOM     36  C   UNL A   1      44.246  31.089  30.734  1.00  0.00     0.031 A 
BRANCH  23  37
ATOM     37  C   UNL A   1      38.531  29.427  29.055  1.00  0.00    -0.014 A 
ATOM     38  C   UNL A   1      37.662  29.283  30.150  1.00  0.00     0.009 A 
ATOM     39  C   UNL A   1      38.019  29.886  27.834  1.00  0.00     0.009 A 
ATOM     40  C   UNL A   1      36.300  29.555  30.013  1.00  0.00     0.001 A 
ATOM     41  C   UNL A   1      36.659  30.176  27.706  1.00  0.00     0.001 A 
ATOM     42  C   UNL A   1      35.800  30.001  28.790  1.00  0.00     0.000 A 
ENDBRANCH  23  37
BRANCH  24  43
ATOM     43  C   UNL A   1      47.999  26.431  29.883  1.00  0.00    -0.014 A 
ATOM     44  C   UNL A   1      48.849  26.524  28.773  1.00  0.00     0.009 A 
ATOM     45  C   UNL A   1      48.497  25.899  31.083  1.00  0.00     0.009 A 
ATOM     46  C   UNL A   1      50.171  26.079  28.861  1.00  0.00     0.001 A 
ATOM     47  C   UNL A   1      49.823  25.473  31.173  1.00  0.00     0.001 A 
ATOM     48  C   UNL A   1      50.657  25.557  30.060  1.00  0.00     0.000 A 
ENDBRANCH  24  43
BRANCH  36  49
ATOM     49  C   UNL A   1      44.719  32.378  31.338  1.00  0.00    -0.014 A 
ATOM     50  C   UNL A   1      44.783  32.553  32.727  1.00  0.00     0.009 A 
ATOM     51  C   UNL A   1      45.134  33.420  30.493  1.00  0.00     0.009 A 
ATOM     52  C   UNL A   1      45.231  33.764  33.260  1.00  0.00     0.001 A 
ATOM     53  C   UNL A   1      45.602  34.619  31.030  1.00  0.00     0.001 A 
ATOM     54  C   UNL A   1      45.645  34.793  32.412  1.00  0.00     0.000 A 
ENDBRANCH  36  49
ENDBRANCH  10  11
ENDBRANCH   3   5
ENDBRANCH   2   3
ENDBRANCH   1   2
BRANCH   1  55
ATOM     55  C   UNL A   1      44.258  18.311  26.060  1.00  0.00     0.275 C 
BRANCH  55  56
ATOM     56  O   UNL A   1      44.600  19.075  24.896  1.00  0.00    -0.456 OA
BRANCH  56  57
ATOM     57  C   UNL A   1      45.749  19.808  25.018  1.00  0.00     0.376 C 
ATOM     58  O   UNL A   1      46.885  19.359  25.082  1.00  0.00    -0.242 OA
BRANCH  57  59
ATOM     59  C   UNL A   1      45.416  21.261  24.930  1.00  0.00     0.239 A 
ATOM     60  N   UNL A   1      44.175  21.550  24.492  1.00  0.00    -0.230 NA
ATOM     61  N   UNL A   1      46.344  22.149  25.348  1.00  0.00    -0.222 NA
ATOM     62  C   UNL A   1      43.839  22.850  24.534  1.00  0.00     0.124 A 
ATOM     63  C   UNL A   1      45.976  23.438  25.334  1.00  0.00     0.075 A 
ATOM     64  C   UNL A   1      44.687  23.853  24.972  1.00  0.00     0.019 A 
ATOM     65  C   UNL A   1      46.882  24.426  25.701  1.00  0.00     0.029 A 
ATOM     66  C   UNL A   1      44.297  25.203  25.061  1.00  0.00     0.012 A 
ATOM     67  C   UNL A   1      46.513  25.773  25.784  1.00  0.00     0.002 A 
ATOM     68  C   UNL A   1      45.213  26.159  25.483  1.00  0.00     0.001 A 
ENDBRANCH  57  59
ENDBRANCH  56  57
ENDBRANCH  55  56
ENDBRANCH   1  55
TORSDOF 11
ENDMDL
