MODEL 1
REMARK VINA RESULT:     -10.0      0.000      0.000
REMARK SMILES COc1ccccc1Nc1snc(C)c1C(=O)OCCOC(=O)c1ccc(-c2c3nc(c(-c4ccccc4)c4ccc([nH]4)c(-c4ccccc4)c4nc(c(-c5ccccc5)c5ccc2[nH]5)C=C4)C=C3)cc1
REMARK SMILES IDX 19 1 18 2 16 3 17 4 15 5 10 6 11 7 12 8 13 9 14 10 9 11 8 13
REMARK SMILES IDX 3 14 4 15 5 16 7 17 6 18 2 19 1 20 20 21 21 22 22 23 23 24
REMARK SMILES IDX 24 25 25 26 71 27 26 28 70 29 27 30 28 31 29 32 64 33 30 34
REMARK SMILES IDX 69 35 63 36 65 37 31 38 68 39 62 40 61 41 32 43 54 44 39 45
REMARK SMILES IDX 53 46 40 47 43 48 52 49 66 50 41 51 42 52 51 54 67 55 44 56
REMARK SMILES IDX 33 57 34 58 38 59 35 60 37 61 36 62 55 63 56 64 60 65 57 66
REMARK SMILES IDX 59 67 58 68 45 69 46 70 50 71 47 72 49 73 48 74
REMARK H PARENT 9 12 65 42 43 53
REMARK Flexibility Score: inf
ROOT
ATOM      1  C   UNL A   1      41.139  20.124  27.173  1.00  0.00     0.275 C 
ENDROOT
BRANCH   1   2
ATOM      2  O   UNL A   1      42.494  20.521  26.932  1.00  0.00    -0.458 OA
BRANCH   2   3
ATOM      3  C   UNL A   1      43.085  20.047  25.797  1.00  0.00     0.343 C 
ATOM      4  O   UNL A   1      42.617  19.144  25.107  1.00  0.00    -0.246 OA
BRANCH   3   5
ATOM      5  C   UNL A   1      44.306  20.758  25.447  1.00  0.00     0.117 A 
ATOM      6  C   UNL A   1      44.443  22.142  25.347  1.00  0.00     0.128 A 
ATOM      7  S   UNL A   1      46.017  22.462  24.724  1.00  0.00    -0.017 S 
ATOM      8  N   UNL A   1      46.559  20.908  24.755  1.00  0.00    -0.195 NA
ATOM      9  C   UNL A   1      45.560  20.107  25.129  1.00  0.00     0.068 A 
ATOM     10  C   UNL A   1      45.841  18.641  25.149  1.00  0.00     0.069 C 
BRANCH   6  11
ATOM     11  N   UNL A   1      43.599  23.174  25.616  1.00  0.00    -0.342 N 
ATOM     12  H   UNL A   1      42.829  23.267  25.010  1.00  0.00     0.168 HD
BRANCH  11  13
ATOM     13  C   UNL A   1      43.687  24.128  26.651  1.00  0.00     0.082 A 
ATOM     14  C   UNL A   1      44.136  25.434  26.376  1.00  0.00     0.142 A 
ATOM     15  C   UNL A   1      44.171  26.409  27.376  1.00  0.00     0.048 A 
ATOM     16  C   UNL A   1      43.726  26.108  28.663  1.00  0.00     0.004 A 
ATOM     17  C   UNL A   1      43.278  23.842  27.964  1.00  0.00     0.030 A 
ATOM     18  C   UNL A   1      43.284  24.822  28.958  1.00  0.00     0.002 A 
BRANCH  14  19
ATOM     19  O   UNL A   1      44.657  25.773  25.150  1.00  0.00    -0.495 OA
ATOM     20  C   UNL A   1      45.384  27.001  25.202  1.00  0.00     0.278 C 
ENDBRANCH  14  19
ENDBRANCH  11  13
ENDBRANCH   6  11
ENDBRANCH   3   5
ENDBRANCH   2   3
ENDBRANCH   1   2
BRANCH   1  21
ATOM     21  C   UNL A   1      40.186  21.036  26.421  1.00  0.00     0.275 C 
BRANCH  21  22
ATOM     22  O   UNL A   1      40.532  22.416  26.560  1.00  0.00    -0.458 OA
BRANCH  22  23
ATOM     23  C   UNL A   1      39.478  23.260  26.591  1.00  0.00     0.338 C 
ATOM     24  O   UNL A   1      38.370  23.081  26.116  1.00  0.00    -0.246 OA
BRANCH  23  25
ATOM     25  C   UNL A   1      39.919  24.570  27.078  1.00  0.00     0.060 A 
ATOM     26  C   UNL A   1      39.593  24.912  28.391  1.00  0.00     0.016 A 
ATOM     27  C   UNL A   1      40.433  25.520  26.180  1.00  0.00     0.016 A 
ATOM     28  C   UNL A   1      39.693  26.236  28.771  1.00  0.00     0.010 A 
ATOM     29  C   UNL A   1      40.539  26.842  26.567  1.00  0.00     0.010 A 
ATOM     30  C   UNL A   1      40.126  27.201  27.844  1.00  0.00    -0.014 A 
BRANCH  30  31
ATOM     31  C   UNL A   1      40.324  28.556  28.336  1.00  0.00     0.031 A 
ATOM     32  C   UNL A   1      41.581  29.153  27.827  1.00  0.00     0.074 A 
ATOM     33  C   UNL A   1      39.462  29.254  29.101  1.00  0.00     0.049 A 
ATOM     34  N   UNL A   1      42.642  29.408  28.515  1.00  0.00    -0.248 NA
ATOM     35  C   UNL A   1      41.749  29.302  26.372  1.00  0.00     0.031 C 
ATOM     36  C   UNL A   1      38.092  28.904  29.482  1.00  0.00     0.029 A 
ATOM     37  N   UNL A   1      39.616  30.501  29.635  1.00  0.00    -0.354 N 
ATOM     38  C   UNL A   1      43.553  29.945  27.616  1.00  0.00     0.074 A 
ATOM     39  C   UNL A   1      43.020  29.700  26.300  1.00  0.00     0.031 C 
ATOM     40  C   UNL A   1      37.472  30.000  29.978  1.00  0.00     0.029 A 
ATOM     41  C   UNL A   1      38.436  31.082  30.083  1.00  0.00     0.049 A 
ATOM     42  H   UNL A   1      40.490  30.949  29.697  1.00  0.00     0.167 HD
ATOM     43  C   UNL A   1      44.515  30.804  28.048  1.00  0.00     0.031 A 
ATOM     44  C   UNL A   1      38.264  32.372  30.472  1.00  0.00     0.031 A 
ATOM     45  C   UNL A   1      44.735  30.681  29.468  1.00  0.00     0.049 A 
ATOM     46  C   UNL A   1      39.592  32.906  30.845  1.00  0.00     0.074 A 
ATOM     47  C   UNL A   1      45.106  29.659  30.320  1.00  0.00     0.029 A 
ATOM     48  N   UNL A   1      44.178  31.652  30.264  1.00  0.00    -0.354 N 
ATOM     49  N   UNL A   1      40.249  32.518  31.898  1.00  0.00    -0.248 NA
ATOM     50  C   UNL A   1      40.379  33.579  29.826  1.00  0.00     0.031 C 
ATOM     51  C   UNL A   1      44.348  29.873  31.510  1.00  0.00     0.029 A 
ATOM     52  C   UNL A   1      43.611  31.046  31.350  1.00  0.00     0.049 A 
ATOM     53  H   UNL A   1      44.184  32.620  30.081  1.00  0.00     0.167 HD
ATOM     54  C   UNL A   1      41.568  32.461  31.476  1.00  0.00     0.074 A 
ATOM     55  C   UNL A   1      41.603  33.242  30.241  1.00  0.00     0.031 C 
ATOM     56  C   UNL A   1      42.431  31.550  32.017  1.00  0.00     0.031 A 
BRANCH  43  57
ATOM     57  C   UNL A   1      44.821  32.084  27.299  1.00  0.00    -0.014 A 
ATOM     58  C   UNL A   1      46.152  32.323  26.911  1.00  0.00     0.009 A 
ATOM     59  C   UNL A   1      43.946  33.187  27.266  1.00  0.00     0.009 A 
ATOM     60  C   UNL A   1      46.603  33.617  26.626  1.00  0.00     0.001 A 
ATOM     61  C   UNL A   1      44.383  34.472  26.940  1.00  0.00     0.001 A 
ATOM     62  C   UNL A   1      45.721  34.692  26.655  1.00  0.00     0.000 A 
ENDBRANCH  43  57
BRANCH  44  63
ATOM     63  C   UNL A   1      37.099  33.269  30.295  1.00  0.00    -0.014 A 
ATOM     64  C   UNL A   1      36.653  33.613  29.006  1.00  0.00     0.009 A 
ATOM     65  C   UNL A   1      36.240  33.537  31.375  1.00  0.00     0.009 A 
ATOM     66  C   UNL A   1      35.373  34.144  28.801  1.00  0.00     0.001 A 
ATOM     67  C   UNL A   1      34.964  34.075  31.170  1.00  0.00     0.001 A 
ATOM     68  C   UNL A   1      34.522  34.358  29.882  1.00  0.00     0.000 A 
ENDBRANCH  44  63
BRANCH  56  69
ATOM     69  C   UNL A   1      42.016  30.849  33.286  1.00  0.00    -0.014 A 
ATOM     70  C   UNL A   1      42.228  31.369  34.574  1.00  0.00     0.009 A 
ATOM     71  C   UNL A   1      41.273  29.665  33.161  1.00  0.00     0.009 A 
ATOM     72  C   UNL A   1      41.741  30.702  35.704  1.00  0.00     0.001 A 
ATOM     73  C   UNL A   1      40.768  29.011  34.287  1.00  0.00     0.001 A 
ATOM     74  C   UNL A   1      41.008  29.525  35.559  1.00  0.00     0.000 A 
ENDBRANCH  56  69
ENDBRANCH  30  31
ENDBRANCH  23  25
ENDBRANCH  22  23
ENDBRANCH  21  22
ENDBRANCH   1  21
TORSDOF 14
ENDMDL
MODEL 2
REMARK VINA RESULT:      -9.8      5.055     10.128
REMARK SMILES COc1ccccc1Nc1snc(C)c1C(=O)OCCOC(=O)c1ccc(-c2c3nc(c(-c4ccccc4)c4ccc([nH]4)c(-c4ccccc4)c4nc(c(-c5ccccc5)c5ccc2[nH]5)C=C4)C=C3)cc1
REMARK SMILES IDX 19 1 18 2 16 3 17 4 15 5 10 6 11 7 12 8 13 9 14 10 9 11 8 13
REMARK SMILES IDX 3 14 4 15 5 16 7 17 6 18 2 19 1 20 20 21 21 22 22 23 23 24
REMARK SMILES IDX 24 25 25 26 71 27 26 28 70 29 27 30 28 31 29 32 64 33 30 34
REMARK SMILES IDX 69 35 63 36 65 37 31 38 68 39 62 40 61 41 32 43 54 44 39 45
REMARK SMILES IDX 53 46 40 47 43 48 52 49 66 50 41 51 42 52 51 54 67 55 44 56
REMARK SMILES IDX 33 57 34 58 38 59 35 60 37 61 36 62 55 63 56 64 60 65 57 66
REMARK SMILES IDX 59 67 58 68 45 69 46 70 50 71 47 72 49 73 48 74
REMARK H PARENT 9 12 65 42 43 53
REMARK Flexibility Score: inf
ROOT
ATOM      1  C   UNL A   1      31.828  30.381  26.169  1.00  0.00     0.275 C 
ENDROOT
BRANCH   1   2
ATOM      2  O   UNL A   1      32.678  29.361  25.631  1.00  0.00    -0.458 OA
BRANCH   2   3
ATOM      3  C   UNL A   1      32.428  28.959  24.351  1.00  0.00     0.343 C 
ATOM      4  O   UNL A   1      33.154  29.225  23.395  1.00  0.00    -0.246 OA
BRANCH   3   5
ATOM      5  C   UNL A   1      31.237  28.130  24.232  1.00  0.00     0.117 A 
ATOM      6  C   UNL A   1      30.955  26.997  24.993  1.00  0.00     0.128 A 
ATOM      7  S   UNL A   1      29.533  26.276  24.340  1.00  0.00    -0.017 S 
ATOM      8  N   UNL A   1      29.196  27.464  23.251  1.00  0.00    -0.195 NA
ATOM      9  C   UNL A   1      30.177  28.366  23.275  1.00  0.00     0.068 A 
ATOM     10  C   UNL A   1      30.084  29.491  22.298  1.00  0.00     0.069 C 
BRANCH   6  11
ATOM     11  N   UNL A   1      31.582  26.416  26.051  1.00  0.00    -0.342 N 
ATOM     12  H   UNL A   1      31.272  26.699  26.942  1.00  0.00     0.168 HD
BRANCH  11  13
ATOM     13  C   UNL A   1      32.620  25.461  26.036  1.00  0.00     0.082 A 
ATOM     14  C   UNL A   1      32.418  24.185  26.594  1.00  0.00     0.142 A 
ATOM     15  C   UNL A   1      33.413  23.206  26.533  1.00  0.00     0.048 A 
ATOM     16  C   UNL A   1      34.617  23.472  25.883  1.00  0.00     0.004 A 
ATOM     17  C   UNL A   1      33.856  25.715  25.418  1.00  0.00     0.030 A 
ATOM     18  C   UNL A   1      34.840  24.729  25.329  1.00  0.00     0.002 A 
BRANCH  14  19
ATOM     19  O   UNL A   1      31.285  23.883  27.312  1.00  0.00    -0.495 OA
ATOM     20  C   UNL A   1      30.424  22.994  26.600  1.00  0.00     0.278 C 
ENDBRANCH  14  19
ENDBRANCH  11  13
ENDBRANCH   6  11
ENDBRANCH   3   5
ENDBRANCH   2   3
ENDBRANCH   1   2
BRANCH   1  21
ATOM     21  C   UNL A   1      32.591  31.214  27.184  1.00  0.00     0.275 C 
BRANCH  21  22
ATOM     22  O   UNL A   1      33.988  30.914  27.192  1.00  0.00    -0.458 OA
BRANCH  22  23
ATOM     23  C   UNL A   1      34.741  31.762  27.925  1.00  0.00     0.338 C 
ATOM     24  O   UNL A   1      34.617  32.970  28.023  1.00  0.00    -0.246 OA
BRANCH  23  25
ATOM     25  C   UNL A   1      35.925  31.054  28.424  1.00  0.00     0.060 A 
ATOM     26  C   UNL A   1      36.985  31.828  28.896  1.00  0.00     0.016 A 
ATOM     27  C   UNL A   1      36.064  29.674  28.207  1.00  0.00     0.016 A 
ATOM     28  C   UNL A   1      38.218  31.227  29.057  1.00  0.00     0.010 A 
ATOM     29  C   UNL A   1      37.298  29.075  28.376  1.00  0.00     0.010 A 
ATOM     30  C   UNL A   1      38.378  29.862  28.756  1.00  0.00    -0.014 A 
BRANCH  30  31
ATOM     31  C   UNL A   1      39.668  29.259  29.057  1.00  0.00     0.031 A 
ATOM     32  C   UNL A   1      39.951  29.253  30.512  1.00  0.00     0.074 A 
ATOM     33  C   UNL A   1      40.504  28.693  28.166  1.00  0.00     0.049 A 
ATOM     34  N   UNL A   1      40.834  29.967  31.124  1.00  0.00    -0.248 NA
ATOM     35  C   UNL A   1      39.031  28.527  31.404  1.00  0.00     0.031 C 
ATOM     36  C   UNL A   1      40.269  28.407  26.750  1.00  0.00     0.029 A 
ATOM     37  N   UNL A   1      41.744  28.164  28.381  1.00  0.00    -0.354 N 
ATOM     38  C   UNL A   1      40.724  29.630  32.466  1.00  0.00     0.074 A 
ATOM     39  C   UNL A   1      39.501  28.880  32.601  1.00  0.00     0.031 C 
ATOM     40  C   UNL A   1      41.223  27.558  26.301  1.00  0.00     0.029 A 
ATOM     41  C   UNL A   1      42.210  27.359  27.349  1.00  0.00     0.049 A 
ATOM     42  H   UNL A   1      42.264  28.340  29.198  1.00  0.00     0.167 HD
ATOM     43  C   UNL A   1      41.799  29.745  33.290  1.00  0.00     0.031 A 
ATOM     44  C   UNL A   1      43.307  26.558  27.377  1.00  0.00     0.031 A 
ATOM     45  C   UNL A   1      42.791  30.640  32.744  1.00  0.00     0.049 A 
ATOM     46  C   UNL A   1      44.200  27.063  28.441  1.00  0.00     0.074 A 
ATOM     47  C   UNL A   1      42.809  31.964  32.350  1.00  0.00     0.029 A 
ATOM     48  N   UNL A   1      43.893  30.058  32.166  1.00  0.00    -0.354 N 
ATOM     49  N   UNL A   1      44.841  28.192  28.362  1.00  0.00    -0.248 NA
ATOM     50  C   UNL A   1      44.069  26.509  29.777  1.00  0.00     0.031 C 
ATOM     51  C   UNL A   1      43.657  31.998  31.201  1.00  0.00     0.029 A 
ATOM     52  C   UNL A   1      44.163  30.714  30.997  1.00  0.00     0.049 A 
ATOM     53  H   UNL A   1      44.400  29.297  32.531  1.00  0.00     0.167 HD
ATOM     54  C   UNL A   1      44.769  28.717  29.642  1.00  0.00     0.074 A 
ATOM     55  C   UNL A   1      44.397  27.588  30.492  1.00  0.00     0.031 C 
ATOM     56  C   UNL A   1      44.736  30.069  29.837  1.00  0.00     0.031 A 
BRANCH  43  57
ATOM     57  C   UNL A   1      42.165  28.648  34.267  1.00  0.00    -0.014 A 
ATOM     58  C   UNL A   1      42.613  27.419  33.747  1.00  0.00     0.009 A 
ATOM     59  C   UNL A   1      41.771  28.655  35.619  1.00  0.00     0.009 A 
ATOM     60  C   UNL A   1      42.552  26.245  34.506  1.00  0.00     0.001 A 
ATOM     61  C   UNL A   1      41.749  27.493  36.392  1.00  0.00     0.001 A 
ATOM     62  C   UNL A   1      42.105  26.281  35.823  1.00  0.00     0.000 A 
ENDBRANCH  43  57
BRANCH  44  63
ATOM     63  C   UNL A   1      43.532  25.235  26.750  1.00  0.00    -0.014 A 
ATOM     64  C   UNL A   1      42.890  24.090  27.254  1.00  0.00     0.009 A 
ATOM     65  C   UNL A   1      44.125  25.144  25.479  1.00  0.00     0.009 A 
ATOM     66  C   UNL A   1      42.791  22.920  26.489  1.00  0.00     0.001 A 
ATOM     67  C   UNL A   1      44.032  23.973  24.718  1.00  0.00     0.001 A 
ATOM     68  C   UNL A   1      43.347  22.868  25.214  1.00  0.00     0.000 A 
ENDBRANCH  44  63
BRANCH  56  69
ATOM     69  C   UNL A   1      45.106  30.960  28.678  1.00  0.00    -0.014 A 
ATOM     70  C   UNL A   1      44.197  31.382  27.693  1.00  0.00     0.009 A 
ATOM     71  C   UNL A   1      46.405  31.489  28.653  1.00  0.00     0.009 A 
ATOM     72  C   UNL A   1      44.591  32.277  26.691  1.00  0.00     0.001 A 
ATOM     73  C   UNL A   1      46.793  32.399  27.668  1.00  0.00     0.001 A 
ATOM     74  C   UNL A   1      45.888  32.788  26.683  1.00  0.00     0.000 A 
ENDBRANCH  56  69
ENDBRANCH  30  31
ENDBRANCH  23  25
ENDBRANCH  22  23
ENDBRANCH  21  22
ENDBRANCH   1  21
TORSDOF 14
ENDMDL
MODEL 3
REMARK VINA RESULT:      -9.8      2.545      4.055
REMARK SMILES COc1ccccc1Nc1snc(C)c1C(=O)OCCOC(=O)c1ccc(-c2c3nc(c(-c4ccccc4)c4ccc([nH]4)c(-c4ccccc4)c4nc(c(-c5ccccc5)c5ccc2[nH]5)C=C4)C=C3)cc1
REMARK SMILES IDX 19 1 18 2 16 3 17 4 15 5 10 6 11 7 12 8 13 9 14 10 9 11 8 13
REMARK SMILES IDX 3 14 4 15 5 16 7 17 6 18 2 19 1 20 20 21 21 22 22 23 23 24
REMARK SMILES IDX 24 25 25 26 71 27 26 28 70 29 27 30 28 31 29 32 64 33 30 34
REMARK SMILES IDX 69 35 63 36 65 37 31 38 68 39 62 40 61 41 32 43 54 44 39 45
REMARK SMILES IDX 53 46 40 47 43 48 52 49 66 50 41 51 42 52 51 54 67 55 44 56
REMARK SMILES IDX 33 57 34 58 38 59 35 60 37 61 36 62 55 63 56 64 60 65 57 66
REMARK SMILES IDX 59 67 58 68 45 69 46 70 50 71 47 72 49 73 48 74
REMARK H PARENT 9 12 65 42 43 53
REMARK Flexibility Score: inf
ROOT
ATOM      1  C   UNL A   1      46.651  24.106  26.590  1.00  0.00     0.275 C 
ENDROOT
BRANCH   1   2
ATOM      2  O   UNL A   1      46.286  22.725  26.484  1.00  0.00    -0.458 OA
BRANCH   2   3
ATOM      3  C   UNL A   1      45.628  22.345  25.350  1.00  0.00     0.343 C 
ATOM      4  O   UNL A   1      46.045  22.555  24.213  1.00  0.00    -0.246 OA
BRANCH   3   5
ATOM      5  C   UNL A   1      44.400  21.610  25.618  1.00  0.00     0.117 A 
ATOM      6  C   UNL A   1      43.401  21.993  26.512  1.00  0.00     0.128 A 
ATOM      7  S   UNL A   1      42.265  20.702  26.603  1.00  0.00    -0.017 S 
ATOM      8  N   UNL A   1      42.928  19.776  25.414  1.00  0.00    -0.195 NA
ATOM      9  C   UNL A   1      44.057  20.350  24.995  1.00  0.00     0.068 A 
ATOM     10  C   UNL A   1      44.844  19.616  23.961  1.00  0.00     0.069 C 
BRANCH   6  11
ATOM     11  N   UNL A   1      43.218  23.109  27.268  1.00  0.00    -0.342 N 
ATOM     12  H   UNL A   1      43.883  23.261  27.978  1.00  0.00     0.168 HD
BRANCH  11  13
ATOM     13  C   UNL A   1      42.196  24.077  27.165  1.00  0.00     0.082 A 
ATOM     14  C   UNL A   1      42.114  24.902  26.027  1.00  0.00     0.142 A 
ATOM     15  C   UNL A   1      41.073  25.823  25.879  1.00  0.00     0.048 A 
ATOM     16  C   UNL A   1      40.077  25.915  26.851  1.00  0.00     0.004 A 
ATOM     17  C   UNL A   1      41.199  24.215  28.145  1.00  0.00     0.030 A 
ATOM     18  C   UNL A   1      40.143  25.113  27.986  1.00  0.00     0.002 A 
BRANCH  14  19
ATOM     19  O   UNL A   1      43.102  24.914  25.072  1.00  0.00    -0.495 OA
ATOM     20  C   UNL A   1      43.912  26.086  25.158  1.00  0.00     0.278 C 
ENDBRANCH  14  19
ENDBRANCH  11  13
ENDBRANCH   6  11
ENDBRANCH   3   5
ENDBRANCH   2   3
ENDBRANCH   1   2
BRANCH   1  21
ATOM     21  C   UNL A   1      46.645  24.536  28.047  1.00  0.00     0.275 C 
BRANCH  21  22
ATOM     22  O   UNL A   1      45.339  24.898  28.501  1.00  0.00    -0.458 OA
BRANCH  22  23
ATOM     23  C   UNL A   1      45.305  25.449  29.733  1.00  0.00     0.338 C 
ATOM     24  O   UNL A   1      45.916  25.089  30.725  1.00  0.00    -0.246 OA
BRANCH  23  25
ATOM     25  C   UNL A   1      44.217  26.430  29.797  1.00  0.00     0.060 A 
ATOM     26  C   UNL A   1      43.687  26.882  28.588  1.00  0.00     0.016 A 
ATOM     27  C   UNL A   1      43.899  27.053  31.014  1.00  0.00     0.016 A 
ATOM     28  C   UNL A   1      42.912  28.025  28.595  1.00  0.00     0.010 A 
ATOM     29  C   UNL A   1      43.118  28.192  31.018  1.00  0.00     0.010 A 
ATOM     30  C   UNL A   1      42.666  28.698  29.806  1.00  0.00    -0.014 A 
BRANCH  30  31
ATOM     31  C   UNL A   1      41.748  29.826  29.766  1.00  0.00     0.031 A 
ATOM     32  C   UNL A   1      42.459  31.113  29.580  1.00  0.00     0.074 A 
ATOM     33  C   UNL A   1      40.403  29.755  29.811  1.00  0.00     0.049 A 
ATOM     34  N   UNL A   1      42.596  32.047  30.460  1.00  0.00    -0.248 NA
ATOM     35  C   UNL A   1      43.266  31.301  28.363  1.00  0.00     0.031 C 
ATOM     36  C   UNL A   1      39.551  28.566  29.752  1.00  0.00     0.029 A 
ATOM     37  N   UNL A   1      39.498  30.776  29.833  1.00  0.00    -0.354 N 
ATOM     38  C   UNL A   1      43.338  33.042  29.838  1.00  0.00     0.074 A 
ATOM     39  C   UNL A   1      43.862  32.464  28.627  1.00  0.00     0.031 C 
ATOM     40  C   UNL A   1      38.274  28.942  29.507  1.00  0.00     0.029 A 
ATOM     41  C   UNL A   1      38.195  30.394  29.538  1.00  0.00     0.049 A 
ATOM     42  H   UNL A   1      39.748  31.705  30.041  1.00  0.00     0.167 HD
ATOM     43  C   UNL A   1      43.208  34.337  30.230  1.00  0.00     0.031 A 
ATOM     44  C   UNL A   1      37.142  31.217  29.298  1.00  0.00     0.031 A 
ATOM     45  C   UNL A   1      42.645  34.436  31.554  1.00  0.00     0.049 A 
ATOM     46  C   UNL A   1      37.455  32.529  29.904  1.00  0.00     0.074 A 
ATOM     47  C   UNL A   1      42.996  33.974  32.808  1.00  0.00     0.029 A 
ATOM     48  N   UNL A   1      41.316  34.773  31.635  1.00  0.00    -0.354 N 
ATOM     49  N   UNL A   1      37.512  32.728  31.188  1.00  0.00    -0.248 NA
ATOM     50  C   UNL A   1      38.109  33.534  29.084  1.00  0.00     0.031 C 
ATOM     51  C   UNL A   1      41.762  33.636  33.439  1.00  0.00     0.029 A 
ATOM     52  C   UNL A   1      40.724  33.971  32.569  1.00  0.00     0.049 A 
ATOM     53  H   UNL A   1      40.867  35.473  31.107  1.00  0.00     0.167 HD
ATOM     54  C   UNL A   1      38.587  33.587  31.354  1.00  0.00     0.074 A 
ATOM     55  C   UNL A   1      38.832  34.145  30.025  1.00  0.00     0.031 C 
ATOM     56  C   UNL A   1      39.346  33.538  32.488  1.00  0.00     0.031 A 
BRANCH  43  57
ATOM     57  C   UNL A   1      43.073  35.456  29.219  1.00  0.00    -0.014 A 
ATOM     58  C   UNL A   1      43.711  36.679  29.493  1.00  0.00     0.009 A 
ATOM     59  C   UNL A   1      42.091  35.468  28.209  1.00  0.00     0.009 A 
ATOM     60  C   UNL A   1      43.300  37.866  28.875  1.00  0.00     0.001 A 
ATOM     61  C   UNL A   1      41.708  36.643  27.559  1.00  0.00     0.001 A 
ATOM     62  C   UNL A   1      42.289  37.848  27.920  1.00  0.00     0.000 A 
ENDBRANCH  43  57
BRANCH  44  63
ATOM     63  C   UNL A   1      36.007  31.057  28.360  1.00  0.00    -0.014 A 
ATOM     64  C   UNL A   1      35.782  29.826  27.717  1.00  0.00     0.009 A 
ATOM     65  C   UNL A   1      34.970  32.006  28.333  1.00  0.00     0.009 A 
ATOM     66  C   UNL A   1      34.545  29.534  27.127  1.00  0.00     0.001 A 
ATOM     67  C   UNL A   1      33.737  31.716  27.737  1.00  0.00     0.001 A 
ATOM     68  C   UNL A   1      33.517  30.473  27.153  1.00  0.00     0.000 A 
ENDBRANCH  44  63
BRANCH  56  69
ATOM     69  C   UNL A   1      38.803  32.775  33.671  1.00  0.00    -0.014 A 
ATOM     70  C   UNL A   1      38.982  31.394  33.861  1.00  0.00     0.009 A 
ATOM     71  C   UNL A   1      38.186  33.513  34.692  1.00  0.00     0.009 A 
ATOM     72  C   UNL A   1      38.521  30.767  35.025  1.00  0.00     0.001 A 
ATOM     73  C   UNL A   1      37.748  32.892  35.863  1.00  0.00     0.001 A 
ATOM     74  C   UNL A   1      37.908  31.518  36.027  1.00  0.00     0.000 A 
ENDBRANCH  56  69
ENDBRANCH  30  31
ENDBRANCH  23  25
ENDBRANCH  22  23
ENDBRANCH  21  22
ENDBRANCH   1  21
TORSDOF 14
ENDMDL
