MODEL 1
REMARK VINA RESULT:     -11.6      0.000      0.000
REMARK SMILES O=C(OCCOC(=O)[C@H](c1ccccc1)C(c1ccccc1)c1ccccc1)c1ccc(-c2c3nc(c(-c4ccccc4)c4ccc([nH]4)c(-c4ccccc4)c4nc(c(-c5ccccc5)c5ccc2[nH]5)C=C4)C=C3)cc1
REMARK SMILES IDX 4 1 3 2 2 3 1 4 29 5 30 6 76 7 31 8 75 9 32 10 33 11 34 12
REMARK SMILES IDX 69 13 35 14 74 15 68 16 70 17 36 18 73 19 67 20 66 21 37 23
REMARK SMILES IDX 59 24 44 25 58 26 45 27 48 28 57 29 71 30 46 31 47 32 56 34
REMARK SMILES IDX 72 35 49 36 38 37 39 38 43 39 40 40 42 41 41 42 60 43 61 44
REMARK SMILES IDX 65 45 62 46 64 47 63 48 50 49 51 50 55 51 52 52 54 53 53 54
REMARK SMILES IDX 5 55 6 56 7 57 8 58 9 59 16 60 17 61 18 62 22 63 19 64 21 65
REMARK SMILES IDX 20 66 23 67 24 68 28 69 25 70 27 71 26 72 10 73 11 74 15 75
REMARK SMILES IDX 12 76 14 77 13 78
REMARK H PARENT 70 22 48 33
REMARK Flexibility Score: inf
ROOT
ATOM      1  C   UNL A   1      31.673  32.280  27.060  1.00  0.00     0.275 C 
ENDROOT
BRANCH   1   2
ATOM      2  O   UNL A   1      32.156  33.622  27.234  1.00  0.00    -0.458 OA
BRANCH   2   3
ATOM      3  C   UNL A   1      32.919  34.149  28.218  1.00  0.00     0.338 C 
ATOM      4  O   UNL A   1      32.525  35.177  28.771  1.00  0.00    -0.246 OA
BRANCH   3   5
ATOM      5  C   UNL A   1      34.268  33.627  28.623  1.00  0.00     0.060 A 
ATOM      6  C   UNL A   1      35.494  33.886  28.006  1.00  0.00     0.016 A 
ATOM      7  C   UNL A   1      34.285  32.800  29.757  1.00  0.00     0.016 A 
ATOM      8  C   UNL A   1      36.697  33.420  28.551  1.00  0.00     0.010 A 
ATOM      9  C   UNL A   1      35.487  32.364  30.331  1.00  0.00     0.010 A 
ATOM     10  C   UNL A   1      36.707  32.665  29.726  1.00  0.00    -0.014 A 
BRANCH  10  11
ATOM     11  C   UNL A   1      37.975  32.068  30.210  1.00  0.00     0.031 A 
ATOM     12  C   UNL A   1      38.639  32.665  31.412  1.00  0.00     0.074 A 
ATOM     13  C   UNL A   1      38.501  30.966  29.642  1.00  0.00     0.049 A 
ATOM     14  N   UNL A   1      39.681  32.235  32.071  1.00  0.00    -0.248 NA
ATOM     15  C   UNL A   1      38.054  33.907  31.946  1.00  0.00     0.031 C 
ATOM     16  C   UNL A   1      37.952  30.288  28.475  1.00  0.00     0.029 A 
ATOM     17  N   UNL A   1      39.598  30.209  29.981  1.00  0.00    -0.354 N 
ATOM     18  C   UNL A   1      39.857  33.136  33.108  1.00  0.00     0.074 A 
ATOM     19  C   UNL A   1      38.880  34.186  32.938  1.00  0.00     0.031 C 
ATOM     20  C   UNL A   1      38.702  29.204  28.216  1.00  0.00     0.029 A 
ATOM     21  C   UNL A   1      39.785  29.114  29.172  1.00  0.00     0.049 A 
ATOM     22  H   UNL A   1      40.194  30.430  30.733  1.00  0.00     0.167 HD
ATOM     23  C   UNL A   1      40.723  33.073  34.143  1.00  0.00     0.031 A 
ATOM     24  C   UNL A   1      40.699  28.125  29.185  1.00  0.00     0.031 A 
ATOM     25  C   UNL A   1      41.706  32.042  34.309  1.00  0.00     0.049 A 
ATOM     26  C   UNL A   1      41.701  28.117  30.299  1.00  0.00     0.074 A 
ATOM     27  C   UNL A   1      42.644  31.898  35.313  1.00  0.00     0.029 A 
ATOM     28  N   UNL A   1      41.880  30.977  33.436  1.00  0.00    -0.354 N 
ATOM     29  N   UNL A   1      41.810  28.947  31.306  1.00  0.00    -0.248 NA
ATOM     30  C   UNL A   1      42.684  27.025  30.301  1.00  0.00     0.031 C 
ATOM     31  C   UNL A   1      43.415  30.766  35.027  1.00  0.00     0.029 A 
ATOM     32  C   UNL A   1      42.923  30.179  33.871  1.00  0.00     0.049 A 
ATOM     33  H   UNL A   1      41.342  30.813  32.628  1.00  0.00     0.167 HD
ATOM     34  C   UNL A   1      42.852  28.463  32.079  1.00  0.00     0.074 A 
ATOM     35  C   UNL A   1      43.323  27.251  31.438  1.00  0.00     0.031 C 
ATOM     36  C   UNL A   1      43.374  28.979  33.217  1.00  0.00     0.031 A 
BRANCH  23  37
ATOM     37  C   UNL A   1      40.615  34.169  35.159  1.00  0.00    -0.014 A 
ATOM     38  C   UNL A   1      39.834  33.998  36.316  1.00  0.00     0.009 A 
ATOM     39  C   UNL A   1      41.239  35.402  34.932  1.00  0.00     0.009 A 
ATOM     40  C   UNL A   1      39.645  35.059  37.202  1.00  0.00     0.001 A 
ATOM     41  C   UNL A   1      41.071  36.452  35.835  1.00  0.00     0.001 A 
ATOM     42  C   UNL A   1      40.265  36.284  36.961  1.00  0.00     0.000 A 
ENDBRANCH  23  37
BRANCH  24  43
ATOM     43  C   UNL A   1      40.705  27.054  28.144  1.00  0.00    -0.014 A 
ATOM     44  C   UNL A   1      41.394  27.224  26.931  1.00  0.00     0.009 A 
ATOM     45  C   UNL A   1      39.981  25.866  28.339  1.00  0.00     0.009 A 
ATOM     46  C   UNL A   1      41.317  26.257  25.923  1.00  0.00     0.001 A 
ATOM     47  C   UNL A   1      39.932  24.885  27.343  1.00  0.00     0.001 A 
ATOM     48  C   UNL A   1      40.586  25.088  26.130  1.00  0.00     0.000 A 
ENDBRANCH  24  43
BRANCH  36  49
ATOM     49  C   UNL A   1      44.496  28.210  33.848  1.00  0.00    -0.014 A 
ATOM     50  C   UNL A   1      45.835  28.490  33.533  1.00  0.00     0.009 A 
ATOM     51  C   UNL A   1      44.206  27.207  34.784  1.00  0.00     0.009 A 
ATOM     52  C   UNL A   1      46.862  27.749  34.117  1.00  0.00     0.001 A 
ATOM     53  C   UNL A   1      45.236  26.492  35.391  1.00  0.00     0.001 A 
ATOM     54  C   UNL A   1      46.563  26.756  35.049  1.00  0.00     0.000 A 
ENDBRANCH  36  49
ENDBRANCH  10  11
ENDBRANCH   3   5
ENDBRANCH   2   3
ENDBRANCH   1   2
BRANCH   1  55
ATOM     55  C   UNL A   1      32.782  31.242  26.909  1.00  0.00     0.274 C 
BRANCH  55  56
ATOM     56  O   UNL A   1      32.423  30.170  26.018  1.00  0.00    -0.462 OA
BRANCH  56  57
ATOM     57  C   UNL A   1      31.778  29.101  26.571  1.00  0.00     0.314 C 
ATOM     58  O   UNL A   1      31.875  28.779  27.758  1.00  0.00    -0.252 OA
BRANCH  57  59
ATOM     59  C   UNL A   1      30.976  28.312  25.528  1.00  0.00     0.141 C 
BRANCH  59  60
ATOM     60  C   UNL A   1      31.208  28.861  24.040  1.00  0.00     0.068 C 
BRANCH  60  61
ATOM     61  C   UNL A   1      31.775  27.802  23.023  1.00  0.00    -0.039 A 
ATOM     62  C   UNL A   1      31.023  26.749  22.474  1.00  0.00     0.004 A 
ATOM     63  C   UNL A   1      33.127  27.846  22.627  1.00  0.00     0.004 A 
ATOM     64  C   UNL A   1      31.574  25.780  21.625  1.00  0.00     0.000 A 
ATOM     65  C   UNL A   1      33.659  26.942  21.692  1.00  0.00     0.000 A 
ATOM     66  C   UNL A   1      32.889  25.892  21.209  1.00  0.00     0.000 A 
ENDBRANCH  60  61
BRANCH  60  67
ATOM     67  C   UNL A   1      29.966  29.658  23.494  1.00  0.00    -0.039 A 
ATOM     68  C   UNL A   1      29.156  29.200  22.446  1.00  0.00     0.004 A 
ATOM     69  C   UNL A   1      29.619  30.926  24.001  1.00  0.00     0.004 A 
ATOM     70  C   UNL A   1      28.030  29.906  21.989  1.00  0.00     0.000 A 
ATOM     71  C   UNL A   1      28.455  31.604  23.605  1.00  0.00     0.000 A 
ATOM     72  C   UNL A   1      27.652  31.089  22.600  1.00  0.00     0.000 A 
ENDBRANCH  60  67
ENDBRANCH  59  60
BRANCH  59  73
ATOM     73  C   UNL A   1      31.303  26.824  25.768  1.00  0.00    -0.033 A 
ATOM     74  C   UNL A   1      30.313  25.842  25.874  1.00  0.00     0.004 A 
ATOM     75  C   UNL A   1      32.641  26.412  25.885  1.00  0.00     0.004 A 
ATOM     76  C   UNL A   1      30.660  24.506  26.110  1.00  0.00     0.000 A 
ATOM     77  C   UNL A   1      32.993  25.086  26.121  1.00  0.00     0.000 A 
ATOM     78  C   UNL A   1      31.996  24.129  26.238  1.00  0.00     0.000 A 
ENDBRANCH  59  73
ENDBRANCH  57  59
ENDBRANCH  56  57
ENDBRANCH  55  56
ENDBRANCH   1  55
TORSDOF 15
ENDMDL
MODEL 2
REMARK VINA RESULT:     -11.4      4.858      9.752
REMARK SMILES O=C(OCCOC(=O)[C@H](c1ccccc1)C(c1ccccc1)c1ccccc1)c1ccc(-c2c3nc(c(-c4ccccc4)c4ccc([nH]4)c(-c4ccccc4)c4nc(c(-c5ccccc5)c5ccc2[nH]5)C=C4)C=C3)cc1
REMARK SMILES IDX 4 1 3 2 2 3 1 4 29 5 30 6 76 7 31 8 75 9 32 10 33 11 34 12
REMARK SMILES IDX 69 13 35 14 74 15 68 16 70 17 36 18 73 19 67 20 66 21 37 23
REMARK SMILES IDX 59 24 44 25 58 26 45 27 48 28 57 29 71 30 46 31 47 32 56 34
REMARK SMILES IDX 72 35 49 36 38 37 39 38 43 39 40 40 42 41 41 42 60 43 61 44
REMARK SMILES IDX 65 45 62 46 64 47 63 48 50 49 51 50 55 51 52 52 54 53 53 54
REMARK SMILES IDX 5 55 6 56 7 57 8 58 9 59 16 60 17 61 18 62 22 63 19 64 21 65
REMARK SMILES IDX 20 66 23 67 24 68 28 69 25 70 27 71 26 72 10 73 11 74 15 75
REMARK SMILES IDX 12 76 14 77 13 78
REMARK H PARENT 70 22 48 33
REMARK Flexibility Score: inf
ROOT
ATOM      1  C   UNL A   1      38.611  19.577  24.962  1.00  0.00     0.275 C 
ENDROOT
BRANCH   1   2
ATOM      2  O   UNL A   1      39.666  19.004  25.752  1.00  0.00    -0.458 OA
BRANCH   2   3
ATOM      3  C   UNL A   1      40.949  19.402  25.906  1.00  0.00     0.338 C 
ATOM      4  O   UNL A   1      41.839  18.565  25.751  1.00  0.00    -0.246 OA
BRANCH   3   5
ATOM      5  C   UNL A   1      41.368  20.774  26.351  1.00  0.00     0.060 A 
ATOM      6  C   UNL A   1      41.904  21.792  25.560  1.00  0.00     0.016 A 
ATOM      7  C   UNL A   1      41.183  21.055  27.714  1.00  0.00     0.016 A 
ATOM      8  C   UNL A   1      42.154  23.067  26.083  1.00  0.00     0.010 A 
ATOM      9  C   UNL A   1      41.392  22.338  28.236  1.00  0.00     0.010 A 
ATOM     10  C   UNL A   1      41.890  23.356  27.423  1.00  0.00    -0.014 A 
BRANCH  10  11
ATOM     11  C   UNL A   1      42.288  24.668  27.989  1.00  0.00     0.031 A 
ATOM     12  C   UNL A   1      43.746  24.964  28.162  1.00  0.00     0.074 A 
ATOM     13  C   UNL A   1      41.380  25.619  28.280  1.00  0.00     0.049 A 
ATOM     14  N   UNL A   1      44.318  26.082  28.523  1.00  0.00    -0.248 NA
ATOM     15  C   UNL A   1      44.684  23.863  27.890  1.00  0.00     0.031 C 
ATOM     16  C   UNL A   1      39.937  25.459  28.153  1.00  0.00     0.029 A 
ATOM     17  N   UNL A   1      41.534  26.913  28.720  1.00  0.00    -0.354 N 
ATOM     18  C   UNL A   1      45.678  25.823  28.496  1.00  0.00     0.074 A 
ATOM     19  C   UNL A   1      45.846  24.424  28.178  1.00  0.00     0.031 C 
ATOM     20  C   UNL A   1      39.346  26.620  28.482  1.00  0.00     0.029 A 
ATOM     21  C   UNL A   1      40.348  27.594  28.858  1.00  0.00     0.049 A 
ATOM     22  H   UNL A   1      42.411  27.314  28.917  1.00  0.00     0.167 HD
ATOM     23  C   UNL A   1      46.704  26.684  28.671  1.00  0.00     0.031 A 
ATOM     24  C   UNL A   1      40.070  28.860  29.223  1.00  0.00     0.031 A 
ATOM     25  C   UNL A   1      46.545  28.070  29.002  1.00  0.00     0.049 A 
ATOM     26  C   UNL A   1      41.223  29.779  29.489  1.00  0.00     0.074 A 
ATOM     27  C   UNL A   1      47.522  29.022  29.220  1.00  0.00     0.029 A 
ATOM     28  N   UNL A   1      45.320  28.700  29.171  1.00  0.00    -0.354 N 
ATOM     29  N   UNL A   1      42.505  29.528  29.396  1.00  0.00    -0.248 NA
ATOM     30  C   UNL A   1      40.898  31.158  29.877  1.00  0.00     0.031 C 
ATOM     31  C   UNL A   1      46.889  30.222  29.561  1.00  0.00     0.029 A 
ATOM     32  C   UNL A   1      45.517  30.028  29.507  1.00  0.00     0.049 A 
ATOM     33  H   UNL A   1      44.442  28.267  29.068  1.00  0.00     0.167 HD
ATOM     34  C   UNL A   1      43.142  30.724  29.684  1.00  0.00     0.074 A 
ATOM     35  C   UNL A   1      42.103  31.705  29.926  1.00  0.00     0.031 C 
ATOM     36  C   UNL A   1      44.469  30.985  29.745  1.00  0.00     0.031 A 
BRANCH  23  37
ATOM     37  C   UNL A   1      48.079  26.113  28.496  1.00  0.00    -0.014 A 
ATOM     38  C   UNL A   1      48.811  25.655  29.606  1.00  0.00     0.009 A 
ATOM     39  C   UNL A   1      48.675  26.090  27.229  1.00  0.00     0.009 A 
ATOM     40  C   UNL A   1      50.130  25.230  29.454  1.00  0.00     0.001 A 
ATOM     41  C   UNL A   1      49.985  25.637  27.076  1.00  0.00     0.001 A 
ATOM     42  C   UNL A   1      50.715  25.220  28.189  1.00  0.00     0.000 A 
ENDBRANCH  23  37
BRANCH  24  43
ATOM     43  C   UNL A   1      38.662  29.347  29.336  1.00  0.00    -0.014 A 
ATOM     44  C   UNL A   1      38.030  29.996  28.262  1.00  0.00     0.009 A 
ATOM     45  C   UNL A   1      37.953  29.205  30.541  1.00  0.00     0.009 A 
ATOM     46  C   UNL A   1      36.746  30.534  28.407  1.00  0.00     0.001 A 
ATOM     47  C   UNL A   1      36.657  29.714  30.673  1.00  0.00     0.001 A 
ATOM     48  C   UNL A   1      36.061  30.392  29.612  1.00  0.00     0.000 A 
ENDBRANCH  24  43
BRANCH  36  49
ATOM     49  C   UNL A   1      44.861  32.397  30.060  1.00  0.00    -0.014 A 
ATOM     50  C   UNL A   1      44.981  33.360  29.047  1.00  0.00     0.009 A 
ATOM     51  C   UNL A   1      45.093  32.769  31.392  1.00  0.00     0.009 A 
ATOM     52  C   UNL A   1      45.367  34.663  29.360  1.00  0.00     0.001 A 
ATOM     53  C   UNL A   1      45.445  34.080  31.705  1.00  0.00     0.001 A 
ATOM     54  C   UNL A   1      45.593  35.023  30.688  1.00  0.00     0.000 A 
ENDBRANCH  36  49
ENDBRANCH  10  11
ENDBRANCH   3   5
ENDBRANCH   2   3
ENDBRANCH   1   2
BRANCH   1  55
ATOM     55  C   UNL A   1      38.214  20.986  25.397  1.00  0.00     0.274 C 
BRANCH  55  56
ATOM     56  O   UNL A   1      37.496  21.701  24.375  1.00  0.00    -0.462 OA
BRANCH  56  57
ATOM     57  C   UNL A   1      36.429  22.449  24.782  1.00  0.00     0.314 C 
ATOM     58  O   UNL A   1      36.501  23.346  25.625  1.00  0.00    -0.252 OA
BRANCH  57  59
ATOM     59  C   UNL A   1      35.121  21.995  24.120  1.00  0.00     0.141 C 
BRANCH  59  60
ATOM     60  C   UNL A   1      34.243  21.064  25.085  1.00  0.00     0.068 C 
BRANCH  60  61
ATOM     61  C   UNL A   1      33.018  21.782  25.765  1.00  0.00    -0.039 A 
ATOM     62  C   UNL A   1      33.068  22.420  27.016  1.00  0.00     0.004 A 
ATOM     63  C   UNL A   1      31.756  21.788  25.137  1.00  0.00     0.004 A 
ATOM     64  C   UNL A   1      31.944  22.990  27.628  1.00  0.00     0.000 A 
ATOM     65  C   UNL A   1      30.650  22.451  25.695  1.00  0.00     0.000 A 
ATOM     66  C   UNL A   1      30.736  23.031  26.954  1.00  0.00     0.000 A 
ENDBRANCH  60  61
BRANCH  60  67
ATOM     67  C   UNL A   1      33.876  19.686  24.420  1.00  0.00    -0.039 A 
ATOM     68  C   UNL A   1      32.736  19.491  23.628  1.00  0.00     0.004 A 
ATOM     69  C   UNL A   1      34.659  18.533  24.626  1.00  0.00     0.004 A 
ATOM     70  C   UNL A   1      32.437  18.264  23.012  1.00  0.00     0.000 A 
ATOM     71  C   UNL A   1      34.412  17.324  23.956  1.00  0.00     0.000 A 
ATOM     72  C   UNL A   1      33.300  17.191  23.140  1.00  0.00     0.000 A 
ENDBRANCH  60  67
ENDBRANCH  59  60
BRANCH  59  73
ATOM     73  C   UNL A   1      34.438  23.273  23.593  1.00  0.00    -0.033 A 
ATOM     74  C   UNL A   1      34.553  24.509  24.236  1.00  0.00     0.004 A 
ATOM     75  C   UNL A   1      33.666  23.221  22.420  1.00  0.00     0.004 A 
ATOM     76  C   UNL A   1      33.899  25.638  23.728  1.00  0.00     0.000 A 
ATOM     77  C   UNL A   1      33.011  24.339  21.910  1.00  0.00     0.000 A 
ATOM     78  C   UNL A   1      33.126  25.553  22.570  1.00  0.00     0.000 A 
ENDBRANCH  59  73
ENDBRANCH  57  59
ENDBRANCH  56  57
ENDBRANCH  55  56
ENDBRANCH   1  55
TORSDOF 15
ENDMDL
MODEL 3
REMARK VINA RESULT:     -11.3      0.929      5.950
REMARK SMILES O=C(OCCOC(=O)[C@H](c1ccccc1)C(c1ccccc1)c1ccccc1)c1ccc(-c2c3nc(c(-c4ccccc4)c4ccc([nH]4)c(-c4ccccc4)c4nc(c(-c5ccccc5)c5ccc2[nH]5)C=C4)C=C3)cc1
REMARK SMILES IDX 4 1 3 2 2 3 1 4 29 5 30 6 76 7 31 8 75 9 32 10 33 11 34 12
REMARK SMILES IDX 69 13 35 14 74 15 68 16 70 17 36 18 73 19 67 20 66 21 37 23
REMARK SMILES IDX 59 24 44 25 58 26 45 27 48 28 57 29 71 30 46 31 47 32 56 34
REMARK SMILES IDX 72 35 49 36 38 37 39 38 43 39 40 40 42 41 41 42 60 43 61 44
REMARK SMILES IDX 65 45 62 46 64 47 63 48 50 49 51 50 55 51 52 52 54 53 53 54
REMARK SMILES IDX 5 55 6 56 7 57 8 58 9 59 16 60 17 61 18 62 22 63 19 64 21 65
REMARK SMILES IDX 20 66 23 67 24 68 28 69 25 70 27 71 26 72 10 73 11 74 15 75
REMARK SMILES IDX 12 76 14 77 13 78
REMARK H PARENT 70 22 48 33
REMARK Flexibility Score: inf
ROOT
ATOM      1  C   UNL A   1      31.809  32.107  27.163  1.00  0.00     0.275 C 
ENDROOT
BRANCH   1   2
ATOM      2  O   UNL A   1      32.286  33.459  27.243  1.00  0.00    -0.458 OA
BRANCH   2   3
ATOM      3  C   UNL A   1      33.054  34.054  28.182  1.00  0.00     0.338 C 
ATOM      4  O   UNL A   1      32.680  35.135  28.640  1.00  0.00    -0.246 OA
BRANCH   3   5
ATOM      5  C   UNL A   1      34.389  33.542  28.643  1.00  0.00     0.060 A 
ATOM      6  C   UNL A   1      35.620  33.694  28.001  1.00  0.00     0.016 A 
ATOM      7  C   UNL A   1      34.386  32.845  29.862  1.00  0.00     0.016 A 
ATOM      8  C   UNL A   1      36.811  33.257  28.595  1.00  0.00     0.010 A 
ATOM      9  C   UNL A   1      35.576  32.440  30.480  1.00  0.00     0.010 A 
ATOM     10  C   UNL A   1      36.803  32.636  29.845  1.00  0.00    -0.014 A 
BRANCH  10  11
ATOM     11  C   UNL A   1      38.055  32.060  30.393  1.00  0.00     0.031 A 
ATOM     12  C   UNL A   1      38.516  30.729  29.885  1.00  0.00     0.074 A 
ATOM     13  C   UNL A   1      38.817  32.733  31.276  1.00  0.00     0.049 A 
ATOM     14  N   UNL A   1      39.633  30.099  30.135  1.00  0.00    -0.248 NA
ATOM     15  C   UNL A   1      37.607  30.014  28.974  1.00  0.00     0.031 C 
ATOM     16  C   UNL A   1      38.484  34.034  31.842  1.00  0.00     0.029 A 
ATOM     17  N   UNL A   1      40.038  32.430  31.832  1.00  0.00    -0.354 N 
ATOM     18  C   UNL A   1      39.569  28.930  29.394  1.00  0.00     0.074 A 
ATOM     19  C   UNL A   1      38.271  28.890  28.762  1.00  0.00     0.031 C 
ATOM     20  C   UNL A   1      39.490  34.423  32.643  1.00  0.00     0.029 A 
ATOM     21  C   UNL A   1      40.522  33.409  32.667  1.00  0.00     0.049 A 
ATOM     22  H   UNL A   1      40.520  31.592  31.650  1.00  0.00     0.167 HD
ATOM     23  C   UNL A   1      40.525  27.994  29.212  1.00  0.00     0.031 A 
ATOM     24  C   UNL A   1      41.668  33.516  33.366  1.00  0.00     0.031 A 
ATOM     25  C   UNL A   1      41.809  28.019  29.849  1.00  0.00     0.049 A 
ATOM     26  C   UNL A   1      42.684  32.425  33.211  1.00  0.00     0.074 A 
ATOM     27  C   UNL A   1      42.841  27.106  29.746  1.00  0.00     0.029 A 
ATOM     28  N   UNL A   1      42.234  29.014  30.719  1.00  0.00    -0.354 N 
ATOM     29  N   UNL A   1      42.627  31.358  32.454  1.00  0.00    -0.248 NA
ATOM     30  C   UNL A   1      43.930  32.565  33.975  1.00  0.00     0.031 C 
ATOM     31  C   UNL A   1      43.877  27.527  30.586  1.00  0.00     0.029 A 
ATOM     32  C   UNL A   1      43.509  28.728  31.173  1.00  0.00     0.049 A 
ATOM     33  H   UNL A   1      41.706  29.805  30.975  1.00  0.00     0.167 HD
ATOM     34  C   UNL A   1      43.841  30.713  32.626  1.00  0.00     0.074 A 
ATOM     35  C   UNL A   1      44.622  31.524  33.537  1.00  0.00     0.031 C 
ATOM     36  C   UNL A   1      44.267  29.549  32.080  1.00  0.00     0.031 A 
BRANCH  23  37
ATOM     37  C   UNL A   1      40.179  26.875  28.277  1.00  0.00    -0.014 A 
ATOM     38  C   UNL A   1      39.467  25.752  28.734  1.00  0.00     0.009 A 
ATOM     39  C   UNL A   1      40.621  26.909  26.948  1.00  0.00     0.009 A 
ATOM     40  C   UNL A   1      39.247  24.665  27.890  1.00  0.00     0.001 A 
ATOM     41  C   UNL A   1      40.374  25.831  26.097  1.00  0.00     0.001 A 
ATOM     42  C   UNL A   1      39.698  24.706  26.572  1.00  0.00     0.000 A 
ENDBRANCH  23  37
BRANCH  24  43
ATOM     43  C   UNL A   1      41.937  34.690  34.249  1.00  0.00    -0.014 A 
ATOM     44  C   UNL A   1      41.561  34.681  35.603  1.00  0.00     0.009 A 
ATOM     45  C   UNL A   1      42.534  35.851  33.730  1.00  0.00     0.009 A 
ATOM     46  C   UNL A   1      41.730  35.820  36.399  1.00  0.00     0.001 A 
ATOM     47  C   UNL A   1      42.731  36.977  34.536  1.00  0.00     0.001 A 
ATOM     48  C   UNL A   1      42.315  36.967  35.865  1.00  0.00     0.000 A 
ENDBRANCH  24  43
BRANCH  36  49
ATOM     49  C   UNL A   1      45.654  29.110  32.438  1.00  0.00    -0.014 A 
ATOM     50  C   UNL A   1      45.889  28.281  33.546  1.00  0.00     0.009 A 
ATOM     51  C   UNL A   1      46.735  29.515  31.644  1.00  0.00     0.009 A 
ATOM     52  C   UNL A   1      47.190  27.900  33.874  1.00  0.00     0.001 A 
ATOM     53  C   UNL A   1      48.030  29.105  31.954  1.00  0.00     0.001 A 
ATOM     54  C   UNL A   1      48.258  28.307  33.075  1.00  0.00     0.000 A 
ENDBRANCH  36  49
ENDBRANCH  10  11
ENDBRANCH   3   5
ENDBRANCH   2   3
ENDBRANCH   1   2
BRANCH   1  55
ATOM     55  C   UNL A   1      32.921  31.070  27.022  1.00  0.00     0.274 C 
BRANCH  55  56
ATOM     56  O   UNL A   1      32.566  29.992  26.136  1.00  0.00    -0.462 OA
BRANCH  56  57
ATOM     57  C   UNL A   1      31.925  28.923  26.695  1.00  0.00     0.314 C 
ATOM     58  O   UNL A   1      32.074  28.569  27.867  1.00  0.00    -0.252 OA
BRANCH  57  59
ATOM     59  C   UNL A   1      31.055  28.178  25.674  1.00  0.00     0.141 C 
BRANCH  59  60
ATOM     60  C   UNL A   1      31.201  28.780  24.196  1.00  0.00     0.068 C 
BRANCH  60  61
ATOM     61  C   UNL A   1      31.795  27.785  23.130  1.00  0.00    -0.039 A 
ATOM     62  C   UNL A   1      31.059  26.765  22.502  1.00  0.00     0.004 A 
ATOM     63  C   UNL A   1      33.156  27.856  22.769  1.00  0.00     0.004 A 
ATOM     64  C   UNL A   1      31.633  25.850  21.610  1.00  0.00     0.000 A 
ATOM     65  C   UNL A   1      33.712  27.010  21.794  1.00  0.00     0.000 A 
ATOM     66  C   UNL A   1      32.957  25.989  21.231  1.00  0.00     0.000 A 
ENDBRANCH  60  61
BRANCH  60  67
ATOM     67  C   UNL A   1      29.896  29.514  23.714  1.00  0.00    -0.039 A 
ATOM     68  C   UNL A   1      29.664  30.883  23.909  1.00  0.00     0.004 A 
ATOM     69  C   UNL A   1      28.841  28.817  23.093  1.00  0.00     0.004 A 
ATOM     70  C   UNL A   1      28.509  31.534  23.445  1.00  0.00     0.000 A 
ATOM     71  C   UNL A   1      27.717  29.468  22.559  1.00  0.00     0.000 A 
ATOM     72  C   UNL A   1      27.554  30.834  22.729  1.00  0.00     0.000 A 
ENDBRANCH  60  67
ENDBRANCH  59  60
BRANCH  59  73
ATOM     73  C   UNL A   1      31.382  26.680  25.840  1.00  0.00    -0.033 A 
ATOM     74  C   UNL A   1      30.392  25.696  25.922  1.00  0.00     0.004 A 
ATOM     75  C   UNL A   1      32.721  26.260  25.909  1.00  0.00     0.004 A 
ATOM     76  C   UNL A   1      30.740  24.350  26.090  1.00  0.00     0.000 A 
ATOM     77  C   UNL A   1      33.075  24.924  26.078  1.00  0.00     0.000 A 
ATOM     78  C   UNL A   1      32.078  23.965  26.173  1.00  0.00     0.000 A 
ENDBRANCH  59  73
ENDBRANCH  57  59
ENDBRANCH  56  57
ENDBRANCH  55  56
ENDBRANCH   1  55
TORSDOF 15
ENDMDL
