MODEL 1
REMARK VINA RESULT:     -11.4      0.000      0.000
REMARK SMILES COC(=O)c1ccc(NC(=O)[C@@H]2CC=CC[C@@H]2C(=O)OCCOC(=O)c2ccc(-c3c4nc(c(-c5ccccc5)c5ccc([nH]5)c(-c5ccccc5)c5nc(c(-c6ccccc6)c6ccc3[nH]6)C=C5)C=C4)cc2)c(C)c1
REMARK SMILES IDX 21 1 20 2 18 3 19 4 17 5 12 6 13 7 14 8 16 9 15 10 10 11
REMARK SMILES IDX 9 12 11 14 8 15 5 16 6 17 76 18 7 19 74 20 75 21 3 22 4 23
REMARK SMILES IDX 2 24 1 25 22 26 23 27 24 28 25 29 26 30 27 31 73 32 28 33
REMARK SMILES IDX 72 34 29 35 30 36 31 37 66 38 32 39 71 40 65 41 67 42 33 43
REMARK SMILES IDX 70 44 64 45 63 46 34 48 56 49 41 50 55 51 42 52 45 53 54 54
REMARK SMILES IDX 68 55 43 56 44 57 53 59 69 60 46 61 35 62 36 63 40 64 37 65
REMARK SMILES IDX 39 66 38 67 57 68 58 69 62 70 59 71 61 72 60 73 47 74 48 75
REMARK SMILES IDX 52 76 49 77 51 78 50 79
REMARK H PARENT 9 13 67 47 45 58
REMARK Flexibility Score: inf
ROOT
ATOM      1  C   UNL A   1      33.920  28.164  26.189  1.00  0.00     0.274 C 
ENDROOT
BRANCH   1   2
ATOM      2  O   UNL A   1      32.820  27.262  26.046  1.00  0.00    -0.462 OA
BRANCH   2   3
ATOM      3  C   UNL A   1      31.855  27.665  25.172  1.00  0.00     0.310 C 
ATOM      4  O   UNL A   1      31.475  28.811  25.097  1.00  0.00    -0.252 OA
BRANCH   3   5
ATOM      5  C   UNL A   1      31.193  26.511  24.410  1.00  0.00     0.116 C 
ATOM      6  C   UNL A   1      31.557  26.611  22.910  1.00  0.00     0.097 C 
ATOM      7  C   UNL A   1      30.780  27.800  22.280  1.00  0.00     0.041 C 
ATOM      8  C   UNL A   1      29.366  27.962  22.772  1.00  0.00    -0.030 C 
ATOM      9  C   UNL A   1      29.689  26.336  24.617  1.00  0.00     0.043 C 
ATOM     10  C   UNL A   1      28.858  27.266  23.796  1.00  0.00    -0.030 C 
BRANCH   6  11
ATOM     11  C   UNL A   1      33.105  26.576  22.831  1.00  0.00     0.228 C 
ATOM     12  N   UNL A   1      33.849  25.454  22.990  1.00  0.00    -0.326 N 
ATOM     13  H   UNL A   1      34.806  25.545  22.779  1.00  0.00     0.169 HD
ATOM     14  O   UNL A   1      33.752  27.607  22.608  1.00  0.00    -0.274 OA
BRANCH  12  15
ATOM     15  C   UNL A   1      33.447  24.193  23.411  1.00  0.00     0.044 A 
ATOM     16  C   UNL A   1      33.114  21.502  23.946  1.00  0.00     0.060 A 
ATOM     17  C   UNL A   1      32.455  22.066  22.855  1.00  0.00     0.018 A 
ATOM     18  C   UNL A   1      33.847  22.306  24.833  1.00  0.00     0.021 A 
ATOM     19  C   UNL A   1      32.607  23.423  22.600  1.00  0.00     0.027 A 
ATOM     20  C   UNL A   1      33.976  23.680  24.605  1.00  0.00    -0.027 A 
ATOM     21  C   UNL A   1      34.803  24.513  25.545  1.00  0.00     0.046 C 
BRANCH  16  22
ATOM     22  C   UNL A   1      33.103  20.029  24.085  1.00  0.00     0.337 C 
ATOM     23  O   UNL A   1      33.756  19.475  24.959  1.00  0.00    -0.246 OA
BRANCH  22  24
ATOM     24  O   UNL A   1      32.273  19.370  23.242  1.00  0.00    -0.465 OA
ATOM     25  C   UNL A   1      32.611  18.022  22.893  1.00  0.00     0.282 C 
ENDBRANCH  22  24
ENDBRANCH  16  22
ENDBRANCH  12  15
ENDBRANCH   6  11
ENDBRANCH   3   5
ENDBRANCH   2   3
ENDBRANCH   1   2
BRANCH   1  26
ATOM     26  C   UNL A   1      33.916  28.880  27.547  1.00  0.00     0.275 C 
BRANCH  26  27
ATOM     27  O   UNL A   1      34.127  30.320  27.586  1.00  0.00    -0.458 OA
BRANCH  27  28
ATOM     28  C   UNL A   1      35.104  31.039  28.192  1.00  0.00     0.338 C 
ATOM     29  O   UNL A   1      34.915  32.162  28.639  1.00  0.00    -0.246 OA
BRANCH  28  30
ATOM     30  C   UNL A   1      36.404  30.385  28.379  1.00  0.00     0.060 A 
ATOM     31  C   UNL A   1      36.639  29.671  29.562  1.00  0.00     0.016 A 
ATOM     32  C   UNL A   1      37.335  30.389  27.350  1.00  0.00     0.016 A 
ATOM     33  C   UNL A   1      37.744  28.825  29.657  1.00  0.00     0.010 A 
ATOM     34  C   UNL A   1      38.379  29.489  27.406  1.00  0.00     0.010 A 
ATOM     35  C   UNL A   1      38.590  28.703  28.555  1.00  0.00    -0.014 A 
BRANCH  35  36
ATOM     36  C   UNL A   1      39.926  28.126  28.645  1.00  0.00     0.031 A 
ATOM     37  C   UNL A   1      40.324  26.760  28.236  1.00  0.00     0.074 A 
ATOM     38  C   UNL A   1      40.821  29.037  29.089  1.00  0.00     0.049 A 
ATOM     39  N   UNL A   1      41.448  26.224  28.580  1.00  0.00    -0.248 NA
ATOM     40  C   UNL A   1      39.514  25.847  27.442  1.00  0.00     0.031 C 
ATOM     41  C   UNL A   1      42.269  29.008  29.080  1.00  0.00     0.029 A 
ATOM     42  N   UNL A   1      40.511  30.163  29.870  1.00  0.00    -0.354 N 
ATOM     43  C   UNL A   1      41.630  25.087  27.820  1.00  0.00     0.074 A 
ATOM     44  C   UNL A   1      40.362  24.843  27.192  1.00  0.00     0.031 C 
ATOM     45  C   UNL A   1      42.707  29.832  30.050  1.00  0.00     0.029 A 
ATOM     46  C   UNL A   1      41.533  30.266  30.803  1.00  0.00     0.049 A 
ATOM     47  H   UNL A   1      39.730  30.754  29.775  1.00  0.00     0.167 HD
ATOM     48  C   UNL A   1      42.882  24.569  27.693  1.00  0.00     0.031 A 
ATOM     49  C   UNL A   1      41.306  30.050  32.132  1.00  0.00     0.031 A 
ATOM     50  C   UNL A   1      43.811  25.251  28.582  1.00  0.00     0.049 A 
ATOM     51  C   UNL A   1      42.203  28.949  32.639  1.00  0.00     0.074 A 
ATOM     52  C   UNL A   1      44.703  26.291  28.385  1.00  0.00     0.029 A 
ATOM     53  N   UNL A   1      43.622  25.135  29.953  1.00  0.00    -0.354 N 
ATOM     54  N   UNL A   1      42.580  27.925  31.921  1.00  0.00    -0.248 NA
ATOM     55  C   UNL A   1      42.773  28.948  33.979  1.00  0.00     0.031 C 
ATOM     56  C   UNL A   1      44.976  26.867  29.654  1.00  0.00     0.029 A 
ATOM     57  C   UNL A   1      44.280  26.150  30.613  1.00  0.00     0.049 A 
ATOM     58  H   UNL A   1      43.094  24.428  30.390  1.00  0.00     0.167 HD
ATOM     59  C   UNL A   1      43.531  27.226  32.619  1.00  0.00     0.074 A 
ATOM     60  C   UNL A   1      43.574  27.871  33.921  1.00  0.00     0.031 C 
ATOM     61  C   UNL A   1      44.258  26.214  32.065  1.00  0.00     0.031 A 
BRANCH  48  62
ATOM     62  C   UNL A   1      43.318  23.668  26.562  1.00  0.00    -0.014 A 
ATOM     63  C   UNL A   1      42.975  22.302  26.611  1.00  0.00     0.009 A 
ATOM     64  C   UNL A   1      44.107  24.067  25.471  1.00  0.00     0.009 A 
ATOM     65  C   UNL A   1      43.456  21.374  25.678  1.00  0.00     0.001 A 
ATOM     66  C   UNL A   1      44.609  23.139  24.543  1.00  0.00     0.001 A 
ATOM     67  C   UNL A   1      44.294  21.790  24.654  1.00  0.00     0.000 A 
ENDBRANCH  48  62
BRANCH  49  68
ATOM     68  C   UNL A   1      39.912  30.295  32.622  1.00  0.00    -0.014 A 
ATOM     69  C   UNL A   1      39.321  31.560  32.405  1.00  0.00     0.009 A 
ATOM     70  C   UNL A   1      39.077  29.250  33.048  1.00  0.00     0.009 A 
ATOM     71  C   UNL A   1      37.941  31.754  32.534  1.00  0.00     0.001 A 
ATOM     72  C   UNL A   1      37.694  29.453  33.198  1.00  0.00     0.001 A 
ATOM     73  C   UNL A   1      37.125  30.696  32.921  1.00  0.00     0.000 A 
ENDBRANCH  49  68
BRANCH  61  74
ATOM     74  C   UNL A   1      45.118  25.222  32.808  1.00  0.00    -0.014 A 
ATOM     75  C   UNL A   1      46.414  25.489  33.258  1.00  0.00     0.009 A 
ATOM     76  C   UNL A   1      44.537  24.002  33.229  1.00  0.00     0.009 A 
ATOM     77  C   UNL A   1      47.108  24.568  34.052  1.00  0.00     0.001 A 
ATOM     78  C   UNL A   1      45.205  23.107  34.063  1.00  0.00     0.001 A 
ATOM     79  C   UNL A   1      46.500  23.387  34.467  1.00  0.00     0.000 A 
ENDBRANCH  61  74
ENDBRANCH  35  36
ENDBRANCH  28  30
ENDBRANCH  27  28
ENDBRANCH  26  27
ENDBRANCH   1  26
TORSDOF 15
ENDMDL
MODEL 2
REMARK VINA RESULT:     -11.0      2.240      3.812
REMARK SMILES COC(=O)c1ccc(NC(=O)[C@@H]2CC=CC[C@@H]2C(=O)OCCOC(=O)c2ccc(-c3c4nc(c(-c5ccccc5)c5ccc([nH]5)c(-c5ccccc5)c5nc(c(-c6ccccc6)c6ccc3[nH]6)C=C5)C=C4)cc2)c(C)c1
REMARK SMILES IDX 21 1 20 2 18 3 19 4 17 5 12 6 13 7 14 8 16 9 15 10 10 11
REMARK SMILES IDX 9 12 11 14 8 15 5 16 6 17 76 18 7 19 74 20 75 21 3 22 4 23
REMARK SMILES IDX 2 24 1 25 22 26 23 27 24 28 25 29 26 30 27 31 73 32 28 33
REMARK SMILES IDX 72 34 29 35 30 36 31 37 66 38 32 39 71 40 65 41 67 42 33 43
REMARK SMILES IDX 70 44 64 45 63 46 34 48 56 49 41 50 55 51 42 52 45 53 54 54
REMARK SMILES IDX 68 55 43 56 44 57 53 59 69 60 46 61 35 62 36 63 40 64 37 65
REMARK SMILES IDX 39 66 38 67 57 68 58 69 62 70 59 71 61 72 60 73 47 74 48 75
REMARK SMILES IDX 52 76 49 77 51 78 50 79
REMARK H PARENT 9 13 67 47 45 58
REMARK Flexibility Score: inf
ROOT
ATOM      1  C   UNL A   1      32.360  30.329  26.182  1.00  0.00     0.274 C 
ENDROOT
BRANCH   1   2
ATOM      2  O   UNL A   1      31.363  29.365  25.831  1.00  0.00    -0.462 OA
BRANCH   2   3
ATOM      3  C   UNL A   1      31.778  28.397  24.966  1.00  0.00     0.310 C 
ATOM      4  O   UNL A   1      32.935  28.261  24.639  1.00  0.00    -0.252 OA
BRANCH   3   5
ATOM      5  C   UNL A   1      30.629  27.603  24.333  1.00  0.00     0.116 C 
ATOM      6  C   UNL A   1      30.869  26.090  24.552  1.00  0.00     0.097 C 
ATOM      7  C   UNL A   1      32.030  25.625  23.628  1.00  0.00     0.041 C 
ATOM      8  C   UNL A   1      32.032  26.245  22.256  1.00  0.00    -0.030 C 
ATOM      9  C   UNL A   1      30.310  27.920  22.873  1.00  0.00     0.043 C 
ATOM     10  C   UNL A   1      31.222  27.248  21.899  1.00  0.00    -0.030 C 
BRANCH   6  11
ATOM     11  C   UNL A   1      30.975  25.880  26.084  1.00  0.00     0.228 C 
ATOM     12  N   UNL A   1      31.878  25.061  26.678  1.00  0.00    -0.326 N 
ATOM     13  H   UNL A   1      31.929  25.125  27.659  1.00  0.00     0.169 HD
ATOM     14  O   UNL A   1      30.216  26.474  26.859  1.00  0.00    -0.274 OA
BRANCH  12  15
ATOM     15  C   UNL A   1      32.740  24.143  26.094  1.00  0.00     0.044 A 
ATOM     16  C   UNL A   1      34.571  22.164  25.482  1.00  0.00     0.060 A 
ATOM     17  C   UNL A   1      35.008  23.481  25.608  1.00  0.00     0.018 A 
ATOM     18  C   UNL A   1      33.203  21.855  25.550  1.00  0.00     0.021 A 
ATOM     19  C   UNL A   1      34.083  24.478  25.894  1.00  0.00     0.027 A 
ATOM     20  C   UNL A   1      32.260  22.858  25.802  1.00  0.00    -0.027 A 
ATOM     21  C   UNL A   1      30.805  22.494  25.914  1.00  0.00     0.046 C 
BRANCH  16  22
ATOM     22  C   UNL A   1      35.589  21.096  25.377  1.00  0.00     0.337 C 
ATOM     23  O   UNL A   1      35.306  20.003  24.906  1.00  0.00    -0.246 OA
BRANCH  22  24
ATOM     24  O   UNL A   1      36.840  21.444  25.760  1.00  0.00    -0.465 OA
ATOM     25  C   UNL A   1      37.938  20.922  25.002  1.00  0.00     0.282 C 
ENDBRANCH  22  24
ENDBRANCH  16  22
ENDBRANCH  12  15
ENDBRANCH   6  11
ENDBRANCH   3   5
ENDBRANCH   2   3
ENDBRANCH   1   2
BRANCH   1  26
ATOM     26  C   UNL A   1      31.781  31.503  26.983  1.00  0.00     0.275 C 
BRANCH  26  27
ATOM     27  O   UNL A   1      32.476  32.782  26.962  1.00  0.00    -0.458 OA
BRANCH  27  28
ATOM     28  C   UNL A   1      33.190  33.399  27.936  1.00  0.00     0.338 C 
ATOM     29  O   UNL A   1      32.736  34.319  28.604  1.00  0.00    -0.246 OA
BRANCH  28  30
ATOM     30  C   UNL A   1      34.524  32.866  28.232  1.00  0.00     0.060 A 
ATOM     31  C   UNL A   1      35.649  33.628  27.889  1.00  0.00     0.016 A 
ATOM     32  C   UNL A   1      34.654  31.677  28.936  1.00  0.00     0.016 A 
ATOM     33  C   UNL A   1      36.904  33.282  28.390  1.00  0.00     0.010 A 
ATOM     34  C   UNL A   1      35.876  31.381  29.504  1.00  0.00     0.010 A 
ATOM     35  C   UNL A   1      37.006  32.178  29.237  1.00  0.00    -0.014 A 
BRANCH  35  36
ATOM     36  C   UNL A   1      38.276  31.534  29.546  1.00  0.00     0.031 A 
ATOM     37  C   UNL A   1      38.786  30.271  28.965  1.00  0.00     0.074 A 
ATOM     38  C   UNL A   1      39.008  32.283  30.401  1.00  0.00     0.049 A 
ATOM     39  N   UNL A   1      39.784  29.621  29.467  1.00  0.00    -0.248 NA
ATOM     40  C   UNL A   1      38.230  29.591  27.804  1.00  0.00     0.031 C 
ATOM     41  C   UNL A   1      40.406  32.188  30.768  1.00  0.00     0.029 A 
ATOM     42  N   UNL A   1      38.485  33.227  31.301  1.00  0.00    -0.354 N 
ATOM     43  C   UNL A   1      40.177  28.667  28.549  1.00  0.00     0.074 A 
ATOM     44  C   UNL A   1      39.127  28.626  27.571  1.00  0.00     0.031 C 
ATOM     45  C   UNL A   1      40.557  32.761  31.977  1.00  0.00     0.029 A 
ATOM     46  C   UNL A   1      39.219  33.078  32.469  1.00  0.00     0.049 A 
ATOM     47  H   UNL A   1      37.751  33.861  31.137  1.00  0.00     0.167 HD
ATOM     48  C   UNL A   1      41.424  28.131  28.646  1.00  0.00     0.031 A 
ATOM     49  C   UNL A   1      38.648  32.590  33.609  1.00  0.00     0.031 A 
ATOM     50  C   UNL A   1      42.072  28.560  29.877  1.00  0.00     0.049 A 
ATOM     51  C   UNL A   1      39.390  31.365  34.078  1.00  0.00     0.074 A 
ATOM     52  C   UNL A   1      42.971  29.574  30.157  1.00  0.00     0.029 A 
ATOM     53  N   UNL A   1      41.525  28.159  31.088  1.00  0.00    -0.354 N 
ATOM     54  N   UNL A   1      39.958  30.503  33.278  1.00  0.00    -0.248 NA
ATOM     55  C   UNL A   1      39.580  31.047  35.487  1.00  0.00     0.031 C 
ATOM     56  C   UNL A   1      42.887  29.848  31.548  1.00  0.00     0.029 A 
ATOM     57  C   UNL A   1      41.968  28.975  32.106  1.00  0.00     0.049 A 
ATOM     58  H   UNL A   1      40.908  27.400  31.204  1.00  0.00     0.167 HD
ATOM     59  C   UNL A   1      40.697  29.626  34.030  1.00  0.00     0.074 A 
ATOM     60  C   UNL A   1      40.382  29.971  35.406  1.00  0.00     0.031 C 
ATOM     61  C   UNL A   1      41.558  28.724  33.477  1.00  0.00     0.031 A 
BRANCH  48  62
ATOM     62  C   UNL A   1      42.158  27.476  27.500  1.00  0.00    -0.014 A 
ATOM     63  C   UNL A   1      42.561  26.131  27.631  1.00  0.00     0.009 A 
ATOM     64  C   UNL A   1      42.539  28.122  26.313  1.00  0.00     0.009 A 
ATOM     65  C   UNL A   1      43.364  25.493  26.677  1.00  0.00     0.001 A 
ATOM     66  C   UNL A   1      43.362  27.494  25.362  1.00  0.00     0.001 A 
ATOM     67  C   UNL A   1      43.785  26.183  25.550  1.00  0.00     0.000 A 
ENDBRANCH  48  62
BRANCH  49  68
ATOM     68  C   UNL A   1      37.170  32.789  33.756  1.00  0.00    -0.014 A 
ATOM     69  C   UNL A   1      36.698  33.849  34.561  1.00  0.00     0.009 A 
ATOM     70  C   UNL A   1      36.244  32.139  32.925  1.00  0.00     0.009 A 
ATOM     71  C   UNL A   1      35.372  34.292  34.482  1.00  0.00     0.001 A 
ATOM     72  C   UNL A   1      34.908  32.571  32.864  1.00  0.00     0.001 A 
ATOM     73  C   UNL A   1      34.479  33.659  33.625  1.00  0.00     0.000 A 
ENDBRANCH  49  68
BRANCH  61  74
ATOM     74  C   UNL A   1      42.200  27.556  34.183  1.00  0.00    -0.014 A 
ATOM     75  C   UNL A   1      41.504  26.636  34.972  1.00  0.00     0.009 A 
ATOM     76  C   UNL A   1      43.557  27.261  33.909  1.00  0.00     0.009 A 
ATOM     77  C   UNL A   1      42.140  25.502  35.494  1.00  0.00     0.001 A 
ATOM     78  C   UNL A   1      44.179  26.106  34.383  1.00  0.00     0.001 A 
ATOM     79  C   UNL A   1      43.470  25.230  35.187  1.00  0.00     0.000 A 
ENDBRANCH  61  74
ENDBRANCH  35  36
ENDBRANCH  28  30
ENDBRANCH  27  28
ENDBRANCH  26  27
ENDBRANCH   1  26
TORSDOF 15
ENDMDL
MODEL 3
REMARK VINA RESULT:     -10.0      5.426     11.206
REMARK SMILES COC(=O)c1ccc(NC(=O)[C@@H]2CC=CC[C@@H]2C(=O)OCCOC(=O)c2ccc(-c3c4nc(c(-c5ccccc5)c5ccc([nH]5)c(-c5ccccc5)c5nc(c(-c6ccccc6)c6ccc3[nH]6)C=C5)C=C4)cc2)c(C)c1
REMARK SMILES IDX 21 1 20 2 18 3 19 4 17 5 12 6 13 7 14 8 16 9 15 10 10 11
REMARK SMILES IDX 9 12 11 14 8 15 5 16 6 17 76 18 7 19 74 20 75 21 3 22 4 23
REMARK SMILES IDX 2 24 1 25 22 26 23 27 24 28 25 29 26 30 27 31 73 32 28 33
REMARK SMILES IDX 72 34 29 35 30 36 31 37 66 38 32 39 71 40 65 41 67 42 33 43
REMARK SMILES IDX 70 44 64 45 63 46 34 48 56 49 41 50 55 51 42 52 45 53 54 54
REMARK SMILES IDX 68 55 43 56 44 57 53 59 69 60 46 61 35 62 36 63 40 64 37 65
REMARK SMILES IDX 39 66 38 67 57 68 58 69 62 70 59 71 61 72 60 73 47 74 48 75
REMARK SMILES IDX 52 76 49 77 51 78 50 79
REMARK H PARENT 9 13 67 47 45 58
REMARK Flexibility Score: inf
ROOT
ATOM      1  C   UNL A   1      45.637  28.407  25.765  1.00  0.00     0.274 C 
ENDROOT
BRANCH   1   2
ATOM      2  O   UNL A   1      46.197  28.133  27.052  1.00  0.00    -0.462 OA
BRANCH   2   3
ATOM      3  C   UNL A   1      47.448  27.592  27.032  1.00  0.00     0.310 C 
ATOM      4  O   UNL A   1      48.442  28.228  27.297  1.00  0.00    -0.252 OA
BRANCH   3   5
ATOM      5  C   UNL A   1      47.489  26.156  26.497  1.00  0.00     0.116 C 
ATOM      6  C   UNL A   1      48.164  25.237  27.543  1.00  0.00     0.097 C 
ATOM      7  C   UNL A   1      49.690  25.536  27.567  1.00  0.00     0.041 C 
ATOM      8  C   UNL A   1      50.304  25.797  26.218  1.00  0.00    -0.030 C 
ATOM      9  C   UNL A   1      48.093  25.968  25.106  1.00  0.00     0.043 C 
ATOM     10  C   UNL A   1      49.586  25.943  25.098  1.00  0.00    -0.030 C 
BRANCH   6  11
ATOM     11  C   UNL A   1      47.334  25.371  28.845  1.00  0.00     0.228 C 
ATOM     12  N   UNL A   1      46.075  24.892  28.996  1.00  0.00    -0.326 N 
ATOM     13  H   UNL A   1      45.715  24.921  29.912  1.00  0.00     0.169 HD
ATOM     14  O   UNL A   1      47.802  25.938  29.840  1.00  0.00    -0.274 OA
BRANCH  12  15
ATOM     15  C   UNL A   1      45.220  24.366  28.036  1.00  0.00     0.044 A 
ATOM     16  C   UNL A   1      43.368  22.951  26.550  1.00  0.00     0.060 A 
ATOM     17  C   UNL A   1      44.708  22.571  26.509  1.00  0.00     0.018 A 
ATOM     18  C   UNL A   1      42.974  24.106  27.243  1.00  0.00     0.021 A 
ATOM     19  C   UNL A   1      45.641  23.297  27.239  1.00  0.00     0.027 A 
ATOM     20  C   UNL A   1      43.911  24.864  27.952  1.00  0.00    -0.027 A 
ATOM     21  C   UNL A   1      43.456  26.073  28.723  1.00  0.00     0.046 C 
BRANCH  16  22
ATOM     22  C   UNL A   1      42.367  22.053  25.932  1.00  0.00     0.337 C 
ATOM     23  O   UNL A   1      42.707  21.005  25.400  1.00  0.00    -0.246 OA
BRANCH  22  24
ATOM     24  O   UNL A   1      41.076  22.438  26.070  1.00  0.00    -0.465 OA
ATOM     25  C   UNL A   1      40.127  21.448  26.485  1.00  0.00     0.282 C 
ENDBRANCH  22  24
ENDBRANCH  16  22
ENDBRANCH  12  15
ENDBRANCH   6  11
ENDBRANCH   3   5
ENDBRANCH   2   3
ENDBRANCH   1   2
BRANCH   1  26
ATOM     26  C   UNL A   1      44.450  27.491  25.438  1.00  0.00     0.275 C 
BRANCH  26  27
ATOM     27  O   UNL A   1      43.124  28.077  25.300  1.00  0.00    -0.458 OA
BRANCH  27  28
ATOM     28  C   UNL A   1      41.911  27.566  25.626  1.00  0.00     0.338 C 
ATOM     29  O   UNL A   1      41.464  26.550  25.110  1.00  0.00    -0.246 OA
BRANCH  28  30
ATOM     30  C   UNL A   1      41.165  28.233  26.699  1.00  0.00     0.060 A 
ATOM     31  C   UNL A   1      39.862  27.804  26.985  1.00  0.00     0.016 A 
ATOM     32  C   UNL A   1      41.789  29.196  27.480  1.00  0.00     0.016 A 
ATOM     33  C   UNL A   1      39.232  28.224  28.156  1.00  0.00     0.010 A 
ATOM     34  C   UNL A   1      41.205  29.545  28.680  1.00  0.00     0.010 A 
ATOM     35  C   UNL A   1      39.927  29.064  29.026  1.00  0.00    -0.014 A 
BRANCH  35  36
ATOM     36  C   UNL A   1      39.273  29.821  30.086  1.00  0.00     0.031 A 
ATOM     37  C   UNL A   1      38.548  31.102  29.932  1.00  0.00     0.074 A 
ATOM     38  C   UNL A   1      39.335  29.163  31.265  1.00  0.00     0.049 A 
ATOM     39  N   UNL A   1      38.221  31.849  30.935  1.00  0.00    -0.248 NA
ATOM     40  C   UNL A   1      38.142  31.696  28.666  1.00  0.00     0.031 C 
ATOM     41  C   UNL A   1      38.612  29.385  32.500  1.00  0.00     0.029 A 
ATOM     42  N   UNL A   1      40.307  28.209  31.610  1.00  0.00    -0.354 N 
ATOM     43  C   UNL A   1      37.329  32.801  30.487  1.00  0.00     0.074 A 
ATOM     44  C   UNL A   1      37.379  32.725  29.054  1.00  0.00     0.031 C 
ATOM     45  C   UNL A   1      39.340  28.866  33.507  1.00  0.00     0.029 A 
ATOM     46  C   UNL A   1      40.621  28.456  32.938  1.00  0.00     0.049 A 
ATOM     47  H   UNL A   1      40.686  27.511  31.028  1.00  0.00     0.167 HD
ATOM     48  C   UNL A   1      36.536  33.442  31.389  1.00  0.00     0.031 A 
ATOM     49  C   UNL A   1      41.849  28.931  33.301  1.00  0.00     0.031 A 
ATOM     50  C   UNL A   1      36.935  33.108  32.749  1.00  0.00     0.049 A 
ATOM     51  C   UNL A   1      41.701  30.228  34.055  1.00  0.00     0.074 A 
ATOM     52  C   UNL A   1      36.463  32.182  33.662  1.00  0.00     0.029 A 
ATOM     53  N   UNL A   1      38.193  33.502  33.186  1.00  0.00    -0.354 N 
ATOM     54  N   UNL A   1      40.764  31.107  33.820  1.00  0.00    -0.248 NA
ATOM     55  C   UNL A   1      42.575  30.606  35.157  1.00  0.00     0.031 C 
ATOM     56  C   UNL A   1      37.497  31.946  34.607  1.00  0.00     0.029 A 
ATOM     57  C   UNL A   1      38.571  32.758  34.283  1.00  0.00     0.049 A 
ATOM     58  H   UNL A   1      38.737  34.210  32.772  1.00  0.00     0.167 HD
ATOM     59  C   UNL A   1      40.807  32.067  34.799  1.00  0.00     0.074 A 
ATOM     60  C   UNL A   1      41.991  31.741  35.576  1.00  0.00     0.031 C 
ATOM     61  C   UNL A   1      39.840  33.018  34.941  1.00  0.00     0.031 A 
BRANCH  48  62
ATOM     62  C   UNL A   1      35.231  34.118  31.044  1.00  0.00    -0.014 A 
ATOM     63  C   UNL A   1      34.780  34.082  29.709  1.00  0.00     0.009 A 
ATOM     64  C   UNL A   1      34.440  34.851  31.943  1.00  0.00     0.009 A 
ATOM     65  C   UNL A   1      33.656  34.799  29.278  1.00  0.00     0.001 A 
ATOM     66  C   UNL A   1      33.323  35.588  31.514  1.00  0.00     0.001 A 
ATOM     67  C   UNL A   1      32.938  35.572  30.178  1.00  0.00     0.000 A 
ENDBRANCH  48  62
BRANCH  49  68
ATOM     68  C   UNL A   1      42.988  28.615  32.381  1.00  0.00    -0.014 A 
ATOM     69  C   UNL A   1      43.497  29.635  31.545  1.00  0.00     0.009 A 
ATOM     70  C   UNL A   1      43.739  27.436  32.501  1.00  0.00     0.009 A 
ATOM     71  C   UNL A   1      44.742  29.511  30.917  1.00  0.00     0.001 A 
ATOM     72  C   UNL A   1      44.979  27.306  31.852  1.00  0.00     0.001 A 
ATOM     73  C   UNL A   1      45.488  28.349  31.079  1.00  0.00     0.000 A 
ENDBRANCH  49  68
BRANCH  61  74
ATOM     74  C   UNL A   1      39.928  34.258  35.796  1.00  0.00    -0.014 A 
ATOM     75  C   UNL A   1      39.435  34.349  37.101  1.00  0.00     0.009 A 
ATOM     76  C   UNL A   1      40.698  35.351  35.330  1.00  0.00     0.009 A 
ATOM     77  C   UNL A   1      39.663  35.488  37.883  1.00  0.00     0.001 A 
ATOM     78  C   UNL A   1      40.972  36.463  36.124  1.00  0.00     0.001 A 
ATOM     79  C   UNL A   1      40.442  36.536  37.402  1.00  0.00     0.000 A 
ENDBRANCH  61  74
ENDBRANCH  35  36
ENDBRANCH  28  30
ENDBRANCH  27  28
ENDBRANCH  26  27
ENDBRANCH   1  26
TORSDOF 15
ENDMDL
