MODEL 1
REMARK VINA RESULT:     -11.7      0.000      0.000
REMARK SMILES O=C(N[C@@H](Cc1ccc(O)cc1)C(=O)N[C@@H](Cc1c[nH]c2ccccc12)C(=O)N[C@@H](CO)C(=O)OCCOC(=O)c1ccc(-c2c3nc(c(-c4ccccc4)c4ccc([nH]4)c(-c4ccccc4)c4nc(c(-c5ccccc5)c5ccc2[nH]5)C=C4)C=C3)cc1)c1ccc(F)cc1
REMARK SMILES IDX 33 1 34 2 30 3 29 4 27 5 28 6 16 8 15 9 13 10 14 11 4 13
REMARK SMILES IDX 3 14 1 15 2 16 89 18 90 19 95 20 91 21 94 22 92 23 93 24
REMARK SMILES IDX 5 25 6 26 7 27 12 28 8 29 11 30 9 31 10 32 17 34 18 35 19 36
REMARK SMILES IDX 26 37 20 38 21 39 25 40 22 42 24 43 23 44 31 45 32 46 35 48
REMARK SMILES IDX 36 49 37 50 38 51 39 52 40 53 41 54 42 55 88 56 43 57 87 58
REMARK SMILES IDX 44 59 45 60 46 61 81 62 47 63 86 64 80 65 82 66 48 67 85 68
REMARK SMILES IDX 79 69 78 70 49 72 71 73 56 74 70 75 57 76 60 77 69 78 83 79
REMARK SMILES IDX 58 80 59 81 68 83 84 84 61 85 50 86 51 87 55 88 52 89 54 90
REMARK SMILES IDX 53 91 72 92 73 93 77 94 74 95 76 96 75 97 62 98 63 99 67 100
REMARK SMILES IDX 64 101 66 102 65 103
REMARK H PARENT 29 7 15 12 3 17 10 33 20 41 32 47 82 71 60 82
REMARK Flexibility Score: inf
ROOT
ATOM      1  C   UNL A   1      34.137  31.400  27.781  1.00  0.00     0.331 C 
ATOM      2  O   UNL A   1      35.240  31.102  28.230  1.00  0.00    -0.250 OA
ENDROOT
BRANCH   1   3
ATOM      3  C   UNL A   1      33.205  30.384  27.065  1.00  0.00     0.218 C 
BRANCH   3   4
ATOM      4  N   UNL A   1      33.275  28.995  27.580  1.00  0.00    -0.339 N 
ATOM      5  C   UNL A   1      32.236  28.138  27.325  1.00  0.00     0.243 C 
ATOM      6  O   UNL A   1      31.190  28.310  27.963  1.00  0.00    -0.273 OA
ATOM      7  H   UNL A   1      34.056  28.694  28.098  1.00  0.00     0.164 HD
BRANCH   5   8
ATOM      8  C   UNL A   1      32.464  26.838  26.470  1.00  0.00     0.175 C 
BRANCH   8   9
ATOM      9  N   UNL A   1      31.208  26.073  26.635  1.00  0.00    -0.342 N 
ATOM     10  C   UNL A   1      30.850  24.775  26.523  1.00  0.00     0.243 C 
ATOM     11  O   UNL A   1      29.721  24.503  26.959  1.00  0.00    -0.273 OA
ATOM     12  H   UNL A   1      30.450  26.649  26.888  1.00  0.00     0.164 HD
BRANCH  10  13
ATOM     13  C   UNL A   1      31.703  23.635  25.918  1.00  0.00     0.176 C 
BRANCH  13  14
ATOM     14  N   UNL A   1      32.178  22.636  26.877  1.00  0.00    -0.340 N 
ATOM     15  O   UNL A   1      33.559  21.008  27.610  1.00  0.00    -0.269 OA
ATOM     16  C   UNL A   1      33.389  21.973  26.867  1.00  0.00     0.251 C 
ATOM     17  H   UNL A   1      31.564  22.412  27.613  1.00  0.00     0.164 HD
BRANCH  16  18
ATOM     18  C   UNL A   1      34.465  22.370  25.921  1.00  0.00     0.040 A 
ATOM     19  C   UNL A   1      34.890  23.702  25.820  1.00  0.00     0.017 A 
ATOM     20  C   UNL A   1      35.058  21.386  25.117  1.00  0.00     0.017 A 
ATOM     21  C   UNL A   1      35.846  24.058  24.863  1.00  0.00     0.040 A 
ATOM     22  C   UNL A   1      36.022  21.745  24.171  1.00  0.00     0.040 A 
ATOM     23  C   UNL A   1      36.396  23.080  24.043  1.00  0.00     0.123 A 
ATOM     24  F   UNL A   1      37.299  23.426  23.116  1.00  0.00    -0.207 F 
ENDBRANCH  16  18
ENDBRANCH  13  14
BRANCH  13  25
ATOM     25  C   UNL A   1      31.273  23.073  24.546  1.00  0.00     0.070 C 
BRANCH  25  26
ATOM     26  C   UNL A   1      31.768  23.737  23.285  1.00  0.00    -0.045 A 
ATOM     27  C   UNL A   1      32.921  23.273  22.628  1.00  0.00     0.007 A 
ATOM     28  C   UNL A   1      31.123  24.872  22.785  1.00  0.00     0.007 A 
ATOM     29  C   UNL A   1      33.378  23.898  21.463  1.00  0.00     0.046 A 
ATOM     30  C   UNL A   1      31.547  25.464  21.594  1.00  0.00     0.046 A 
ATOM     31  C   UNL A   1      32.666  24.969  20.939  1.00  0.00     0.115 A 
BRANCH  31  32
ATOM     32  O   UNL A   1      33.037  25.579  19.778  1.00  0.00    -0.508 OA
ATOM     33  H   UNL A   1      33.514  26.386  19.805  1.00  0.00     0.293 HD
ENDBRANCH  31  32
ENDBRANCH  25  26
ENDBRANCH  13  25
ENDBRANCH  10  13
ENDBRANCH   8   9
BRANCH   8  34
ATOM     34  C   UNL A   1      32.847  26.842  24.978  1.00  0.00     0.072 C 
BRANCH  34  35
ATOM     35  C   UNL A   1      32.416  27.914  24.020  1.00  0.00    -0.020 A 
ATOM     36  C   UNL A   1      33.220  28.534  23.094  1.00  0.00     0.087 A 
ATOM     37  C   UNL A   1      31.080  28.273  23.621  1.00  0.00     0.003 A 
ATOM     38  N   UNL A   1      32.502  29.420  22.351  1.00  0.00    -0.361 N 
ATOM     39  C   UNL A   1      31.171  29.218  22.593  1.00  0.00     0.046 A 
ATOM     40  C   UNL A   1      29.796  27.820  23.975  1.00  0.00     0.010 A 
ATOM     41  H   UNL A   1      32.879  30.094  21.741  1.00  0.00     0.166 HD
ATOM     42  C   UNL A   1      30.067  29.764  21.934  1.00  0.00     0.026 A 
ATOM     43  C   UNL A   1      28.677  28.323  23.296  1.00  0.00     0.001 A 
ATOM     44  C   UNL A   1      28.812  29.281  22.294  1.00  0.00     0.002 A 
ENDBRANCH  34  35
ENDBRANCH   8  34
ENDBRANCH   5   8
ENDBRANCH   3   4
BRANCH   3  45
ATOM     45  C   UNL A   1      31.779  30.930  26.970  1.00  0.00     0.193 C 
BRANCH  45  46
ATOM     46  O   UNL A   1      31.397  31.088  25.607  1.00  0.00    -0.394 OA
ATOM     47  H   UNL A   1      32.032  31.669  25.160  1.00  0.00     0.210 HD
ENDBRANCH  45  46
ENDBRANCH   3  45
ENDBRANCH   1   3
BRANCH   1  48
ATOM     48  O   UNL A   1      33.526  32.609  28.021  1.00  0.00    -0.460 OA
BRANCH  48  49
ATOM     49  C   UNL A   1      34.413  33.689  28.405  1.00  0.00     0.274 C 
BRANCH  49  50
ATOM     50  C   UNL A   1      34.269  34.045  29.903  1.00  0.00     0.275 C 
BRANCH  50  51
ATOM     51  O   UNL A   1      35.532  33.965  30.611  1.00  0.00    -0.458 OA
BRANCH  51  52
ATOM     52  C   UNL A   1      35.738  32.801  31.308  1.00  0.00     0.338 C 
ATOM     53  O   UNL A   1      34.941  32.270  32.058  1.00  0.00    -0.246 OA
BRANCH  52  54
ATOM     54  C   UNL A   1      37.093  32.233  31.027  1.00  0.00     0.060 A 
ATOM     55  C   UNL A   1      37.733  32.567  29.841  1.00  0.00     0.016 A 
ATOM     56  C   UNL A   1      37.705  31.293  31.859  1.00  0.00     0.016 A 
ATOM     57  C   UNL A   1      38.997  32.072  29.515  1.00  0.00     0.010 A 
ATOM     58  C   UNL A   1      38.969  30.755  31.519  1.00  0.00     0.010 A 
ATOM     59  C   UNL A   1      39.632  31.152  30.345  1.00  0.00    -0.014 A 
BRANCH  59  60
ATOM     60  C   UNL A   1      40.903  30.535  29.872  1.00  0.00     0.031 A 
ATOM     61  C   UNL A   1      40.864  29.187  29.204  1.00  0.00     0.074 A 
ATOM     62  C   UNL A   1      42.061  31.223  29.865  1.00  0.00     0.049 A 
ATOM     63  N   UNL A   1      41.853  28.421  28.821  1.00  0.00    -0.248 NA
ATOM     64  C   UNL A   1      39.529  28.645  28.918  1.00  0.00     0.031 C 
ATOM     65  C   UNL A   1      42.217  32.612  30.290  1.00  0.00     0.029 A 
ATOM     66  N   UNL A   1      43.320  30.861  29.444  1.00  0.00    -0.354 N 
ATOM     67  C   UNL A   1      41.259  27.285  28.285  1.00  0.00     0.074 A 
ATOM     68  C   UNL A   1      39.827  27.476  28.370  1.00  0.00     0.031 C 
ATOM     69  C   UNL A   1      43.487  32.996  30.070  1.00  0.00     0.029 A 
ATOM     70  C   UNL A   1      44.255  31.862  29.560  1.00  0.00     0.049 A 
ATOM     71  H   UNL A   1      43.531  29.966  29.089  1.00  0.00     0.167 HD
ATOM     72  C   UNL A   1      41.855  26.168  27.800  1.00  0.00     0.031 A 
ATOM     73  C   UNL A   1      45.583  31.858  29.319  1.00  0.00     0.031 A 
ATOM     74  C   UNL A   1      43.279  25.981  27.717  1.00  0.00     0.049 A 
ATOM     75  C   UNL A   1      46.242  30.568  28.901  1.00  0.00     0.074 A 
ATOM     76  C   UNL A   1      43.990  24.844  27.376  1.00  0.00     0.029 A 
ATOM     77  N   UNL A   1      44.212  26.976  27.964  1.00  0.00    -0.354 N 
ATOM     78  N   UNL A   1      45.690  29.424  28.573  1.00  0.00    -0.248 NA
ATOM     79  C   UNL A   1      47.714  30.554  28.867  1.00  0.00     0.031 C 
ATOM     80  C   UNL A   1      45.356  25.139  27.468  1.00  0.00     0.029 A 
ATOM     81  C   UNL A   1      45.493  26.475  27.807  1.00  0.00     0.049 A 
ATOM     82  H   UNL A   1      43.995  27.904  28.213  1.00  0.00     0.167 HD
ATOM     83  C   UNL A   1      46.742  28.556  28.305  1.00  0.00     0.074 A 
ATOM     84  C   UNL A   1      47.964  29.316  28.464  1.00  0.00     0.031 C 
ATOM     85  C   UNL A   1      46.700  27.241  27.977  1.00  0.00     0.031 A 
BRANCH  72  86
ATOM     86  C   UNL A   1      40.952  25.017  27.456  1.00  0.00    -0.014 A 
ATOM     87  C   UNL A   1      41.116  23.742  28.017  1.00  0.00     0.009 A 
ATOM     88  C   UNL A   1      39.930  25.219  26.513  1.00  0.00     0.009 A 
ATOM     89  C   UNL A   1      40.299  22.684  27.608  1.00  0.00     0.001 A 
ATOM     90  C   UNL A   1      39.100  24.167  26.126  1.00  0.00     0.001 A 
ATOM     91  C   UNL A   1      39.293  22.897  26.665  1.00  0.00     0.000 A 
ENDBRANCH  72  86
BRANCH  73  92
ATOM     92  C   UNL A   1      46.407  33.080  29.548  1.00  0.00    -0.014 A 
ATOM     93  C   UNL A   1      46.671  33.980  28.502  1.00  0.00     0.009 A 
ATOM     94  C   UNL A   1      46.974  33.336  30.808  1.00  0.00     0.009 A 
ATOM     95  C   UNL A   1      47.492  35.093  28.709  1.00  0.00     0.001 A 
ATOM     96  C   UNL A   1      47.762  34.469  31.022  1.00  0.00     0.001 A 
ATOM     97  C   UNL A   1      48.029  35.342  29.970  1.00  0.00     0.000 A 
ENDBRANCH  73  92
BRANCH  85  98
ATOM     98  C   UNL A   1      48.014  26.544  27.764  1.00  0.00    -0.014 A 
ATOM     99  C   UNL A   1      48.637  25.840  28.807  1.00  0.00     0.009 A 
ATOM    100  C   UNL A   1      48.616  26.558  26.496  1.00  0.00     0.009 A 
ATOM    101  C   UNL A   1      49.853  25.189  28.591  1.00  0.00     0.001 A 
ATOM    102  C   UNL A   1      49.819  25.885  26.278  1.00  0.00     0.001 A 
ATOM    103  C   UNL A   1      50.441  25.208  27.327  1.00  0.00     0.000 A 
ENDBRANCH  85  98
ENDBRANCH  59  60
ENDBRANCH  52  54
ENDBRANCH  51  52
ENDBRANCH  50  51
ENDBRANCH  49  50
ENDBRANCH  48  49
ENDBRANCH   1  48
TORSDOF 24
ENDMDL
MODEL 2
REMARK VINA RESULT:     -10.8      3.106      3.735
REMARK SMILES O=C(N[C@@H](Cc1ccc(O)cc1)C(=O)N[C@@H](Cc1c[nH]c2ccccc12)C(=O)N[C@@H](CO)C(=O)OCCOC(=O)c1ccc(-c2c3nc(c(-c4ccccc4)c4ccc([nH]4)c(-c4ccccc4)c4nc(c(-c5ccccc5)c5ccc2[nH]5)C=C4)C=C3)cc1)c1ccc(F)cc1
REMARK SMILES IDX 33 1 34 2 30 3 29 4 27 5 28 6 16 8 15 9 13 10 14 11 4 13
REMARK SMILES IDX 3 14 1 15 2 16 89 18 90 19 95 20 91 21 94 22 92 23 93 24
REMARK SMILES IDX 5 25 6 26 7 27 12 28 8 29 11 30 9 31 10 32 17 34 18 35 19 36
REMARK SMILES IDX 26 37 20 38 21 39 25 40 22 42 24 43 23 44 31 45 32 46 35 48
REMARK SMILES IDX 36 49 37 50 38 51 39 52 40 53 41 54 42 55 88 56 43 57 87 58
REMARK SMILES IDX 44 59 45 60 46 61 81 62 47 63 86 64 80 65 82 66 48 67 85 68
REMARK SMILES IDX 79 69 78 70 49 72 71 73 56 74 70 75 57 76 60 77 69 78 83 79
REMARK SMILES IDX 58 80 59 81 68 83 84 84 61 85 50 86 51 87 55 88 52 89 54 90
REMARK SMILES IDX 53 91 72 92 73 93 77 94 74 95 76 96 75 97 62 98 63 99 67 100
REMARK SMILES IDX 64 101 66 102 65 103
REMARK H PARENT 29 7 15 12 3 17 10 33 20 41 32 47 82 71 60 82
REMARK Flexibility Score: inf
ROOT
ATOM      1  C   UNL A   1      33.682  31.568  27.676  1.00  0.00     0.331 C 
ATOM      2  O   UNL A   1      34.802  31.443  28.164  1.00  0.00    -0.250 OA
ENDROOT
BRANCH   1   3
ATOM      3  C   UNL A   1      32.935  30.415  26.953  1.00  0.00     0.218 C 
BRANCH   3   4
ATOM      4  N   UNL A   1      33.158  29.065  27.523  1.00  0.00    -0.339 N 
ATOM      5  C   UNL A   1      32.173  28.119  27.402  1.00  0.00     0.243 C 
ATOM      6  O   UNL A   1      31.175  28.245  28.122  1.00  0.00    -0.273 OA
ATOM      7  H   UNL A   1      34.002  28.850  27.983  1.00  0.00     0.164 HD
BRANCH   5   8
ATOM      8  C   UNL A   1      32.430  26.796  26.592  1.00  0.00     0.175 C 
BRANCH   8   9
ATOM      9  N   UNL A   1      31.190  26.010  26.780  1.00  0.00    -0.342 N 
ATOM     10  C   UNL A   1      30.865  24.700  26.735  1.00  0.00     0.243 C 
ATOM     11  O   UNL A   1      29.736  24.425  27.169  1.00  0.00    -0.273 OA
ATOM     12  H   UNL A   1      30.415  26.581  26.990  1.00  0.00     0.164 HD
BRANCH  10  13
ATOM     13  C   UNL A   1      31.754  23.550  26.207  1.00  0.00     0.176 C 
BRANCH  13  14
ATOM     14  N   UNL A   1      32.459  22.784  27.236  1.00  0.00    -0.340 N 
ATOM     15  O   UNL A   1      34.078  21.413  28.007  1.00  0.00    -0.269 OA
ATOM     16  C   UNL A   1      33.709  22.206  27.143  1.00  0.00     0.251 C 
ATOM     17  H   UNL A   1      31.988  22.668  28.092  1.00  0.00     0.164 HD
BRANCH  16  18
ATOM     18  C   UNL A   1      34.588  22.479  25.975  1.00  0.00     0.040 A 
ATOM     19  C   UNL A   1      34.966  21.456  25.095  1.00  0.00     0.017 A 
ATOM     20  C   UNL A   1      35.043  23.787  25.759  1.00  0.00     0.017 A 
ATOM     21  C   UNL A   1      35.858  21.727  24.052  1.00  0.00     0.040 A 
ATOM     22  C   UNL A   1      35.926  24.055  24.710  1.00  0.00     0.040 A 
ATOM     23  C   UNL A   1      36.336  23.020  23.875  1.00  0.00     0.123 A 
ATOM     24  F   UNL A   1      37.204  23.273  22.887  1.00  0.00    -0.207 F 
ENDBRANCH  16  18
ENDBRANCH  13  14
BRANCH  13  25
ATOM     25  C   UNL A   1      31.215  22.716  25.024  1.00  0.00     0.070 C 
BRANCH  25  26
ATOM     26  C   UNL A   1      31.818  22.898  23.653  1.00  0.00    -0.045 A 
ATOM     27  C   UNL A   1      32.016  21.800  22.799  1.00  0.00     0.007 A 
ATOM     28  C   UNL A   1      32.255  24.159  23.235  1.00  0.00     0.007 A 
ATOM     29  C   UNL A   1      32.581  21.974  21.532  1.00  0.00     0.046 A 
ATOM     30  C   UNL A   1      32.771  24.343  21.951  1.00  0.00     0.046 A 
ATOM     31  C   UNL A   1      32.924  23.252  21.108  1.00  0.00     0.115 A 
BRANCH  31  32
ATOM     32  O   UNL A   1      33.429  23.484  19.863  1.00  0.00    -0.508 OA
ATOM     33  H   UNL A   1      34.104  24.123  19.744  1.00  0.00     0.293 HD
ENDBRANCH  31  32
ENDBRANCH  25  26
ENDBRANCH  13  25
ENDBRANCH  10  13
ENDBRANCH   8   9
BRANCH   8  34
ATOM     34  C   UNL A   1      32.816  26.758  25.100  1.00  0.00     0.072 C 
BRANCH  34  35
ATOM     35  C   UNL A   1      32.428  27.828  24.122  1.00  0.00    -0.020 A 
ATOM     36  C   UNL A   1      33.272  28.444  23.229  1.00  0.00     0.087 A 
ATOM     37  C   UNL A   1      31.111  28.190  23.666  1.00  0.00     0.003 A 
ATOM     38  N   UNL A   1      32.588  29.329  22.454  1.00  0.00    -0.361 N 
ATOM     39  C   UNL A   1      31.248  29.132  22.640  1.00  0.00     0.046 A 
ATOM     40  C   UNL A   1      29.812  27.742  23.968  1.00  0.00     0.010 A 
ATOM     41  H   UNL A   1      32.992  30.000  21.858  1.00  0.00     0.166 HD
ATOM     42  C   UNL A   1      30.174  29.678  21.935  1.00  0.00     0.026 A 
ATOM     43  C   UNL A   1      28.724  28.245  23.241  1.00  0.00     0.001 A 
ATOM     44  C   UNL A   1      28.904  29.200  22.243  1.00  0.00     0.002 A 
ENDBRANCH  34  35
ENDBRANCH   8  34
ENDBRANCH   5   8
ENDBRANCH   3   4
BRANCH   3  45
ATOM     45  C   UNL A   1      31.456  30.761  26.764  1.00  0.00     0.193 C 
BRANCH  45  46
ATOM     46  O   UNL A   1      31.245  31.357  25.489  1.00  0.00    -0.394 OA
ATOM     47  H   UNL A   1      30.719  32.166  25.593  1.00  0.00     0.210 HD
ENDBRANCH  45  46
ENDBRANCH   3  45
ENDBRANCH   1   3
BRANCH   1  48
ATOM     48  O   UNL A   1      32.892  32.677  27.875  1.00  0.00    -0.460 OA
BRANCH  48  49
ATOM     49  C   UNL A   1      33.596  33.943  27.917  1.00  0.00     0.274 C 
BRANCH  49  50
ATOM     50  C   UNL A   1      33.515  34.599  29.315  1.00  0.00     0.275 C 
BRANCH  50  51
ATOM     51  O   UNL A   1      34.744  34.441  30.068  1.00  0.00    -0.458 OA
BRANCH  51  52
ATOM     52  C   UNL A   1      34.610  33.816  31.281  1.00  0.00     0.338 C 
ATOM     53  O   UNL A   1      33.618  33.838  31.987  1.00  0.00    -0.246 OA
BRANCH  52  54
ATOM     54  C   UNL A   1      35.853  33.072  31.650  1.00  0.00     0.060 A 
ATOM     55  C   UNL A   1      37.074  33.507  31.152  1.00  0.00     0.016 A 
ATOM     56  C   UNL A   1      35.833  31.888  32.392  1.00  0.00     0.016 A 
ATOM     57  C   UNL A   1      38.273  32.859  31.455  1.00  0.00     0.010 A 
ATOM     58  C   UNL A   1      37.038  31.201  32.672  1.00  0.00     0.010 A 
ATOM     59  C   UNL A   1      38.273  31.691  32.213  1.00  0.00    -0.014 A 
BRANCH  59  60
ATOM     60  C   UNL A   1      39.558  30.953  32.370  1.00  0.00     0.031 A 
ATOM     61  C   UNL A   1      39.998  30.001  31.292  1.00  0.00     0.074 A 
ATOM     62  C   UNL A   1      40.421  31.243  33.363  1.00  0.00     0.049 A 
ATOM     63  N   UNL A   1      41.014  29.177  31.274  1.00  0.00    -0.248 NA
ATOM     64  C   UNL A   1      39.190  29.995  30.064  1.00  0.00     0.031 C 
ATOM     65  C   UNL A   1      40.227  32.285  34.369  1.00  0.00     0.029 A 
ATOM     66  N   UNL A   1      41.657  30.717  33.663  1.00  0.00    -0.354 N 
ATOM     67  C   UNL A   1      40.943  28.523  30.050  1.00  0.00     0.074 A 
ATOM     68  C   UNL A   1      39.802  29.065  29.346  1.00  0.00     0.031 C 
ATOM     69  C   UNL A   1      41.322  32.349  35.148  1.00  0.00     0.029 A 
ATOM     70  C   UNL A   1      42.263  31.305  34.748  1.00  0.00     0.049 A 
ATOM     71  H   UNL A   1      42.069  29.987  33.146  1.00  0.00     0.167 HD
ATOM     72  C   UNL A   1      41.738  27.533  29.573  1.00  0.00     0.031 A 
ATOM     73  C   UNL A   1      43.424  31.014  35.372  1.00  0.00     0.031 A 
ATOM     74  C   UNL A   1      42.872  26.997  30.276  1.00  0.00     0.049 A 
ATOM     75  C   UNL A   1      44.226  29.829  34.898  1.00  0.00     0.074 A 
ATOM     76  C   UNL A   1      43.660  25.905  29.954  1.00  0.00     0.029 A 
ATOM     77  N   UNL A   1      43.392  27.533  31.444  1.00  0.00    -0.354 N 
ATOM     78  N   UNL A   1      44.052  29.082  33.835  1.00  0.00    -0.248 NA
ATOM     79  C   UNL A   1      45.361  29.416  35.740  1.00  0.00     0.031 C 
ATOM     80  C   UNL A   1      44.625  25.751  30.958  1.00  0.00     0.029 A 
ATOM     81  C   UNL A   1      44.475  26.782  31.870  1.00  0.00     0.049 A 
ATOM     82  H   UNL A   1      43.043  28.331  31.903  1.00  0.00     0.167 HD
ATOM     83  C   UNL A   1      45.043  28.109  33.885  1.00  0.00     0.074 A 
ATOM     84  C   UNL A   1      45.843  28.385  35.059  1.00  0.00     0.031 C 
ATOM     85  C   UNL A   1      45.257  27.066  33.045  1.00  0.00     0.031 A 
BRANCH  72  86
ATOM     86  C   UNL A   1      41.308  26.884  28.287  1.00  0.00    -0.014 A 
ATOM     87  C   UNL A   1      40.386  25.828  28.253  1.00  0.00     0.009 A 
ATOM     88  C   UNL A   1      41.878  27.330  27.083  1.00  0.00     0.009 A 
ATOM     89  C   UNL A   1      40.076  25.206  27.040  1.00  0.00     0.001 A 
ATOM     90  C   UNL A   1      41.546  26.724  25.871  1.00  0.00     0.001 A 
ATOM     91  C   UNL A   1      40.655  25.654  25.853  1.00  0.00     0.000 A 
ENDBRANCH  72  86
BRANCH  73  92
ATOM     92  C   UNL A   1      43.868  31.791  36.566  1.00  0.00    -0.014 A 
ATOM     93  C   UNL A   1      44.739  32.885  36.434  1.00  0.00     0.009 A 
ATOM     94  C   UNL A   1      43.457  31.416  37.856  1.00  0.00     0.009 A 
ATOM     95  C   UNL A   1      45.196  33.572  37.563  1.00  0.00     0.001 A 
ATOM     96  C   UNL A   1      43.884  32.128  38.979  1.00  0.00     0.001 A 
ATOM     97  C   UNL A   1      44.762  33.200  38.833  1.00  0.00     0.000 A 
ENDBRANCH  73  92
BRANCH  85  98
ATOM     98  C   UNL A   1      46.405  26.152  33.365  1.00  0.00    -0.014 A 
ATOM     99  C   UNL A   1      46.226  25.020  34.176  1.00  0.00     0.009 A 
ATOM    100  C   UNL A   1      47.673  26.402  32.817  1.00  0.00     0.009 A 
ATOM    101  C   UNL A   1      47.301  24.174  34.457  1.00  0.00     0.001 A 
ATOM    102  C   UNL A   1      48.739  25.541  33.079  1.00  0.00     0.001 A 
ATOM    103  C   UNL A   1      48.555  24.432  33.906  1.00  0.00     0.000 A 
ENDBRANCH  85  98
ENDBRANCH  59  60
ENDBRANCH  52  54
ENDBRANCH  51  52
ENDBRANCH  50  51
ENDBRANCH  49  50
ENDBRANCH  48  49
ENDBRANCH   1  48
TORSDOF 24
ENDMDL
MODEL 3
REMARK VINA RESULT:     -10.8      2.726      8.215
REMARK SMILES O=C(N[C@@H](Cc1ccc(O)cc1)C(=O)N[C@@H](Cc1c[nH]c2ccccc12)C(=O)N[C@@H](CO)C(=O)OCCOC(=O)c1ccc(-c2c3nc(c(-c4ccccc4)c4ccc([nH]4)c(-c4ccccc4)c4nc(c(-c5ccccc5)c5ccc2[nH]5)C=C4)C=C3)cc1)c1ccc(F)cc1
REMARK SMILES IDX 33 1 34 2 30 3 29 4 27 5 28 6 16 8 15 9 13 10 14 11 4 13
REMARK SMILES IDX 3 14 1 15 2 16 89 18 90 19 95 20 91 21 94 22 92 23 93 24
REMARK SMILES IDX 5 25 6 26 7 27 12 28 8 29 11 30 9 31 10 32 17 34 18 35 19 36
REMARK SMILES IDX 26 37 20 38 21 39 25 40 22 42 24 43 23 44 31 45 32 46 35 48
REMARK SMILES IDX 36 49 37 50 38 51 39 52 40 53 41 54 42 55 88 56 43 57 87 58
REMARK SMILES IDX 44 59 45 60 46 61 81 62 47 63 86 64 80 65 82 66 48 67 85 68
REMARK SMILES IDX 79 69 78 70 49 72 71 73 56 74 70 75 57 76 60 77 69 78 83 79
REMARK SMILES IDX 58 80 59 81 68 83 84 84 61 85 50 86 51 87 55 88 52 89 54 90
REMARK SMILES IDX 53 91 72 92 73 93 77 94 74 95 76 96 75 97 62 98 63 99 67 100
REMARK SMILES IDX 64 101 66 102 65 103
REMARK H PARENT 29 7 15 12 3 17 10 33 20 41 32 47 82 71 60 82
REMARK Flexibility Score: inf
ROOT
ATOM      1  C   UNL A   1      34.396  22.799  23.204  1.00  0.00     0.331 C 
ATOM      2  O   UNL A   1      35.007  23.457  22.367  1.00  0.00    -0.250 OA
ENDROOT
BRANCH   1   3
ATOM      3  C   UNL A   1      32.855  22.608  23.178  1.00  0.00     0.218 C 
BRANCH   3   4
ATOM      4  N   UNL A   1      32.100  23.673  22.475  1.00  0.00    -0.339 N 
ATOM      5  C   UNL A   1      30.989  24.209  23.076  1.00  0.00     0.243 C 
ATOM      6  O   UNL A   1      29.967  23.514  23.097  1.00  0.00    -0.273 OA
ATOM      7  H   UNL A   1      32.392  23.991  21.590  1.00  0.00     0.164 HD
BRANCH   5   8
ATOM      8  C   UNL A   1      30.947  25.732  23.464  1.00  0.00     0.175 C 
BRANCH   8   9
ATOM      9  N   UNL A   1      32.236  26.266  22.969  1.00  0.00    -0.342 N 
ATOM     10  C   UNL A   1      33.438  26.542  23.519  1.00  0.00     0.243 C 
ATOM     11  O   UNL A   1      34.343  26.784  22.707  1.00  0.00    -0.273 OA
ATOM     12  H   UNL A   1      32.210  26.468  22.005  1.00  0.00     0.164 HD
BRANCH  10  13
ATOM     13  C   UNL A   1      33.771  26.579  25.029  1.00  0.00     0.176 C 
BRANCH  13  14
ATOM     14  N   UNL A   1      34.308  25.333  25.580  1.00  0.00    -0.340 N 
ATOM     15  O   UNL A   1      34.261  23.495  26.887  1.00  0.00    -0.269 OA
ATOM     16  C   UNL A   1      33.631  24.377  26.309  1.00  0.00     0.251 C 
ATOM     17  H   UNL A   1      35.261  25.157  25.409  1.00  0.00     0.164 HD
BRANCH  16  18
ATOM     18  C   UNL A   1      32.153  24.443  26.460  1.00  0.00     0.040 A 
ATOM     19  C   UNL A   1      31.479  25.671  26.495  1.00  0.00     0.017 A 
ATOM     20  C   UNL A   1      31.429  23.247  26.571  1.00  0.00     0.017 A 
ATOM     21  C   UNL A   1      30.099  25.704  26.719  1.00  0.00     0.040 A 
ATOM     22  C   UNL A   1      30.048  23.285  26.784  1.00  0.00     0.040 A 
ATOM     23  C   UNL A   1      29.399  24.512  26.871  1.00  0.00     0.123 A 
ATOM     24  F   UNL A   1      28.080  24.547  27.103  1.00  0.00    -0.207 F 
ENDBRANCH  16  18
ENDBRANCH  13  14
BRANCH  13  25
ATOM     25  C   UNL A   1      34.407  27.870  25.589  1.00  0.00     0.070 C 
BRANCH  25  26
ATOM     26  C   UNL A   1      33.522  29.037  25.948  1.00  0.00    -0.045 A 
ATOM     27  C   UNL A   1      32.266  29.207  25.340  1.00  0.00     0.007 A 
ATOM     28  C   UNL A   1      33.968  30.011  26.847  1.00  0.00     0.007 A 
ATOM     29  C   UNL A   1      31.453  30.295  25.673  1.00  0.00     0.046 A 
ATOM     30  C   UNL A   1      33.136  31.069  27.219  1.00  0.00     0.046 A 
ATOM     31  C   UNL A   1      31.884  31.200  26.635  1.00  0.00     0.115 A 
BRANCH  31  32
ATOM     32  O   UNL A   1      31.109  32.247  27.035  1.00  0.00    -0.508 OA
ATOM     33  H   UNL A   1      30.176  32.162  27.041  1.00  0.00     0.293 HD
ENDBRANCH  31  32
ENDBRANCH  25  26
ENDBRANCH  13  25
ENDBRANCH  10  13
ENDBRANCH   8   9
BRANCH   8  34
ATOM     34  C   UNL A   1      29.820  26.698  23.050  1.00  0.00     0.072 C 
BRANCH  34  35
ATOM     35  C   UNL A   1      30.049  28.151  22.753  1.00  0.00    -0.020 A 
ATOM     36  C   UNL A   1      31.033  28.659  21.939  1.00  0.00     0.087 A 
ATOM     37  C   UNL A   1      29.146  29.257  22.944  1.00  0.00     0.003 A 
ATOM     38  N   UNL A   1      30.927  30.012  21.845  1.00  0.00    -0.361 N 
ATOM     39  C   UNL A   1      29.729  30.397  22.380  1.00  0.00     0.046 A 
ATOM     40  C   UNL A   1      27.847  29.382  23.467  1.00  0.00     0.010 A 
ATOM     41  H   UNL A   1      31.602  30.614  21.456  1.00  0.00     0.166 HD
ATOM     42  C   UNL A   1      29.115  31.651  22.346  1.00  0.00     0.026 A 
ATOM     43  C   UNL A   1      27.195  30.622  23.403  1.00  0.00     0.001 A 
ATOM     44  C   UNL A   1      27.822  31.737  22.854  1.00  0.00     0.002 A 
ENDBRANCH  34  35
ENDBRANCH   8  34
ENDBRANCH   5   8
ENDBRANCH   3   4
BRANCH   3  45
ATOM     45  C   UNL A   1      32.491  21.195  22.715  1.00  0.00     0.193 C 
BRANCH  45  46
ATOM     46  O   UNL A   1      31.448  21.242  21.748  1.00  0.00    -0.394 OA
ATOM     47  H   UNL A   1      31.114  22.150  21.676  1.00  0.00     0.210 HD
ENDBRANCH  45  46
ENDBRANCH   3  45
ENDBRANCH   1   3
BRANCH   1  48
ATOM     48  O   UNL A   1      35.018  22.010  24.143  1.00  0.00    -0.460 OA
BRANCH  48  49
ATOM     49  C   UNL A   1      36.465  21.984  24.075  1.00  0.00     0.274 C 
BRANCH  49  50
ATOM     50  C   UNL A   1      37.095  23.218  24.761  1.00  0.00     0.275 C 
BRANCH  50  51
ATOM     51  O   UNL A   1      37.554  22.925  26.105  1.00  0.00    -0.458 OA
BRANCH  51  52
ATOM     52  C   UNL A   1      38.916  22.908  26.266  1.00  0.00     0.338 C 
ATOM     53  O   UNL A   1      39.656  21.987  25.974  1.00  0.00    -0.246 OA
BRANCH  52  54
ATOM     54  C   UNL A   1      39.409  24.193  26.851  1.00  0.00     0.060 A 
ATOM     55  C   UNL A   1      39.104  24.497  28.170  1.00  0.00     0.016 A 
ATOM     56  C   UNL A   1      40.080  25.158  26.096  1.00  0.00     0.016 A 
ATOM     57  C   UNL A   1      39.531  25.679  28.779  1.00  0.00     0.010 A 
ATOM     58  C   UNL A   1      40.484  26.377  26.691  1.00  0.00     0.010 A 
ATOM     59  C   UNL A   1      40.221  26.641  28.047  1.00  0.00    -0.014 A 
BRANCH  59  60
ATOM     60  C   UNL A   1      40.511  27.949  28.699  1.00  0.00     0.031 A 
ATOM     61  C   UNL A   1      41.929  28.288  29.071  1.00  0.00     0.074 A 
ATOM     62  C   UNL A   1      39.571  28.907  28.806  1.00  0.00     0.049 A 
ATOM     63  N   UNL A   1      42.390  29.311  29.744  1.00  0.00    -0.248 NA
ATOM     64  C   UNL A   1      42.962  27.353  28.604  1.00  0.00     0.031 C 
ATOM     65  C   UNL A   1      38.202  28.804  28.307  1.00  0.00     0.029 A 
ATOM     66  N   UNL A   1      39.638  30.178  29.332  1.00  0.00    -0.354 N 
ATOM     67  C   UNL A   1      43.764  29.122  29.817  1.00  0.00     0.074 A 
ATOM     68  C   UNL A   1      44.062  27.901  29.099  1.00  0.00     0.031 C 
ATOM     69  C   UNL A   1      37.572  29.975  28.512  1.00  0.00     0.029 A 
ATOM     70  C   UNL A   1      38.464  30.886  29.226  1.00  0.00     0.049 A 
ATOM     71  H   UNL A   1      40.453  30.546  29.744  1.00  0.00     0.167 HD
ATOM     72  C   UNL A   1      44.689  29.878  30.457  1.00  0.00     0.031 A 
ATOM     73  C   UNL A   1      38.133  32.113  29.681  1.00  0.00     0.031 A 
ATOM     74  C   UNL A   1      44.390  31.091  31.169  1.00  0.00     0.049 A 
ATOM     75  C   UNL A   1      39.140  32.881  30.499  1.00  0.00     0.074 A 
ATOM     76  C   UNL A   1      45.220  31.860  31.968  1.00  0.00     0.029 A 
ATOM     77  N   UNL A   1      43.157  31.723  31.150  1.00  0.00    -0.354 N 
ATOM     78  N   UNL A   1      40.401  32.607  30.731  1.00  0.00    -0.248 NA
ATOM     79  C   UNL A   1      38.662  34.107  31.160  1.00  0.00     0.031 C 
ATOM     80  C   UNL A   1      44.470  32.930  32.474  1.00  0.00     0.029 A 
ATOM     81  C   UNL A   1      43.193  32.859  31.942  1.00  0.00     0.049 A 
ATOM     82  H   UNL A   1      42.370  31.411  30.647  1.00  0.00     0.167 HD
ATOM     83  C   UNL A   1      40.863  33.616  31.568  1.00  0.00     0.074 A 
ATOM     84  C   UNL A   1      39.761  34.532  31.769  1.00  0.00     0.031 C 
ATOM     85  C   UNL A   1      42.085  33.758  32.138  1.00  0.00     0.031 A 
BRANCH  72  86
ATOM     86  C   UNL A   1      46.086  29.325  30.521  1.00  0.00    -0.014 A 
ATOM     87  C   UNL A   1      47.021  29.533  29.497  1.00  0.00     0.009 A 
ATOM     88  C   UNL A   1      46.452  28.545  31.630  1.00  0.00     0.009 A 
ATOM     89  C   UNL A   1      48.283  28.935  29.566  1.00  0.00     0.001 A 
ATOM     90  C   UNL A   1      47.721  27.971  31.708  1.00  0.00     0.001 A 
ATOM     91  C   UNL A   1      48.631  28.156  30.670  1.00  0.00     0.000 A 
ENDBRANCH  72  86
BRANCH  73  92
ATOM     92  C   UNL A   1      36.765  32.668  29.462  1.00  0.00    -0.014 A 
ATOM     93  C   UNL A   1      36.458  33.395  28.300  1.00  0.00     0.009 A 
ATOM     94  C   UNL A   1      35.764  32.511  30.435  1.00  0.00     0.009 A 
ATOM     95  C   UNL A   1      35.191  33.962  28.128  1.00  0.00     0.001 A 
ATOM     96  C   UNL A   1      34.488  33.044  30.244  1.00  0.00     0.001 A 
ATOM     97  C   UNL A   1      34.205  33.778  29.094  1.00  0.00     0.000 A 
ENDBRANCH  73  92
BRANCH  85  98
ATOM     98  C   UNL A   1      42.294  34.950  33.027  1.00  0.00    -0.014 A 
ATOM     99  C   UNL A   1      41.780  34.978  34.334  1.00  0.00     0.009 A 
ATOM    100  C   UNL A   1      43.046  36.043  32.568  1.00  0.00     0.009 A 
ATOM    101  C   UNL A   1      41.990  36.090  35.152  1.00  0.00     0.001 A 
ATOM    102  C   UNL A   1      43.275  37.141  33.398  1.00  0.00     0.001 A 
ATOM    103  C   UNL A   1      42.740  37.168  34.686  1.00  0.00     0.000 A 
ENDBRANCH  85  98
ENDBRANCH  59  60
ENDBRANCH  52  54
ENDBRANCH  51  52
ENDBRANCH  50  51
ENDBRANCH  49  50
ENDBRANCH  48  49
ENDBRANCH   1  48
TORSDOF 24
ENDMDL
