MODEL 1
REMARK VINA RESULT:     -12.0      0.000      0.000
REMARK SMILES O=C(OCCOC(=O)c1ccc(-c2c3nc(c(-c4ccccc4)c4ccc([nH]4)c(-c4ccccc4)c4nc(c(-c5ccccc5)c5ccc2[nH]5)C=C4)C=C3)cc1)C1=Cc2c(ccc(Cl)c2Oc2ccccc2)O[C@H]1C(F)(F)F
REMARK SMILES IDX 4 1 3 2 2 3 1 4 57 5 58 6 74 7 59 8 73 9 60 10 65 11 61 12
REMARK SMILES IDX 63 13 62 14 64 15 75 16 76 17 77 18 78 19 66 20 67 21 68 22
REMARK SMILES IDX 72 23 69 24 71 25 70 26 5 27 6 28 7 29 8 30 9 31 10 32 56 33
REMARK SMILES IDX 11 34 55 35 12 36 13 37 14 38 49 39 15 40 54 41 48 42 50 43
REMARK SMILES IDX 16 44 53 45 47 46 46 47 17 49 39 50 24 51 38 52 25 53 28 54
REMARK SMILES IDX 37 55 51 56 26 57 27 58 36 60 52 61 29 62 18 63 19 64 23 65
REMARK SMILES IDX 20 66 22 67 21 68 40 69 41 70 45 71 42 72 44 73 43 74 30 75
REMARK SMILES IDX 31 76 35 77 32 78 34 79 33 80
REMARK H PARENT 50 48 28 59
REMARK Flexibility Score: inf
ROOT
ATOM      1  C   UNL A   1      33.944  20.814  24.962  1.00  0.00     0.275 C 
ENDROOT
BRANCH   1   2
ATOM      2  O   UNL A   1      33.757  22.242  24.835  1.00  0.00    -0.459 OA
BRANCH   2   3
ATOM      3  C   UNL A   1      32.828  22.871  24.089  1.00  0.00     0.338 C 
ATOM      4  O   UNL A   1      32.582  22.540  22.935  1.00  0.00    -0.246 OA
BRANCH   3   5
ATOM      5  C   UNL A   1      31.840  23.683  24.789  1.00  0.00     0.088 C 
ATOM      6  C   UNL A   1      31.190  24.768  24.366  1.00  0.00     0.031 C 
ATOM      7  C   UNL A   1      31.796  23.583  26.270  1.00  0.00     0.316 C 
ATOM      8  C   UNL A   1      31.813  26.057  24.673  1.00  0.00     0.062 A 
ATOM      9  O   UNL A   1      32.258  24.897  26.814  1.00  0.00    -0.475 OA
ATOM     10  C   UNL A   1      32.511  25.937  25.908  1.00  0.00     0.131 A 
ATOM     11  C   UNL A   1      31.900  27.171  23.777  1.00  0.00     0.156 A 
ATOM     12  C   UNL A   1      33.538  26.821  26.161  1.00  0.00     0.049 A 
ATOM     13  C   UNL A   1      33.000  28.007  24.055  1.00  0.00     0.084 A 
ATOM     14  C   UNL A   1      33.820  27.808  25.202  1.00  0.00     0.028 A 
ATOM     15  Cl  UNL A   1      33.543  29.185  22.908  1.00  0.00    -0.080 Cl
BRANCH   7  16
ATOM     16  C   UNL A   1      30.377  23.088  26.730  1.00  0.00     0.430 C 
ATOM     17  F   UNL A   1      30.356  22.558  27.985  1.00  0.00    -0.167 F 
ATOM     18  F   UNL A   1      29.484  24.107  26.758  1.00  0.00    -0.167 F 
ATOM     19  F   UNL A   1      29.878  22.130  25.917  1.00  0.00    -0.167 F 
ENDBRANCH   7  16
BRANCH  11  20
ATOM     20  O   UNL A   1      31.206  27.437  22.548  1.00  0.00    -0.455 OA
BRANCH  20  21
ATOM     21  C   UNL A   1      30.014  28.209  22.438  1.00  0.00     0.127 A 
ATOM     22  C   UNL A   1      28.503  27.642  23.206  1.00  0.00     0.047 A 
ATOM     23  C   UNL A   1      30.218  29.805  21.903  1.00  0.00     0.047 A 
ATOM     24  C   UNL A   1      27.126  28.734  23.630  1.00  0.00     0.004 A 
ATOM     25  C   UNL A   1      29.069  31.059  22.412  1.00  0.00     0.004 A 
ATOM     26  C   UNL A   1      27.347  30.511  23.319  1.00  0.00     0.000 A 
ENDBRANCH  20  21
ENDBRANCH  11  20
ENDBRANCH   3   5
ENDBRANCH   2   3
ENDBRANCH   1   2
BRANCH   1  27
ATOM     27  C   UNL A   1      35.290  20.228  24.597  1.00  0.00     0.275 C 
BRANCH  27  28
ATOM     28  O   UNL A   1      36.293  20.442  25.556  1.00  0.00    -0.458 OA
BRANCH  28  29
ATOM     29  C   UNL A   1      37.233  21.251  24.992  1.00  0.00     0.338 C 
ATOM     30  O   UNL A   1      37.100  21.588  23.825  1.00  0.00    -0.246 OA
BRANCH  29  31
ATOM     31  C   UNL A   1      38.256  21.846  26.150  1.00  0.00     0.060 A 
ATOM     32  C   UNL A   1      37.622  23.521  26.131  1.00  0.00     0.016 A 
ATOM     33  C   UNL A   1      40.178  21.570  26.757  1.00  0.00     0.016 A 
ATOM     34  C   UNL A   1      38.664  24.828  26.562  1.00  0.00     0.010 A 
ATOM     35  C   UNL A   1      41.119  23.043  27.256  1.00  0.00     0.010 A 
ATOM     36  C   UNL A   1      40.342  24.650  27.107  1.00  0.00    -0.014 A 
BRANCH  36  37
ATOM     37  C   UNL A   1      41.101  25.962  27.188  1.00  0.00     0.031 A 
ATOM     38  C   UNL A   1      40.645  26.988  28.190  1.00  0.00     0.074 A 
ATOM     39  C   UNL A   1      42.256  26.214  26.514  1.00  0.00     0.049 A 
ATOM     40  N   UNL A   1      41.043  28.222  28.366  1.00  0.00    -0.248 NA
ATOM     41  C   UNL A   1      39.535  26.608  29.070  1.00  0.00     0.031 C 
ATOM     42  C   UNL A   1      42.893  25.372  25.494  1.00  0.00     0.029 A 
ATOM     43  N   UNL A   1      43.166  27.249  26.653  1.00  0.00    -0.354 N 
ATOM     44  C   UNL A   1      40.137  28.759  29.270  1.00  0.00     0.074 A 
ATOM     45  C   UNL A   1      39.095  27.786  29.463  1.00  0.00     0.031 C 
ATOM     46  C   UNL A   1      44.134  25.822  25.239  1.00  0.00     0.029 A 
ATOM     47  C   UNL A   1      44.346  27.073  25.954  1.00  0.00     0.049 A 
ATOM     48  H   UNL A   1      42.987  28.045  27.204  1.00  0.00     0.167 HD
ATOM     49  C   UNL A   1      40.200  29.903  29.985  1.00  0.00     0.031 A 
ATOM     50  C   UNL A   1      45.461  27.835  25.876  1.00  0.00     0.031 A 
ATOM     51  C   UNL A   1      41.301  30.811  29.933  1.00  0.00     0.049 A 
ATOM     52  C   UNL A   1      45.489  29.150  26.619  1.00  0.00     0.074 A 
ATOM     53  C   UNL A   1      41.470  31.998  30.618  1.00  0.00     0.029 A 
ATOM     54  N   UNL A   1      42.440  30.608  29.173  1.00  0.00    -0.354 N 
ATOM     55  N   UNL A   1      44.602  29.658  27.441  1.00  0.00    -0.248 NA
ATOM     56  C   UNL A   1      46.667  30.008  26.408  1.00  0.00     0.031 C 
ATOM     57  C   UNL A   1      42.677  32.563  30.198  1.00  0.00     0.029 A 
ATOM     58  C   UNL A   1      43.304  31.672  29.341  1.00  0.00     0.049 A 
ATOM     59  H   UNL A   1      42.609  29.825  28.600  1.00  0.00     0.167 HD
ATOM     60  C   UNL A   1      45.133  30.868  27.875  1.00  0.00     0.074 A 
ATOM     61  C   UNL A   1      46.426  31.010  27.242  1.00  0.00     0.031 C 
ATOM     62  C   UNL A   1      44.598  31.781  28.723  1.00  0.00     0.031 A 
BRANCH  49  63
ATOM     63  C   UNL A   1      39.014  30.220  30.854  1.00  0.00    -0.014 A 
ATOM     64  C   UNL A   1      38.915  29.773  32.185  1.00  0.00     0.009 A 
ATOM     65  C   UNL A   1      37.931  30.903  30.285  1.00  0.00     0.009 A 
ATOM     66  C   UNL A   1      37.720  29.924  32.891  1.00  0.00     0.001 A 
ATOM     67  C   UNL A   1      36.759  31.099  31.012  1.00  0.00     0.001 A 
ATOM     68  C   UNL A   1      36.645  30.589  32.304  1.00  0.00     0.000 A 
ENDBRANCH  49  63
BRANCH  50  69
ATOM     69  C   UNL A   1      46.642  27.439  25.038  1.00  0.00    -0.014 A 
ATOM     70  C   UNL A   1      47.661  26.616  25.558  1.00  0.00     0.009 A 
ATOM     71  C   UNL A   1      46.813  27.957  23.745  1.00  0.00     0.009 A 
ATOM     72  C   UNL A   1      48.827  26.361  24.823  1.00  0.00     0.001 A 
ATOM     73  C   UNL A   1      47.959  27.667  22.995  1.00  0.00     0.001 A 
ATOM     74  C   UNL A   1      48.973  26.882  23.540  1.00  0.00     0.000 A 
ENDBRANCH  50  69
BRANCH  62  75
ATOM     75  C   UNL A   1      45.442  32.966  29.099  1.00  0.00    -0.014 A 
ATOM     76  C   UNL A   1      45.383  34.178  28.397  1.00  0.00     0.009 A 
ATOM     77  C   UNL A   1      46.274  32.872  30.227  1.00  0.00     0.009 A 
ATOM     78  C   UNL A   1      46.179  35.256  28.788  1.00  0.00     0.001 A 
ATOM     79  C   UNL A   1      47.033  33.964  30.643  1.00  0.00     0.001 A 
ATOM     80  C   UNL A   1      46.996  35.150  29.915  1.00  0.00     0.000 A 
ENDBRANCH  62  75
ENDBRANCH  36  37
ENDBRANCH  29  31
ENDBRANCH  28  29
ENDBRANCH  27  28
ENDBRANCH   1  27
TORSDOF 14
ENDMDL
MODEL 2
REMARK VINA RESULT:     -11.6      2.493      7.382
REMARK SMILES O=C(OCCOC(=O)c1ccc(-c2c3nc(c(-c4ccccc4)c4ccc([nH]4)c(-c4ccccc4)c4nc(c(-c5ccccc5)c5ccc2[nH]5)C=C4)C=C3)cc1)C1=Cc2c(ccc(Cl)c2Oc2ccccc2)O[C@H]1C(F)(F)F
REMARK SMILES IDX 4 1 3 2 2 3 1 4 57 5 58 6 74 7 59 8 73 9 60 10 65 11 61 12
REMARK SMILES IDX 63 13 62 14 64 15 75 16 76 17 77 18 78 19 66 20 67 21 68 22
REMARK SMILES IDX 72 23 69 24 71 25 70 26 5 27 6 28 7 29 8 30 9 31 10 32 56 33
REMARK SMILES IDX 11 34 55 35 12 36 13 37 14 38 49 39 15 40 54 41 48 42 50 43
REMARK SMILES IDX 16 44 53 45 47 46 46 47 17 49 39 50 24 51 38 52 25 53 28 54
REMARK SMILES IDX 37 55 51 56 26 57 27 58 36 60 52 61 29 62 18 63 19 64 23 65
REMARK SMILES IDX 20 66 22 67 21 68 40 69 41 70 45 71 42 72 44 73 43 74 30 75
REMARK SMILES IDX 31 76 35 77 32 78 34 79 33 80
REMARK H PARENT 50 48 28 59
REMARK Flexibility Score: inf
ROOT
ATOM      1  C   UNL A   1      33.784  27.861  24.726  1.00  0.00     0.275 C 
ENDROOT
BRANCH   1   2
ATOM      2  O   UNL A   1      34.156  26.542  24.266  1.00  0.00    -0.459 OA
BRANCH   2   3
ATOM      3  C   UNL A   1      33.385  25.680  23.575  1.00  0.00     0.338 C 
ATOM      4  O   UNL A   1      33.774  25.134  22.548  1.00  0.00    -0.246 OA
BRANCH   3   5
ATOM      5  C   UNL A   1      32.242  25.096  24.266  1.00  0.00     0.088 C 
ATOM      6  C   UNL A   1      32.211  24.080  25.128  1.00  0.00     0.031 C 
ATOM      7  C   UNL A   1      30.894  25.351  23.698  1.00  0.00     0.316 C 
ATOM      8  C   UNL A   1      31.979  22.751  24.556  1.00  0.00     0.062 A 
ATOM      9  O   UNL A   1      30.380  24.046  23.179  1.00  0.00    -0.475 OA
ATOM     10  C   UNL A   1      31.145  22.894  23.411  1.00  0.00     0.131 A 
ATOM     11  C   UNL A   1      32.659  21.551  24.943  1.00  0.00     0.156 A 
ATOM     12  C   UNL A   1      31.181  21.901  22.456  1.00  0.00     0.049 A 
ATOM     13  C   UNL A   1      32.707  20.598  23.906  1.00  0.00     0.084 A 
ATOM     14  C   UNL A   1      32.013  20.791  22.678  1.00  0.00     0.028 A 
ATOM     15  Cl  UNL A   1      33.783  19.243  23.984  1.00  0.00    -0.080 Cl
BRANCH   7  16
ATOM     16  C   UNL A   1      30.000  26.091  24.758  1.00  0.00     0.430 C 
ATOM     17  F   UNL A   1      28.866  26.639  24.239  1.00  0.00    -0.167 F 
ATOM     18  F   UNL A   1      29.576  25.241  25.725  1.00  0.00    -0.167 F 
ATOM     19  F   UNL A   1      30.656  27.105  25.366  1.00  0.00    -0.167 F 
ENDBRANCH   7  16
BRANCH  11  20
ATOM     20  O   UNL A   1      33.466  21.265  26.095  1.00  0.00    -0.455 OA
BRANCH  20  21
ATOM     21  C   UNL A   1      34.820  21.675  26.262  1.00  0.00     0.127 A 
ATOM     22  C   UNL A   1      36.137  20.768  25.464  1.00  0.00     0.047 A 
ATOM     23  C   UNL A   1      35.044  23.228  26.903  1.00  0.00     0.047 A 
ATOM     24  C   UNL A   1      37.768  21.469  25.121  1.00  0.00     0.004 A 
ATOM     25  C   UNL A   1      36.501  24.152  26.484  1.00  0.00     0.004 A 
ATOM     26  C   UNL A   1      38.030  23.215  25.550  1.00  0.00     0.000 A 
ENDBRANCH  20  21
ENDBRANCH  11  20
ENDBRANCH   3   5
ENDBRANCH   2   3
ENDBRANCH   1   2
BRANCH   1  27
ATOM     27  C   UNL A   1      33.572  28.075  26.209  1.00  0.00     0.275 C 
BRANCH  27  28
ATOM     28  O   UNL A   1      34.746  28.353  26.926  1.00  0.00    -0.458 OA
BRANCH  28  29
ATOM     29  C   UNL A   1      34.570  29.550  27.551  1.00  0.00     0.338 C 
ATOM     30  O   UNL A   1      33.487  30.110  27.464  1.00  0.00    -0.246 OA
BRANCH  29  31
ATOM     31  C   UNL A   1      35.841  29.868  28.564  1.00  0.00     0.060 A 
ATOM     32  C   UNL A   1      37.051  30.165  27.276  1.00  0.00     0.016 A 
ATOM     33  C   UNL A   1      36.523  29.246  30.377  1.00  0.00     0.016 A 
ATOM     34  C   UNL A   1      38.719  29.857  27.593  1.00  0.00     0.010 A 
ATOM     35  C   UNL A   1      38.319  29.047  30.572  1.00  0.00     0.010 A 
ATOM     36  C   UNL A   1      39.374  29.323  29.152  1.00  0.00    -0.014 A 
BRANCH  36  37
ATOM     37  C   UNL A   1      40.830  28.898  29.090  1.00  0.00     0.031 A 
ATOM     38  C   UNL A   1      41.148  27.523  28.568  1.00  0.00     0.074 A 
ATOM     39  C   UNL A   1      41.876  29.732  29.341  1.00  0.00     0.049 A 
ATOM     40  N   UNL A   1      42.290  26.884  28.533  1.00  0.00    -0.248 NA
ATOM     41  C   UNL A   1      40.021  26.719  28.086  1.00  0.00     0.031 C 
ATOM     42  C   UNL A   1      41.816  31.105  29.856  1.00  0.00     0.029 A 
ATOM     43  N   UNL A   1      43.232  29.560  29.113  1.00  0.00    -0.354 N 
ATOM     44  C   UNL A   1      41.958  25.590  28.155  1.00  0.00     0.074 A 
ATOM     45  C   UNL A   1      40.522  25.502  28.143  1.00  0.00     0.031 C 
ATOM     46  C   UNL A   1      43.021  31.691  29.738  1.00  0.00     0.029 A 
ATOM     47  C   UNL A   1      43.990  30.704  29.285  1.00  0.00     0.049 A 
ATOM     48  H   UNL A   1      43.622  28.696  28.850  1.00  0.00     0.167 HD
ATOM     49  C   UNL A   1      42.748  24.581  27.731  1.00  0.00     0.031 A 
ATOM     50  C   UNL A   1      45.314  30.931  29.119  1.00  0.00     0.031 A 
ATOM     51  C   UNL A   1      44.164  24.692  27.579  1.00  0.00     0.049 A 
ATOM     52  C   UNL A   1      46.200  29.774  28.720  1.00  0.00     0.074 A 
ATOM     53  C   UNL A   1      45.062  23.733  27.154  1.00  0.00     0.029 A 
ATOM     54  N   UNL A   1      44.882  25.852  27.815  1.00  0.00    -0.354 N 
ATOM     55  N   UNL A   1      45.869  28.545  28.403  1.00  0.00    -0.248 NA
ATOM     56  C   UNL A   1      47.649  30.032  28.674  1.00  0.00     0.031 C 
ATOM     57  C   UNL A   1      46.342  24.288  27.224  1.00  0.00     0.029 A 
ATOM     58  C   UNL A   1      46.223  25.622  27.583  1.00  0.00     0.049 A 
ATOM     59  H   UNL A   1      44.495  26.710  28.105  1.00  0.00     0.167 HD
ATOM     60  C   UNL A   1      47.058  27.901  28.081  1.00  0.00     0.074 A 
ATOM     61  C   UNL A   1      48.116  28.877  28.221  1.00  0.00     0.031 C 
ATOM     62  C   UNL A   1      47.257  26.614  27.701  1.00  0.00     0.031 A 
BRANCH  49  63
ATOM     63  C   UNL A   1      42.069  23.272  27.437  1.00  0.00    -0.014 A 
ATOM     64  C   UNL A   1      41.683  22.379  28.455  1.00  0.00     0.009 A 
ATOM     65  C   UNL A   1      41.901  22.889  26.100  1.00  0.00     0.009 A 
ATOM     66  C   UNL A   1      41.232  21.098  28.134  1.00  0.00     0.001 A 
ATOM     67  C   UNL A   1      41.400  21.629  25.783  1.00  0.00     0.001 A 
ATOM     68  C   UNL A   1      41.089  20.725  26.798  1.00  0.00     0.000 A 
ENDBRANCH  49  63
BRANCH  50  69
ATOM     69  C   UNL A   1      45.930  32.278  29.369  1.00  0.00    -0.014 A 
ATOM     70  C   UNL A   1      46.196  33.166  28.308  1.00  0.00     0.009 A 
ATOM     71  C   UNL A   1      46.348  32.650  30.657  1.00  0.00     0.009 A 
ATOM     72  C   UNL A   1      46.896  34.361  28.526  1.00  0.00     0.001 A 
ATOM     73  C   UNL A   1      47.009  33.863  30.879  1.00  0.00     0.001 A 
ATOM     74  C   UNL A   1      47.297  34.711  29.812  1.00  0.00     0.000 A 
ENDBRANCH  50  69
BRANCH  62  75
ATOM     75  C   UNL A   1      48.651  26.206  27.314  1.00  0.00    -0.014 A 
ATOM     76  C   UNL A   1      49.535  25.610  28.224  1.00  0.00     0.009 A 
ATOM     77  C   UNL A   1      49.058  26.378  25.980  1.00  0.00     0.009 A 
ATOM     78  C   UNL A   1      50.817  25.238  27.816  1.00  0.00     0.001 A 
ATOM     79  C   UNL A   1      50.321  25.963  25.565  1.00  0.00     0.001 A 
ATOM     80  C   UNL A   1      51.205  25.408  26.486  1.00  0.00     0.000 A 
ENDBRANCH  62  75
ENDBRANCH  36  37
ENDBRANCH  29  31
ENDBRANCH  28  29
ENDBRANCH  27  28
ENDBRANCH   1  27
TORSDOF 14
ENDMDL
MODEL 3
REMARK VINA RESULT:     -11.3      0.989      5.906
REMARK SMILES O=C(OCCOC(=O)c1ccc(-c2c3nc(c(-c4ccccc4)c4ccc([nH]4)c(-c4ccccc4)c4nc(c(-c5ccccc5)c5ccc2[nH]5)C=C4)C=C3)cc1)C1=Cc2c(ccc(Cl)c2Oc2ccccc2)O[C@H]1C(F)(F)F
REMARK SMILES IDX 4 1 3 2 2 3 1 4 57 5 58 6 74 7 59 8 73 9 60 10 65 11 61 12
REMARK SMILES IDX 63 13 62 14 64 15 75 16 76 17 77 18 78 19 66 20 67 21 68 22
REMARK SMILES IDX 72 23 69 24 71 25 70 26 5 27 6 28 7 29 8 30 9 31 10 32 56 33
REMARK SMILES IDX 11 34 55 35 12 36 13 37 14 38 49 39 15 40 54 41 48 42 50 43
REMARK SMILES IDX 16 44 53 45 47 46 46 47 17 49 39 50 24 51 38 52 25 53 28 54
REMARK SMILES IDX 37 55 51 56 26 57 27 58 36 60 52 61 29 62 18 63 19 64 23 65
REMARK SMILES IDX 20 66 22 67 21 68 40 69 41 70 45 71 42 72 44 73 43 74 30 75
REMARK SMILES IDX 31 76 35 77 32 78 34 79 33 80
REMARK H PARENT 50 48 28 59
REMARK Flexibility Score: inf
ROOT
ATOM      1  C   UNL A   1      34.895  22.613  24.374  1.00  0.00     0.275 C 
ENDROOT
BRANCH   1   2
ATOM      2  O   UNL A   1      33.688  23.034  23.697  1.00  0.00    -0.459 OA
BRANCH   2   3
ATOM      3  C   UNL A   1      32.431  22.629  23.961  1.00  0.00     0.338 C 
ATOM      4  O   UNL A   1      32.095  21.452  23.890  1.00  0.00    -0.246 OA
BRANCH   3   5
ATOM      5  C   UNL A   1      31.575  23.537  24.716  1.00  0.00     0.088 C 
ATOM      6  C   UNL A   1      30.984  24.662  24.315  1.00  0.00     0.031 C 
ATOM      7  C   UNL A   1      31.649  23.475  26.197  1.00  0.00     0.316 C 
ATOM      8  C   UNL A   1      31.734  25.901  24.531  1.00  0.00     0.062 A 
ATOM      9  O   UNL A   1      32.262  24.757  26.663  1.00  0.00    -0.475 OA
ATOM     10  C   UNL A   1      32.522  25.751  25.708  1.00  0.00     0.131 A 
ATOM     11  C   UNL A   1      31.836  26.984  23.599  1.00  0.00     0.156 A 
ATOM     12  C   UNL A   1      33.635  26.550  25.849  1.00  0.00     0.049 A 
ATOM     13  C   UNL A   1      33.021  27.730  23.761  1.00  0.00     0.084 A 
ATOM     14  C   UNL A   1      33.916  27.488  24.842  1.00  0.00     0.028 A 
ATOM     15  Cl  UNL A   1      33.560  28.831  22.538  1.00  0.00    -0.080 Cl
BRANCH   7  16
ATOM     16  C   UNL A   1      30.238  23.111  26.787  1.00  0.00     0.430 C 
ATOM     17  F   UNL A   1      30.282  22.589  28.044  1.00  0.00    -0.167 F 
ATOM     18  F   UNL A   1      29.447  24.207  26.882  1.00  0.00    -0.167 F 
ATOM     19  F   UNL A   1      29.584  22.200  26.032  1.00  0.00    -0.167 F 
ENDBRANCH   7  16
BRANCH  11  20
ATOM     20  O   UNL A   1      31.065  27.280  22.424  1.00  0.00    -0.455 OA
BRANCH  20  21
ATOM     21  C   UNL A   1      29.923  28.130  22.394  1.00  0.00     0.127 A 
ATOM     22  C   UNL A   1      28.382  27.589  23.122  1.00  0.00     0.047 A 
ATOM     23  C   UNL A   1      30.223  29.751  22.000  1.00  0.00     0.047 A 
ATOM     24  C   UNL A   1      27.077  28.722  23.654  1.00  0.00     0.004 A 
ATOM     25  C   UNL A   1      29.155  31.022  22.629  1.00  0.00     0.004 A 
ATOM     26  C   UNL A   1      27.406  30.502  23.499  1.00  0.00     0.000 A 
ENDBRANCH  20  21
ENDBRANCH  11  20
ENDBRANCH   3   5
ENDBRANCH   2   3
ENDBRANCH   1   2
BRANCH   1  27
ATOM     27  C   UNL A   1      36.172  22.503  23.571  1.00  0.00     0.275 C 
BRANCH  27  28
ATOM     28  O   UNL A   1      37.331  22.865  24.276  1.00  0.00    -0.458 OA
BRANCH  28  29
ATOM     29  C   UNL A   1      37.740  21.773  24.979  1.00  0.00     0.338 C 
ATOM     30  O   UNL A   1      37.654  20.669  24.462  1.00  0.00    -0.246 OA
BRANCH  29  31
ATOM     31  C   UNL A   1      38.557  22.235  26.344  1.00  0.00     0.060 A 
ATOM     32  C   UNL A   1      37.796  23.850  26.492  1.00  0.00     0.016 A 
ATOM     33  C   UNL A   1      40.402  21.981  27.162  1.00  0.00     0.016 A 
ATOM     34  C   UNL A   1      38.666  25.131  27.255  1.00  0.00     0.010 A 
ATOM     35  C   UNL A   1      41.149  23.409  28.003  1.00  0.00     0.010 A 
ATOM     36  C   UNL A   1      40.270  24.969  27.993  1.00  0.00    -0.014 A 
BRANCH  36  37
ATOM     37  C   UNL A   1      40.904  26.294  28.376  1.00  0.00     0.031 A 
ATOM     38  C   UNL A   1      42.185  26.693  27.696  1.00  0.00     0.074 A 
ATOM     39  C   UNL A   1      40.313  27.211  29.189  1.00  0.00     0.049 A 
ATOM     40  N   UNL A   1      42.980  27.704  27.934  1.00  0.00    -0.248 NA
ATOM     41  C   UNL A   1      42.690  25.795  26.652  1.00  0.00     0.031 C 
ATOM     42  C   UNL A   1      39.072  27.051  29.958  1.00  0.00     0.029 A 
ATOM     43  N   UNL A   1      40.653  28.530  29.446  1.00  0.00    -0.354 N 
ATOM     44  C   UNL A   1      44.107  27.457  27.161  1.00  0.00     0.074 A 
ATOM     45  C   UNL A   1      43.960  26.142  26.597  1.00  0.00     0.031 C 
ATOM     46  C   UNL A   1      38.676  28.243  30.440  1.00  0.00     0.029 A 
ATOM     47  C   UNL A   1      39.701  29.238  30.156  1.00  0.00     0.049 A 
ATOM     48  H   UNL A   1      41.502  28.929  29.148  1.00  0.00     0.167 HD
ATOM     49  C   UNL A   1      45.130  28.275  26.832  1.00  0.00     0.031 A 
ATOM     50  C   UNL A   1      39.662  30.531  30.553  1.00  0.00     0.031 A 
ATOM     51  C   UNL A   1      45.220  29.639  27.248  1.00  0.00     0.049 A 
ATOM     52  C   UNL A   1      40.847  31.416  30.247  1.00  0.00     0.074 A 
ATOM     53  C   UNL A   1      46.211  30.559  26.970  1.00  0.00     0.029 A 
ATOM     54  N   UNL A   1      44.258  30.286  28.005  1.00  0.00    -0.354 N 
ATOM     55  N   UNL A   1      41.922  31.150  29.545  1.00  0.00    -0.248 NA
ATOM     56  C   UNL A   1      40.821  32.778  30.805  1.00  0.00     0.031 C 
ATOM     57  C   UNL A   1      45.892  31.742  27.641  1.00  0.00     0.029 A 
ATOM     58  C   UNL A   1      44.652  31.588  28.239  1.00  0.00     0.049 A 
ATOM     59  H   UNL A   1      43.421  29.879  28.327  1.00  0.00     0.167 HD
ATOM     60  C   UNL A   1      42.675  32.319  29.542  1.00  0.00     0.074 A 
ATOM     61  C   UNL A   1      41.927  33.302  30.295  1.00  0.00     0.031 C 
ATOM     62  C   UNL A   1      43.879  32.559  28.967  1.00  0.00     0.031 A 
BRANCH  49  63
ATOM     63  C   UNL A   1      46.232  27.675  26.003  1.00  0.00    -0.014 A 
ATOM     64  C   UNL A   1      47.323  26.998  26.579  1.00  0.00     0.009 A 
ATOM     65  C   UNL A   1      46.214  27.881  24.618  1.00  0.00     0.009 A 
ATOM     66  C   UNL A   1      48.415  26.626  25.791  1.00  0.00     0.001 A 
ATOM     67  C   UNL A   1      47.281  27.461  23.827  1.00  0.00     0.001 A 
ATOM     68  C   UNL A   1      48.391  26.856  24.417  1.00  0.00     0.000 A 
ENDBRANCH  49  63
BRANCH  50  69
ATOM     69  C   UNL A   1      38.505  31.093  31.329  1.00  0.00    -0.014 A 
ATOM     70  C   UNL A   1      37.433  31.734  30.677  1.00  0.00     0.009 A 
ATOM     71  C   UNL A   1      38.507  31.082  32.733  1.00  0.00     0.009 A 
ATOM     72  C   UNL A   1      36.426  32.379  31.409  1.00  0.00     0.001 A 
ATOM     73  C   UNL A   1      37.478  31.688  33.462  1.00  0.00     0.001 A 
ATOM     74  C   UNL A   1      36.446  32.350  32.800  1.00  0.00     0.000 A 
ENDBRANCH  50  69
BRANCH  62  75
ATOM     75  C   UNL A   1      44.424  33.957  29.038  1.00  0.00    -0.014 A 
ATOM     76  C   UNL A   1      45.276  34.376  30.070  1.00  0.00     0.009 A 
ATOM     77  C   UNL A   1      44.112  34.856  28.005  1.00  0.00     0.009 A 
ATOM     78  C   UNL A   1      45.765  35.683  30.090  1.00  0.00     0.001 A 
ATOM     79  C   UNL A   1      44.639  36.146  28.002  1.00  0.00     0.001 A 
ATOM     80  C   UNL A   1      45.453  36.563  29.053  1.00  0.00     0.000 A 
ENDBRANCH  62  75
ENDBRANCH  36  37
ENDBRANCH  29  31
ENDBRANCH  28  29
ENDBRANCH  27  28
ENDBRANCH   1  27
TORSDOF 14
ENDMDL
