MODEL 1
REMARK VINA RESULT:     -10.5      0.000      0.000
REMARK SMILES CN(C(=O)C[C@](C)(C(=O)OCCOC(=O)c1ccc(-c2c3nc(c(-c4ccccc4)c4ccc([nH]4)c(-c4ccccc4)c4nc(c(-c5ccccc5)c5ccc2[nH]5)C=C4)C=C3)cc1)c1ccccc1)[C@@H]1CCSC1
REMARK SMILES IDX 11 1 10 2 8 3 9 4 6 5 7 6 5 7 3 8 4 9 2 10 1 11 70 12 71 13
REMARK SMILES IDX 74 14 72 15 73 16 64 17 65 18 69 19 66 20 68 21 67 22 12 23
REMARK SMILES IDX 13 24 14 25 15 26 16 27 17 28 63 29 18 30 62 31 19 32 20 33
REMARK SMILES IDX 21 34 56 35 22 36 61 37 55 38 57 39 23 40 60 41 54 42 53 43
REMARK SMILES IDX 24 45 46 46 31 47 45 48 32 49 35 50 44 51 58 52 33 53 34 54
REMARK SMILES IDX 43 56 59 57 36 58 25 59 26 60 30 61 27 62 29 63 28 64 47 65
REMARK SMILES IDX 48 66 52 67 49 68 51 69 50 70 37 71 38 72 42 73 39 74 41 75
REMARK SMILES IDX 40 76
REMARK H PARENT 57 44 35 55
REMARK Flexibility Score: inf
ROOT
ATOM      1  C   UNL A   1      36.479  22.474  23.842  1.00  0.00     0.274 C 
ENDROOT
BRANCH   1   2
ATOM      2  O   UNL A   1      35.315  22.809  24.630  1.00  0.00    -0.461 OA
BRANCH   2   3
ATOM      3  C   UNL A   1      34.100  22.431  24.129  1.00  0.00     0.316 C 
ATOM      4  O   UNL A   1      33.628  22.906  23.105  1.00  0.00    -0.251 OA
BRANCH   3   5
ATOM      5  C   UNL A   1      33.395  21.369  25.045  1.00  0.00     0.099 C 
ATOM      6  C   UNL A   1      34.128  21.335  26.414  1.00  0.00     0.029 C 
BRANCH   5   7
ATOM      7  C   UNL A   1      31.915  21.785  25.232  1.00  0.00     0.123 C 
BRANCH   7   8
ATOM      8  C   UNL A   1      31.735  22.965  26.172  1.00  0.00     0.224 C 
ATOM      9  O   UNL A   1      31.507  22.717  27.358  1.00  0.00    -0.275 OA
BRANCH   8  10
ATOM     10  N   UNL A   1      31.777  24.264  25.685  1.00  0.00    -0.342 N 
ATOM     11  C   UNL A   1      32.881  25.199  25.888  1.00  0.00     0.147 C 
BRANCH  10  12
ATOM     12  C   UNL A   1      30.626  24.824  24.936  1.00  0.00     0.095 C 
ATOM     13  C   UNL A   1      30.650  24.497  23.439  1.00  0.00     0.037 C 
ATOM     14  C   UNL A   1      30.363  26.328  25.127  1.00  0.00     0.094 C 
ATOM     15  C   UNL A   1      31.187  25.685  22.665  1.00  0.00     0.072 C 
ATOM     16  S   UNL A   1      30.483  27.126  23.500  1.00  0.00    -0.160 SA
ENDBRANCH  10  12
ENDBRANCH   8  10
ENDBRANCH   7   8
ENDBRANCH   5   7
BRANCH   5  17
ATOM     17  C   UNL A   1      33.368  19.945  24.393  1.00  0.00    -0.030 A 
ATOM     18  C   UNL A   1      32.384  19.560  23.460  1.00  0.00     0.005 A 
ATOM     19  C   UNL A   1      34.365  18.989  24.680  1.00  0.00     0.005 A 
ATOM     20  C   UNL A   1      32.366  18.277  22.895  1.00  0.00     0.000 A 
ATOM     21  C   UNL A   1      34.335  17.700  24.136  1.00  0.00     0.000 A 
ATOM     22  C   UNL A   1      33.331  17.341  23.248  1.00  0.00     0.000 A 
ENDBRANCH   5  17
ENDBRANCH   3   5
ENDBRANCH   2   3
ENDBRANCH   1   2
BRANCH   1  23
ATOM     23  C   UNL A   1      37.255  21.338  24.507  1.00  0.00     0.275 C 
BRANCH  23  24
ATOM     24  O   UNL A   1      37.696  21.751  25.814  1.00  0.00    -0.458 OA
BRANCH  24  25
ATOM     25  C   UNL A   1      38.962  21.410  26.145  1.00  0.00     0.338 C 
ATOM     26  O   UNL A   1      39.545  20.365  25.914  1.00  0.00    -0.246 OA
BRANCH  25  27
ATOM     27  C   UNL A   1      39.640  22.605  26.665  1.00  0.00     0.060 A 
ATOM     28  C   UNL A   1      39.226  23.828  26.148  1.00  0.00     0.016 A 
ATOM     29  C   UNL A   1      40.689  22.548  27.582  1.00  0.00     0.016 A 
ATOM     30  C   UNL A   1      39.843  25.005  26.540  1.00  0.00     0.010 A 
ATOM     31  C   UNL A   1      41.314  23.739  27.983  1.00  0.00     0.010 A 
ATOM     32  C   UNL A   1      40.893  24.974  27.459  1.00  0.00    -0.014 A 
BRANCH  32  33
ATOM     33  C   UNL A   1      41.555  26.258  27.782  1.00  0.00     0.031 A 
ATOM     34  C   UNL A   1      42.868  26.599  27.142  1.00  0.00     0.074 A 
ATOM     35  C   UNL A   1      40.907  27.183  28.516  1.00  0.00     0.049 A 
ATOM     36  N   UNL A   1      43.584  27.689  27.257  1.00  0.00    -0.248 NA
ATOM     37  C   UNL A   1      43.435  25.594  26.231  1.00  0.00     0.031 C 
ATOM     38  C   UNL A   1      39.566  27.026  29.081  1.00  0.00     0.029 A 
ATOM     39  N   UNL A   1      41.278  28.454  28.876  1.00  0.00    -0.354 N 
ATOM     40  C   UNL A   1      44.692  27.496  26.444  1.00  0.00     0.074 A 
ATOM     41  C   UNL A   1      44.556  26.187  25.842  1.00  0.00     0.031 C 
ATOM     42  C   UNL A   1      39.217  28.168  29.698  1.00  0.00     0.029 A 
ATOM     43  C   UNL A   1      40.326  29.116  29.612  1.00  0.00     0.049 A 
ATOM     44  H   UNL A   1      42.144  28.852  28.632  1.00  0.00     0.167 HD
ATOM     45  C   UNL A   1      45.734  28.332  26.223  1.00  0.00     0.031 A 
ATOM     46  C   UNL A   1      40.354  30.341  30.169  1.00  0.00     0.031 A 
ATOM     47  C   UNL A   1      45.887  29.626  26.831  1.00  0.00     0.049 A 
ATOM     48  C   UNL A   1      41.582  31.195  30.014  1.00  0.00     0.074 A 
ATOM     49  C   UNL A   1      46.939  30.517  26.713  1.00  0.00     0.029 A 
ATOM     50  N   UNL A   1      44.959  30.213  27.677  1.00  0.00    -0.354 N 
ATOM     51  N   UNL A   1      42.655  30.978  29.292  1.00  0.00    -0.248 NA
ATOM     52  C   UNL A   1      41.608  32.459  30.766  1.00  0.00     0.031 C 
ATOM     53  C   UNL A   1      46.670  31.625  27.525  1.00  0.00     0.029 A 
ATOM     54  C   UNL A   1      45.426  31.443  28.109  1.00  0.00     0.049 A 
ATOM     55  H   UNL A   1      44.096  29.815  27.931  1.00  0.00     0.167 HD
ATOM     56  C   UNL A   1      43.479  32.077  29.500  1.00  0.00     0.074 A 
ATOM     57  C   UNL A   1      42.769  32.973  30.389  1.00  0.00     0.031 C 
ATOM     58  C   UNL A   1      44.718  32.319  29.006  1.00  0.00     0.031 A 
BRANCH  45  59
ATOM     59  C   UNL A   1      46.830  27.831  25.330  1.00  0.00    -0.014 A 
ATOM     60  C   UNL A   1      46.815  28.072  23.948  1.00  0.00     0.009 A 
ATOM     61  C   UNL A   1      47.899  27.114  25.889  1.00  0.00     0.009 A 
ATOM     62  C   UNL A   1      47.842  27.580  23.139  1.00  0.00     0.001 A 
ATOM     63  C   UNL A   1      48.933  26.641  25.080  1.00  0.00     0.001 A 
ATOM     64  C   UNL A   1      48.899  26.868  23.705  1.00  0.00     0.000 A 
ENDBRANCH  45  59
BRANCH  46  65
ATOM     65  C   UNL A   1      39.205  30.825  30.979  1.00  0.00    -0.014 A 
ATOM     66  C   UNL A   1      38.189  31.596  30.394  1.00  0.00     0.009 A 
ATOM     67  C   UNL A   1      39.146  30.554  32.354  1.00  0.00     0.009 A 
ATOM     68  C   UNL A   1      37.151  32.106  31.177  1.00  0.00     0.001 A 
ATOM     69  C   UNL A   1      38.093  31.042  33.129  1.00  0.00     0.001 A 
ATOM     70  C   UNL A   1      37.102  31.827  32.542  1.00  0.00     0.000 A 
ENDBRANCH  46  65
BRANCH  58  71
ATOM     71  C   UNL A   1      45.379  33.603  29.415  1.00  0.00    -0.014 A 
ATOM     72  C   UNL A   1      45.189  34.781  28.676  1.00  0.00     0.009 A 
ATOM     73  C   UNL A   1      46.179  33.643  30.567  1.00  0.00     0.009 A 
ATOM     74  C   UNL A   1      45.814  35.967  29.064  1.00  0.00     0.001 A 
ATOM     75  C   UNL A   1      46.783  34.837  30.968  1.00  0.00     0.001 A 
ATOM     76  C   UNL A   1      46.608  35.994  30.211  1.00  0.00     0.000 A 
ENDBRANCH  58  71
ENDBRANCH  32  33
ENDBRANCH  25  27
ENDBRANCH  24  25
ENDBRANCH  23  24
ENDBRANCH   1  23
TORSDOF 16
ENDMDL
MODEL 2
REMARK VINA RESULT:     -10.2      2.120      2.859
REMARK SMILES CN(C(=O)C[C@](C)(C(=O)OCCOC(=O)c1ccc(-c2c3nc(c(-c4ccccc4)c4ccc([nH]4)c(-c4ccccc4)c4nc(c(-c5ccccc5)c5ccc2[nH]5)C=C4)C=C3)cc1)c1ccccc1)[C@@H]1CCSC1
REMARK SMILES IDX 11 1 10 2 8 3 9 4 6 5 7 6 5 7 3 8 4 9 2 10 1 11 70 12 71 13
REMARK SMILES IDX 74 14 72 15 73 16 64 17 65 18 69 19 66 20 68 21 67 22 12 23
REMARK SMILES IDX 13 24 14 25 15 26 16 27 17 28 63 29 18 30 62 31 19 32 20 33
REMARK SMILES IDX 21 34 56 35 22 36 61 37 55 38 57 39 23 40 60 41 54 42 53 43
REMARK SMILES IDX 24 45 46 46 31 47 45 48 32 49 35 50 44 51 58 52 33 53 34 54
REMARK SMILES IDX 43 56 59 57 36 58 25 59 26 60 30 61 27 62 29 63 28 64 47 65
REMARK SMILES IDX 48 66 52 67 49 68 51 69 50 70 37 71 38 72 42 73 39 74 41 75
REMARK SMILES IDX 40 76
REMARK H PARENT 57 44 35 55
REMARK Flexibility Score: inf
ROOT
ATOM      1  C   UNL A   1      37.825  21.376  25.306  1.00  0.00     0.274 C 
ENDROOT
BRANCH   1   2
ATOM      2  O   UNL A   1      36.445  21.037  25.565  1.00  0.00    -0.461 OA
BRANCH   2   3
ATOM      3  C   UNL A   1      35.518  21.491  24.670  1.00  0.00     0.316 C 
ATOM      4  O   UNL A   1      35.787  22.294  23.786  1.00  0.00    -0.251 OA
BRANCH   3   5
ATOM      5  C   UNL A   1      34.094  20.894  24.949  1.00  0.00     0.099 C 
ATOM      6  C   UNL A   1      33.820  20.968  26.477  1.00  0.00     0.029 C 
BRANCH   5   7
ATOM      7  C   UNL A   1      33.048  21.730  24.171  1.00  0.00     0.123 C 
BRANCH   7   8
ATOM      8  C   UNL A   1      32.001  22.370  25.065  1.00  0.00     0.224 C 
ATOM      9  O   UNL A   1      31.146  21.632  25.558  1.00  0.00    -0.275 OA
BRANCH   8  10
ATOM     10  N   UNL A   1      31.993  23.744  25.266  1.00  0.00    -0.342 N 
ATOM     11  C   UNL A   1      31.008  24.468  26.067  1.00  0.00     0.147 C 
BRANCH  10  12
ATOM     12  C   UNL A   1      33.003  24.606  24.606  1.00  0.00     0.095 C 
ATOM     13  C   UNL A   1      34.046  25.180  25.573  1.00  0.00     0.037 C 
ATOM     14  C   UNL A   1      32.451  25.736  23.720  1.00  0.00     0.094 C 
ATOM     15  C   UNL A   1      33.680  26.608  25.929  1.00  0.00     0.072 C 
ATOM     16  S   UNL A   1      33.053  27.314  24.388  1.00  0.00    -0.160 SA
ENDBRANCH  10  12
ENDBRANCH   8  10
ENDBRANCH   7   8
ENDBRANCH   5   7
BRANCH   5  17
ATOM     17  C   UNL A   1      33.952  19.424  24.429  1.00  0.00    -0.030 A 
ATOM     18  C   UNL A   1      34.950  18.450  24.638  1.00  0.00     0.005 A 
ATOM     19  C   UNL A   1      32.787  18.992  23.761  1.00  0.00     0.005 A 
ATOM     20  C   UNL A   1      34.813  17.141  24.155  1.00  0.00     0.000 A 
ATOM     21  C   UNL A   1      32.660  17.692  23.258  1.00  0.00     0.000 A 
ATOM     22  C   UNL A   1      33.677  16.767  23.449  1.00  0.00     0.000 A 
ENDBRANCH   5  17
ENDBRANCH   3   5
ENDBRANCH   2   3
ENDBRANCH   1   2
BRANCH   1  23
ATOM     23  C   UNL A   1      38.636  20.112  25.026  1.00  0.00     0.275 C 
BRANCH  23  24
ATOM     24  O   UNL A   1      39.357  19.726  26.211  1.00  0.00    -0.458 OA
BRANCH  24  25
ATOM     25  C   UNL A   1      40.705  19.702  26.101  1.00  0.00     0.338 C 
ATOM     26  O   UNL A   1      41.402  18.853  25.576  1.00  0.00    -0.246 OA
BRANCH  25  27
ATOM     27  C   UNL A   1      41.225  21.004  26.539  1.00  0.00     0.060 A 
ATOM     28  C   UNL A   1      41.063  21.316  27.885  1.00  0.00     0.016 A 
ATOM     29  C   UNL A   1      41.799  21.929  25.667  1.00  0.00     0.016 A 
ATOM     30  C   UNL A   1      41.475  22.543  28.380  1.00  0.00     0.010 A 
ATOM     31  C   UNL A   1      42.220  23.172  26.166  1.00  0.00     0.010 A 
ATOM     32  C   UNL A   1      42.056  23.483  27.528  1.00  0.00    -0.014 A 
BRANCH  32  33
ATOM     33  C   UNL A   1      42.410  24.801  28.104  1.00  0.00     0.031 A 
ATOM     34  C   UNL A   1      43.852  25.158  28.311  1.00  0.00     0.074 A 
ATOM     35  C   UNL A   1      41.455  25.733  28.287  1.00  0.00     0.049 A 
ATOM     36  N   UNL A   1      44.370  26.275  28.758  1.00  0.00    -0.248 NA
ATOM     37  C   UNL A   1      44.842  24.136  27.941  1.00  0.00     0.031 C 
ATOM     38  C   UNL A   1      40.033  25.555  27.993  1.00  0.00     0.029 A 
ATOM     39  N   UNL A   1      41.549  27.028  28.728  1.00  0.00    -0.354 N 
ATOM     40  C   UNL A   1      45.744  26.086  28.733  1.00  0.00     0.074 A 
ATOM     41  C   UNL A   1      45.981  24.749  28.230  1.00  0.00     0.031 C 
ATOM     42  C   UNL A   1      39.389  26.709  28.240  1.00  0.00     0.029 A 
ATOM     43  C   UNL A   1      40.344  27.688  28.754  1.00  0.00     0.049 A 
ATOM     44  H   UNL A   1      42.398  27.444  29.002  1.00  0.00     0.167 HD
ATOM     45  C   UNL A   1      46.722  26.946  29.104  1.00  0.00     0.031 A 
ATOM     46  C   UNL A   1      40.044  28.935  29.162  1.00  0.00     0.031 A 
ATOM     47  C   UNL A   1      46.495  28.268  29.622  1.00  0.00     0.049 A 
ATOM     48  C   UNL A   1      41.138  29.821  29.692  1.00  0.00     0.074 A 
ATOM     49  C   UNL A   1      47.423  29.187  30.080  1.00  0.00     0.029 A 
ATOM     50  N   UNL A   1      45.248  28.858  29.755  1.00  0.00    -0.354 N 
ATOM     51  N   UNL A   1      42.432  29.611  29.724  1.00  0.00    -0.248 NA
ATOM     52  C   UNL A   1      40.724  31.115  30.258  1.00  0.00     0.031 C 
ATOM     53  C   UNL A   1      46.733  30.317  30.533  1.00  0.00     0.029 A 
ATOM     54  C   UNL A   1      45.379  30.118  30.312  1.00  0.00     0.049 A 
ATOM     55  H   UNL A   1      44.396  28.442  29.491  1.00  0.00     0.167 HD
ATOM     56  C   UNL A   1      42.984  30.744  30.307  1.00  0.00     0.074 A 
ATOM     57  C   UNL A   1      41.890  31.651  30.585  1.00  0.00     0.031 C 
ATOM     58  C   UNL A   1      44.282  31.006  30.597  1.00  0.00     0.031 A 
BRANCH  45  59
ATOM     59  C   UNL A   1      48.134  26.444  29.024  1.00  0.00    -0.014 A 
ATOM     60  C   UNL A   1      48.725  25.752  30.092  1.00  0.00     0.009 A 
ATOM     61  C   UNL A   1      48.876  26.662  27.854  1.00  0.00     0.009 A 
ATOM     62  C   UNL A   1      50.046  25.310  29.995  1.00  0.00     0.001 A 
ATOM     63  C   UNL A   1      50.189  26.202  27.754  1.00  0.00     0.001 A 
ATOM     64  C   UNL A   1      50.776  25.533  28.828  1.00  0.00     0.000 A 
ENDBRANCH  45  59
BRANCH  46  65
ATOM     65  C   UNL A   1      38.637  29.413  29.145  1.00  0.00    -0.014 A 
ATOM     66  C   UNL A   1      37.798  29.212  30.252  1.00  0.00     0.009 A 
ATOM     67  C   UNL A   1      38.115  30.034  28.001  1.00  0.00     0.009 A 
ATOM     68  C   UNL A   1      36.458  29.602  30.200  1.00  0.00     0.001 A 
ATOM     69  C   UNL A   1      36.782  30.447  27.962  1.00  0.00     0.001 A 
ATOM     70  C   UNL A   1      35.952  30.221  29.059  1.00  0.00     0.000 A 
ENDBRANCH  46  65
BRANCH  58  71
ATOM     71  C   UNL A   1      44.586  32.327  31.244  1.00  0.00    -0.014 A 
ATOM     72  C   UNL A   1      44.840  33.468  30.468  1.00  0.00     0.009 A 
ATOM     73  C   UNL A   1      44.592  32.438  32.642  1.00  0.00     0.009 A 
ATOM     74  C   UNL A   1      45.128  34.689  31.081  1.00  0.00     0.001 A 
ATOM     75  C   UNL A   1      44.853  33.666  33.253  1.00  0.00     0.001 A 
ATOM     76  C   UNL A   1      45.130  34.787  32.473  1.00  0.00     0.000 A 
ENDBRANCH  58  71
ENDBRANCH  32  33
ENDBRANCH  25  27
ENDBRANCH  24  25
ENDBRANCH  23  24
ENDBRANCH   1  23
TORSDOF 16
ENDMDL
MODEL 3
REMARK VINA RESULT:     -10.2      2.873      6.185
REMARK SMILES CN(C(=O)C[C@](C)(C(=O)OCCOC(=O)c1ccc(-c2c3nc(c(-c4ccccc4)c4ccc([nH]4)c(-c4ccccc4)c4nc(c(-c5ccccc5)c5ccc2[nH]5)C=C4)C=C3)cc1)c1ccccc1)[C@@H]1CCSC1
REMARK SMILES IDX 11 1 10 2 8 3 9 4 6 5 7 6 5 7 3 8 4 9 2 10 1 11 70 12 71 13
REMARK SMILES IDX 74 14 72 15 73 16 64 17 65 18 69 19 66 20 68 21 67 22 12 23
REMARK SMILES IDX 13 24 14 25 15 26 16 27 17 28 63 29 18 30 62 31 19 32 20 33
REMARK SMILES IDX 21 34 56 35 22 36 61 37 55 38 57 39 23 40 60 41 54 42 53 43
REMARK SMILES IDX 24 45 46 46 31 47 45 48 32 49 35 50 44 51 58 52 33 53 34 54
REMARK SMILES IDX 43 56 59 57 36 58 25 59 26 60 30 61 27 62 29 63 28 64 47 65
REMARK SMILES IDX 48 66 52 67 49 68 51 69 50 70 37 71 38 72 42 73 39 74 41 75
REMARK SMILES IDX 40 76
REMARK H PARENT 57 44 35 55
REMARK Flexibility Score: inf
ROOT
ATOM      1  C   UNL A   1      36.590  22.900  23.422  1.00  0.00     0.274 C 
ENDROOT
BRANCH   1   2
ATOM      2  O   UNL A   1      35.378  23.549  23.868  1.00  0.00    -0.461 OA
BRANCH   2   3
ATOM      3  C   UNL A   1      34.214  23.168  23.264  1.00  0.00     0.316 C 
ATOM      4  O   UNL A   1      33.967  23.407  22.088  1.00  0.00    -0.251 OA
BRANCH   3   5
ATOM      5  C   UNL A   1      33.245  22.443  24.263  1.00  0.00     0.099 C 
ATOM      6  C   UNL A   1      33.604  22.888  25.707  1.00  0.00     0.029 C 
BRANCH   5   7
ATOM      7  C   UNL A   1      31.790  22.844  23.918  1.00  0.00     0.123 C 
BRANCH   7   8
ATOM      8  C   UNL A   1      31.334  24.115  24.614  1.00  0.00     0.224 C 
ATOM      9  O   UNL A   1      30.653  23.991  25.634  1.00  0.00    -0.275 OA
BRANCH   8  10
ATOM     10  N   UNL A   1      31.638  25.358  24.077  1.00  0.00    -0.342 N 
ATOM     11  C   UNL A   1      31.382  25.759  22.696  1.00  0.00     0.147 C 
BRANCH  10  12
ATOM     12  C   UNL A   1      32.320  26.387  24.900  1.00  0.00     0.095 C 
ATOM     13  C   UNL A   1      31.374  27.460  25.449  1.00  0.00     0.037 C 
ATOM     14  C   UNL A   1      33.543  27.064  24.257  1.00  0.00     0.094 C 
ATOM     15  C   UNL A   1      31.458  28.705  24.586  1.00  0.00     0.072 C 
ATOM     16  S   UNL A   1      33.209  28.846  24.163  1.00  0.00    -0.160 SA
ENDBRANCH  10  12
ENDBRANCH   8  10
ENDBRANCH   7   8
ENDBRANCH   5   7
BRANCH   5  17
ATOM     17  C   UNL A   1      33.310  20.883  24.130  1.00  0.00    -0.030 A 
ATOM     18  C   UNL A   1      34.282  20.110  24.797  1.00  0.00     0.005 A 
ATOM     19  C   UNL A   1      32.362  20.173  23.365  1.00  0.00     0.005 A 
ATOM     20  C   UNL A   1      34.336  18.716  24.658  1.00  0.00     0.000 A 
ATOM     21  C   UNL A   1      32.430  18.784  23.205  1.00  0.00     0.000 A 
ATOM     22  C   UNL A   1      33.421  18.055  23.847  1.00  0.00     0.000 A 
ENDBRANCH   5  17
ENDBRANCH   3   5
ENDBRANCH   2   3
ENDBRANCH   1   2
BRANCH   1  23
ATOM     23  C   UNL A   1      37.336  22.300  24.613  1.00  0.00     0.275 C 
BRANCH  23  24
ATOM     24  O   UNL A   1      37.808  23.355  25.472  1.00  0.00    -0.458 OA
BRANCH  24  25
ATOM     25  C   UNL A   1      38.831  23.033  26.295  1.00  0.00     0.338 C 
ATOM     26  O   UNL A   1      39.344  21.942  26.467  1.00  0.00    -0.246 OA
BRANCH  25  27
ATOM     27  C   UNL A   1      39.404  24.278  26.825  1.00  0.00     0.060 A 
ATOM     28  C   UNL A   1      39.158  24.553  28.166  1.00  0.00     0.016 A 
ATOM     29  C   UNL A   1      40.109  25.188  26.037  1.00  0.00     0.016 A 
ATOM     30  C   UNL A   1      39.614  25.729  28.740  1.00  0.00     0.010 A 
ATOM     31  C   UNL A   1      40.574  26.379  26.618  1.00  0.00     0.010 A 
ATOM     32  C   UNL A   1      40.325  26.654  27.974  1.00  0.00    -0.014 A 
BRANCH  32  33
ATOM     33  C   UNL A   1      40.722  27.921  28.629  1.00  0.00     0.031 A 
ATOM     34  C   UNL A   1      39.716  29.022  28.791  1.00  0.00     0.074 A 
ATOM     35  C   UNL A   1      41.928  28.022  29.221  1.00  0.00     0.049 A 
ATOM     36  N   UNL A   1      39.852  30.185  29.375  1.00  0.00    -0.248 NA
ATOM     37  C   UNL A   1      38.373  28.769  28.249  1.00  0.00     0.031 C 
ATOM     38  C   UNL A   1      42.945  26.970  29.253  1.00  0.00     0.029 A 
ATOM     39  N   UNL A   1      42.482  29.049  29.942  1.00  0.00    -0.354 N 
ATOM     40  C   UNL A   1      38.617  30.808  29.262  1.00  0.00     0.074 A 
ATOM     41  C   UNL A   1      37.745  29.896  28.552  1.00  0.00     0.031 C 
ATOM     42  C   UNL A   1      43.991  27.399  29.979  1.00  0.00     0.029 A 
ATOM     43  C   UNL A   1      43.738  28.769  30.421  1.00  0.00     0.049 A 
ATOM     44  H   UNL A   1      42.023  29.906  30.099  1.00  0.00     0.167 HD
ATOM     45  C   UNL A   1      38.245  32.033  29.702  1.00  0.00     0.031 A 
ATOM     46  C   UNL A   1      44.594  29.537  31.120  1.00  0.00     0.031 A 
ATOM     47  C   UNL A   1      39.110  32.952  30.391  1.00  0.00     0.049 A 
ATOM     48  C   UNL A   1      44.198  30.942  31.481  1.00  0.00     0.074 A 
ATOM     49  C   UNL A   1      38.836  34.238  30.821  1.00  0.00     0.029 A 
ATOM     50  N   UNL A   1      40.421  32.682  30.747  1.00  0.00    -0.354 N 
ATOM     51  N   UNL A   1      43.047  31.548  31.314  1.00  0.00    -0.248 NA
ATOM     52  C   UNL A   1      45.231  31.777  32.115  1.00  0.00     0.031 C 
ATOM     53  C   UNL A   1      39.998  34.765  31.397  1.00  0.00     0.029 A 
ATOM     54  C   UNL A   1      40.979  33.787  31.367  1.00  0.00     0.049 A 
ATOM     55  H   UNL A   1      40.887  31.830  30.583  1.00  0.00     0.167 HD
ATOM     56  C   UNL A   1      43.215  32.828  31.825  1.00  0.00     0.074 A 
ATOM     57  C   UNL A   1      44.568  32.903  32.336  1.00  0.00     0.031 C 
ATOM     58  C   UNL A   1      42.331  33.854  31.858  1.00  0.00     0.031 A 
BRANCH  45  59
ATOM     59  C   UNL A   1      36.847  32.473  29.383  1.00  0.00    -0.014 A 
ATOM     60  C   UNL A   1      36.544  33.130  28.180  1.00  0.00     0.009 A 
ATOM     61  C   UNL A   1      35.818  32.215  30.301  1.00  0.00     0.009 A 
ATOM     62  C   UNL A   1      35.236  33.542  27.916  1.00  0.00     0.001 A 
ATOM     63  C   UNL A   1      34.508  32.610  30.024  1.00  0.00     0.001 A 
ATOM     64  C   UNL A   1      34.220  33.281  28.836  1.00  0.00     0.000 A 
ENDBRANCH  45  59
BRANCH  46  65
ATOM     65  C   UNL A   1      45.941  29.023  31.483  1.00  0.00    -0.014 A 
ATOM     66  C   UNL A   1      47.020  29.151  30.595  1.00  0.00     0.009 A 
ATOM     67  C   UNL A   1      46.140  28.362  32.704  1.00  0.00     0.009 A 
ATOM     68  C   UNL A   1      48.264  28.602  30.915  1.00  0.00     0.001 A 
ATOM     69  C   UNL A   1      47.391  27.839  33.033  1.00  0.00     0.001 A 
ATOM     70  C   UNL A   1      48.451  27.951  32.133  1.00  0.00     0.000 A 
ENDBRANCH  46  65
BRANCH  58  71
ATOM     71  C   UNL A   1      42.801  35.143  32.471  1.00  0.00    -0.014 A 
ATOM     72  C   UNL A   1      43.526  36.078  31.717  1.00  0.00     0.009 A 
ATOM     73  C   UNL A   1      42.492  35.437  33.808  1.00  0.00     0.009 A 
ATOM     74  C   UNL A   1      43.962  37.269  32.301  1.00  0.00     0.001 A 
ATOM     75  C   UNL A   1      42.907  36.640  34.382  1.00  0.00     0.001 A 
ATOM     76  C   UNL A   1      43.649  37.550  33.631  1.00  0.00     0.000 A 
ENDBRANCH  58  71
ENDBRANCH  32  33
ENDBRANCH  25  27
ENDBRANCH  24  25
ENDBRANCH  23  24
ENDBRANCH   1  23
TORSDOF 16
ENDMDL
