MODEL 1
REMARK VINA RESULT:     -10.1      0.000      0.000
REMARK SMILES CC(C)C[C@H](NC(=O)CNC(=O)[C@@H](NC(=O)OCc1ccccc1)C(C)C)C(=O)OCCOC(=O)c1ccc(-c2c3nc(c(-c4ccccc4)c4ccc([nH]4)c(-c4ccccc4)c4nc(c(-c5ccccc5)c5ccc2[nH]5)C=C4)C=C3)cc1
REMARK SMILES IDX 5 1 4 2 2 3 1 4 3 5 28 6 29 7 30 8 31 9 32 10 33 11 34 12
REMARK SMILES IDX 35 13 36 14 37 15 83 16 38 17 82 18 39 19 40 20 41 21 76 22
REMARK SMILES IDX 42 23 81 24 75 25 77 26 43 27 80 28 74 29 73 30 44 32 66 33
REMARK SMILES IDX 51 34 65 35 52 36 55 37 64 38 78 39 53 40 54 41 63 43 79 44
REMARK SMILES IDX 56 45 45 46 46 47 50 48 47 49 49 50 48 51 67 52 68 53 72 54
REMARK SMILES IDX 69 55 71 56 70 57 57 58 58 59 62 60 59 61 61 62 60 63 6 64
REMARK SMILES IDX 7 65 8 67 9 68 10 69 11 70 12 72 13 73 14 74 15 75 16 77
REMARK SMILES IDX 17 78 18 79 19 80 20 81 24 82 21 83 23 84 22 85 25 86 26 87
REMARK SMILES IDX 27 88
REMARK H PARENT 77 31 55 42 6 66 10 71 14 76
REMARK Flexibility Score: inf
ROOT
ATOM      1  C   UNL A   1      40.471  22.160  26.260  1.00  0.00     0.192 C 
ENDROOT
BRANCH   1   2
ATOM      2  C   UNL A   1      40.012  23.018  27.445  1.00  0.00     0.040 C 
BRANCH   2   3
ATOM      3  C   UNL A   1      39.316  24.393  27.323  1.00  0.00    -0.015 C 
ATOM      4  C   UNL A   1      39.231  25.237  28.596  1.00  0.00     0.007 C 
ATOM      5  C   UNL A   1      40.106  25.214  26.285  1.00  0.00     0.007 C 
ENDBRANCH   2   3
ENDBRANCH   1   2
BRANCH   1   6
ATOM      6  C   UNL A   1      41.869  21.579  26.483  1.00  0.00     0.328 C 
ATOM      7  O   UNL A   1      42.196  20.978  27.498  1.00  0.00    -0.250 OA
BRANCH   6   8
ATOM      8  O   UNL A   1      42.674  21.769  25.400  1.00  0.00    -0.461 OA
BRANCH   8   9
ATOM      9  C   UNL A   1      43.919  21.050  25.415  1.00  0.00     0.274 C 
BRANCH   9  10
ATOM     10  C   UNL A   1      45.118  21.967  25.145  1.00  0.00     0.275 C 
BRANCH  10  11
ATOM     11  O   UNL A   1      45.271  22.993  26.146  1.00  0.00    -0.458 OA
BRANCH  11  12
ATOM     12  C   UNL A   1      45.117  24.264  25.698  1.00  0.00     0.338 C 
ATOM     13  O   UNL A   1      45.435  24.683  24.596  1.00  0.00    -0.246 OA
BRANCH  12  14
ATOM     14  C   UNL A   1      44.341  25.068  26.666  1.00  0.00     0.060 A 
ATOM     15  C   UNL A   1      44.486  26.461  26.623  1.00  0.00     0.016 A 
ATOM     16  C   UNL A   1      43.524  24.479  27.633  1.00  0.00     0.016 A 
ATOM     17  C   UNL A   1      43.827  27.268  27.550  1.00  0.00     0.010 A 
ATOM     18  C   UNL A   1      42.869  25.290  28.570  1.00  0.00     0.010 A 
ATOM     19  C   UNL A   1      43.031  26.687  28.544  1.00  0.00    -0.014 A 
BRANCH  19  20
ATOM     20  C   UNL A   1      42.453  27.540  29.612  1.00  0.00     0.031 A 
ATOM     21  C   UNL A   1      43.127  27.602  30.954  1.00  0.00     0.074 A 
ATOM     22  C   UNL A   1      41.359  28.287  29.375  1.00  0.00     0.049 A 
ATOM     23  N   UNL A   1      42.765  28.247  32.035  1.00  0.00    -0.248 NA
ATOM     24  C   UNL A   1      44.375  26.835  31.097  1.00  0.00     0.031 C 
ATOM     25  C   UNL A   1      40.641  28.358  28.103  1.00  0.00     0.029 A 
ATOM     26  N   UNL A   1      40.663  29.133  30.202  1.00  0.00    -0.354 N 
ATOM     27  C   UNL A   1      43.738  27.961  32.986  1.00  0.00     0.074 A 
ATOM     28  C   UNL A   1      44.683  27.057  32.367  1.00  0.00     0.031 C 
ATOM     29  C   UNL A   1      39.605  29.204  28.234  1.00  0.00     0.029 A 
ATOM     30  C   UNL A   1      39.563  29.702  29.607  1.00  0.00     0.049 A 
ATOM     31  H   UNL A   1      40.927  29.315  31.133  1.00  0.00     0.167 HD
ATOM     32  C   UNL A   1      43.840  28.416  34.259  1.00  0.00     0.031 A 
ATOM     33  C   UNL A   1      38.618  30.515  30.117  1.00  0.00     0.031 A 
ATOM     34  C   UNL A   1      42.896  29.307  34.881  1.00  0.00     0.049 A 
ATOM     35  C   UNL A   1      38.710  30.940  31.559  1.00  0.00     0.074 A 
ATOM     36  C   UNL A   1      42.907  29.812  36.170  1.00  0.00     0.029 A 
ATOM     37  N   UNL A   1      41.774  29.828  34.256  1.00  0.00    -0.354 N 
ATOM     38  N   UNL A   1      39.629  30.658  32.450  1.00  0.00    -0.248 NA
ATOM     39  C   UNL A   1      37.631  31.803  32.063  1.00  0.00     0.031 C 
ATOM     40  C   UNL A   1      41.764  30.602  36.340  1.00  0.00     0.029 A 
ATOM     41  C   UNL A   1      41.075  30.635  35.138  1.00  0.00     0.049 A 
ATOM     42  H   UNL A   1      41.513  29.651  33.323  1.00  0.00     0.167 HD
ATOM     43  C   UNL A   1      39.256  31.329  33.608  1.00  0.00     0.074 A 
ATOM     44  C   UNL A   1      38.038  32.049  33.300  1.00  0.00     0.031 C 
ATOM     45  C   UNL A   1      39.865  31.348  34.818  1.00  0.00     0.031 A 
BRANCH  32  46
ATOM     46  C   UNL A   1      45.007  27.931  35.072  1.00  0.00    -0.014 A 
ATOM     47  C   UNL A   1      46.207  28.659  35.129  1.00  0.00     0.009 A 
ATOM     48  C   UNL A   1      44.896  26.745  35.813  1.00  0.00     0.009 A 
ATOM     49  C   UNL A   1      47.281  28.190  35.888  1.00  0.00     0.001 A 
ATOM     50  C   UNL A   1      45.962  26.294  36.593  1.00  0.00     0.001 A 
ATOM     51  C   UNL A   1      47.157  27.012  36.623  1.00  0.00     0.000 A 
ENDBRANCH  32  46
BRANCH  33  52
ATOM     52  C   UNL A   1      37.476  30.958  29.274  1.00  0.00    -0.014 A 
ATOM     53  C   UNL A   1      37.407  32.273  28.790  1.00  0.00     0.009 A 
ATOM     54  C   UNL A   1      36.426  30.073  28.984  1.00  0.00     0.009 A 
ATOM     55  C   UNL A   1      36.295  32.700  28.059  1.00  0.00     0.001 A 
ATOM     56  C   UNL A   1      35.332  30.493  28.226  1.00  0.00     0.001 A 
ATOM     57  C   UNL A   1      35.261  31.810  27.774  1.00  0.00     0.000 A 
ENDBRANCH  33  52
BRANCH  45  58
ATOM     58  C   UNL A   1      39.246  32.206  35.886  1.00  0.00    -0.014 A 
ATOM     59  C   UNL A   1      39.593  33.558  36.031  1.00  0.00     0.009 A 
ATOM     60  C   UNL A   1      38.282  31.656  36.746  1.00  0.00     0.009 A 
ATOM     61  C   UNL A   1      39.016  34.331  37.041  1.00  0.00     0.001 A 
ATOM     62  C   UNL A   1      37.685  32.438  37.735  1.00  0.00     0.001 A 
ATOM     63  C   UNL A   1      38.061  33.772  37.889  1.00  0.00     0.000 A 
ENDBRANCH  45  58
ENDBRANCH  19  20
ENDBRANCH  12  14
ENDBRANCH  11  12
ENDBRANCH  10  11
ENDBRANCH   9  10
ENDBRANCH   8   9
ENDBRANCH   6   8
ENDBRANCH   1   6
BRANCH   1  64
ATOM     64  N   UNL A   1      39.549  21.045  25.930  1.00  0.00    -0.341 N 
ATOM     65  C   UNL A   1      38.275  20.946  25.475  1.00  0.00     0.240 C 
ATOM     66  H   UNL A   1      39.962  20.164  26.077  1.00  0.00     0.164 HD
ATOM     67  O   UNL A   1      37.971  19.883  24.918  1.00  0.00    -0.273 OA
BRANCH  65  68
ATOM     68  C   UNL A   1      37.244  22.076  25.516  1.00  0.00     0.216 C 
BRANCH  68  69
ATOM     69  N   UNL A   1      36.839  22.595  24.228  1.00  0.00    -0.345 N 
ATOM     70  C   UNL A   1      35.656  22.825  23.614  1.00  0.00     0.243 C 
ATOM     71  H   UNL A   1      37.607  22.838  23.664  1.00  0.00     0.164 HD
ATOM     72  O   UNL A   1      35.756  23.343  22.493  1.00  0.00    -0.273 OA
BRANCH  70  73
ATOM     73  C   UNL A   1      34.240  22.504  24.192  1.00  0.00     0.177 C 
BRANCH  73  74
ATOM     74  N   UNL A   1      34.089  22.709  25.635  1.00  0.00    -0.309 N 
ATOM     75  C   UNL A   1      33.783  21.876  26.661  1.00  0.00     0.408 C 
ATOM     76  H   UNL A   1      34.242  23.641  25.918  1.00  0.00     0.167 HD
ATOM     77  O   UNL A   1      33.464  22.344  27.742  1.00  0.00    -0.225 OA
BRANCH  75  78
ATOM     78  O   UNL A   1      33.903  20.567  26.363  1.00  0.00    -0.445 OA
BRANCH  78  79
ATOM     79  C   UNL A   1      32.767  19.987  25.704  1.00  0.00     0.270 C 
BRANCH  79  80
ATOM     80  C   UNL A   1      33.032  18.621  25.094  1.00  0.00    -0.011 A 
ATOM     81  C   UNL A   1      33.743  18.443  23.895  1.00  0.00     0.007 A 
ATOM     82  C   UNL A   1      32.639  17.473  25.798  1.00  0.00     0.007 A 
ATOM     83  C   UNL A   1      34.050  17.171  23.413  1.00  0.00     0.000 A 
ATOM     84  C   UNL A   1      32.942  16.198  25.314  1.00  0.00     0.000 A 
ATOM     85  C   UNL A   1      33.650  16.047  24.125  1.00  0.00     0.000 A 
ENDBRANCH  79  80
ENDBRANCH  78  79
ENDBRANCH  75  78
ENDBRANCH  73  74
BRANCH  73  86
ATOM     86  C   UNL A   1      33.082  22.987  23.281  1.00  0.00     0.015 C 
ATOM     87  C   UNL A   1      32.391  21.815  22.560  1.00  0.00     0.010 C 
ATOM     88  C   UNL A   1      31.993  23.713  24.085  1.00  0.00     0.010 C 
ENDBRANCH  73  86
ENDBRANCH  70  73
ENDBRANCH  68  69
ENDBRANCH  65  68
ENDBRANCH   1  64
TORSDOF 22
ENDMDL
MODEL 2
REMARK VINA RESULT:     -10.0      4.250      7.849
REMARK SMILES CC(C)C[C@H](NC(=O)CNC(=O)[C@@H](NC(=O)OCc1ccccc1)C(C)C)C(=O)OCCOC(=O)c1ccc(-c2c3nc(c(-c4ccccc4)c4ccc([nH]4)c(-c4ccccc4)c4nc(c(-c5ccccc5)c5ccc2[nH]5)C=C4)C=C3)cc1
REMARK SMILES IDX 5 1 4 2 2 3 1 4 3 5 28 6 29 7 30 8 31 9 32 10 33 11 34 12
REMARK SMILES IDX 35 13 36 14 37 15 83 16 38 17 82 18 39 19 40 20 41 21 76 22
REMARK SMILES IDX 42 23 81 24 75 25 77 26 43 27 80 28 74 29 73 30 44 32 66 33
REMARK SMILES IDX 51 34 65 35 52 36 55 37 64 38 78 39 53 40 54 41 63 43 79 44
REMARK SMILES IDX 56 45 45 46 46 47 50 48 47 49 49 50 48 51 67 52 68 53 72 54
REMARK SMILES IDX 69 55 71 56 70 57 57 58 58 59 62 60 59 61 61 62 60 63 6 64
REMARK SMILES IDX 7 65 8 67 9 68 10 69 11 70 12 72 13 73 14 74 15 75 16 77
REMARK SMILES IDX 17 78 18 79 19 80 20 81 24 82 21 83 23 84 22 85 25 86 26 87
REMARK SMILES IDX 27 88
REMARK H PARENT 77 31 55 42 6 66 10 71 14 76
REMARK Flexibility Score: inf
ROOT
ATOM      1  C   UNL A   1      40.099  21.973  26.399  1.00  0.00     0.192 C 
ENDROOT
BRANCH   1   2
ATOM      2  C   UNL A   1      40.291  23.175  27.331  1.00  0.00     0.040 C 
BRANCH   2   3
ATOM      3  C   UNL A   1      39.481  24.490  27.256  1.00  0.00    -0.015 C 
ATOM      4  C   UNL A   1      39.541  25.405  28.480  1.00  0.00     0.007 C 
ATOM      5  C   UNL A   1      40.025  25.294  26.059  1.00  0.00     0.007 C 
ENDBRANCH   2   3
ENDBRANCH   1   2
BRANCH   1   6
ATOM      6  C   UNL A   1      40.972  20.786  26.809  1.00  0.00     0.328 C 
ATOM      7  O   UNL A   1      40.843  20.188  27.870  1.00  0.00    -0.250 OA
BRANCH   6   8
ATOM      8  O   UNL A   1      41.863  20.452  25.834  1.00  0.00    -0.461 OA
BRANCH   8   9
ATOM      9  C   UNL A   1      42.823  19.442  26.185  1.00  0.00     0.274 C 
BRANCH   9  10
ATOM     10  C   UNL A   1      43.539  18.873  24.954  1.00  0.00     0.275 C 
BRANCH  10  11
ATOM     11  O   UNL A   1      44.122  19.897  24.125  1.00  0.00    -0.458 OA
BRANCH  11  12
ATOM     12  C   UNL A   1      45.393  20.246  24.447  1.00  0.00     0.338 C 
ATOM     13  O   UNL A   1      46.400  19.598  24.212  1.00  0.00    -0.246 OA
BRANCH  12  14
ATOM     14  C   UNL A   1      45.436  21.624  24.984  1.00  0.00     0.060 A 
ATOM     15  C   UNL A   1      45.368  22.683  24.070  1.00  0.00     0.016 A 
ATOM     16  C   UNL A   1      45.591  21.884  26.347  1.00  0.00     0.016 A 
ATOM     17  C   UNL A   1      45.466  24.003  24.511  1.00  0.00     0.010 A 
ATOM     18  C   UNL A   1      45.698  23.209  26.788  1.00  0.00     0.010 A 
ATOM     19  C   UNL A   1      45.653  24.276  25.871  1.00  0.00    -0.014 A 
BRANCH  19  20
ATOM     20  C   UNL A   1      45.902  25.671  26.311  1.00  0.00     0.031 A 
ATOM     21  C   UNL A   1      44.764  26.489  26.852  1.00  0.00     0.074 A 
ATOM     22  C   UNL A   1      47.143  26.190  26.269  1.00  0.00     0.049 A 
ATOM     23  N   UNL A   1      44.755  27.737  27.248  1.00  0.00    -0.248 NA
ATOM     24  C   UNL A   1      43.462  25.812  26.959  1.00  0.00     0.031 C 
ATOM     25  C   UNL A   1      48.341  25.486  25.816  1.00  0.00     0.029 A 
ATOM     26  N   UNL A   1      47.597  27.438  26.617  1.00  0.00    -0.354 N 
ATOM     27  C   UNL A   1      43.449  27.995  27.649  1.00  0.00     0.074 A 
ATOM     28  C   UNL A   1      42.688  26.787  27.414  1.00  0.00     0.031 C 
ATOM     29  C   UNL A   1      49.396  26.313  25.915  1.00  0.00     0.029 A 
ATOM     30  C   UNL A   1      48.942  27.614  26.400  1.00  0.00     0.049 A 
ATOM     31  H   UNL A   1      47.014  28.140  26.988  1.00  0.00     0.167 HD
ATOM     32  C   UNL A   1      42.931  29.132  28.174  1.00  0.00     0.031 A 
ATOM     33  C   UNL A   1      49.714  28.707  26.553  1.00  0.00     0.031 A 
ATOM     34  C   UNL A   1      43.682  30.339  28.400  1.00  0.00     0.049 A 
ATOM     35  C   UNL A   1      49.096  29.983  27.061  1.00  0.00     0.074 A 
ATOM     36  C   UNL A   1      43.242  31.546  28.913  1.00  0.00     0.029 A 
ATOM     37  N   UNL A   1      45.034  30.488  28.128  1.00  0.00    -0.354 N 
ATOM     38  N   UNL A   1      47.860  30.216  27.429  1.00  0.00    -0.248 NA
ATOM     39  C   UNL A   1      49.987  31.147  27.177  1.00  0.00     0.031 C 
ATOM     40  C   UNL A   1      44.317  32.442  28.908  1.00  0.00     0.029 A 
ATOM     41  C   UNL A   1      45.440  31.773  28.447  1.00  0.00     0.049 A 
ATOM     42  H   UNL A   1      45.618  29.784  27.763  1.00  0.00     0.167 HD
ATOM     43  C   UNL A   1      47.831  31.541  27.846  1.00  0.00     0.074 A 
ATOM     44  C   UNL A   1      49.177  32.055  27.704  1.00  0.00     0.031 C 
ATOM     45  C   UNL A   1      46.783  32.270  28.304  1.00  0.00     0.031 A 
BRANCH  32  46
ATOM     46  C   UNL A   1      41.467  29.129  28.515  1.00  0.00    -0.014 A 
ATOM     47  C   UNL A   1      40.487  29.223  27.514  1.00  0.00     0.009 A 
ATOM     48  C   UNL A   1      41.063  29.000  29.852  1.00  0.00     0.009 A 
ATOM     49  C   UNL A   1      39.132  29.222  27.850  1.00  0.00     0.001 A 
ATOM     50  C   UNL A   1      39.706  28.971  30.183  1.00  0.00     0.001 A 
ATOM     51  C   UNL A   1      38.742  29.090  29.183  1.00  0.00     0.000 A 
ENDBRANCH  32  46
BRANCH  33  52
ATOM     52  C   UNL A   1      51.156  28.662  26.191  1.00  0.00    -0.014 A 
ATOM     53  C   UNL A   1      51.576  28.933  24.880  1.00  0.00     0.009 A 
ATOM     54  C   UNL A   1      52.117  28.308  27.151  1.00  0.00     0.009 A 
ATOM     55  C   UNL A   1      52.925  28.819  24.532  1.00  0.00     0.001 A 
ATOM     56  C   UNL A   1      53.467  28.226  26.808  1.00  0.00     0.001 A 
ATOM     57  C   UNL A   1      53.869  28.470  25.496  1.00  0.00     0.000 A 
ENDBRANCH  33  52
BRANCH  45  58
ATOM     58  C   UNL A   1      47.063  33.686  28.724  1.00  0.00    -0.014 A 
ATOM     59  C   UNL A   1      46.940  34.754  27.823  1.00  0.00     0.009 A 
ATOM     60  C   UNL A   1      47.433  33.956  30.051  1.00  0.00     0.009 A 
ATOM     61  C   UNL A   1      47.220  36.060  28.232  1.00  0.00     0.001 A 
ATOM     62  C   UNL A   1      47.684  35.264  30.466  1.00  0.00     0.001 A 
ATOM     63  C   UNL A   1      47.588  36.314  29.553  1.00  0.00     0.000 A 
ENDBRANCH  45  58
ENDBRANCH  19  20
ENDBRANCH  12  14
ENDBRANCH  11  12
ENDBRANCH  10  11
ENDBRANCH   9  10
ENDBRANCH   8   9
ENDBRANCH   6   8
ENDBRANCH   1   6
BRANCH   1  64
ATOM     64  N   UNL A   1      38.693  21.506  26.300  1.00  0.00    -0.341 N 
ATOM     65  C   UNL A   1      37.617  21.832  25.540  1.00  0.00     0.240 C 
ATOM     66  H   UNL A   1      38.493  20.786  26.940  1.00  0.00     0.164 HD
ATOM     67  O   UNL A   1      36.738  20.966  25.432  1.00  0.00    -0.273 OA
BRANCH  65  68
ATOM     68  C   UNL A   1      37.472  23.131  24.744  1.00  0.00     0.216 C 
BRANCH  68  69
ATOM     69  N   UNL A   1      36.566  23.074  23.619  1.00  0.00    -0.345 N 
ATOM     70  C   UNL A   1      35.256  23.351  23.425  1.00  0.00     0.243 C 
ATOM     71  H   UNL A   1      37.007  22.758  22.798  1.00  0.00     0.164 HD
ATOM     72  O   UNL A   1      34.873  23.209  22.255  1.00  0.00    -0.273 OA
BRANCH  70  73
ATOM     73  C   UNL A   1      34.242  23.817  24.518  1.00  0.00     0.177 C 
BRANCH  73  74
ATOM     74  N   UNL A   1      34.119  22.932  25.679  1.00  0.00    -0.309 N 
ATOM     75  C   UNL A   1      33.583  21.697  25.849  1.00  0.00     0.408 C 
ATOM     76  H   UNL A   1      34.504  23.309  26.504  1.00  0.00     0.167 HD
ATOM     77  O   UNL A   1      33.375  21.281  26.977  1.00  0.00    -0.225 OA
BRANCH  75  78
ATOM     78  O   UNL A   1      33.363  21.029  24.698  1.00  0.00    -0.445 OA
BRANCH  78  79
ATOM     79  C   UNL A   1      32.320  20.045  24.758  1.00  0.00     0.270 C 
BRANCH  79  80
ATOM     80  C   UNL A   1      32.815  18.610  24.708  1.00  0.00    -0.011 A 
ATOM     81  C   UNL A   1      32.682  17.716  25.784  1.00  0.00     0.007 A 
ATOM     82  C   UNL A   1      33.340  18.112  23.505  1.00  0.00     0.007 A 
ATOM     83  C   UNL A   1      33.061  16.379  25.671  1.00  0.00     0.000 A 
ATOM     84  C   UNL A   1      33.724  16.773  23.392  1.00  0.00     0.000 A 
ATOM     85  C   UNL A   1      33.582  15.907  24.473  1.00  0.00     0.000 A 
ENDBRANCH  79  80
ENDBRANCH  78  79
ENDBRANCH  75  78
ENDBRANCH  73  74
BRANCH  73  86
ATOM     86  C   UNL A   1      34.292  25.342  24.790  1.00  0.00     0.015 C 
ATOM     87  C   UNL A   1      33.662  26.152  23.642  1.00  0.00     0.010 C 
ATOM     88  C   UNL A   1      33.523  25.717  26.066  1.00  0.00     0.010 C 
ENDBRANCH  73  86
ENDBRANCH  70  73
ENDBRANCH  68  69
ENDBRANCH  65  68
ENDBRANCH   1  64
TORSDOF 22
ENDMDL
MODEL 3
REMARK VINA RESULT:      -9.8      1.501      3.673
REMARK SMILES CC(C)C[C@H](NC(=O)CNC(=O)[C@@H](NC(=O)OCc1ccccc1)C(C)C)C(=O)OCCOC(=O)c1ccc(-c2c3nc(c(-c4ccccc4)c4ccc([nH]4)c(-c4ccccc4)c4nc(c(-c5ccccc5)c5ccc2[nH]5)C=C4)C=C3)cc1
REMARK SMILES IDX 5 1 4 2 2 3 1 4 3 5 28 6 29 7 30 8 31 9 32 10 33 11 34 12
REMARK SMILES IDX 35 13 36 14 37 15 83 16 38 17 82 18 39 19 40 20 41 21 76 22
REMARK SMILES IDX 42 23 81 24 75 25 77 26 43 27 80 28 74 29 73 30 44 32 66 33
REMARK SMILES IDX 51 34 65 35 52 36 55 37 64 38 78 39 53 40 54 41 63 43 79 44
REMARK SMILES IDX 56 45 45 46 46 47 50 48 47 49 49 50 48 51 67 52 68 53 72 54
REMARK SMILES IDX 69 55 71 56 70 57 57 58 58 59 62 60 59 61 61 62 60 63 6 64
REMARK SMILES IDX 7 65 8 67 9 68 10 69 11 70 12 72 13 73 14 74 15 75 16 77
REMARK SMILES IDX 17 78 18 79 19 80 20 81 24 82 21 83 23 84 22 85 25 86 26 87
REMARK SMILES IDX 27 88
REMARK H PARENT 77 31 55 42 6 66 10 71 14 76
REMARK Flexibility Score: inf
ROOT
ATOM      1  C   UNL A   1      40.519  22.234  26.138  1.00  0.00     0.192 C 
ENDROOT
BRANCH   1   2
ATOM      2  C   UNL A   1      40.299  23.076  27.400  1.00  0.00     0.040 C 
BRANCH   2   3
ATOM      3  C   UNL A   1      40.353  24.620  27.453  1.00  0.00    -0.015 C 
ATOM      4  C   UNL A   1      40.890  25.332  26.210  1.00  0.00     0.007 C 
ATOM      5  C   UNL A   1      38.912  25.121  27.677  1.00  0.00     0.007 C 
ENDBRANCH   2   3
ENDBRANCH   1   2
BRANCH   1   6
ATOM      6  C   UNL A   1      41.867  21.511  26.162  1.00  0.00     0.328 C 
ATOM      7  O   UNL A   1      42.228  20.785  27.080  1.00  0.00    -0.250 OA
BRANCH   6   8
ATOM      8  O   UNL A   1      42.581  21.734  25.023  1.00  0.00    -0.461 OA
BRANCH   8   9
ATOM      9  C   UNL A   1      43.893  22.292  25.209  1.00  0.00     0.274 C 
BRANCH   9  10
ATOM     10  C   UNL A   1      43.977  23.743  24.719  1.00  0.00     0.275 C 
BRANCH  10  11
ATOM     11  O   UNL A   1      45.243  24.362  25.022  1.00  0.00    -0.458 OA
BRANCH  11  12
ATOM     12  C   UNL A   1      45.669  24.206  26.301  1.00  0.00     0.338 C 
ATOM     13  O   UNL A   1      46.675  23.612  26.658  1.00  0.00    -0.246 OA
BRANCH  12  14
ATOM     14  C   UNL A   1      44.841  25.006  27.229  1.00  0.00     0.060 A 
ATOM     15  C   UNL A   1      44.879  26.400  27.102  1.00  0.00     0.016 A 
ATOM     16  C   UNL A   1      44.078  24.415  28.239  1.00  0.00     0.016 A 
ATOM     17  C   UNL A   1      44.168  27.209  27.987  1.00  0.00     0.010 A 
ATOM     18  C   UNL A   1      43.371  25.228  29.133  1.00  0.00     0.010 A 
ATOM     19  C   UNL A   1      43.424  26.630  29.023  1.00  0.00    -0.014 A 
BRANCH  19  20
ATOM     20  C   UNL A   1      42.791  27.499  30.046  1.00  0.00     0.031 A 
ATOM     21  C   UNL A   1      43.458  27.676  31.381  1.00  0.00     0.074 A 
ATOM     22  C   UNL A   1      41.652  28.160  29.771  1.00  0.00     0.049 A 
ATOM     23  N   UNL A   1      43.053  28.352  32.427  1.00  0.00    -0.248 NA
ATOM     24  C   UNL A   1      44.752  26.999  31.563  1.00  0.00     0.031 C 
ATOM     25  C   UNL A   1      40.933  28.117  28.499  1.00  0.00     0.029 A 
ATOM     26  N   UNL A   1      40.901  29.003  30.553  1.00  0.00    -0.354 N 
ATOM     27  C   UNL A   1      44.040  28.180  33.390  1.00  0.00     0.074 A 
ATOM     28  C   UNL A   1      45.043  27.308  32.819  1.00  0.00     0.031 C 
ATOM     29  C   UNL A   1      39.844  28.900  28.586  1.00  0.00     0.029 A 
ATOM     30  C   UNL A   1      39.768  29.467  29.931  1.00  0.00     0.049 A 
ATOM     31  H   UNL A   1      41.151  29.250  31.473  1.00  0.00     0.167 HD
ATOM     32  C   UNL A   1      44.110  28.708  34.637  1.00  0.00     0.031 A 
ATOM     33  C   UNL A   1      38.771  30.243  30.399  1.00  0.00     0.031 A 
ATOM     34  C   UNL A   1      43.110  29.567  35.213  1.00  0.00     0.049 A 
ATOM     35  C   UNL A   1      38.833  30.749  31.816  1.00  0.00     0.074 A 
ATOM     36  C   UNL A   1      43.086  30.139  36.474  1.00  0.00     0.029 A 
ATOM     37  N   UNL A   1      41.957  29.981  34.563  1.00  0.00    -0.354 N 
ATOM     38  N   UNL A   1      39.767  30.574  32.719  1.00  0.00    -0.248 NA
ATOM     39  C   UNL A   1      37.700  31.565  32.275  1.00  0.00     0.031 C 
ATOM     40  C   UNL A   1      41.894  30.861  36.604  1.00  0.00     0.029 A 
ATOM     41  C   UNL A   1      41.206  30.787  35.402  1.00  0.00     0.049 A 
ATOM     42  H   UNL A   1      41.710  29.738  33.642  1.00  0.00     0.167 HD
ATOM     43  C   UNL A   1      39.349  31.280  33.841  1.00  0.00     0.074 A 
ATOM     44  C   UNL A   1      38.087  31.902  33.497  1.00  0.00     0.031 C 
ATOM     45  C   UNL A   1      39.953  31.402  35.047  1.00  0.00     0.031 A 
BRANCH  32  46
ATOM     46  C   UNL A   1      45.305  28.343  35.473  1.00  0.00    -0.014 A 
ATOM     47  C   UNL A   1      45.277  27.237  36.338  1.00  0.00     0.009 A 
ATOM     48  C   UNL A   1      46.483  29.098  35.372  1.00  0.00     0.009 A 
ATOM     49  C   UNL A   1      46.396  26.916  37.109  1.00  0.00     0.001 A 
ATOM     50  C   UNL A   1      47.610  28.757  36.124  1.00  0.00     0.001 A 
ATOM     51  C   UNL A   1      47.563  27.672  36.998  1.00  0.00     0.000 A 
ENDBRANCH  32  46
BRANCH  33  52
ATOM     52  C   UNL A   1      37.604  30.566  29.536  1.00  0.00    -0.014 A 
ATOM     53  C   UNL A   1      36.617  29.604  29.271  1.00  0.00     0.009 A 
ATOM     54  C   UNL A   1      37.495  31.831  28.938  1.00  0.00     0.009 A 
ATOM     55  C   UNL A   1      35.563  29.894  28.401  1.00  0.00     0.001 A 
ATOM     56  C   UNL A   1      36.423  32.129  28.096  1.00  0.00     0.001 A 
ATOM     57  C   UNL A   1      35.464  31.156  27.818  1.00  0.00     0.000 A 
ENDBRANCH  33  52
BRANCH  45  58
ATOM     58  C   UNL A   1      39.278  32.273  36.069  1.00  0.00    -0.014 A 
ATOM     59  C   UNL A   1      39.605  33.632  36.203  1.00  0.00     0.009 A 
ATOM     60  C   UNL A   1      38.282  31.730  36.895  1.00  0.00     0.009 A 
ATOM     61  C   UNL A   1      38.975  34.418  37.171  1.00  0.00     0.001 A 
ATOM     62  C   UNL A   1      37.633  32.524  37.842  1.00  0.00     0.001 A 
ATOM     63  C   UNL A   1      37.988  33.864  37.986  1.00  0.00     0.000 A 
ENDBRANCH  45  58
ENDBRANCH  19  20
ENDBRANCH  12  14
ENDBRANCH  11  12
ENDBRANCH  10  11
ENDBRANCH   9  10
ENDBRANCH   8   9
ENDBRANCH   6   8
ENDBRANCH   1   6
BRANCH   1  64
ATOM     64  N   UNL A   1      39.455  21.230  25.890  1.00  0.00    -0.341 N 
ATOM     65  C   UNL A   1      38.187  21.263  25.407  1.00  0.00     0.240 C 
ATOM     66  H   UNL A   1      39.737  20.319  26.134  1.00  0.00     0.164 HD
ATOM     67  O   UNL A   1      37.746  20.202  24.947  1.00  0.00    -0.273 OA
BRANCH  65  68
ATOM     68  C   UNL A   1      37.326  22.524  25.306  1.00  0.00     0.216 C 
BRANCH  68  69
ATOM     69  N   UNL A   1      36.264  22.632  26.282  1.00  0.00    -0.345 N 
ATOM     70  C   UNL A   1      34.913  22.664  26.233  1.00  0.00     0.243 C 
ATOM     71  H   UNL A   1      36.607  22.699  27.202  1.00  0.00     0.164 HD
ATOM     72  O   UNL A   1      34.364  22.716  27.342  1.00  0.00    -0.273 OA
BRANCH  70  73
ATOM     73  C   UNL A   1      34.038  22.639  24.939  1.00  0.00     0.177 C 
BRANCH  73  74
ATOM     74  N   UNL A   1      34.475  23.539  23.867  1.00  0.00    -0.309 N 
ATOM     75  C   UNL A   1      34.075  24.774  23.476  1.00  0.00     0.408 C 
ATOM     76  H   UNL A   1      35.208  23.172  23.321  1.00  0.00     0.167 HD
ATOM     77  O   UNL A   1      34.425  25.204  22.389  1.00  0.00    -0.225 OA
BRANCH  75  78
ATOM     78  O   UNL A   1      33.330  25.428  24.390  1.00  0.00    -0.445 OA
BRANCH  78  79
ATOM     79  C   UNL A   1      32.784  26.679  23.947  1.00  0.00     0.270 C 
BRANCH  79  80
ATOM     80  C   UNL A   1      32.448  27.645  25.070  1.00  0.00    -0.011 A 
ATOM     81  C   UNL A   1      32.814  27.420  26.408  1.00  0.00     0.007 A 
ATOM     82  C   UNL A   1      31.834  28.867  24.756  1.00  0.00     0.007 A 
ATOM     83  C   UNL A   1      32.574  28.372  27.397  1.00  0.00     0.000 A 
ATOM     84  C   UNL A   1      31.589  29.820  25.747  1.00  0.00     0.000 A 
ATOM     85  C   UNL A   1      31.961  29.575  27.067  1.00  0.00     0.000 A 
ENDBRANCH  79  80
ENDBRANCH  78  79
ENDBRANCH  75  78
ENDBRANCH  73  74
BRANCH  73  86
ATOM     86  C   UNL A   1      33.589  21.213  24.529  1.00  0.00     0.015 C 
ATOM     87  C   UNL A   1      34.437  20.126  25.214  1.00  0.00     0.010 C 
ATOM     88  C   UNL A   1      32.128  20.943  24.919  1.00  0.00     0.010 C 
ENDBRANCH  73  86
ENDBRANCH  70  73
ENDBRANCH  68  69
ENDBRANCH  65  68
ENDBRANCH   1  64
TORSDOF 22
ENDMDL
