MODEL 1
REMARK VINA RESULT:     -10.3      0.000      0.000
REMARK SMILES CCOc1cccc(OCC)c1-c1ccc([C@@H](C)C(=O)OCCOC(=O)c2ccc(-c3c4nc(c(-c5ccccc5)c5ccc([nH]5)c(-c5ccccc5)c5nc(c(-c6ccccc6)c6ccc3[nH]6)C=C5)C=C4)cc2)cc1F
REMARK SMILES IDX 22 1 21 2 19 3 20 4 17 5 18 6 16 7 13 8 14 9 76 10 15 11
REMARK SMILES IDX 75 12 77 13 12 14 4 15 5 16 6 17 8 18 7 19 3 20 2 21 1 22
REMARK SMILES IDX 9 23 10 24 11 25 23 26 24 27 25 28 26 29 27 30 28 31 74 32
REMARK SMILES IDX 29 33 73 34 30 35 31 36 32 37 67 38 33 39 72 40 66 41 68 42
REMARK SMILES IDX 34 43 71 44 65 45 64 46 35 48 57 49 42 50 56 51 43 52 46 53
REMARK SMILES IDX 55 54 69 55 44 56 45 57 54 59 70 60 47 61 36 62 37 63 41 64
REMARK SMILES IDX 38 65 40 66 39 67 58 68 59 69 63 70 60 71 62 72 61 73 48 74
REMARK SMILES IDX 49 75 53 76 50 77 52 78 51 79
REMARK H PARENT 68 47 46 58
REMARK Flexibility Score: inf
ROOT
ATOM      1  C   UNL A   1      37.963  21.357  25.371  1.00  0.00     0.274 C 
ENDROOT
BRANCH   1   2
ATOM      2  O   UNL A   1      36.765  21.560  24.594  1.00  0.00    -0.462 OA
BRANCH   2   3
ATOM      3  C   UNL A   1      35.577  21.305  25.200  1.00  0.00     0.313 C 
ATOM      4  O   UNL A   1      34.843  20.369  24.895  1.00  0.00    -0.252 OA
BRANCH   3   5
ATOM      5  C   UNL A   1      35.187  22.321  26.271  1.00  0.00     0.126 C 
ATOM      6  C   UNL A   1      34.450  21.626  27.413  1.00  0.00     0.025 C 
BRANCH   5   7
ATOM      7  C   UNL A   1      34.458  23.582  25.827  1.00  0.00    -0.031 A 
ATOM      8  C   UNL A   1      32.963  25.843  24.937  1.00  0.00     0.025 A 
ATOM      9  C   UNL A   1      34.229  25.552  24.411  1.00  0.00     0.012 A 
ATOM     10  C   UNL A   1      32.489  25.020  25.964  1.00  0.00     0.131 A 
ATOM     11  C   UNL A   1      34.940  24.417  24.811  1.00  0.00     0.005 A 
ATOM     12  C   UNL A   1      33.221  23.913  26.409  1.00  0.00     0.044 A 
ATOM     13  F   UNL A   1      31.293  25.254  26.525  1.00  0.00    -0.206 F 
BRANCH   8  14
ATOM     14  C   UNL A   1      32.194  26.986  24.415  1.00  0.00     0.069 A 
ATOM     15  C   UNL A   1      31.273  26.740  23.361  1.00  0.00     0.130 A 
ATOM     16  C   UNL A   1      30.422  27.730  22.859  1.00  0.00     0.047 A 
ATOM     17  C   UNL A   1      30.457  29.001  23.408  1.00  0.00     0.008 A 
ATOM     18  C   UNL A   1      32.247  28.299  24.934  1.00  0.00     0.130 A 
ATOM     19  C   UNL A   1      31.369  29.278  24.423  1.00  0.00     0.047 A 
BRANCH  15  20
ATOM     20  O   UNL A   1      31.280  25.514  22.741  1.00  0.00    -0.493 OA
BRANCH  20  21
ATOM     21  C   UNL A   1      30.235  24.650  23.193  1.00  0.00     0.226 C 
ATOM     22  C   UNL A   1      30.828  23.266  23.362  1.00  0.00     0.049 C 
ENDBRANCH  20  21
ENDBRANCH  15  20
BRANCH  18  23
ATOM     23  O   UNL A   1      33.044  28.863  25.894  1.00  0.00    -0.493 OA
BRANCH  23  24
ATOM     24  C   UNL A   1      33.047  28.491  27.262  1.00  0.00     0.226 C 
ATOM     25  C   UNL A   1      31.617  28.298  27.736  1.00  0.00     0.049 C 
ENDBRANCH  23  24
ENDBRANCH  18  23
ENDBRANCH   8  14
ENDBRANCH   5   7
ENDBRANCH   3   5
ENDBRANCH   2   3
ENDBRANCH   1   2
BRANCH   1  26
ATOM     26  C   UNL A   1      38.691  20.067  24.973  1.00  0.00     0.275 C 
BRANCH  26  27
ATOM     27  O   UNL A   1      39.418  19.498  26.079  1.00  0.00    -0.458 OA
BRANCH  27  28
ATOM     28  C   UNL A   1      40.753  19.700  26.027  1.00  0.00     0.338 C 
ATOM     29  O   UNL A   1      41.577  18.987  25.474  1.00  0.00    -0.246 OA
BRANCH  28  30
ATOM     30  C   UNL A   1      41.111  20.999  26.604  1.00  0.00     0.060 A 
ATOM     31  C   UNL A   1      41.667  21.954  25.748  1.00  0.00     0.016 A 
ATOM     32  C   UNL A   1      40.986  21.252  27.969  1.00  0.00     0.016 A 
ATOM     33  C   UNL A   1      42.086  23.180  26.248  1.00  0.00     0.010 A 
ATOM     34  C   UNL A   1      41.411  22.485  28.474  1.00  0.00     0.010 A 
ATOM     35  C   UNL A   1      41.962  23.453  27.615  1.00  0.00    -0.014 A 
BRANCH  35  36
ATOM     36  C   UNL A   1      42.415  24.760  28.136  1.00  0.00     0.031 A 
ATOM     37  C   UNL A   1      41.426  25.858  28.382  1.00  0.00     0.074 A 
ATOM     38  C   UNL A   1      43.720  24.940  28.410  1.00  0.00     0.049 A 
ATOM     39  N   UNL A   1      41.639  27.086  28.777  1.00  0.00    -0.248 NA
ATOM     40  C   UNL A   1      40.009  25.530  28.160  1.00  0.00     0.031 C 
ATOM     41  C   UNL A   1      44.762  23.922  28.265  1.00  0.00     0.029 A 
ATOM     42  N   UNL A   1      44.388  26.043  28.875  1.00  0.00    -0.354 N 
ATOM     43  C   UNL A   1      40.390  27.687  28.830  1.00  0.00     0.074 A 
ATOM     44  C   UNL A   1      39.423  26.691  28.418  1.00  0.00     0.031 C 
ATOM     45  C   UNL A   1      45.939  24.446  28.643  1.00  0.00     0.029 A 
ATOM     46  C   UNL A   1      45.740  25.845  29.008  1.00  0.00     0.049 A 
ATOM     47  H   UNL A   1      43.942  26.892  29.093  1.00  0.00     0.167 HD
ATOM     48  C   UNL A   1      40.081  28.956  29.186  1.00  0.00     0.031 A 
ATOM     49  C   UNL A   1      46.713  26.706  29.358  1.00  0.00     0.031 A 
ATOM     50  C   UNL A   1      41.048  29.942  29.593  1.00  0.00     0.049 A 
ATOM     51  C   UNL A   1      46.351  28.128  29.677  1.00  0.00     0.074 A 
ATOM     52  C   UNL A   1      40.834  31.253  29.981  1.00  0.00     0.029 A 
ATOM     53  N   UNL A   1      42.414  29.720  29.665  1.00  0.00    -0.354 N 
ATOM     54  N   UNL A   1      45.166  28.689  29.713  1.00  0.00    -0.248 NA
ATOM     55  C   UNL A   1      47.460  29.036  29.998  1.00  0.00     0.031 C 
ATOM     56  C   UNL A   1      42.078  31.839  30.242  1.00  0.00     0.029 A 
ATOM     57  C   UNL A   1      43.061  30.877  30.064  1.00  0.00     0.049 A 
ATOM     58  H   UNL A   1      42.860  28.866  29.462  1.00  0.00     0.167 HD
ATOM     59  C   UNL A   1      45.384  30.010  30.077  1.00  0.00     0.074 A 
ATOM     60  C   UNL A   1      46.814  30.162  30.265  1.00  0.00     0.031 C 
ATOM     61  C   UNL A   1      44.483  31.009  30.239  1.00  0.00     0.031 A 
BRANCH  48  62
ATOM     62  C   UNL A   1      38.638  29.365  29.103  1.00  0.00    -0.014 A 
ATOM     63  C   UNL A   1      38.100  29.922  27.932  1.00  0.00     0.009 A 
ATOM     64  C   UNL A   1      37.797  29.163  30.209  1.00  0.00     0.009 A 
ATOM     65  C   UNL A   1      36.755  30.295  27.881  1.00  0.00     0.001 A 
ATOM     66  C   UNL A   1      36.447  29.515  30.147  1.00  0.00     0.001 A 
ATOM     67  C   UNL A   1      35.930  30.088  28.987  1.00  0.00     0.000 A 
ENDBRANCH  48  62
BRANCH  49  68
ATOM     68  C   UNL A   1      48.126  26.252  29.394  1.00  0.00    -0.014 A 
ATOM     69  C   UNL A   1      48.688  25.756  30.579  1.00  0.00     0.009 A 
ATOM     70  C   UNL A   1      48.921  26.310  28.237  1.00  0.00     0.009 A 
ATOM     71  C   UNL A   1      50.022  25.343  30.610  1.00  0.00     0.001 A 
ATOM     72  C   UNL A   1      50.246  25.873  28.264  1.00  0.00     0.001 A 
ATOM     73  C   UNL A   1      50.798  25.397  29.452  1.00  0.00     0.000 A 
ENDBRANCH  49  68
BRANCH  61  74
ATOM     74  C   UNL A   1      45.019  32.344  30.667  1.00  0.00    -0.014 A 
ATOM     75  C   UNL A   1      45.178  32.660  32.026  1.00  0.00     0.009 A 
ATOM     76  C   UNL A   1      45.397  33.285  29.698  1.00  0.00     0.009 A 
ATOM     77  C   UNL A   1      45.679  33.906  32.405  1.00  0.00     0.001 A 
ATOM     78  C   UNL A   1      45.920  34.522  30.080  1.00  0.00     0.001 A 
ATOM     79  C   UNL A   1      46.053  34.834  31.431  1.00  0.00     0.000 A 
ENDBRANCH  61  74
ENDBRANCH  35  36
ENDBRANCH  28  30
ENDBRANCH  27  28
ENDBRANCH  26  27
ENDBRANCH   1  26
TORSDOF 17
ENDMDL
MODEL 2
REMARK VINA RESULT:     -10.3      3.137      8.583
REMARK SMILES CCOc1cccc(OCC)c1-c1ccc([C@@H](C)C(=O)OCCOC(=O)c2ccc(-c3c4nc(c(-c5ccccc5)c5ccc([nH]5)c(-c5ccccc5)c5nc(c(-c6ccccc6)c6ccc3[nH]6)C=C5)C=C4)cc2)cc1F
REMARK SMILES IDX 22 1 21 2 19 3 20 4 17 5 18 6 16 7 13 8 14 9 76 10 15 11
REMARK SMILES IDX 75 12 77 13 12 14 4 15 5 16 6 17 8 18 7 19 3 20 2 21 1 22
REMARK SMILES IDX 9 23 10 24 11 25 23 26 24 27 25 28 26 29 27 30 28 31 74 32
REMARK SMILES IDX 29 33 73 34 30 35 31 36 32 37 67 38 33 39 72 40 66 41 68 42
REMARK SMILES IDX 34 43 71 44 65 45 64 46 35 48 57 49 42 50 56 51 43 52 46 53
REMARK SMILES IDX 55 54 69 55 44 56 45 57 54 59 70 60 47 61 36 62 37 63 41 64
REMARK SMILES IDX 38 65 40 66 39 67 58 68 59 69 63 70 60 71 62 72 61 73 48 74
REMARK SMILES IDX 49 75 53 76 50 77 52 78 51 79
REMARK H PARENT 68 47 46 58
REMARK Flexibility Score: inf
ROOT
ATOM      1  C   UNL A   1      31.431  32.071  26.579  1.00  0.00     0.274 C 
ENDROOT
BRANCH   1   2
ATOM      2  O   UNL A   1      31.241  30.644  26.515  1.00  0.00    -0.462 OA
BRANCH   2   3
ATOM      3  C   UNL A   1      32.259  29.899  26.012  1.00  0.00     0.313 C 
ATOM      4  O   UNL A   1      32.723  30.050  24.885  1.00  0.00    -0.252 OA
BRANCH   3   5
ATOM      5  C   UNL A   1      32.759  28.803  26.950  1.00  0.00     0.126 C 
ATOM      6  C   UNL A   1      34.159  29.138  27.455  1.00  0.00     0.025 C 
BRANCH   5   7
ATOM      7  C   UNL A   1      32.674  27.359  26.469  1.00  0.00    -0.031 A 
ATOM      8  C   UNL A   1      32.548  24.715  25.409  1.00  0.00     0.025 A 
ATOM      9  C   UNL A   1      31.439  25.306  26.029  1.00  0.00     0.012 A 
ATOM     10  C   UNL A   1      33.739  25.447  25.389  1.00  0.00     0.131 A 
ATOM     11  C   UNL A   1      31.485  26.620  26.504  1.00  0.00     0.005 A 
ATOM     12  C   UNL A   1      33.809  26.742  25.914  1.00  0.00     0.044 A 
ATOM     13  F   UNL A   1      34.844  24.932  24.828  1.00  0.00    -0.206 F 
BRANCH   8  14
ATOM     14  C   UNL A   1      32.432  23.369  24.821  1.00  0.00     0.069 A 
ATOM     15  C   UNL A   1      32.169  23.273  23.427  1.00  0.00     0.130 A 
ATOM     16  C   UNL A   1      32.137  22.050  22.750  1.00  0.00     0.047 A 
ATOM     17  C   UNL A   1      32.383  20.879  23.447  1.00  0.00     0.008 A 
ATOM     18  C   UNL A   1      32.637  22.160  25.525  1.00  0.00     0.130 A 
ATOM     19  C   UNL A   1      32.616  20.940  24.818  1.00  0.00     0.047 A 
BRANCH  15  20
ATOM     20  O   UNL A   1      31.836  24.410  22.732  1.00  0.00    -0.493 OA
BRANCH  20  21
ATOM     21  C   UNL A   1      32.854  24.829  21.819  1.00  0.00     0.226 C 
ATOM     22  C   UNL A   1      32.953  26.337  21.908  1.00  0.00     0.049 C 
ENDBRANCH  20  21
ENDBRANCH  15  20
BRANCH  18  23
ATOM     23  O   UNL A   1      32.856  21.911  26.853  1.00  0.00    -0.493 OA
BRANCH  23  24
ATOM     24  C   UNL A   1      34.103  21.529  27.409  1.00  0.00     0.226 C 
ATOM     25  C   UNL A   1      35.226  22.188  26.628  1.00  0.00     0.049 C 
ENDBRANCH  23  24
ENDBRANCH  18  23
ENDBRANCH   8  14
ENDBRANCH   5   7
ENDBRANCH   3   5
ENDBRANCH   2   3
ENDBRANCH   1   2
BRANCH   1  26
ATOM     26  C   UNL A   1      32.621  32.450  27.470  1.00  0.00     0.275 C 
BRANCH  26  27
ATOM     27  O   UNL A   1      32.730  33.877  27.641  1.00  0.00    -0.458 OA
BRANCH  27  28
ATOM     28  C   UNL A   1      33.173  34.257  28.860  1.00  0.00     0.338 C 
ATOM     29  O   UNL A   1      32.548  34.891  29.697  1.00  0.00    -0.246 OA
BRANCH  28  30
ATOM     30  C   UNL A   1      34.489  33.679  29.145  1.00  0.00     0.060 A 
ATOM     31  C   UNL A   1      34.633  32.959  30.334  1.00  0.00     0.016 A 
ATOM     32  C   UNL A   1      35.583  33.906  28.311  1.00  0.00     0.016 A 
ATOM     33  C   UNL A   1      35.872  32.442  30.691  1.00  0.00     0.010 A 
ATOM     34  C   UNL A   1      36.831  33.389  28.672  1.00  0.00     0.010 A 
ATOM     35  C   UNL A   1      36.979  32.655  29.862  1.00  0.00    -0.014 A 
BRANCH  35  36
ATOM     36  C   UNL A   1      38.293  32.102  30.255  1.00  0.00     0.031 A 
ATOM     37  C   UNL A   1      38.760  30.794  29.694  1.00  0.00     0.074 A 
ATOM     38  C   UNL A   1      39.073  32.802  31.099  1.00  0.00     0.049 A 
ATOM     39  N   UNL A   1      39.849  30.123  29.965  1.00  0.00    -0.248 NA
ATOM     40  C   UNL A   1      37.889  30.158  28.693  1.00  0.00     0.031 C 
ATOM     41  C   UNL A   1      38.746  34.114  31.660  1.00  0.00     0.029 A 
ATOM     42  N   UNL A   1      40.304  32.508  31.625  1.00  0.00    -0.354 N 
ATOM     43  C   UNL A   1      39.787  28.976  29.187  1.00  0.00     0.074 A 
ATOM     44  C   UNL A   1      38.549  29.037  28.439  1.00  0.00     0.031 C 
ATOM     45  C   UNL A   1      39.757  34.517  32.447  1.00  0.00     0.029 A 
ATOM     46  C   UNL A   1      40.776  33.472  32.482  1.00  0.00     0.049 A 
ATOM     47  H   UNL A   1      40.801  31.687  31.410  1.00  0.00     0.167 HD
ATOM     48  C   UNL A   1      40.683  27.963  29.108  1.00  0.00     0.031 A 
ATOM     49  C   UNL A   1      41.892  33.496  33.232  1.00  0.00     0.031 A 
ATOM     50  C   UNL A   1      41.912  27.909  29.855  1.00  0.00     0.049 A 
ATOM     51  C   UNL A   1      42.831  32.326  33.182  1.00  0.00     0.074 A 
ATOM     52  C   UNL A   1      42.889  26.929  29.840  1.00  0.00     0.029 A 
ATOM     53  N   UNL A   1      42.330  28.878  30.753  1.00  0.00    -0.354 N 
ATOM     54  N   UNL A   1      42.757  31.240  32.450  1.00  0.00    -0.248 NA
ATOM     55  C   UNL A   1      44.004  32.382  34.064  1.00  0.00     0.031 C 
ATOM     56  C   UNL A   1      43.878  27.285  30.765  1.00  0.00     0.029 A 
ATOM     57  C   UNL A   1      43.538  28.509  31.319  1.00  0.00     0.049 A 
ATOM     58  H   UNL A   1      41.841  29.708  30.958  1.00  0.00     0.167 HD
ATOM     59  C   UNL A   1      43.881  30.491  32.770  1.00  0.00     0.074 A 
ATOM     60  C   UNL A   1      44.628  31.254  33.751  1.00  0.00     0.031 C 
ATOM     61  C   UNL A   1      44.261  29.280  32.297  1.00  0.00     0.031 A 
BRANCH  48  62
ATOM     62  C   UNL A   1      40.339  26.805  28.215  1.00  0.00    -0.014 A 
ATOM     63  C   UNL A   1      39.526  25.752  28.662  1.00  0.00     0.009 A 
ATOM     64  C   UNL A   1      40.816  26.783  26.896  1.00  0.00     0.009 A 
ATOM     65  C   UNL A   1      39.221  24.686  27.812  1.00  0.00     0.001 A 
ATOM     66  C   UNL A   1      40.492  25.729  26.041  1.00  0.00     0.001 A 
ATOM     67  C   UNL A   1      39.702  24.677  26.503  1.00  0.00     0.000 A 
ENDBRANCH  48  62
BRANCH  49  68
ATOM     68  C   UNL A   1      42.164  34.655  34.119  1.00  0.00    -0.014 A 
ATOM     69  C   UNL A   1      42.858  35.775  33.639  1.00  0.00     0.009 A 
ATOM     70  C   UNL A   1      41.726  34.648  35.453  1.00  0.00     0.009 A 
ATOM     71  C   UNL A   1      43.123  36.857  34.482  1.00  0.00     0.001 A 
ATOM     72  C   UNL A   1      41.969  35.741  36.286  1.00  0.00     0.001 A 
ATOM     73  C   UNL A   1      42.674  36.841  35.802  1.00  0.00     0.000 A 
ENDBRANCH  49  68
BRANCH  61  74
ATOM     74  C   UNL A   1      45.555  28.723  32.816  1.00  0.00    -0.014 A 
ATOM     75  C   UNL A   1      46.775  29.017  32.186  1.00  0.00     0.009 A 
ATOM     76  C   UNL A   1      45.555  27.920  33.964  1.00  0.00     0.009 A 
ATOM     77  C   UNL A   1      47.968  28.491  32.683  1.00  0.00     0.001 A 
ATOM     78  C   UNL A   1      46.753  27.415  34.474  1.00  0.00     0.001 A 
ATOM     79  C   UNL A   1      47.956  27.694  33.829  1.00  0.00     0.000 A 
ENDBRANCH  61  74
ENDBRANCH  35  36
ENDBRANCH  28  30
ENDBRANCH  27  28
ENDBRANCH  26  27
ENDBRANCH   1  26
TORSDOF 17
ENDMDL
MODEL 3
REMARK VINA RESULT:     -10.3      1.361      6.190
REMARK SMILES CCOc1cccc(OCC)c1-c1ccc([C@@H](C)C(=O)OCCOC(=O)c2ccc(-c3c4nc(c(-c5ccccc5)c5ccc([nH]5)c(-c5ccccc5)c5nc(c(-c6ccccc6)c6ccc3[nH]6)C=C5)C=C4)cc2)cc1F
REMARK SMILES IDX 22 1 21 2 19 3 20 4 17 5 18 6 16 7 13 8 14 9 76 10 15 11
REMARK SMILES IDX 75 12 77 13 12 14 4 15 5 16 6 17 8 18 7 19 3 20 2 21 1 22
REMARK SMILES IDX 9 23 10 24 11 25 23 26 24 27 25 28 26 29 27 30 28 31 74 32
REMARK SMILES IDX 29 33 73 34 30 35 31 36 32 37 67 38 33 39 72 40 66 41 68 42
REMARK SMILES IDX 34 43 71 44 65 45 64 46 35 48 57 49 42 50 56 51 43 52 46 53
REMARK SMILES IDX 55 54 69 55 44 56 45 57 54 59 70 60 47 61 36 62 37 63 41 64
REMARK SMILES IDX 38 65 40 66 39 67 58 68 59 69 63 70 60 71 62 72 61 73 48 74
REMARK SMILES IDX 49 75 53 76 50 77 52 78 51 79
REMARK H PARENT 68 47 46 58
REMARK Flexibility Score: inf
ROOT
ATOM      1  C   UNL A   1      38.303  19.718  25.013  1.00  0.00     0.274 C 
ENDROOT
BRANCH   1   2
ATOM      2  O   UNL A   1      37.470  20.699  24.362  1.00  0.00    -0.462 OA
BRANCH   2   3
ATOM      3  C   UNL A   1      36.707  21.496  25.153  1.00  0.00     0.313 C 
ATOM      4  O   UNL A   1      35.962  21.072  26.032  1.00  0.00    -0.252 OA
BRANCH   3   5
ATOM      5  C   UNL A   1      36.803  22.984  24.825  1.00  0.00     0.126 C 
ATOM      6  C   UNL A   1      37.720  23.686  25.822  1.00  0.00     0.025 C 
BRANCH   5   7
ATOM      7  C   UNL A   1      35.505  23.756  24.627  1.00  0.00    -0.031 A 
ATOM      8  C   UNL A   1      33.019  25.138  24.409  1.00  0.00     0.025 A 
ATOM      9  C   UNL A   1      33.403  24.173  23.468  1.00  0.00     0.012 A 
ATOM     10  C   UNL A   1      33.933  25.445  25.423  1.00  0.00     0.131 A 
ATOM     11  C   UNL A   1      34.598  23.460  23.601  1.00  0.00     0.005 A 
ATOM     12  C   UNL A   1      35.156  24.776  25.531  1.00  0.00     0.044 A 
ATOM     13  F   UNL A   1      33.636  26.374  26.346  1.00  0.00    -0.206 F 
BRANCH   8  14
ATOM     14  C   UNL A   1      31.704  25.793  24.298  1.00  0.00     0.069 A 
ATOM     15  C   UNL A   1      31.495  26.684  23.210  1.00  0.00     0.130 A 
ATOM     16  C   UNL A   1      30.257  27.281  22.954  1.00  0.00     0.047 A 
ATOM     17  C   UNL A   1      29.179  26.993  23.774  1.00  0.00     0.008 A 
ATOM     18  C   UNL A   1      30.605  25.545  25.150  1.00  0.00     0.130 A 
ATOM     19  C   UNL A   1      29.361  26.146  24.863  1.00  0.00     0.047 A 
BRANCH  15  20
ATOM     20  O   UNL A   1      32.568  27.054  22.435  1.00  0.00    -0.493 OA
BRANCH  20  21
ATOM     21  C   UNL A   1      32.877  28.447  22.532  1.00  0.00     0.226 C 
ATOM     22  C   UNL A   1      33.996  28.597  23.541  1.00  0.00     0.049 C 
ENDBRANCH  20  21
ENDBRANCH  15  20
BRANCH  18  23
ATOM     23  O   UNL A   1      30.493  24.795  26.290  1.00  0.00    -0.493 OA
BRANCH  23  24
ATOM     24  C   UNL A   1      30.601  23.382  26.342  1.00  0.00     0.226 C 
ATOM     25  C   UNL A   1      29.475  22.821  27.192  1.00  0.00     0.049 C 
ENDBRANCH  23  24
ENDBRANCH  18  23
ENDBRANCH   8  14
ENDBRANCH   5   7
ENDBRANCH   3   5
ENDBRANCH   2   3
ENDBRANCH   1   2
BRANCH   1  26
ATOM     26  C   UNL A   1      39.505  20.363  25.714  1.00  0.00     0.275 C 
BRANCH  26  27
ATOM     27  O   UNL A   1      40.388  19.376  26.281  1.00  0.00    -0.458 OA
BRANCH  27  28
ATOM     28  C   UNL A   1      41.700  19.624  26.078  1.00  0.00     0.338 C 
ATOM     29  O   UNL A   1      42.495  18.908  25.486  1.00  0.00    -0.246 OA
BRANCH  28  30
ATOM     30  C   UNL A   1      42.058  20.970  26.534  1.00  0.00     0.060 A 
ATOM     31  C   UNL A   1      41.961  21.235  27.902  1.00  0.00     0.016 A 
ATOM     32  C   UNL A   1      42.401  21.980  25.635  1.00  0.00     0.016 A 
ATOM     33  C   UNL A   1      42.224  22.510  28.387  1.00  0.00     0.010 A 
ATOM     34  C   UNL A   1      42.663  23.264  26.121  1.00  0.00     0.010 A 
ATOM     35  C   UNL A   1      42.576  23.533  27.499  1.00  0.00    -0.014 A 
BRANCH  35  36
ATOM     36  C   UNL A   1      42.851  24.886  28.028  1.00  0.00     0.031 A 
ATOM     37  C   UNL A   1      44.247  25.283  28.396  1.00  0.00     0.074 A 
ATOM     38  C   UNL A   1      41.836  25.762  28.146  1.00  0.00     0.049 A 
ATOM     39  N   UNL A   1      44.674  26.398  28.930  1.00  0.00    -0.248 NA
ATOM     40  C   UNL A   1      45.306  24.297  28.127  1.00  0.00     0.031 C 
ATOM     41  C   UNL A   1      40.448  25.504  27.761  1.00  0.00     0.029 A 
ATOM     42  N   UNL A   1      41.822  27.049  28.617  1.00  0.00    -0.354 N 
ATOM     43  C   UNL A   1      46.044  26.243  29.081  1.00  0.00     0.074 A 
ATOM     44  C   UNL A   1      46.378  24.922  28.591  1.00  0.00     0.031 C 
ATOM     45  C   UNL A   1      39.716  26.603  28.004  1.00  0.00     0.029 A 
ATOM     46  C   UNL A   1      40.573  27.621  28.604  1.00  0.00     0.049 A 
ATOM     47  H   UNL A   1      42.627  27.518  28.933  1.00  0.00     0.167 HD
ATOM     48  C   UNL A   1      46.940  27.124  29.587  1.00  0.00     0.031 A 
ATOM     49  C   UNL A   1      40.163  28.820  29.053  1.00  0.00     0.031 A 
ATOM     50  C   UNL A   1      46.600  28.436  30.073  1.00  0.00     0.049 A 
ATOM     51  C   UNL A   1      41.165  29.749  29.677  1.00  0.00     0.074 A 
ATOM     52  C   UNL A   1      47.437  29.406  30.597  1.00  0.00     0.029 A 
ATOM     53  N   UNL A   1      45.317  28.959  30.093  1.00  0.00    -0.354 N 
ATOM     54  N   UNL A   1      42.458  29.588  29.825  1.00  0.00    -0.248 NA
ATOM     55  C   UNL A   1      40.650  31.021  30.200  1.00  0.00     0.031 C 
ATOM     56  C   UNL A   1      46.651  30.500  30.978  1.00  0.00     0.029 A 
ATOM     57  C   UNL A   1      45.333  30.229  30.645  1.00  0.00     0.049 A 
ATOM     58  H   UNL A   1      44.513  28.498  29.762  1.00  0.00     0.167 HD
ATOM     59  C   UNL A   1      42.915  30.744  30.442  1.00  0.00     0.074 A 
ATOM     60  C   UNL A   1      41.763  31.604  30.627  1.00  0.00     0.031 C 
ATOM     61  C   UNL A   1      44.174  31.064  30.824  1.00  0.00     0.031 A 
BRANCH  48  62
ATOM     62  C   UNL A   1      48.370  26.676  29.684  1.00  0.00    -0.014 A 
ATOM     63  C   UNL A   1      48.841  25.968  30.801  1.00  0.00     0.009 A 
ATOM     64  C   UNL A   1      49.253  26.943  28.626  1.00  0.00     0.009 A 
ATOM     65  C   UNL A   1      50.176  25.563  30.869  1.00  0.00     0.001 A 
ATOM     66  C   UNL A   1      50.580  26.516  28.686  1.00  0.00     0.001 A 
ATOM     67  C   UNL A   1      51.043  25.835  29.810  1.00  0.00     0.000 A 
ENDBRANCH  48  62
BRANCH  49  68
ATOM     68  C   UNL A   1      38.731  29.197  28.957  1.00  0.00    -0.014 A 
ATOM     69  C   UNL A   1      38.210  29.730  27.769  1.00  0.00     0.009 A 
ATOM     70  C   UNL A   1      37.873  29.021  30.056  1.00  0.00     0.009 A 
ATOM     71  C   UNL A   1      36.864  30.096  27.689  1.00  0.00     0.001 A 
ATOM     72  C   UNL A   1      36.524  29.362  29.964  1.00  0.00     0.001 A 
ATOM     73  C   UNL A   1      36.022  29.907  28.784  1.00  0.00     0.000 A 
ENDBRANCH  49  68
BRANCH  61  74
ATOM     74  C   UNL A   1      44.371  32.413  31.453  1.00  0.00    -0.014 A 
ATOM     75  C   UNL A   1      44.631  33.548  30.668  1.00  0.00     0.009 A 
ATOM     76  C   UNL A   1      44.265  32.554  32.844  1.00  0.00     0.009 A 
ATOM     77  C   UNL A   1      44.809  34.794  31.270  1.00  0.00     0.001 A 
ATOM     78  C   UNL A   1      44.420  33.807  33.442  1.00  0.00     0.001 A 
ATOM     79  C   UNL A   1      44.700  34.923  32.656  1.00  0.00     0.000 A 
ENDBRANCH  61  74
ENDBRANCH  35  36
ENDBRANCH  28  30
ENDBRANCH  27  28
ENDBRANCH  26  27
ENDBRANCH   1  26
TORSDOF 17
ENDMDL
