MODEL 1
REMARK VINA RESULT:     -11.8      0.000      0.000
REMARK SMILES COc1ccc2c(c1)c(CC(=O)OCCOC(=O)c1ccc(-c3c4nc(c(-c5ccccc5)c5ccc([nH]5)c(-c5ccccc5)c5nc(c(-c6ccccc6)c6ccc3[nH]6)C=C5)C=C4)cc1)c(C)n2Cc1ccn(C(F)F)c(=O)c1
REMARK SMILES IDX 14 1 13 2 11 3 12 4 10 5 9 6 3 7 4 8 8 9 5 10 7 11 6 12
REMARK SMILES IDX 69 13 67 14 68 15 2 16 1 17 70 18 71 19 72 20 80 21 73 22
REMARK SMILES IDX 78 23 74 24 79 25 75 26 76 27 77 28 15 29 16 30 17 31 18 32
REMARK SMILES IDX 19 33 20 34 66 35 21 36 65 37 22 38 23 39 24 40 59 41 25 42
REMARK SMILES IDX 64 43 58 44 60 45 26 46 63 47 57 48 56 49 27 51 49 52 34 53
REMARK SMILES IDX 48 54 35 55 38 56 47 57 61 58 36 59 37 60 46 62 62 63 39 64
REMARK SMILES IDX 28 65 29 66 33 67 30 68 32 69 31 70 50 71 51 72 55 73 52 74
REMARK SMILES IDX 54 75 53 76 40 77 41 78 45 79 42 80 44 81 43 82
REMARK H PARENT 60 50 38 61
REMARK Flexibility Score: inf
ROOT
ATOM      1  C   UNL A   1      32.753  30.838  27.101  1.00  0.00     0.274 C 
ENDROOT
BRANCH   1   2
ATOM      2  O   UNL A   1      33.743  29.804  27.302  1.00  0.00    -0.462 OA
BRANCH   2   3
ATOM      3  C   UNL A   1      33.296  28.543  27.115  1.00  0.00     0.310 C 
ATOM      4  O   UNL A   1      32.248  28.112  27.595  1.00  0.00    -0.252 OA
BRANCH   3   5
ATOM      5  C   UNL A   1      34.249  27.623  26.414  1.00  0.00     0.160 C 
BRANCH   5   6
ATOM      6  C   UNL A   1      33.867  26.692  25.286  1.00  0.00    -0.008 A 
ATOM      7  C   UNL A   1      34.026  22.770  25.108  1.00  0.00     0.119 A 
ATOM      8  C   UNL A   1      33.248  22.649  23.985  1.00  0.00     0.048 A 
ATOM      9  C   UNL A   1      34.278  24.043  25.627  1.00  0.00     0.057 A 
ATOM     10  C   UNL A   1      32.809  23.804  23.320  1.00  0.00     0.031 A 
ATOM     11  C   UNL A   1      33.846  25.257  25.024  1.00  0.00     0.007 A 
ATOM     12  C   UNL A   1      33.161  25.088  23.808  1.00  0.00     0.049 A 
ATOM     13  N   UNL A   1      32.936  26.352  23.293  1.00  0.00    -0.340 N 
ATOM     14  C   UNL A   1      33.619  27.276  24.047  1.00  0.00     0.020 A 
ATOM     15  C   UNL A   1      33.938  28.680  23.640  1.00  0.00     0.065 C 
BRANCH   7  16
ATOM     16  O   UNL A   1      34.438  21.717  25.881  1.00  0.00    -0.497 OA
ATOM     17  C   UNL A   1      35.514  20.953  25.348  1.00  0.00     0.278 C 
ENDBRANCH   7  16
BRANCH  13  18
ATOM     18  C   UNL A   1      32.127  26.662  22.114  1.00  0.00     0.158 C 
BRANCH  18  19
ATOM     19  C   UNL A   1      30.899  27.474  22.471  1.00  0.00    -0.021 A 
ATOM     20  C   UNL A   1      29.909  26.902  23.362  1.00  0.00     0.024 A 
ATOM     21  C   UNL A   1      30.679  28.704  21.978  1.00  0.00     0.077 A 
ATOM     22  C   UNL A   1      28.713  27.476  23.518  1.00  0.00     0.095 A 
ATOM     23  C   UNL A   1      29.395  29.420  22.246  1.00  0.00     0.255 A 
ATOM     24  N   UNL A   1      28.437  28.696  22.940  1.00  0.00    -0.258 N 
ATOM     25  O   UNL A   1      29.266  30.566  21.830  1.00  0.00    -0.269 OA
BRANCH  24  26
ATOM     26  C   UNL A   1      27.148  29.309  23.125  1.00  0.00     0.451 C 
ATOM     27  F   UNL A   1      26.275  28.439  23.689  1.00  0.00    -0.185 F 
ATOM     28  F   UNL A   1      27.232  30.401  23.921  1.00  0.00    -0.185 F 
ENDBRANCH  24  26
ENDBRANCH  18  19
ENDBRANCH  13  18
ENDBRANCH   5   6
ENDBRANCH   3   5
ENDBRANCH   2   3
ENDBRANCH   1   2
BRANCH   1  29
ATOM     29  C   UNL A   1      33.267  32.164  27.663  1.00  0.00     0.275 C 
BRANCH  29  30
ATOM     30  O   UNL A   1      34.375  31.891  28.547  1.00  0.00    -0.458 OA
BRANCH  30  31
ATOM     31  C   UNL A   1      35.578  32.380  28.175  1.00  0.00     0.338 C 
ATOM     32  O   UNL A   1      35.783  33.455  27.611  1.00  0.00    -0.246 OA
BRANCH  31  33
ATOM     33  C   UNL A   1      36.614  31.607  28.893  1.00  0.00     0.060 A 
ATOM     34  C   UNL A   1      37.825  32.141  29.303  1.00  0.00     0.016 A 
ATOM     35  C   UNL A   1      36.465  30.226  28.919  1.00  0.00     0.016 A 
ATOM     36  C   UNL A   1      38.914  31.271  29.466  1.00  0.00     0.010 A 
ATOM     37  C   UNL A   1      37.514  29.367  29.117  1.00  0.00     0.010 A 
ATOM     38  C   UNL A   1      38.775  29.895  29.210  1.00  0.00    -0.014 A 
BRANCH  38  39
ATOM     39  C   UNL A   1      39.851  28.920  29.315  1.00  0.00     0.031 A 
ATOM     40  C   UNL A   1      40.075  28.617  30.743  1.00  0.00     0.074 A 
ATOM     41  C   UNL A   1      40.489  28.236  28.332  1.00  0.00     0.049 A 
ATOM     42  N   UNL A   1      40.937  29.236  31.470  1.00  0.00    -0.248 NA
ATOM     43  C   UNL A   1      39.104  27.817  31.510  1.00  0.00     0.031 C 
ATOM     44  C   UNL A   1      40.259  28.176  26.887  1.00  0.00     0.029 A 
ATOM     45  N   UNL A   1      41.559  27.393  28.476  1.00  0.00    -0.354 N 
ATOM     46  C   UNL A   1      40.778  28.739  32.748  1.00  0.00     0.074 A 
ATOM     47  C   UNL A   1      39.512  28.057  32.759  1.00  0.00     0.031 C 
ATOM     48  C   UNL A   1      41.027  27.201  26.327  1.00  0.00     0.029 A 
ATOM     49  C   UNL A   1      41.923  26.665  27.340  1.00  0.00     0.049 A 
ATOM     50  H   UNL A   1      42.041  27.302  29.329  1.00  0.00     0.167 HD
ATOM     51  C   UNL A   1      41.841  28.717  33.593  1.00  0.00     0.031 A 
ATOM     52  C   UNL A   1      42.948  25.769  27.220  1.00  0.00     0.031 A 
ATOM     53  C   UNL A   1      42.935  29.495  33.057  1.00  0.00     0.049 A 
ATOM     54  C   UNL A   1      43.911  26.082  28.301  1.00  0.00     0.074 A 
ATOM     55  C   UNL A   1      43.116  30.829  32.755  1.00  0.00     0.029 A 
ATOM     56  N   UNL A   1      43.868  28.798  32.323  1.00  0.00    -0.354 N 
ATOM     57  N   UNL A   1      44.616  27.175  28.323  1.00  0.00    -0.248 NA
ATOM     58  C   UNL A   1      43.699  25.431  29.584  1.00  0.00     0.031 C 
ATOM     59  C   UNL A   1      43.836  30.834  31.527  1.00  0.00     0.029 A 
ATOM     60  C   UNL A   1      44.158  29.516  31.193  1.00  0.00     0.049 A 
ATOM     61  H   UNL A   1      44.260  27.930  32.568  1.00  0.00     0.167 HD
ATOM     62  C   UNL A   1      44.533  27.604  29.638  1.00  0.00     0.074 A 
ATOM     63  C   UNL A   1      43.995  26.462  30.381  1.00  0.00     0.031 C 
ATOM     64  C   UNL A   1      44.614  28.929  29.951  1.00  0.00     0.031 A 
BRANCH  51  65
ATOM     65  C   UNL A   1      42.057  27.663  34.638  1.00  0.00    -0.014 A 
ATOM     66  C   UNL A   1      41.565  27.739  35.953  1.00  0.00     0.009 A 
ATOM     67  C   UNL A   1      42.549  26.416  34.214  1.00  0.00     0.009 A 
ATOM     68  C   UNL A   1      41.532  26.623  36.792  1.00  0.00     0.001 A 
ATOM     69  C   UNL A   1      42.484  25.290  35.038  1.00  0.00     0.001 A 
ATOM     70  C   UNL A   1      41.970  25.393  36.325  1.00  0.00     0.000 A 
ENDBRANCH  51  65
BRANCH  52  71
ATOM     71  C   UNL A   1      42.955  24.403  26.611  1.00  0.00    -0.014 A 
ATOM     72  C   UNL A   1      41.969  23.471  26.974  1.00  0.00     0.009 A 
ATOM     73  C   UNL A   1      44.108  23.901  25.966  1.00  0.00     0.009 A 
ATOM     74  C   UNL A   1      42.149  22.095  26.758  1.00  0.00     0.001 A 
ATOM     75  C   UNL A   1      44.283  22.522  25.745  1.00  0.00     0.001 A 
ATOM     76  C   UNL A   1      43.311  21.618  26.161  1.00  0.00     0.000 A 
ENDBRANCH  52  71
BRANCH  64  77
ATOM     77  C   UNL A   1      45.010  29.914  28.875  1.00  0.00    -0.014 A 
ATOM     78  C   UNL A   1      43.968  30.526  28.164  1.00  0.00     0.009 A 
ATOM     79  C   UNL A   1      46.323  30.055  28.388  1.00  0.00     0.009 A 
ATOM     80  C   UNL A   1      44.209  31.205  26.971  1.00  0.00     0.001 A 
ATOM     81  C   UNL A   1      46.569  30.766  27.204  1.00  0.00     0.001 A 
ATOM     82  C   UNL A   1      45.510  31.321  26.487  1.00  0.00     0.000 A 
ENDBRANCH  64  77
ENDBRANCH  38  39
ENDBRANCH  31  33
ENDBRANCH  30  31
ENDBRANCH  29  30
ENDBRANCH   1  29
TORSDOF 16
ENDMDL
MODEL 2
REMARK VINA RESULT:     -11.3      3.320      6.816
REMARK SMILES COc1ccc2c(c1)c(CC(=O)OCCOC(=O)c1ccc(-c3c4nc(c(-c5ccccc5)c5ccc([nH]5)c(-c5ccccc5)c5nc(c(-c6ccccc6)c6ccc3[nH]6)C=C5)C=C4)cc1)c(C)n2Cc1ccn(C(F)F)c(=O)c1
REMARK SMILES IDX 14 1 13 2 11 3 12 4 10 5 9 6 3 7 4 8 8 9 5 10 7 11 6 12
REMARK SMILES IDX 69 13 67 14 68 15 2 16 1 17 70 18 71 19 72 20 80 21 73 22
REMARK SMILES IDX 78 23 74 24 79 25 75 26 76 27 77 28 15 29 16 30 17 31 18 32
REMARK SMILES IDX 19 33 20 34 66 35 21 36 65 37 22 38 23 39 24 40 59 41 25 42
REMARK SMILES IDX 64 43 58 44 60 45 26 46 63 47 57 48 56 49 27 51 49 52 34 53
REMARK SMILES IDX 48 54 35 55 38 56 47 57 61 58 36 59 37 60 46 62 62 63 39 64
REMARK SMILES IDX 28 65 29 66 33 67 30 68 32 69 31 70 50 71 51 72 55 73 52 74
REMARK SMILES IDX 54 75 53 76 40 77 41 78 45 79 42 80 44 81 43 82
REMARK H PARENT 60 50 38 61
REMARK Flexibility Score: inf
ROOT
ATOM      1  C   UNL A   1      39.780  33.781  33.951  1.00  0.00     0.274 C 
ENDROOT
BRANCH   1   2
ATOM      2  O   UNL A   1      38.748  33.323  33.048  1.00  0.00    -0.462 OA
BRANCH   2   3
ATOM      3  C   UNL A   1      37.489  33.655  33.409  1.00  0.00     0.310 C 
ATOM      4  O   UNL A   1      37.222  34.530  34.232  1.00  0.00    -0.252 OA
BRANCH   3   5
ATOM      5  C   UNL A   1      36.412  32.766  32.864  1.00  0.00     0.160 C 
BRANCH   5   6
ATOM      6  C   UNL A   1      35.727  32.967  31.533  1.00  0.00    -0.008 A 
ATOM      7  C   UNL A   1      33.191  35.753  30.413  1.00  0.00     0.119 A 
ATOM      8  C   UNL A   1      33.279  35.490  29.070  1.00  0.00     0.048 A 
ATOM      9  C   UNL A   1      33.960  35.000  31.305  1.00  0.00     0.057 A 
ATOM     10  C   UNL A   1      34.052  34.407  28.626  1.00  0.00     0.031 A 
ATOM     11  C   UNL A   1      34.787  33.904  30.927  1.00  0.00     0.007 A 
ATOM     12  C   UNL A   1      34.745  33.593  29.557  1.00  0.00     0.049 A 
ATOM     13  N   UNL A   1      35.484  32.436  29.385  1.00  0.00    -0.340 N 
ATOM     14  C   UNL A   1      35.818  31.924  30.616  1.00  0.00     0.020 A 
ATOM     15  C   UNL A   1      36.289  30.531  30.889  1.00  0.00     0.065 C 
BRANCH   7  16
ATOM     16  O   UNL A   1      32.537  36.829  30.950  1.00  0.00    -0.497 OA
ATOM     17  C   UNL A   1      33.276  37.574  31.911  1.00  0.00     0.278 C 
ENDBRANCH   7  16
BRANCH  13  18
ATOM     18  C   UNL A   1      35.833  31.830  28.099  1.00  0.00     0.158 C 
BRANCH  18  19
ATOM     19  C   UNL A   1      34.784  30.837  27.642  1.00  0.00    -0.021 A 
ATOM     20  C   UNL A   1      35.148  29.441  27.498  1.00  0.00     0.024 A 
ATOM     21  C   UNL A   1      33.527  31.203  27.343  1.00  0.00     0.077 A 
ATOM     22  C   UNL A   1      34.334  28.580  26.881  1.00  0.00     0.095 A 
ATOM     23  C   UNL A   1      32.558  30.221  26.768  1.00  0.00     0.255 A 
ATOM     24  N   UNL A   1      33.073  28.966  26.482  1.00  0.00    -0.258 N 
ATOM     25  O   UNL A   1      31.403  30.583  26.574  1.00  0.00    -0.269 OA
BRANCH  24  26
ATOM     26  C   UNL A   1      32.202  28.024  25.828  1.00  0.00     0.451 C 
ATOM     27  F   UNL A   1      32.879  26.904  25.475  1.00  0.00    -0.185 F 
ATOM     28  F   UNL A   1      31.175  27.663  26.633  1.00  0.00    -0.185 F 
ENDBRANCH  24  26
ENDBRANCH  18  19
ENDBRANCH  13  18
ENDBRANCH   5   6
ENDBRANCH   3   5
ENDBRANCH   2   3
ENDBRANCH   1   2
BRANCH   1  29
ATOM     29  C   UNL A   1      41.139  33.738  33.249  1.00  0.00     0.275 C 
BRANCH  29  30
ATOM     30  O   UNL A   1      40.954  34.108  31.866  1.00  0.00    -0.458 OA
BRANCH  30  31
ATOM     31  C   UNL A   1      42.005  33.905  31.042  1.00  0.00     0.338 C 
ATOM     32  O   UNL A   1      43.098  34.470  31.106  1.00  0.00    -0.246 OA
BRANCH  31  33
ATOM     33  C   UNL A   1      41.763  32.642  30.313  1.00  0.00     0.060 A 
ATOM     34  C   UNL A   1      40.544  31.982  30.304  1.00  0.00     0.016 A 
ATOM     35  C   UNL A   1      42.878  31.963  29.840  1.00  0.00     0.016 A 
ATOM     36  C   UNL A   1      40.539  30.598  30.075  1.00  0.00     0.010 A 
ATOM     37  C   UNL A   1      42.875  30.619  29.575  1.00  0.00     0.010 A 
ATOM     38  C   UNL A   1      41.744  29.903  29.869  1.00  0.00    -0.014 A 
BRANCH  38  39
ATOM     39  C   UNL A   1      41.846  28.465  29.660  1.00  0.00     0.031 A 
ATOM     40  C   UNL A   1      42.448  27.856  30.864  1.00  0.00     0.074 A 
ATOM     41  C   UNL A   1      41.362  27.709  28.643  1.00  0.00     0.049 A 
ATOM     42  N   UNL A   1      43.710  27.648  30.995  1.00  0.00    -0.248 NA
ATOM     43  C   UNL A   1      41.685  27.748  32.120  1.00  0.00     0.031 C 
ATOM     44  C   UNL A   1      40.519  28.053  27.496  1.00  0.00     0.029 A 
ATOM     45  N   UNL A   1      41.560  26.368  28.446  1.00  0.00    -0.354 N 
ATOM     46  C   UNL A   1      43.881  27.162  32.276  1.00  0.00     0.074 A 
ATOM     47  C   UNL A   1      42.664  27.457  32.982  1.00  0.00     0.031 C 
ATOM     48  C   UNL A   1      40.124  26.924  26.845  1.00  0.00     0.029 A 
ATOM     49  C   UNL A   1      40.807  25.780  27.428  1.00  0.00     0.049 A 
ATOM     50  H   UNL A   1      42.195  25.849  28.992  1.00  0.00     0.167 HD
ATOM     51  C   UNL A   1      44.918  26.325  32.540  1.00  0.00     0.031 A 
ATOM     52  C   UNL A   1      40.824  24.472  27.030  1.00  0.00     0.031 A 
ATOM     53  C   UNL A   1      45.847  26.299  31.433  1.00  0.00     0.049 A 
ATOM     54  C   UNL A   1      42.118  23.910  27.483  1.00  0.00     0.074 A 
ATOM     55  C   UNL A   1      46.667  27.236  30.837  1.00  0.00     0.029 A 
ATOM     56  N   UNL A   1      45.652  25.303  30.504  1.00  0.00    -0.354 N 
ATOM     57  N   UNL A   1      43.260  24.276  26.979  1.00  0.00    -0.248 NA
ATOM     58  C   UNL A   1      42.160  23.342  28.820  1.00  0.00     0.031 C 
ATOM     59  C   UNL A   1      46.558  26.984  29.440  1.00  0.00     0.029 A 
ATOM     60  C   UNL A   1      45.771  25.845  29.252  1.00  0.00     0.049 A 
ATOM     61  H   UNL A   1      45.459  24.359  30.705  1.00  0.00     0.167 HD
ATOM     62  C   UNL A   1      44.082  24.431  28.084  1.00  0.00     0.074 A 
ATOM     63  C   UNL A   1      43.362  23.793  29.190  1.00  0.00     0.031 C 
ATOM     64  C   UNL A   1      45.115  25.321  28.073  1.00  0.00     0.031 A 
BRANCH  51  65
ATOM     65  C   UNL A   1      44.862  25.220  33.553  1.00  0.00    -0.014 A 
ATOM     66  C   UNL A   1      45.308  25.341  34.881  1.00  0.00     0.009 A 
ATOM     67  C   UNL A   1      44.087  24.089  33.243  1.00  0.00     0.009 A 
ATOM     68  C   UNL A   1      44.972  24.403  35.859  1.00  0.00     0.001 A 
ATOM     69  C   UNL A   1      43.718  23.168  34.226  1.00  0.00     0.001 A 
ATOM     70  C   UNL A   1      44.156  23.329  35.535  1.00  0.00     0.000 A 
ENDBRANCH  51  65
BRANCH  52  71
ATOM     71  C   UNL A   1      39.685  23.544  26.752  1.00  0.00    -0.014 A 
ATOM     72  C   UNL A   1      39.941  22.210  26.397  1.00  0.00     0.009 A 
ATOM     73  C   UNL A   1      38.390  24.043  26.487  1.00  0.00     0.009 A 
ATOM     74  C   UNL A   1      38.971  21.426  25.752  1.00  0.00     0.001 A 
ATOM     75  C   UNL A   1      37.417  23.253  25.845  1.00  0.00     0.001 A 
ATOM     76  C   UNL A   1      37.716  21.951  25.460  1.00  0.00     0.000 A 
ENDBRANCH  52  71
BRANCH  64  77
ATOM     77  C   UNL A   1      45.494  25.987  26.770  1.00  0.00    -0.014 A 
ATOM     78  C   UNL A   1      46.472  25.347  25.994  1.00  0.00     0.009 A 
ATOM     79  C   UNL A   1      45.121  27.300  26.423  1.00  0.00     0.009 A 
ATOM     80  C   UNL A   1      47.108  26.009  24.945  1.00  0.00     0.001 A 
ATOM     81  C   UNL A   1      45.739  27.953  25.347  1.00  0.00     0.001 A 
ATOM     82  C   UNL A   1      46.746  27.314  24.624  1.00  0.00     0.000 A 
ENDBRANCH  64  77
ENDBRANCH  38  39
ENDBRANCH  31  33
ENDBRANCH  30  31
ENDBRANCH  29  30
ENDBRANCH   1  29
TORSDOF 16
ENDMDL
MODEL 3
REMARK VINA RESULT:     -11.3      2.047      4.044
REMARK SMILES COc1ccc2c(c1)c(CC(=O)OCCOC(=O)c1ccc(-c3c4nc(c(-c5ccccc5)c5ccc([nH]5)c(-c5ccccc5)c5nc(c(-c6ccccc6)c6ccc3[nH]6)C=C5)C=C4)cc1)c(C)n2Cc1ccn(C(F)F)c(=O)c1
REMARK SMILES IDX 14 1 13 2 11 3 12 4 10 5 9 6 3 7 4 8 8 9 5 10 7 11 6 12
REMARK SMILES IDX 69 13 67 14 68 15 2 16 1 17 70 18 71 19 72 20 80 21 73 22
REMARK SMILES IDX 78 23 74 24 79 25 75 26 76 27 77 28 15 29 16 30 17 31 18 32
REMARK SMILES IDX 19 33 20 34 66 35 21 36 65 37 22 38 23 39 24 40 59 41 25 42
REMARK SMILES IDX 64 43 58 44 60 45 26 46 63 47 57 48 56 49 27 51 49 52 34 53
REMARK SMILES IDX 48 54 35 55 38 56 47 57 61 58 36 59 37 60 46 62 62 63 39 64
REMARK SMILES IDX 28 65 29 66 33 67 30 68 32 69 31 70 50 71 51 72 55 73 52 74
REMARK SMILES IDX 54 75 53 76 40 77 41 78 45 79 42 80 44 81 43 82
REMARK H PARENT 60 50 38 61
REMARK Flexibility Score: inf
ROOT
ATOM      1  C   UNL A   1      33.782  34.290  28.005  1.00  0.00     0.274 C 
ENDROOT
BRANCH   1   2
ATOM      2  O   UNL A   1      32.745  33.286  27.920  1.00  0.00    -0.462 OA
BRANCH   2   3
ATOM      3  C   UNL A   1      33.143  32.098  27.415  1.00  0.00     0.310 C 
ATOM      4  O   UNL A   1      34.294  31.863  27.049  1.00  0.00    -0.252 OA
BRANCH   3   5
ATOM      5  C   UNL A   1      32.045  31.111  27.161  1.00  0.00     0.160 C 
BRANCH   5   6
ATOM      6  C   UNL A   1      31.999  30.164  25.984  1.00  0.00    -0.008 A 
ATOM      7  C   UNL A   1      29.438  29.981  23.010  1.00  0.00     0.119 A 
ATOM      8  C   UNL A   1      30.197  29.154  22.222  1.00  0.00     0.048 A 
ATOM      9  C   UNL A   1      29.938  30.386  24.250  1.00  0.00     0.057 A 
ATOM     10  C   UNL A   1      31.407  28.647  22.717  1.00  0.00     0.031 A 
ATOM     11  C   UNL A   1      31.167  29.934  24.808  1.00  0.00     0.007 A 
ATOM     12  C   UNL A   1      31.847  28.990  24.020  1.00  0.00     0.049 A 
ATOM     13  N   UNL A   1      32.935  28.558  24.759  1.00  0.00    -0.340 N 
ATOM     14  C   UNL A   1      32.841  29.057  26.036  1.00  0.00     0.020 A 
ATOM     15  C   UNL A   1      33.590  28.558  27.231  1.00  0.00     0.065 C 
BRANCH   7  16
ATOM     16  O   UNL A   1      28.287  30.599  22.599  1.00  0.00    -0.497 OA
ATOM     17  C   UNL A   1      27.766  31.576  23.494  1.00  0.00     0.278 C 
ENDBRANCH   7  16
BRANCH  13  18
ATOM     18  C   UNL A   1      34.003  27.683  24.274  1.00  0.00     0.158 C 
BRANCH  18  19
ATOM     19  C   UNL A   1      33.512  26.268  24.048  1.00  0.00    -0.021 A 
ATOM     20  C   UNL A   1      32.885  25.554  25.143  1.00  0.00     0.024 A 
ATOM     21  C   UNL A   1      33.653  25.635  22.871  1.00  0.00     0.077 A 
ATOM     22  C   UNL A   1      32.651  24.242  25.063  1.00  0.00     0.095 A 
ATOM     23  C   UNL A   1      33.278  24.196  22.725  1.00  0.00     0.255 A 
ATOM     24  N   UNL A   1      32.880  23.556  23.889  1.00  0.00    -0.258 N 
ATOM     25  O   UNL A   1      33.362  23.680  21.616  1.00  0.00    -0.269 OA
BRANCH  24  26
ATOM     26  C   UNL A   1      32.613  22.144  23.813  1.00  0.00     0.451 C 
ATOM     27  F   UNL A   1      31.773  21.865  22.788  1.00  0.00    -0.185 F 
ATOM     28  F   UNL A   1      33.754  21.437  23.632  1.00  0.00    -0.185 F 
ENDBRANCH  24  26
ENDBRANCH  18  19
ENDBRANCH  13  18
ENDBRANCH   5   6
ENDBRANCH   3   5
ENDBRANCH   2   3
ENDBRANCH   1   2
BRANCH   1  29
ATOM     29  C   UNL A   1      34.181  34.502  29.466  1.00  0.00     0.275 C 
BRANCH  29  30
ATOM     30  O   UNL A   1      35.429  33.817  29.706  1.00  0.00    -0.458 OA
BRANCH  30  31
ATOM     31  C   UNL A   1      35.359  32.661  30.400  1.00  0.00     0.338 C 
ATOM     32  O   UNL A   1      34.475  32.343  31.196  1.00  0.00    -0.246 OA
BRANCH  31  33
ATOM     33  C   UNL A   1      36.290  31.704  29.764  1.00  0.00     0.060 A 
ATOM     34  C   UNL A   1      35.968  30.383  29.494  1.00  0.00     0.016 A 
ATOM     35  C   UNL A   1      37.623  32.083  29.679  1.00  0.00     0.016 A 
ATOM     36  C   UNL A   1      37.010  29.448  29.413  1.00  0.00     0.010 A 
ATOM     37  C   UNL A   1      38.648  31.181  29.560  1.00  0.00     0.010 A 
ATOM     38  C   UNL A   1      38.344  29.845  29.609  1.00  0.00    -0.014 A 
BRANCH  38  39
ATOM     39  C   UNL A   1      39.490  28.946  29.581  1.00  0.00     0.031 A 
ATOM     40  C   UNL A   1      39.739  28.458  30.953  1.00  0.00     0.074 A 
ATOM     41  C   UNL A   1      40.173  28.459  28.516  1.00  0.00     0.049 A 
ATOM     42  N   UNL A   1      40.556  29.028  31.768  1.00  0.00    -0.248 NA
ATOM     43  C   UNL A   1      38.831  27.488  31.590  1.00  0.00     0.031 C 
ATOM     44  C   UNL A   1      39.943  28.590  27.075  1.00  0.00     0.029 A 
ATOM     45  N   UNL A   1      41.301  27.683  28.545  1.00  0.00    -0.354 N 
ATOM     46  C   UNL A   1      40.438  28.342  32.960  1.00  0.00     0.074 A 
ATOM     47  C   UNL A   1      39.225  27.575  32.864  1.00  0.00     0.031 C 
ATOM     48  C   UNL A   1      40.778  27.764  26.387  1.00  0.00     0.029 A 
ATOM     49  C   UNL A   1      41.714  27.155  27.319  1.00  0.00     0.049 A 
ATOM     50  H   UNL A   1      41.791  27.506  29.380  1.00  0.00     0.167 HD
ATOM     51  C   UNL A   1      41.503  28.276  33.801  1.00  0.00     0.031 A 
ATOM     52  C   UNL A   1      42.802  26.362  27.079  1.00  0.00     0.031 A 
ATOM     53  C   UNL A   1      42.535  29.200  33.390  1.00  0.00     0.049 A 
ATOM     54  C   UNL A   1      43.743  26.585  28.201  1.00  0.00     0.074 A 
ATOM     55  C   UNL A   1      42.617  30.574  33.284  1.00  0.00     0.029 A 
ATOM     56  N   UNL A   1      43.514  28.686  32.571  1.00  0.00    -0.354 N 
ATOM     57  N   UNL A   1      44.366  27.712  28.385  1.00  0.00    -0.248 NA
ATOM     58  C   UNL A   1      43.582  25.743  29.376  1.00  0.00     0.031 C 
ATOM     59  C   UNL A   1      43.331  30.807  32.074  1.00  0.00     0.029 A 
ATOM     60  C   UNL A   1      43.748  29.577  31.558  1.00  0.00     0.049 A 
ATOM     61  H   UNL A   1      43.969  27.822  32.692  1.00  0.00     0.167 HD
ATOM     62  C   UNL A   1      44.256  27.941  29.747  1.00  0.00     0.074 A 
ATOM     63  C   UNL A   1      43.805  26.668  30.315  1.00  0.00     0.031 C 
ATOM     64  C   UNL A   1      44.241  29.209  30.248  1.00  0.00     0.031 A 
BRANCH  51  65
ATOM     65  C   UNL A   1      41.798  27.101  34.686  1.00  0.00    -0.014 A 
ATOM     66  C   UNL A   1      42.557  25.985  34.293  1.00  0.00     0.009 A 
ATOM     67  C   UNL A   1      41.528  27.235  36.059  1.00  0.00     0.009 A 
ATOM     68  C   UNL A   1      43.052  25.067  35.222  1.00  0.00     0.001 A 
ATOM     69  C   UNL A   1      42.051  26.340  36.994  1.00  0.00     0.001 A 
ATOM     70  C   UNL A   1      42.818  25.259  36.575  1.00  0.00     0.000 A 
ENDBRANCH  51  65
BRANCH  52  71
ATOM     71  C   UNL A   1      42.906  25.102  26.281  1.00  0.00    -0.014 A 
ATOM     72  C   UNL A   1      42.017  24.043  26.526  1.00  0.00     0.009 A 
ATOM     73  C   UNL A   1      44.076  24.801  25.547  1.00  0.00     0.009 A 
ATOM     74  C   UNL A   1      42.307  22.733  26.112  1.00  0.00     0.001 A 
ATOM     75  C   UNL A   1      44.363  23.488  25.128  1.00  0.00     0.001 A 
ATOM     76  C   UNL A   1      43.487  22.451  25.429  1.00  0.00     0.000 A 
ENDBRANCH  52  71
BRANCH  64  77
ATOM     77  C   UNL A   1      44.561  30.364  29.327  1.00  0.00    -0.014 A 
ATOM     78  C   UNL A   1      43.601  30.683  28.355  1.00  0.00     0.009 A 
ATOM     79  C   UNL A   1      45.835  30.955  29.225  1.00  0.00     0.009 A 
ATOM     80  C   UNL A   1      43.911  31.512  27.278  1.00  0.00     0.001 A 
ATOM     81  C   UNL A   1      46.136  31.814  28.158  1.00  0.00     0.001 A 
ATOM     82  C   UNL A   1      45.180  32.073  27.176  1.00  0.00     0.000 A 
ENDBRANCH  64  77
ENDBRANCH  38  39
ENDBRANCH  31  33
ENDBRANCH  30  31
ENDBRANCH  29  30
ENDBRANCH   1  29
TORSDOF 16
ENDMDL
