MODEL 1
REMARK VINA RESULT:     -11.8      0.000      0.000
REMARK SMILES O=C(N[C@@H](Cc1c[nH]c2ccccc12)C(=O)N[C@@H](CO)C(=O)OCCOC(=O)c1ccc(-c2c3nc(c(-c4ccccc4)c4ccc([nH]4)c(-c4ccccc4)c4nc(c(-c5ccccc5)c5ccc2[nH]5)C=C4)C=C3)cc1)c1ccc(F)cc1
REMARK SMILES IDX 24 1 23 2 21 3 22 4 18 5 17 6 15 7 16 8 4 10 3 11 1 12 2 13
REMARK SMILES IDX 77 15 78 16 83 17 79 18 82 19 80 20 81 21 5 22 6 23 7 24
REMARK SMILES IDX 14 25 8 26 9 27 13 28 10 30 12 31 11 32 19 33 20 34 25 36
REMARK SMILES IDX 26 37 27 38 28 39 29 40 30 41 76 42 31 43 75 44 32 45 33 46
REMARK SMILES IDX 34 47 69 48 35 49 74 50 68 51 70 52 36 53 73 54 67 55 66 56
REMARK SMILES IDX 37 58 59 59 44 60 58 61 45 62 48 63 57 64 71 65 46 66 47 67
REMARK SMILES IDX 56 69 72 70 49 71 38 72 39 73 43 74 40 75 42 76 41 77 60 78
REMARK SMILES IDX 61 79 65 80 62 81 64 82 63 83 50 84 51 85 55 86 52 87 54 88
REMARK SMILES IDX 53 89
REMARK H PARENT 17 9 3 14 8 29 20 35 70 57 48 68
REMARK Flexibility Score: inf
ROOT
ATOM      1  C   UNL A   1      31.324  29.574  25.013  1.00  0.00     0.274 C 
ENDROOT
BRANCH   1   2
ATOM      2  O   UNL A   1      30.343  29.720  23.963  1.00  0.00    -0.460 OA
BRANCH   2   3
ATOM      3  C   UNL A   1      30.615  28.963  22.852  1.00  0.00     0.331 C 
ATOM      4  O   UNL A   1      30.310  29.307  21.713  1.00  0.00    -0.250 OA
BRANCH   3   5
ATOM      5  C   UNL A   1      31.471  27.721  23.174  1.00  0.00     0.218 C 
BRANCH   5   6
ATOM      6  N   UNL A   1      30.756  26.458  23.321  1.00  0.00    -0.339 N 
ATOM      7  C   UNL A   1      30.832  25.479  24.252  1.00  0.00     0.243 C 
ATOM      8  O   UNL A   1      30.253  24.425  23.950  1.00  0.00    -0.273 OA
ATOM      9  H   UNL A   1      30.096  26.285  22.611  1.00  0.00     0.164 HD
BRANCH   7  10
ATOM     10  C   UNL A   1      31.667  25.534  25.566  1.00  0.00     0.176 C 
BRANCH  10  11
ATOM     11  N   UNL A   1      31.074  24.809  26.680  1.00  0.00    -0.340 N 
ATOM     12  O   UNL A   1      30.144  22.986  27.603  1.00  0.00    -0.269 OA
ATOM     13  C   UNL A   1      31.040  23.450  26.901  1.00  0.00     0.251 C 
ATOM     14  H   UNL A   1      30.641  25.365  27.369  1.00  0.00     0.164 HD
BRANCH  13  15
ATOM     15  C   UNL A   1      32.076  22.528  26.357  1.00  0.00     0.040 A 
ATOM     16  C   UNL A   1      33.211  22.200  27.112  1.00  0.00     0.017 A 
ATOM     17  C   UNL A   1      31.824  21.838  25.161  1.00  0.00     0.017 A 
ATOM     18  C   UNL A   1      34.095  21.213  26.662  1.00  0.00     0.040 A 
ATOM     19  C   UNL A   1      32.710  20.848  24.716  1.00  0.00     0.040 A 
ATOM     20  C   UNL A   1      33.836  20.544  25.472  1.00  0.00     0.123 A 
ATOM     21  F   UNL A   1      34.667  19.576  25.064  1.00  0.00    -0.207 F 
ENDBRANCH  13  15
ENDBRANCH  10  11
BRANCH  10  22
ATOM     22  C   UNL A   1      33.206  25.525  25.518  1.00  0.00     0.072 C 
BRANCH  22  23
ATOM     23  C   UNL A   1      34.081  24.675  24.616  1.00  0.00    -0.020 A 
ATOM     24  C   UNL A   1      33.709  24.294  23.331  1.00  0.00     0.087 A 
ATOM     25  C   UNL A   1      35.367  24.051  24.829  1.00  0.00     0.003 A 
ATOM     26  N   UNL A   1      34.643  23.452  22.805  1.00  0.00    -0.361 N 
ATOM     27  C   UNL A   1      35.608  23.206  23.737  1.00  0.00     0.046 A 
ATOM     28  C   UNL A   1      36.314  24.027  25.872  1.00  0.00     0.010 A 
ATOM     29  H   UNL A   1      34.623  23.078  21.893  1.00  0.00     0.166 HD
ATOM     30  C   UNL A   1      36.660  22.288  23.678  1.00  0.00     0.026 A 
ATOM     31  C   UNL A   1      37.357  23.089  25.847  1.00  0.00     0.001 A 
ATOM     32  C   UNL A   1      37.513  22.218  24.775  1.00  0.00     0.002 A 
ENDBRANCH  22  23
ENDBRANCH  10  22
ENDBRANCH   7  10
ENDBRANCH   5   6
BRANCH   5  33
ATOM     33  C   UNL A   1      32.661  27.595  22.222  1.00  0.00     0.193 C 
BRANCH  33  34
ATOM     34  O   UNL A   1      32.351  26.743  21.124  1.00  0.00    -0.394 OA
ATOM     35  H   UNL A   1      31.460  26.377  21.239  1.00  0.00     0.210 HD
ENDBRANCH  33  34
ENDBRANCH   5  33
ENDBRANCH   3   5
ENDBRANCH   2   3
ENDBRANCH   1   2
BRANCH   1  36
ATOM     36  C   UNL A   1      31.430  30.854  25.843  1.00  0.00     0.275 C 
BRANCH  36  37
ATOM     37  O   UNL A   1      32.391  30.670  26.902  1.00  0.00    -0.458 OA
BRANCH  37  38
ATOM     38  C   UNL A   1      33.061  31.781  27.297  1.00  0.00     0.338 C 
ATOM     39  O   UNL A   1      32.625  32.925  27.347  1.00  0.00    -0.246 OA
BRANCH  38  40
ATOM     40  C   UNL A   1      34.430  31.422  27.728  1.00  0.00     0.060 A 
ATOM     41  C   UNL A   1      34.706  30.089  27.993  1.00  0.00     0.016 A 
ATOM     42  C   UNL A   1      35.400  32.376  28.016  1.00  0.00     0.016 A 
ATOM     43  C   UNL A   1      35.873  29.687  28.623  1.00  0.00     0.010 A 
ATOM     44  C   UNL A   1      36.623  31.975  28.584  1.00  0.00     0.010 A 
ATOM     45  C   UNL A   1      36.848  30.629  28.940  1.00  0.00    -0.014 A 
BRANCH  45  46
ATOM     46  C   UNL A   1      37.989  30.207  29.799  1.00  0.00     0.031 A 
ATOM     47  C   UNL A   1      39.132  29.458  29.166  1.00  0.00     0.074 A 
ATOM     48  C   UNL A   1      38.106  30.627  31.074  1.00  0.00     0.049 A 
ATOM     49  N   UNL A   1      40.161  28.881  29.730  1.00  0.00    -0.248 NA
ATOM     50  C   UNL A   1      39.119  29.360  27.696  1.00  0.00     0.031 C 
ATOM     51  C   UNL A   1      37.169  31.513  31.768  1.00  0.00     0.029 A 
ATOM     52  N   UNL A   1      39.100  30.413  31.998  1.00  0.00    -0.354 N 
ATOM     53  C   UNL A   1      40.872  28.287  28.695  1.00  0.00     0.074 A 
ATOM     54  C   UNL A   1      40.177  28.598  27.466  1.00  0.00     0.031 C 
ATOM     55  C   UNL A   1      37.671  31.829  32.972  1.00  0.00     0.029 A 
ATOM     56  C   UNL A   1      38.906  31.080  33.185  1.00  0.00     0.049 A 
ATOM     57  H   UNL A   1      39.880  29.837  31.827  1.00  0.00     0.167 HD
ATOM     58  C   UNL A   1      41.990  27.527  28.767  1.00  0.00     0.031 A 
ATOM     59  C   UNL A   1      39.618  31.058  34.327  1.00  0.00     0.031 A 
ATOM     60  C   UNL A   1      42.691  27.251  29.990  1.00  0.00     0.049 A 
ATOM     61  C   UNL A   1      40.812  30.146  34.411  1.00  0.00     0.074 A 
ATOM     62  C   UNL A   1      43.759  26.398  30.209  1.00  0.00     0.029 A 
ATOM     63  N   UNL A   1      42.402  27.854  31.204  1.00  0.00    -0.354 N 
ATOM     64  N   UNL A   1      41.369  29.425  33.468  1.00  0.00    -0.248 NA
ATOM     65  C   UNL A   1      41.450  30.012  35.729  1.00  0.00     0.031 C 
ATOM     66  C   UNL A   1      44.096  26.466  31.568  1.00  0.00     0.029 A 
ATOM     67  C   UNL A   1      43.269  27.395  32.180  1.00  0.00     0.049 A 
ATOM     68  H   UNL A   1      41.686  28.512  31.352  1.00  0.00     0.167 HD
ATOM     69  C   UNL A   1      42.418  28.748  34.077  1.00  0.00     0.074 A 
ATOM     70  C   UNL A   1      42.444  29.178  35.461  1.00  0.00     0.031 C 
ATOM     71  C   UNL A   1      43.271  27.837  33.549  1.00  0.00     0.031 A 
BRANCH  58  72
ATOM     72  C   UNL A   1      42.438  26.864  27.496  1.00  0.00    -0.014 A 
ATOM     73  C   UNL A   1      43.382  27.452  26.641  1.00  0.00     0.009 A 
ATOM     74  C   UNL A   1      41.856  25.640  27.129  1.00  0.00     0.009 A 
ATOM     75  C   UNL A   1      43.699  26.846  25.421  1.00  0.00     0.001 A 
ATOM     76  C   UNL A   1      42.193  25.025  25.923  1.00  0.00     0.001 A 
ATOM     77  C   UNL A   1      43.106  25.635  25.064  1.00  0.00     0.000 A 
ENDBRANCH  58  72
BRANCH  59  78
ATOM     78  C   UNL A   1      39.182  31.847  35.514  1.00  0.00    -0.014 A 
ATOM     79  C   UNL A   1      38.239  31.329  36.417  1.00  0.00     0.009 A 
ATOM     80  C   UNL A   1      39.681  33.141  35.733  1.00  0.00     0.009 A 
ATOM     81  C   UNL A   1      37.796  32.098  37.499  1.00  0.00     0.001 A 
ATOM     82  C   UNL A   1      39.264  33.892  36.833  1.00  0.00     0.001 A 
ATOM     83  C   UNL A   1      38.314  33.374  37.710  1.00  0.00     0.000 A 
ENDBRANCH  59  78
BRANCH  71  84
ATOM     84  C   UNL A   1      44.307  27.267  34.472  1.00  0.00    -0.014 A 
ATOM     85  C   UNL A   1      44.072  26.078  35.180  1.00  0.00     0.009 A 
ATOM     86  C   UNL A   1      45.541  27.919  34.621  1.00  0.00     0.009 A 
ATOM     87  C   UNL A   1      45.039  25.575  36.051  1.00  0.00     0.001 A 
ATOM     88  C   UNL A   1      46.515  27.399  35.474  1.00  0.00     0.001 A 
ATOM     89  C   UNL A   1      46.259  26.234  36.195  1.00  0.00     0.000 A 
ENDBRANCH  71  84
ENDBRANCH  45  46
ENDBRANCH  38  40
ENDBRANCH  37  38
ENDBRANCH  36  37
ENDBRANCH   1  36
TORSDOF 19
ENDMDL
MODEL 2
REMARK VINA RESULT:     -11.4      1.194      1.902
REMARK SMILES O=C(N[C@@H](Cc1c[nH]c2ccccc12)C(=O)N[C@@H](CO)C(=O)OCCOC(=O)c1ccc(-c2c3nc(c(-c4ccccc4)c4ccc([nH]4)c(-c4ccccc4)c4nc(c(-c5ccccc5)c5ccc2[nH]5)C=C4)C=C3)cc1)c1ccc(F)cc1
REMARK SMILES IDX 24 1 23 2 21 3 22 4 18 5 17 6 15 7 16 8 4 10 3 11 1 12 2 13
REMARK SMILES IDX 77 15 78 16 83 17 79 18 82 19 80 20 81 21 5 22 6 23 7 24
REMARK SMILES IDX 14 25 8 26 9 27 13 28 10 30 12 31 11 32 19 33 20 34 25 36
REMARK SMILES IDX 26 37 27 38 28 39 29 40 30 41 76 42 31 43 75 44 32 45 33 46
REMARK SMILES IDX 34 47 69 48 35 49 74 50 68 51 70 52 36 53 73 54 67 55 66 56
REMARK SMILES IDX 37 58 59 59 44 60 58 61 45 62 48 63 57 64 71 65 46 66 47 67
REMARK SMILES IDX 56 69 72 70 49 71 38 72 39 73 43 74 40 75 42 76 41 77 60 78
REMARK SMILES IDX 61 79 65 80 62 81 64 82 63 83 50 84 51 85 55 86 52 87 54 88
REMARK SMILES IDX 53 89
REMARK H PARENT 17 9 3 14 8 29 20 35 70 57 48 68
REMARK Flexibility Score: inf
ROOT
ATOM      1  C   UNL A   1      30.895  29.790  24.784  1.00  0.00     0.274 C 
ENDROOT
BRANCH   1   2
ATOM      2  O   UNL A   1      30.685  28.609  23.979  1.00  0.00    -0.460 OA
BRANCH   2   3
ATOM      3  C   UNL A   1      31.241  28.696  22.728  1.00  0.00     0.331 C 
ATOM      4  O   UNL A   1      30.763  29.378  21.826  1.00  0.00    -0.250 OA
BRANCH   3   5
ATOM      5  C   UNL A   1      32.599  27.972  22.630  1.00  0.00     0.218 C 
BRANCH   5   6
ATOM      6  N   UNL A   1      32.713  26.937  21.608  1.00  0.00    -0.339 N 
ATOM      7  C   UNL A   1      32.636  25.587  21.676  1.00  0.00     0.243 C 
ATOM      8  O   UNL A   1      33.016  24.991  20.658  1.00  0.00    -0.273 OA
ATOM      9  H   UNL A   1      32.877  27.284  20.702  1.00  0.00     0.164 HD
BRANCH   7  10
ATOM     10  C   UNL A   1      32.239  24.759  22.935  1.00  0.00     0.176 C 
BRANCH  10  11
ATOM     11  N   UNL A   1      31.355  25.459  23.855  1.00  0.00    -0.340 N 
ATOM     12  O   UNL A   1      29.979  25.537  25.627  1.00  0.00    -0.269 OA
ATOM     13  C   UNL A   1      31.045  25.143  25.159  1.00  0.00     0.251 C 
ATOM     14  H   UNL A   1      30.921  26.268  23.497  1.00  0.00     0.164 HD
BRANCH  13  15
ATOM     15  C   UNL A   1      31.976  24.378  26.035  1.00  0.00     0.040 A 
ATOM     16  C   UNL A   1      31.537  23.237  26.723  1.00  0.00     0.017 A 
ATOM     17  C   UNL A   1      33.344  24.690  26.025  1.00  0.00     0.017 A 
ATOM     18  C   UNL A   1      32.452  22.435  27.414  1.00  0.00     0.040 A 
ATOM     19  C   UNL A   1      34.258  23.883  26.715  1.00  0.00     0.040 A 
ATOM     20  C   UNL A   1      33.803  22.762  27.401  1.00  0.00     0.123 A 
ATOM     21  F   UNL A   1      34.680  21.971  28.034  1.00  0.00    -0.207 F 
ENDBRANCH  13  15
ENDBRANCH  10  11
BRANCH  10  22
ATOM     22  C   UNL A   1      32.017  23.240  22.835  1.00  0.00     0.072 C 
BRANCH  22  23
ATOM     23  C   UNL A   1      32.894  22.153  23.430  1.00  0.00    -0.020 A 
ATOM     24  C   UNL A   1      32.390  20.961  23.939  1.00  0.00     0.087 A 
ATOM     25  C   UNL A   1      34.319  22.081  23.657  1.00  0.00     0.003 A 
ATOM     26  N   UNL A   1      33.396  20.231  24.498  1.00  0.00    -0.361 N 
ATOM     27  C   UNL A   1      34.562  20.938  24.432  1.00  0.00     0.046 A 
ATOM     28  C   UNL A   1      35.427  22.906  23.380  1.00  0.00     0.010 A 
ATOM     29  H   UNL A   1      33.298  19.332  24.890  1.00  0.00     0.166 HD
ATOM     30  C   UNL A   1      35.795  20.637  25.016  1.00  0.00     0.026 A 
ATOM     31  C   UNL A   1      36.664  22.641  23.985  1.00  0.00     0.001 A 
ATOM     32  C   UNL A   1      36.838  21.534  24.808  1.00  0.00     0.002 A 
ENDBRANCH  22  23
ENDBRANCH  10  22
ENDBRANCH   7  10
ENDBRANCH   5   6
BRANCH   5  33
ATOM     33  C   UNL A   1      33.762  28.963  22.568  1.00  0.00     0.193 C 
BRANCH  33  34
ATOM     34  O   UNL A   1      34.460  29.014  23.808  1.00  0.00    -0.394 OA
ATOM     35  H   UNL A   1      34.719  29.930  23.997  1.00  0.00     0.210 HD
ENDBRANCH  33  34
ENDBRANCH   5  33
ENDBRANCH   3   5
ENDBRANCH   2   3
ENDBRANCH   1   2
BRANCH   1  36
ATOM     36  C   UNL A   1      31.715  29.461  26.032  1.00  0.00     0.275 C 
BRANCH  36  37
ATOM     37  O   UNL A   1      33.017  30.074  25.935  1.00  0.00    -0.458 OA
BRANCH  37  38
ATOM     38  C   UNL A   1      33.311  30.999  26.882  1.00  0.00     0.338 C 
ATOM     39  O   UNL A   1      32.565  31.869  27.318  1.00  0.00    -0.246 OA
BRANCH  38  40
ATOM     40  C   UNL A   1      34.685  30.791  27.387  1.00  0.00     0.060 A 
ATOM     41  C   UNL A   1      35.146  29.489  27.516  1.00  0.00     0.016 A 
ATOM     42  C   UNL A   1      35.474  31.830  27.868  1.00  0.00     0.016 A 
ATOM     43  C   UNL A   1      36.315  29.183  28.195  1.00  0.00     0.010 A 
ATOM     44  C   UNL A   1      36.702  31.541  28.490  1.00  0.00     0.010 A 
ATOM     45  C   UNL A   1      37.108  30.208  28.704  1.00  0.00    -0.014 A 
BRANCH  45  46
ATOM     46  C   UNL A   1      38.239  29.849  29.604  1.00  0.00     0.031 A 
ATOM     47  C   UNL A   1      39.438  29.153  29.016  1.00  0.00     0.074 A 
ATOM     48  C   UNL A   1      38.292  30.284  30.879  1.00  0.00     0.049 A 
ATOM     49  N   UNL A   1      40.474  28.631  29.620  1.00  0.00    -0.248 NA
ATOM     50  C   UNL A   1      39.479  29.043  27.548  1.00  0.00     0.031 C 
ATOM     51  C   UNL A   1      37.290  31.128  31.533  1.00  0.00     0.029 A 
ATOM     52  N   UNL A   1      39.264  30.126  31.837  1.00  0.00    -0.354 N 
ATOM     53  C   UNL A   1      41.247  28.065  28.614  1.00  0.00     0.074 A 
ATOM     54  C   UNL A   1      40.580  28.332  27.360  1.00  0.00     0.031 C 
ATOM     55  C   UNL A   1      37.735  31.476  32.751  1.00  0.00     0.029 A 
ATOM     56  C   UNL A   1      38.997  30.791  33.011  1.00  0.00     0.049 A 
ATOM     57  H   UNL A   1      40.076  29.587  31.697  1.00  0.00     0.167 HD
ATOM     58  C   UNL A   1      42.399  27.362  28.730  1.00  0.00     0.031 A 
ATOM     59  C   UNL A   1      39.671  30.812  34.176  1.00  0.00     0.031 A 
ATOM     60  C   UNL A   1      43.071  27.129  29.978  1.00  0.00     0.049 A 
ATOM     61  C   UNL A   1      40.904  29.960  34.308  1.00  0.00     0.074 A 
ATOM     62  C   UNL A   1      44.171  26.332  30.240  1.00  0.00     0.029 A 
ATOM     63  N   UNL A   1      42.712  27.727  31.177  1.00  0.00    -0.354 N 
ATOM     64  N   UNL A   1      41.528  29.261  33.391  1.00  0.00    -0.248 NA
ATOM     65  C   UNL A   1      41.504  29.868  35.647  1.00  0.00     0.031 C 
ATOM     66  C   UNL A   1      44.459  26.427  31.608  1.00  0.00     0.029 A 
ATOM     67  C   UNL A   1      43.567  27.318  32.184  1.00  0.00     0.049 A 
ATOM     68  H   UNL A   1      41.960  28.350  31.294  1.00  0.00     0.167 HD
ATOM     69  C   UNL A   1      42.587  28.641  34.040  1.00  0.00     0.074 A 
ATOM     70  C   UNL A   1      42.546  29.082  35.421  1.00  0.00     0.031 C 
ATOM     71  C   UNL A   1      43.501  27.769  33.549  1.00  0.00     0.031 A 
BRANCH  58  72
ATOM     72  C   UNL A   1      42.922  26.713  27.481  1.00  0.00    -0.014 A 
ATOM     73  C   UNL A   1      42.507  25.435  27.074  1.00  0.00     0.009 A 
ATOM     74  C   UNL A   1      43.893  27.386  26.722  1.00  0.00     0.009 A 
ATOM     75  C   UNL A   1      43.090  24.829  25.957  1.00  0.00     0.001 A 
ATOM     76  C   UNL A   1      44.455  26.789  25.594  1.00  0.00     0.001 A 
ATOM     77  C   UNL A   1      44.062  25.505  25.219  1.00  0.00     0.000 A 
ENDBRANCH  58  72
BRANCH  59  78
ATOM     78  C   UNL A   1      39.157  31.587  35.341  1.00  0.00    -0.014 A 
ATOM     79  C   UNL A   1      38.263  31.007  36.255  1.00  0.00     0.009 A 
ATOM     80  C   UNL A   1      39.531  32.928  35.527  1.00  0.00     0.009 A 
ATOM     81  C   UNL A   1      37.744  31.758  37.315  1.00  0.00     0.001 A 
ATOM     82  C   UNL A   1      39.040  33.665  36.606  1.00  0.00     0.001 A 
ATOM     83  C   UNL A   1      38.138  33.083  37.494  1.00  0.00     0.000 A 
ENDBRANCH  59  78
BRANCH  71  84
ATOM     84  C   UNL A   1      44.533  27.258  34.511  1.00  0.00    -0.014 A 
ATOM     85  C   UNL A   1      45.743  27.942  34.706  1.00  0.00     0.009 A 
ATOM     86  C   UNL A   1      44.283  26.087  35.242  1.00  0.00     0.009 A 
ATOM     87  C   UNL A   1      46.700  27.440  35.589  1.00  0.00     0.001 A 
ATOM     88  C   UNL A   1      45.232  25.602  36.143  1.00  0.00     0.001 A 
ATOM     89  C   UNL A   1      46.442  26.273  36.308  1.00  0.00     0.000 A 
ENDBRANCH  71  84
ENDBRANCH  45  46
ENDBRANCH  38  40
ENDBRANCH  37  38
ENDBRANCH  36  37
ENDBRANCH   1  36
TORSDOF 19
ENDMDL
MODEL 3
REMARK VINA RESULT:     -11.4      4.021      7.261
REMARK SMILES O=C(N[C@@H](Cc1c[nH]c2ccccc12)C(=O)N[C@@H](CO)C(=O)OCCOC(=O)c1ccc(-c2c3nc(c(-c4ccccc4)c4ccc([nH]4)c(-c4ccccc4)c4nc(c(-c5ccccc5)c5ccc2[nH]5)C=C4)C=C3)cc1)c1ccc(F)cc1
REMARK SMILES IDX 24 1 23 2 21 3 22 4 18 5 17 6 15 7 16 8 4 10 3 11 1 12 2 13
REMARK SMILES IDX 77 15 78 16 83 17 79 18 82 19 80 20 81 21 5 22 6 23 7 24
REMARK SMILES IDX 14 25 8 26 9 27 13 28 10 30 12 31 11 32 19 33 20 34 25 36
REMARK SMILES IDX 26 37 27 38 28 39 29 40 30 41 76 42 31 43 75 44 32 45 33 46
REMARK SMILES IDX 34 47 69 48 35 49 74 50 68 51 70 52 36 53 73 54 67 55 66 56
REMARK SMILES IDX 37 58 59 59 44 60 58 61 45 62 48 63 57 64 71 65 46 66 47 67
REMARK SMILES IDX 56 69 72 70 49 71 38 72 39 73 43 74 40 75 42 76 41 77 60 78
REMARK SMILES IDX 61 79 65 80 62 81 64 82 63 83 50 84 51 85 55 86 52 87 54 88
REMARK SMILES IDX 53 89
REMARK H PARENT 17 9 3 14 8 29 20 35 70 57 48 68
REMARK Flexibility Score: inf
ROOT
ATOM      1  C   UNL A   1      36.404  20.998  24.525  1.00  0.00     0.274 C 
ENDROOT
BRANCH   1   2
ATOM      2  O   UNL A   1      35.621  19.891  25.023  1.00  0.00    -0.460 OA
BRANCH   2   3
ATOM      3  C   UNL A   1      34.283  19.997  24.739  1.00  0.00     0.331 C 
ATOM      4  O   UNL A   1      33.613  19.064  24.305  1.00  0.00    -0.250 OA
BRANCH   3   5
ATOM      5  C   UNL A   1      33.691  21.355  25.165  1.00  0.00     0.218 C 
BRANCH   5   6
ATOM      6  N   UNL A   1      32.650  21.910  24.306  1.00  0.00    -0.339 N 
ATOM      7  C   UNL A   1      32.574  23.069  23.611  1.00  0.00     0.243 C 
ATOM      8  O   UNL A   1      31.447  23.341  23.171  1.00  0.00    -0.273 OA
ATOM      9  H   UNL A   1      31.856  21.335  24.216  1.00  0.00     0.164 HD
BRANCH   7  10
ATOM     10  C   UNL A   1      33.725  24.104  23.438  1.00  0.00     0.176 C 
BRANCH  10  11
ATOM     11  N   UNL A   1      33.813  24.681  22.104  1.00  0.00    -0.340 N 
ATOM     12  O   UNL A   1      32.941  25.747  20.331  1.00  0.00    -0.269 OA
ATOM     13  C   UNL A   1      33.061  25.694  21.553  1.00  0.00     0.251 C 
ATOM     14  H   UNL A   1      34.504  24.295  21.517  1.00  0.00     0.164 HD
BRANCH  13  15
ATOM     15  C   UNL A   1      32.424  26.755  22.384  1.00  0.00     0.040 A 
ATOM     16  C   UNL A   1      33.064  27.987  22.586  1.00  0.00     0.017 A 
ATOM     17  C   UNL A   1      31.097  26.593  22.810  1.00  0.00     0.017 A 
ATOM     18  C   UNL A   1      32.393  29.032  23.231  1.00  0.00     0.040 A 
ATOM     19  C   UNL A   1      30.427  27.643  23.452  1.00  0.00     0.040 A 
ATOM     20  C   UNL A   1      31.081  28.853  23.653  1.00  0.00     0.123 A 
ATOM     21  F   UNL A   1      30.432  29.868  24.238  1.00  0.00    -0.207 F 
ENDBRANCH  13  15
ENDBRANCH  10  11
BRANCH  10  22
ATOM     22  C   UNL A   1      34.108  25.049  24.590  1.00  0.00     0.072 C 
BRANCH  22  23
ATOM     23  C   UNL A   1      33.164  25.699  25.584  1.00  0.00    -0.020 A 
ATOM     24  C   UNL A   1      32.007  25.083  26.052  1.00  0.00     0.087 A 
ATOM     25  C   UNL A   1      33.168  27.002  26.209  1.00  0.00     0.003 A 
ATOM     26  N   UNL A   1      31.309  25.944  26.846  1.00  0.00    -0.361 N 
ATOM     27  C   UNL A   1      31.942  27.153  26.872  1.00  0.00     0.046 A 
ATOM     28  C   UNL A   1      34.030  28.117  26.207  1.00  0.00     0.010 A 
ATOM     29  H   UNL A   1      30.477  25.727  27.327  1.00  0.00     0.166 HD
ATOM     30  C   UNL A   1      31.498  28.354  27.431  1.00  0.00     0.026 A 
ATOM     31  C   UNL A   1      33.589  29.342  26.731  1.00  0.00     0.001 A 
ATOM     32  C   UNL A   1      32.332  29.462  27.314  1.00  0.00     0.002 A 
ENDBRANCH  22  23
ENDBRANCH  10  22
ENDBRANCH   7  10
ENDBRANCH   5   6
BRANCH   5  33
ATOM     33  C   UNL A   1      33.272  21.351  26.635  1.00  0.00     0.193 C 
BRANCH  33  34
ATOM     34  O   UNL A   1      33.253  20.027  27.160  1.00  0.00    -0.394 OA
ATOM     35  H   UNL A   1      33.392  19.391  26.440  1.00  0.00     0.210 HD
ENDBRANCH  33  34
ENDBRANCH   5  33
ENDBRANCH   3   5
ENDBRANCH   2   3
ENDBRANCH   1   2
BRANCH   1  36
ATOM     36  C   UNL A   1      37.892  20.786  24.809  1.00  0.00     0.275 C 
BRANCH  36  37
ATOM     37  O   UNL A   1      38.258  21.469  26.025  1.00  0.00    -0.458 OA
BRANCH  37  38
ATOM     38  C   UNL A   1      39.559  21.370  26.394  1.00  0.00     0.338 C 
ATOM     39  O   UNL A   1      40.308  20.418  26.203  1.00  0.00    -0.246 OA
BRANCH  38  40
ATOM     40  C   UNL A   1      40.001  22.625  27.039  1.00  0.00     0.060 A 
ATOM     41  C   UNL A   1      39.349  23.802  26.699  1.00  0.00     0.016 A 
ATOM     42  C   UNL A   1      41.127  22.695  27.852  1.00  0.00     0.016 A 
ATOM     43  C   UNL A   1      39.837  25.048  27.061  1.00  0.00     0.010 A 
ATOM     44  C   UNL A   1      41.590  23.948  28.293  1.00  0.00     0.010 A 
ATOM     45  C   UNL A   1      40.976  25.140  27.857  1.00  0.00    -0.014 A 
BRANCH  45  46
ATOM     46  C   UNL A   1      41.596  26.480  28.055  1.00  0.00     0.031 A 
ATOM     47  C   UNL A   1      42.856  26.813  27.300  1.00  0.00     0.074 A 
ATOM     48  C   UNL A   1      40.969  27.452  28.747  1.00  0.00     0.049 A 
ATOM     49  N   UNL A   1      43.638  27.855  27.409  1.00  0.00    -0.248 NA
ATOM     50  C   UNL A   1      43.281  25.846  26.274  1.00  0.00     0.031 C 
ATOM     51  C   UNL A   1      39.653  27.334  29.378  1.00  0.00     0.029 A 
ATOM     52  N   UNL A   1      41.331  28.756  28.983  1.00  0.00    -0.354 N 
ATOM     53  C   UNL A   1      44.686  27.630  26.524  1.00  0.00     0.074 A 
ATOM     54  C   UNL A   1      44.426  26.371  25.864  1.00  0.00     0.031 C 
ATOM     55  C   UNL A   1      39.286  28.533  29.858  1.00  0.00     0.029 A 
ATOM     56  C   UNL A   1      40.384  29.477  29.672  1.00  0.00     0.049 A 
ATOM     57  H   UNL A   1      42.188  29.140  28.686  1.00  0.00     0.167 HD
ATOM     58  C   UNL A   1      45.781  28.395  26.303  1.00  0.00     0.031 A 
ATOM     59  C   UNL A   1      40.414  30.741  30.136  1.00  0.00     0.031 A 
ATOM     60  C   UNL A   1      46.015  29.661  26.941  1.00  0.00     0.049 A 
ATOM     61  C   UNL A   1      41.671  31.545  29.948  1.00  0.00     0.074 A 
ATOM     62  C   UNL A   1      47.138  30.467  26.893  1.00  0.00     0.029 A 
ATOM     63  N   UNL A   1      45.081  30.318  27.727  1.00  0.00    -0.354 N 
ATOM     64  N   UNL A   1      42.751  31.244  29.267  1.00  0.00    -0.248 NA
ATOM     65  C   UNL A   1      41.731  32.847  30.628  1.00  0.00     0.031 C 
ATOM     66  C   UNL A   1      46.892  31.602  27.677  1.00  0.00     0.029 A 
ATOM     67  C   UNL A   1      45.599  31.521  28.172  1.00  0.00     0.049 A 
ATOM     68  H   UNL A   1      44.181  29.980  27.937  1.00  0.00     0.167 HD
ATOM     69  C   UNL A   1      43.619  32.314  29.440  1.00  0.00     0.074 A 
ATOM     70  C   UNL A   1      42.923  33.289  30.256  1.00  0.00     0.031 C 
ATOM     71  C   UNL A   1      44.887  32.470  28.986  1.00  0.00     0.031 A 
BRANCH  58  72
ATOM     72  C   UNL A   1      46.843  27.811  25.415  1.00  0.00    -0.014 A 
ATOM     73  C   UNL A   1      46.888  28.069  24.037  1.00  0.00     0.009 A 
ATOM     74  C   UNL A   1      47.792  26.940  25.976  1.00  0.00     0.009 A 
ATOM     75  C   UNL A   1      47.836  27.429  23.233  1.00  0.00     0.001 A 
ATOM     76  C   UNL A   1      48.752  26.323  25.175  1.00  0.00     0.001 A 
ATOM     77  C   UNL A   1      48.766  26.558  23.801  1.00  0.00     0.000 A 
ENDBRANCH  58  72
BRANCH  59  78
ATOM     78  C   UNL A   1      39.264  31.299  30.903  1.00  0.00    -0.014 A 
ATOM     79  C   UNL A   1      39.164  31.114  32.291  1.00  0.00     0.009 A 
ATOM     80  C   UNL A   1      38.237  31.994  30.243  1.00  0.00     0.009 A 
ATOM     81  C   UNL A   1      38.054  31.596  32.994  1.00  0.00     0.001 A 
ATOM     82  C   UNL A   1      37.149  32.506  30.951  1.00  0.00     0.001 A 
ATOM     83  C   UNL A   1      37.053  32.297  32.325  1.00  0.00     0.000 A 
ENDBRANCH  59  78
BRANCH  71  84
ATOM     84  C   UNL A   1      45.582  33.748  29.349  1.00  0.00    -0.014 A 
ATOM     85  C   UNL A   1      45.484  34.885  28.531  1.00  0.00     0.009 A 
ATOM     86  C   UNL A   1      46.331  33.821  30.534  1.00  0.00     0.009 A 
ATOM     87  C   UNL A   1      46.155  36.059  28.875  1.00  0.00     0.001 A 
ATOM     88  C   UNL A   1      46.980  35.005  30.886  1.00  0.00     0.001 A 
ATOM     89  C   UNL A   1      46.900  36.119  30.052  1.00  0.00     0.000 A 
ENDBRANCH  71  84
ENDBRANCH  45  46
ENDBRANCH  38  40
ENDBRANCH  37  38
ENDBRANCH  36  37
ENDBRANCH   1  36
TORSDOF 19
ENDMDL
