MODEL 1
REMARK VINA RESULT:     -11.4      0.000      0.000
REMARK SMILES COc1ccc([C@H]2CC(c3ccccc3)=NN2C(=O)CCCC(=O)OCCOC(=O)c2ccc(-c3c4nc(c(-c5ccccc5)c5ccc([nH]5)c(-c5ccccc5)c5nc(c(-c6ccccc6)c6ccc3[nH]6)C=C5)C=C4)cc2)cc1
REMARK SMILES IDX 23 1 24 2 22 3 21 4 20 5 18 6 19 7 17 8 7 9 8 10 9 11 16 12
REMARK SMILES IDX 6 13 3 14 4 15 80 16 5 17 79 18 2 19 1 20 10 21 11 22 15 23
REMARK SMILES IDX 12 24 14 25 13 26 25 27 26 28 27 29 28 30 29 31 30 32 31 33
REMARK SMILES IDX 32 34 78 35 33 36 77 37 34 38 35 39 36 40 71 41 37 42 76 43
REMARK SMILES IDX 70 44 72 45 38 46 75 47 69 48 68 49 39 51 61 52 46 53 60 54
REMARK SMILES IDX 47 55 50 56 59 57 73 58 48 59 49 60 58 62 74 63 51 64 40 65
REMARK SMILES IDX 41 66 45 67 42 68 44 69 43 70 62 71 63 72 67 73 64 74 66 75
REMARK SMILES IDX 65 76 52 77 53 78 57 79 54 80 56 81 55 82
REMARK H PARENT 72 50 50 61
REMARK Flexibility Score: inf
ROOT
ATOM      1  C   UNL A   1      39.420  20.966  26.058  1.00  0.00     0.305 C 
ATOM      2  O   UNL A   1      39.676  21.837  26.879  1.00  0.00    -0.252 OA
ENDROOT
BRANCH   1   3
ATOM      3  C   UNL A   1      38.216  21.010  25.153  1.00  0.00     0.123 C 
BRANCH   3   4
ATOM      4  C   UNL A   1      37.150  22.030  25.535  1.00  0.00     0.022 C 
BRANCH   4   5
ATOM      5  C   UNL A   1      37.142  23.331  24.734  1.00  0.00     0.103 C 
BRANCH   5   6
ATOM      6  C   UNL A   1      36.173  23.397  23.564  1.00  0.00     0.243 C 
ATOM      7  O   UNL A   1      36.508  22.948  22.465  1.00  0.00    -0.273 OA
BRANCH   6   8
ATOM      8  N   UNL A   1      34.884  23.800  23.867  1.00  0.00    -0.225 N 
ATOM      9  C   UNL A   1      33.620  23.338  23.282  1.00  0.00     0.147 C 
ATOM     10  C   UNL A   1      32.570  24.276  23.863  1.00  0.00     0.091 C 
ATOM     11  C   UNL A   1      33.452  25.169  24.687  1.00  0.00     0.071 C 
ATOM     12  N   UNL A   1      34.714  24.872  24.707  1.00  0.00    -0.174 NA
BRANCH   9  13
ATOM     13  C   UNL A   1      33.328  21.879  23.585  1.00  0.00    -0.023 A 
ATOM     14  C   UNL A   1      32.563  19.275  24.369  1.00  0.00     0.118 A 
ATOM     15  C   UNL A   1      33.387  20.041  25.181  1.00  0.00     0.047 A 
ATOM     16  C   UNL A   1      32.153  19.794  23.143  1.00  0.00     0.047 A 
ATOM     17  C   UNL A   1      33.811  21.308  24.768  1.00  0.00     0.010 A 
ATOM     18  C   UNL A   1      32.534  21.081  22.749  1.00  0.00     0.010 A 
BRANCH  14  19
ATOM     19  O   UNL A   1      32.026  18.074  24.729  1.00  0.00    -0.497 OA
ATOM     20  C   UNL A   1      32.699  17.347  25.754  1.00  0.00     0.278 C 
ENDBRANCH  14  19
ENDBRANCH   9  13
BRANCH  11  21
ATOM     21  C   UNL A   1      32.906  26.358  25.353  1.00  0.00    -0.002 A 
ATOM     22  C   UNL A   1      31.828  26.192  26.229  1.00  0.00     0.010 A 
ATOM     23  C   UNL A   1      33.453  27.622  25.129  1.00  0.00     0.010 A 
ATOM     24  C   UNL A   1      31.294  27.299  26.886  1.00  0.00     0.001 A 
ATOM     25  C   UNL A   1      32.900  28.729  25.775  1.00  0.00     0.001 A 
ATOM     26  C   UNL A   1      31.826  28.567  26.654  1.00  0.00     0.000 A 
ENDBRANCH  11  21
ENDBRANCH   6   8
ENDBRANCH   5   6
ENDBRANCH   4   5
ENDBRANCH   3   4
ENDBRANCH   1   3
BRANCH   1  27
ATOM     27  O   UNL A   1      40.172  19.855  25.858  1.00  0.00    -0.462 OA
BRANCH  27  28
ATOM     28  C   UNL A   1      41.393  19.818  26.619  1.00  0.00     0.274 C 
BRANCH  28  29
ATOM     29  C   UNL A   1      42.591  20.246  25.769  1.00  0.00     0.275 C 
BRANCH  29  30
ATOM     30  O   UNL A   1      43.229  21.435  26.285  1.00  0.00    -0.458 OA
BRANCH  30  31
ATOM     31  C   UNL A   1      43.110  22.545  25.514  1.00  0.00     0.338 C 
ATOM     32  O   UNL A   1      43.357  22.629  24.323  1.00  0.00    -0.246 OA
BRANCH  31  33
ATOM     33  C   UNL A   1      42.648  23.711  26.302  1.00  0.00     0.060 A 
ATOM     34  C   UNL A   1      42.902  25.020  25.901  1.00  0.00     0.016 A 
ATOM     35  C   UNL A   1      42.049  23.485  27.543  1.00  0.00     0.016 A 
ATOM     36  C   UNL A   1      42.641  26.085  26.779  1.00  0.00     0.010 A 
ATOM     37  C   UNL A   1      41.706  24.562  28.373  1.00  0.00     0.010 A 
ATOM     38  C   UNL A   1      42.035  25.886  28.032  1.00  0.00    -0.014 A 
BRANCH  38  39
ATOM     39  C   UNL A   1      41.762  27.005  29.004  1.00  0.00     0.031 A 
ATOM     40  C   UNL A   1      42.631  27.188  30.236  1.00  0.00     0.074 A 
ATOM     41  C   UNL A   1      40.734  27.869  28.849  1.00  0.00     0.049 A 
ATOM     42  N   UNL A   1      42.372  27.835  31.348  1.00  0.00    -0.248 NA
ATOM     43  C   UNL A   1      43.958  26.551  30.217  1.00  0.00     0.031 C 
ATOM     44  C   UNL A   1      39.827  27.939  27.705  1.00  0.00     0.029 A 
ATOM     45  N   UNL A   1      40.275  28.866  29.687  1.00  0.00    -0.354 N 
ATOM     46  C   UNL A   1      43.454  27.600  32.193  1.00  0.00     0.074 A 
ATOM     47  C   UNL A   1      44.388  26.776  31.452  1.00  0.00     0.031 C 
ATOM     48  C   UNL A   1      38.962  28.946  27.884  1.00  0.00     0.029 A 
ATOM     49  C   UNL A   1      39.153  29.507  29.215  1.00  0.00     0.049 A 
ATOM     50  H   UNL A   1      40.709  29.095  30.539  1.00  0.00     0.167 HD
ATOM     51  C   UNL A   1      43.648  28.014  33.470  1.00  0.00     0.031 A 
ATOM     52  C   UNL A   1      38.308  30.382  29.796  1.00  0.00     0.031 A 
ATOM     53  C   UNL A   1      42.775  28.905  34.192  1.00  0.00     0.049 A 
ATOM     54  C   UNL A   1      38.487  30.767  31.235  1.00  0.00     0.074 A 
ATOM     55  C   UNL A   1      42.924  29.404  35.478  1.00  0.00     0.029 A 
ATOM     56  N   UNL A   1      41.606  29.449  33.691  1.00  0.00    -0.354 N 
ATOM     57  N   UNL A   1      39.445  30.437  32.064  1.00  0.00    -0.248 NA
ATOM     58  C   UNL A   1      37.438  31.609  31.831  1.00  0.00     0.031 C 
ATOM     59  C   UNL A   1      41.822  30.214  35.768  1.00  0.00     0.029 A 
ATOM     60  C   UNL A   1      41.011  30.256  34.648  1.00  0.00     0.049 A 
ATOM     61  H   UNL A   1      41.250  29.285  32.787  1.00  0.00     0.167 HD
ATOM     62  C   UNL A   1      39.114  31.029  33.276  1.00  0.00     0.074 A 
ATOM     63  C   UNL A   1      37.880  31.757  33.072  1.00  0.00     0.031 C 
ATOM     64  C   UNL A   1      39.777  30.966  34.455  1.00  0.00     0.031 A 
BRANCH  51  65
ATOM     65  C   UNL A   1      44.834  27.466  34.218  1.00  0.00    -0.014 A 
ATOM     66  C   UNL A   1      44.780  26.249  34.912  1.00  0.00     0.009 A 
ATOM     67  C   UNL A   1      46.058  28.153  34.145  1.00  0.00     0.009 A 
ATOM     68  C   UNL A   1      45.924  25.747  35.540  1.00  0.00     0.001 A 
ATOM     69  C   UNL A   1      47.204  27.636  34.750  1.00  0.00     0.001 A 
ATOM     70  C   UNL A   1      47.135  26.435  35.453  1.00  0.00     0.000 A 
ENDBRANCH  51  65
BRANCH  52  71
ATOM     71  C   UNL A   1      37.131  30.879  29.034  1.00  0.00    -0.014 A 
ATOM     72  C   UNL A   1      36.084  30.010  28.695  1.00  0.00     0.009 A 
ATOM     73  C   UNL A   1      37.045  32.229  28.659  1.00  0.00     0.009 A 
ATOM     74  C   UNL A   1      34.973  30.487  27.995  1.00  0.00     0.001 A 
ATOM     75  C   UNL A   1      35.920  32.709  27.990  1.00  0.00     0.001 A 
ATOM     76  C   UNL A   1      34.886  31.837  27.656  1.00  0.00     0.000 A 
ENDBRANCH  52  71
BRANCH  64  77
ATOM     77  C   UNL A   1      39.192  31.717  35.615  1.00  0.00    -0.014 A 
ATOM     78  C   UNL A   1      38.221  31.131  36.441  1.00  0.00     0.009 A 
ATOM     79  C   UNL A   1      39.630  33.021  35.898  1.00  0.00     0.009 A 
ATOM     80  C   UNL A   1      37.681  31.845  37.514  1.00  0.00     0.001 A 
ATOM     81  C   UNL A   1      39.103  33.725  36.982  1.00  0.00     0.001 A 
ATOM     82  C   UNL A   1      38.123  33.139  37.784  1.00  0.00     0.000 A 
ENDBRANCH  64  77
ENDBRANCH  38  39
ENDBRANCH  31  33
ENDBRANCH  30  31
ENDBRANCH  29  30
ENDBRANCH  28  29
ENDBRANCH  27  28
ENDBRANCH   1  27
TORSDOF 18
ENDMDL
MODEL 2
REMARK VINA RESULT:     -11.1      2.482      3.511
REMARK SMILES COc1ccc([C@H]2CC(c3ccccc3)=NN2C(=O)CCCC(=O)OCCOC(=O)c2ccc(-c3c4nc(c(-c5ccccc5)c5ccc([nH]5)c(-c5ccccc5)c5nc(c(-c6ccccc6)c6ccc3[nH]6)C=C5)C=C4)cc2)cc1
REMARK SMILES IDX 23 1 24 2 22 3 21 4 20 5 18 6 19 7 17 8 7 9 8 10 9 11 16 12
REMARK SMILES IDX 6 13 3 14 4 15 80 16 5 17 79 18 2 19 1 20 10 21 11 22 15 23
REMARK SMILES IDX 12 24 14 25 13 26 25 27 26 28 27 29 28 30 29 31 30 32 31 33
REMARK SMILES IDX 32 34 78 35 33 36 77 37 34 38 35 39 36 40 71 41 37 42 76 43
REMARK SMILES IDX 70 44 72 45 38 46 75 47 69 48 68 49 39 51 61 52 46 53 60 54
REMARK SMILES IDX 47 55 50 56 59 57 73 58 48 59 49 60 58 62 74 63 51 64 40 65
REMARK SMILES IDX 41 66 45 67 42 68 44 69 43 70 62 71 63 72 67 73 64 74 66 75
REMARK SMILES IDX 65 76 52 77 53 78 57 79 54 80 56 81 55 82
REMARK H PARENT 72 50 50 61
REMARK Flexibility Score: inf
ROOT
ATOM      1  C   UNL A   1      34.819  22.681  26.215  1.00  0.00     0.305 C 
ATOM      2  O   UNL A   1      34.603  21.650  26.841  1.00  0.00    -0.252 OA
ENDROOT
BRANCH   1   3
ATOM      3  C   UNL A   1      33.901  23.875  26.247  1.00  0.00     0.123 C 
BRANCH   3   4
ATOM      4  C   UNL A   1      34.478  25.157  25.658  1.00  0.00     0.022 C 
BRANCH   4   5
ATOM      5  C   UNL A   1      33.720  26.445  25.971  1.00  0.00     0.103 C 
BRANCH   5   6
ATOM      6  C   UNL A   1      33.668  27.484  24.861  1.00  0.00     0.243 C 
ATOM      7  O   UNL A   1      34.670  28.156  24.604  1.00  0.00    -0.273 OA
BRANCH   6   8
ATOM      8  N   UNL A   1      32.528  27.475  24.076  1.00  0.00    -0.225 N 
ATOM      9  C   UNL A   1      32.307  26.792  22.796  1.00  0.00     0.147 C 
ATOM     10  C   UNL A   1      30.954  27.310  22.322  1.00  0.00     0.091 C 
ATOM     11  C   UNL A   1      30.638  28.262  23.439  1.00  0.00     0.071 C 
ATOM     12  N   UNL A   1      31.495  28.313  24.411  1.00  0.00    -0.174 NA
BRANCH   9  13
ATOM     13  C   UNL A   1      32.338  25.279  22.920  1.00  0.00    -0.023 A 
ATOM     14  C   UNL A   1      32.159  22.460  22.922  1.00  0.00     0.118 A 
ATOM     15  C   UNL A   1      31.194  23.227  23.561  1.00  0.00     0.047 A 
ATOM     16  C   UNL A   1      33.237  23.099  22.317  1.00  0.00     0.047 A 
ATOM     17  C   UNL A   1      31.312  24.620  23.608  1.00  0.00     0.010 A 
ATOM     18  C   UNL A   1      33.332  24.495  22.317  1.00  0.00     0.010 A 
BRANCH  14  19
ATOM     19  O   UNL A   1      32.077  21.110  22.746  1.00  0.00    -0.497 OA
ATOM     20  C   UNL A   1      32.385  20.291  23.872  1.00  0.00     0.278 C 
ENDBRANCH  14  19
ENDBRANCH   9  13
BRANCH  11  21
ATOM     21  C   UNL A   1      29.463  29.138  23.371  1.00  0.00    -0.002 A 
ATOM     22  C   UNL A   1      29.637  30.504  23.619  1.00  0.00     0.010 A 
ATOM     23  C   UNL A   1      28.203  28.627  23.056  1.00  0.00     0.010 A 
ATOM     24  C   UNL A   1      28.543  31.364  23.551  1.00  0.00     0.001 A 
ATOM     25  C   UNL A   1      27.107  29.492  23.010  1.00  0.00     0.001 A 
ATOM     26  C   UNL A   1      27.278  30.857  23.253  1.00  0.00     0.000 A 
ENDBRANCH  11  21
ENDBRANCH   6   8
ENDBRANCH   5   6
ENDBRANCH   4   5
ENDBRANCH   3   4
ENDBRANCH   1   3
BRANCH   1  27
ATOM     27  O   UNL A   1      35.896  22.882  25.416  1.00  0.00    -0.462 OA
BRANCH  27  28
ATOM     28  C   UNL A   1      36.512  21.674  24.931  1.00  0.00     0.274 C 
BRANCH  28  29
ATOM     29  C   UNL A   1      38.032  21.722  25.093  1.00  0.00     0.275 C 
BRANCH  29  30
ATOM     30  O   UNL A   1      38.429  22.329  26.343  1.00  0.00    -0.458 OA
BRANCH  30  31
ATOM     31  C   UNL A   1      39.681  22.850  26.368  1.00  0.00     0.338 C 
ATOM     32  O   UNL A   1      40.704  22.296  26.004  1.00  0.00    -0.246 OA
BRANCH  31  33
ATOM     33  C   UNL A   1      39.691  24.221  26.930  1.00  0.00     0.060 A 
ATOM     34  C   UNL A   1      40.409  25.256  26.337  1.00  0.00     0.016 A 
ATOM     35  C   UNL A   1      39.063  24.446  28.156  1.00  0.00     0.016 A 
ATOM     36  C   UNL A   1      40.570  26.476  27.016  1.00  0.00     0.010 A 
ATOM     37  C   UNL A   1      39.151  25.698  28.781  1.00  0.00     0.010 A 
ATOM     38  C   UNL A   1      39.945  26.730  28.249  1.00  0.00    -0.014 A 
BRANCH  38  39
ATOM     39  C   UNL A   1      40.115  28.019  29.011  1.00  0.00     0.031 A 
ATOM     40  C   UNL A   1      41.293  28.213  29.949  1.00  0.00     0.074 A 
ATOM     41  C   UNL A   1      39.231  29.039  28.922  1.00  0.00     0.049 A 
ATOM     42  N   UNL A   1      41.439  29.066  30.937  1.00  0.00    -0.248 NA
ATOM     43  C   UNL A   1      42.451  27.325  29.758  1.00  0.00     0.031 C 
ATOM     44  C   UNL A   1      38.080  29.111  28.025  1.00  0.00     0.029 A 
ATOM     45  N   UNL A   1      39.170  30.227  29.623  1.00  0.00    -0.354 N 
ATOM     46  C   UNL A   1      42.652  28.751  31.542  1.00  0.00     0.074 A 
ATOM     47  C   UNL A   1      43.218  27.649  30.792  1.00  0.00     0.031 C 
ATOM     48  C   UNL A   1      37.461  30.289  28.188  1.00  0.00     0.029 A 
ATOM     49  C   UNL A   1      38.080  31.000  29.299  1.00  0.00     0.049 A 
ATOM     50  H   UNL A   1      39.842  30.494  30.290  1.00  0.00     0.167 HD
ATOM     51  C   UNL A   1      43.235  29.312  32.632  1.00  0.00     0.031 A 
ATOM     52  C   UNL A   1      37.565  32.109  29.868  1.00  0.00     0.031 A 
ATOM     53  C   UNL A   1      42.733  30.463  33.337  1.00  0.00     0.049 A 
ATOM     54  C   UNL A   1      38.171  32.670  31.120  1.00  0.00     0.074 A 
ATOM     55  C   UNL A   1      43.290  31.117  34.427  1.00  0.00     0.029 A 
ATOM     56  N   UNL A   1      41.575  31.148  33.016  1.00  0.00    -0.354 N 
ATOM     57  N   UNL A   1      39.248  32.286  31.758  1.00  0.00    -0.248 NA
ATOM     58  C   UNL A   1      37.460  33.791  31.755  1.00  0.00     0.031 C 
ATOM     59  C   UNL A   1      42.443  32.169  34.791  1.00  0.00     0.029 A 
ATOM     60  C   UNL A   1      41.386  32.199  33.900  1.00  0.00     0.049 A 
ATOM     61  H   UNL A   1      40.974  30.921  32.270  1.00  0.00     0.167 HD
ATOM     62  C   UNL A   1      39.343  33.116  32.868  1.00  0.00     0.074 A 
ATOM     63  C   UNL A   1      38.229  34.038  32.807  1.00  0.00     0.031 C 
ATOM     64  C   UNL A   1      40.272  33.106  33.853  1.00  0.00     0.031 A 
BRANCH  51  65
ATOM     65  C   UNL A   1      44.474  28.658  33.185  1.00  0.00    -0.014 A 
ATOM     66  C   UNL A   1      45.762  29.093  32.844  1.00  0.00     0.009 A 
ATOM     67  C   UNL A   1      44.331  27.636  34.139  1.00  0.00     0.009 A 
ATOM     68  C   UNL A   1      46.883  28.499  33.430  1.00  0.00     0.001 A 
ATOM     69  C   UNL A   1      45.452  27.063  34.742  1.00  0.00     0.001 A 
ATOM     70  C   UNL A   1      46.728  27.490  34.382  1.00  0.00     0.000 A 
ENDBRANCH  51  65
BRANCH  52  71
ATOM     71  C   UNL A   1      36.324  32.708  29.309  1.00  0.00    -0.014 A 
ATOM     72  C   UNL A   1      36.390  33.821  28.458  1.00  0.00     0.009 A 
ATOM     73  C   UNL A   1      35.068  32.158  29.614  1.00  0.00     0.009 A 
ATOM     74  C   UNL A   1      35.222  34.367  27.922  1.00  0.00     0.001 A 
ATOM     75  C   UNL A   1      33.907  32.685  29.051  1.00  0.00     0.001 A 
ATOM     76  C   UNL A   1      33.984  33.792  28.208  1.00  0.00     0.000 A 
ENDBRANCH  52  71
BRANCH  64  77
ATOM     77  C   UNL A   1      40.136  34.133  34.939  1.00  0.00    -0.014 A 
ATOM     78  C   UNL A   1      39.466  33.836  36.136  1.00  0.00     0.009 A 
ATOM     79  C   UNL A   1      40.701  35.407  34.773  1.00  0.00     0.009 A 
ATOM     80  C   UNL A   1      39.342  34.804  37.135  1.00  0.00     0.001 A 
ATOM     81  C   UNL A   1      40.593  36.366  35.781  1.00  0.00     0.001 A 
ATOM     82  C   UNL A   1      39.907  36.066  36.958  1.00  0.00     0.000 A 
ENDBRANCH  64  77
ENDBRANCH  38  39
ENDBRANCH  31  33
ENDBRANCH  30  31
ENDBRANCH  29  30
ENDBRANCH  28  29
ENDBRANCH  27  28
ENDBRANCH   1  27
TORSDOF 18
ENDMDL
MODEL 3
REMARK VINA RESULT:     -10.9      4.776      9.664
REMARK SMILES COc1ccc([C@H]2CC(c3ccccc3)=NN2C(=O)CCCC(=O)OCCOC(=O)c2ccc(-c3c4nc(c(-c5ccccc5)c5ccc([nH]5)c(-c5ccccc5)c5nc(c(-c6ccccc6)c6ccc3[nH]6)C=C5)C=C4)cc2)cc1
REMARK SMILES IDX 23 1 24 2 22 3 21 4 20 5 18 6 19 7 17 8 7 9 8 10 9 11 16 12
REMARK SMILES IDX 6 13 3 14 4 15 80 16 5 17 79 18 2 19 1 20 10 21 11 22 15 23
REMARK SMILES IDX 12 24 14 25 13 26 25 27 26 28 27 29 28 30 29 31 30 32 31 33
REMARK SMILES IDX 32 34 78 35 33 36 77 37 34 38 35 39 36 40 71 41 37 42 76 43
REMARK SMILES IDX 70 44 72 45 38 46 75 47 69 48 68 49 39 51 61 52 46 53 60 54
REMARK SMILES IDX 47 55 50 56 59 57 73 58 48 59 49 60 58 62 74 63 51 64 40 65
REMARK SMILES IDX 41 66 45 67 42 68 44 69 43 70 62 71 63 72 67 73 64 74 66 75
REMARK SMILES IDX 65 76 52 77 53 78 57 79 54 80 56 81 55 82
REMARK H PARENT 72 50 50 61
REMARK Flexibility Score: inf
ROOT
ATOM      1  C   UNL A   1      33.199  31.459  27.224  1.00  0.00     0.305 C 
ATOM      2  O   UNL A   1      32.034  31.535  26.854  1.00  0.00    -0.252 OA
ENDROOT
BRANCH   1   3
ATOM      3  C   UNL A   1      33.981  30.171  27.237  1.00  0.00     0.123 C 
BRANCH   3   4
ATOM      4  C   UNL A   1      33.550  29.136  26.203  1.00  0.00     0.022 C 
BRANCH   4   5
ATOM      5  C   UNL A   1      33.534  27.682  26.669  1.00  0.00     0.103 C 
BRANCH   5   6
ATOM      6  C   UNL A   1      32.166  27.031  26.803  1.00  0.00     0.243 C 
ATOM      7  O   UNL A   1      31.287  27.584  27.469  1.00  0.00    -0.273 OA
BRANCH   6   8
ATOM      8  N   UNL A   1      31.938  25.929  25.997  1.00  0.00    -0.225 N 
ATOM      9  C   UNL A   1      30.708  25.552  25.291  1.00  0.00     0.147 C 
ATOM     10  C   UNL A   1      30.999  24.159  24.746  1.00  0.00     0.091 C 
ATOM     11  C   UNL A   1      32.386  23.957  25.283  1.00  0.00     0.071 C 
ATOM     12  N   UNL A   1      32.900  24.952  25.937  1.00  0.00    -0.174 NA
BRANCH   9  13
ATOM     13  C   UNL A   1      30.330  26.537  24.198  1.00  0.00    -0.023 A 
ATOM     14  C   UNL A   1      29.565  28.583  22.408  1.00  0.00     0.118 A 
ATOM     15  C   UNL A   1      28.606  27.878  23.123  1.00  0.00     0.047 A 
ATOM     16  C   UNL A   1      30.905  28.238  22.556  1.00  0.00     0.047 A 
ATOM     17  C   UNL A   1      28.981  26.828  23.967  1.00  0.00     0.010 A 
ATOM     18  C   UNL A   1      31.288  27.222  23.438  1.00  0.00     0.010 A 
BRANCH  14  19
ATOM     19  O   UNL A   1      29.302  29.678  21.638  1.00  0.00    -0.497 OA
ATOM     20  C   UNL A   1      28.092  30.383  21.908  1.00  0.00     0.278 C 
ENDBRANCH  14  19
ENDBRANCH   9  13
BRANCH  11  21
ATOM     21  C   UNL A   1      33.068  22.666  25.139  1.00  0.00    -0.002 A 
ATOM     22  C   UNL A   1      34.265  22.623  24.417  1.00  0.00     0.010 A 
ATOM     23  C   UNL A   1      32.544  21.508  25.716  1.00  0.00     0.010 A 
ATOM     24  C   UNL A   1      34.943  21.415  24.272  1.00  0.00     0.001 A 
ATOM     25  C   UNL A   1      33.217  20.297  25.549  1.00  0.00     0.001 A 
ATOM     26  C   UNL A   1      34.415  20.251  24.832  1.00  0.00     0.000 A 
ENDBRANCH  11  21
ENDBRANCH   6   8
ENDBRANCH   5   6
ENDBRANCH   4   5
ENDBRANCH   3   4
ENDBRANCH   1   3
BRANCH   1  27
ATOM     27  O   UNL A   1      33.933  32.509  27.672  1.00  0.00    -0.462 OA
BRANCH  27  28
ATOM     28  C   UNL A   1      33.155  33.657  28.056  1.00  0.00     0.274 C 
BRANCH  28  29
ATOM     29  C   UNL A   1      33.636  34.233  29.389  1.00  0.00     0.275 C 
BRANCH  29  30
ATOM     30  O   UNL A   1      34.974  33.798  29.720  1.00  0.00    -0.458 OA
BRANCH  30  31
ATOM     31  C   UNL A   1      35.052  32.739  30.565  1.00  0.00     0.338 C 
ATOM     32  O   UNL A   1      34.282  32.480  31.475  1.00  0.00    -0.246 OA
BRANCH  31  33
ATOM     33  C   UNL A   1      36.233  31.894  30.276  1.00  0.00     0.060 A 
ATOM     34  C   UNL A   1      36.789  31.050  31.232  1.00  0.00     0.016 A 
ATOM     35  C   UNL A   1      36.879  32.045  29.047  1.00  0.00     0.016 A 
ATOM     36  C   UNL A   1      38.030  30.436  30.990  1.00  0.00     0.010 A 
ATOM     37  C   UNL A   1      38.069  31.354  28.779  1.00  0.00     0.010 A 
ATOM     38  C   UNL A   1      38.699  30.568  29.761  1.00  0.00    -0.014 A 
BRANCH  38  39
ATOM     39  C   UNL A   1      40.039  29.940  29.478  1.00  0.00     0.031 A 
ATOM     40  C   UNL A   1      41.309  30.773  29.525  1.00  0.00     0.074 A 
ATOM     41  C   UNL A   1      40.177  28.636  29.148  1.00  0.00     0.049 A 
ATOM     42  N   UNL A   1      42.482  30.532  28.988  1.00  0.00    -0.248 NA
ATOM     43  C   UNL A   1      41.244  32.045  30.261  1.00  0.00     0.031 C 
ATOM     44  C   UNL A   1      39.115  27.632  29.127  1.00  0.00     0.029 A 
ATOM     45  N   UNL A   1      41.296  27.932  28.752  1.00  0.00    -0.354 N 
ATOM     46  C   UNL A   1      43.258  31.660  29.235  1.00  0.00     0.074 A 
ATOM     47  C   UNL A   1      42.433  32.574  29.997  1.00  0.00     0.031 C 
ATOM     48  C   UNL A   1      39.634  26.442  28.793  1.00  0.00     0.029 A 
ATOM     49  C   UNL A   1      41.036  26.618  28.436  1.00  0.00     0.049 A 
ATOM     50  H   UNL A   1      42.194  28.331  28.702  1.00  0.00     0.167 HD
ATOM     51  C   UNL A   1      44.532  31.923  28.850  1.00  0.00     0.031 A 
ATOM     52  C   UNL A   1      41.791  25.670  27.846  1.00  0.00     0.031 A 
ATOM     53  C   UNL A   1      45.398  30.994  28.169  1.00  0.00     0.049 A 
ATOM     54  C   UNL A   1      43.169  25.999  27.351  1.00  0.00     0.074 A 
ATOM     55  C   UNL A   1      46.719  31.172  27.781  1.00  0.00     0.029 A 
ATOM     56  N   UNL A   1      45.047  29.710  27.795  1.00  0.00    -0.354 N 
ATOM     57  N   UNL A   1      43.847  27.111  27.477  1.00  0.00    -0.248 NA
ATOM     58  C   UNL A   1      43.866  24.950  26.589  1.00  0.00     0.031 C 
ATOM     59  C   UNL A   1      47.149  30.010  27.132  1.00  0.00     0.029 A 
ATOM     60  C   UNL A   1      46.112  29.094  27.159  1.00  0.00     0.049 A 
ATOM     61  H   UNL A   1      44.168  29.296  27.957  1.00  0.00     0.167 HD
ATOM     62  C   UNL A   1      45.047  26.897  26.811  1.00  0.00     0.074 A 
ATOM     63  C   UNL A   1      45.016  25.543  26.301  1.00  0.00     0.031 C 
ATOM     64  C   UNL A   1      46.079  27.755  26.635  1.00  0.00     0.031 A 
BRANCH  51  65
ATOM     65  C   UNL A   1      45.075  33.304  29.101  1.00  0.00    -0.014 A 
ATOM     66  C   UNL A   1      45.125  34.280  28.096  1.00  0.00     0.009 A 
ATOM     67  C   UNL A   1      45.465  33.652  30.406  1.00  0.00     0.009 A 
ATOM     68  C   UNL A   1      45.578  35.570  28.390  1.00  0.00     0.001 A 
ATOM     69  C   UNL A   1      45.892  34.948  30.701  1.00  0.00     0.001 A 
ATOM     70  C   UNL A   1      45.954  35.904  29.692  1.00  0.00     0.000 A 
ENDBRANCH  51  65
BRANCH  52  71
ATOM     71  C   UNL A   1      41.209  24.327  27.589  1.00  0.00    -0.014 A 
ATOM     72  C   UNL A   1      41.721  23.192  28.235  1.00  0.00     0.009 A 
ATOM     73  C   UNL A   1      40.126  24.177  26.706  1.00  0.00     0.009 A 
ATOM     74  C   UNL A   1      41.157  21.936  28.003  1.00  0.00     0.001 A 
ATOM     75  C   UNL A   1      39.545  22.926  26.503  1.00  0.00     0.001 A 
ATOM     76  C   UNL A   1      40.063  21.806  27.149  1.00  0.00     0.000 A 
ENDBRANCH  52  71
BRANCH  64  77
ATOM     77  C   UNL A   1      47.271  27.253  25.874  1.00  0.00    -0.014 A 
ATOM     78  C   UNL A   1      47.306  27.301  24.472  1.00  0.00     0.009 A 
ATOM     79  C   UNL A   1      48.381  26.742  26.566  1.00  0.00     0.009 A 
ATOM     80  C   UNL A   1      48.420  26.823  23.776  1.00  0.00     0.001 A 
ATOM     81  C   UNL A   1      49.500  26.284  25.869  1.00  0.00     0.001 A 
ATOM     82  C   UNL A   1      49.515  26.318  24.475  1.00  0.00     0.000 A 
ENDBRANCH  64  77
ENDBRANCH  38  39
ENDBRANCH  31  33
ENDBRANCH  30  31
ENDBRANCH  29  30
ENDBRANCH  28  29
ENDBRANCH  27  28
ENDBRANCH   1  27
TORSDOF 18
ENDMDL
