MODEL 1
REMARK VINA RESULT:     -11.4      0.000      0.000
REMARK SMILES CC(C)NC(=O)c1cccc(NC(=O)[C@@H]2[C@H](C(=O)OCCOC(=O)c3ccc(-c4c5nc(c(-c6ccccc6)c6ccc([nH]6)c(-c6ccccc6)c6nc(c(-c7ccccc7)c7ccc4[nH]7)C=C6)C=C5)cc3)C2(C)C)c1
REMARK SMILES IDX 20 1 19 2 17 3 18 4 16 5 15 6 73 7 74 8 75 9 13 10 12 11
REMARK SMILES IDX 14 13 11 14 7 15 8 16 76 17 9 18 10 19 5 20 4 21 6 23 2 24
REMARK SMILES IDX 1 25 3 26 21 27 22 28 23 29 24 30 25 31 26 32 72 33 27 34
REMARK SMILES IDX 71 35 28 36 29 37 30 38 65 39 31 40 70 41 64 42 66 43 32 44
REMARK SMILES IDX 69 45 63 46 62 47 33 49 55 50 40 51 54 52 41 53 44 54 53 55
REMARK SMILES IDX 67 56 42 57 43 58 52 60 68 61 45 62 34 63 35 64 39 65 36 66
REMARK SMILES IDX 38 67 37 68 56 69 57 70 61 71 58 72 60 73 59 74 46 75 47 76
REMARK SMILES IDX 51 77 48 78 50 79 49 80
REMARK H PARENT 12 12 4 22 66 48 44 59
REMARK Flexibility Score: inf
ROOT
ATOM      1  C   UNL A   1      34.935  20.693  25.378  1.00  0.00     0.274 C 
ENDROOT
BRANCH   1   2
ATOM      2  O   UNL A   1      33.873  20.573  26.349  1.00  0.00    -0.462 OA
BRANCH   2   3
ATOM      3  C   UNL A   1      33.116  21.696  26.519  1.00  0.00     0.310 C 
ATOM      4  O   UNL A   1      33.070  22.349  27.543  1.00  0.00    -0.252 OA
BRANCH   3   5
ATOM      5  C   UNL A   1      32.375  22.049  25.271  1.00  0.00     0.118 C 
ATOM      6  C   UNL A   1      31.241  23.075  25.207  1.00  0.00     0.100 C 
ATOM      7  C   UNL A   1      32.590  23.377  24.554  1.00  0.00    -0.009 C 
ATOM      8  C   UNL A   1      32.636  23.337  23.038  1.00  0.00     0.013 C 
ATOM      9  C   UNL A   1      33.540  24.386  25.135  1.00  0.00     0.013 C 
BRANCH   6  10
ATOM     10  C   UNL A   1      30.635  23.588  26.468  1.00  0.00     0.228 C 
ATOM     11  N   UNL A   1      30.497  24.923  26.772  1.00  0.00    -0.326 N 
ATOM     12  H   UNL A   1      30.036  25.068  27.630  1.00  0.00     0.169 HD
ATOM     13  O   UNL A   1      30.052  22.793  27.205  1.00  0.00    -0.274 OA
BRANCH  11  14
ATOM     14  C   UNL A   1      30.860  26.129  26.149  1.00  0.00     0.041 A 
ATOM     15  C   UNL A   1      30.653  27.576  24.200  1.00  0.00     0.041 A 
ATOM     16  C   UNL A   1      31.319  28.600  24.872  1.00  0.00     0.014 A 
ATOM     17  C   UNL A   1      30.400  26.352  24.847  1.00  0.00     0.040 A 
ATOM     18  C   UNL A   1      31.831  28.359  26.135  1.00  0.00     0.003 A 
ATOM     19  C   UNL A   1      31.648  27.110  26.729  1.00  0.00     0.026 A 
BRANCH  15  20
ATOM     20  C   UNL A   1      30.399  27.769  22.755  1.00  0.00     0.251 C 
ATOM     21  N   UNL A   1      31.398  27.572  21.844  1.00  0.00    -0.350 N 
ATOM     22  H   UNL A   1      31.429  28.187  21.076  1.00  0.00     0.164 HD
ATOM     23  O   UNL A   1      29.301  28.162  22.373  1.00  0.00    -0.269 OA
BRANCH  21  24
ATOM     24  C   UNL A   1      32.415  26.542  21.907  1.00  0.00     0.076 C 
ATOM     25  C   UNL A   1      32.404  25.830  20.567  1.00  0.00     0.030 C 
ATOM     26  C   UNL A   1      33.766  27.157  22.244  1.00  0.00     0.030 C 
ENDBRANCH  21  24
ENDBRANCH  15  20
ENDBRANCH  11  14
ENDBRANCH   6  10
ENDBRANCH   3   5
ENDBRANCH   2   3
ENDBRANCH   1   2
BRANCH   1  27
ATOM     27  C   UNL A   1      36.075  21.593  25.856  1.00  0.00     0.275 C 
BRANCH  27  28
ATOM     28  O   UNL A   1      37.229  21.471  25.000  1.00  0.00    -0.458 OA
BRANCH  28  29
ATOM     29  C   UNL A   1      38.398  21.266  25.645  1.00  0.00     0.338 C 
ATOM     30  O   UNL A   1      39.038  20.225  25.688  1.00  0.00    -0.246 OA
BRANCH  29  31
ATOM     31  C   UNL A   1      38.889  22.485  26.318  1.00  0.00     0.060 A 
ATOM     32  C   UNL A   1      38.349  23.735  26.017  1.00  0.00     0.016 A 
ATOM     33  C   UNL A   1      40.085  22.402  27.030  1.00  0.00     0.016 A 
ATOM     34  C   UNL A   1      39.089  24.891  26.271  1.00  0.00     0.010 A 
ATOM     35  C   UNL A   1      40.742  23.570  27.424  1.00  0.00     0.010 A 
ATOM     36  C   UNL A   1      40.282  24.829  27.004  1.00  0.00    -0.014 A 
BRANCH  36  37
ATOM     37  C   UNL A   1      41.031  26.067  27.375  1.00  0.00     0.031 A 
ATOM     38  C   UNL A   1      40.482  27.017  28.416  1.00  0.00     0.074 A 
ATOM     39  C   UNL A   1      42.172  26.359  26.714  1.00  0.00     0.049 A 
ATOM     40  N   UNL A   1      40.941  28.184  28.793  1.00  0.00    -0.248 NA
ATOM     41  C   UNL A   1      39.245  26.617  29.112  1.00  0.00     0.031 C 
ATOM     42  C   UNL A   1      42.828  25.478  25.746  1.00  0.00     0.029 A 
ATOM     43  N   UNL A   1      43.007  27.450  26.771  1.00  0.00    -0.354 N 
ATOM     44  C   UNL A   1      39.998  28.701  29.678  1.00  0.00     0.074 A 
ATOM     45  C   UNL A   1      38.957  27.707  29.811  1.00  0.00     0.031 C 
ATOM     46  C   UNL A   1      44.005  26.006  25.385  1.00  0.00     0.029 A 
ATOM     47  C   UNL A   1      44.155  27.310  26.015  1.00  0.00     0.049 A 
ATOM     48  H   UNL A   1      42.806  28.256  27.300  1.00  0.00     0.167 HD
ATOM     49  C   UNL A   1      39.992  29.910  30.294  1.00  0.00     0.031 A 
ATOM     50  C   UNL A   1      45.247  28.101  25.920  1.00  0.00     0.031 A 
ATOM     51  C   UNL A   1      41.071  30.859  30.195  1.00  0.00     0.049 A 
ATOM     52  C   UNL A   1      45.264  29.367  26.740  1.00  0.00     0.074 A 
ATOM     53  C   UNL A   1      41.177  32.114  30.769  1.00  0.00     0.029 A 
ATOM     54  N   UNL A   1      42.244  30.643  29.486  1.00  0.00    -0.354 N 
ATOM     55  N   UNL A   1      44.385  29.804  27.611  1.00  0.00    -0.248 NA
ATOM     56  C   UNL A   1      46.456  30.214  26.607  1.00  0.00     0.031 C 
ATOM     57  C   UNL A   1      42.385  32.684  30.355  1.00  0.00     0.029 A 
ATOM     58  C   UNL A   1      43.063  31.756  29.578  1.00  0.00     0.049 A 
ATOM     59  H   UNL A   1      42.462  29.822  28.990  1.00  0.00     0.167 HD
ATOM     60  C   UNL A   1      44.924  30.972  28.134  1.00  0.00     0.074 A 
ATOM     61  C   UNL A   1      46.243  31.117  27.553  1.00  0.00     0.031 C 
ATOM     62  C   UNL A   1      44.368  31.874  28.981  1.00  0.00     0.031 A 
BRANCH  49  63
ATOM     63  C   UNL A   1      38.753  30.322  31.051  1.00  0.00    -0.014 A 
ATOM     64  C   UNL A   1      38.581  30.068  32.419  1.00  0.00     0.009 A 
ATOM     65  C   UNL A   1      37.751  31.036  30.369  1.00  0.00     0.009 A 
ATOM     66  C   UNL A   1      37.419  30.490  33.077  1.00  0.00     0.001 A 
ATOM     67  C   UNL A   1      36.608  31.483  31.034  1.00  0.00     0.001 A 
ATOM     68  C   UNL A   1      36.438  31.202  32.387  1.00  0.00     0.000 A 
ENDBRANCH  49  63
BRANCH  50  69
ATOM     69  C   UNL A   1      46.501  27.579  25.281  1.00  0.00    -0.014 A 
ATOM     70  C   UNL A   1      47.306  26.660  25.984  1.00  0.00     0.009 A 
ATOM     71  C   UNL A   1      46.868  27.891  23.964  1.00  0.00     0.009 A 
ATOM     72  C   UNL A   1      48.420  26.061  25.395  1.00  0.00     0.001 A 
ATOM     73  C   UNL A   1      47.960  27.257  23.358  1.00  0.00     0.001 A 
ATOM     74  C   UNL A   1      48.736  26.345  24.073  1.00  0.00     0.000 A 
ENDBRANCH  50  69
BRANCH  62  75
ATOM     75  C   UNL A   1      45.166  33.118  29.267  1.00  0.00    -0.014 A 
ATOM     76  C   UNL A   1      45.015  34.261  28.464  1.00  0.00     0.009 A 
ATOM     77  C   UNL A   1      46.038  33.174  30.365  1.00  0.00     0.009 A 
ATOM     78  C   UNL A   1      45.760  35.412  28.716  1.00  0.00     0.001 A 
ATOM     79  C   UNL A   1      46.752  34.342  30.640  1.00  0.00     0.001 A 
ATOM     80  C   UNL A   1      46.624  35.454  29.809  1.00  0.00     0.000 A 
ENDBRANCH  62  75
ENDBRANCH  36  37
ENDBRANCH  29  31
ENDBRANCH  28  29
ENDBRANCH  27  28
ENDBRANCH   1  27
TORSDOF 15
ENDMDL
MODEL 2
REMARK VINA RESULT:     -11.4      1.532      2.213
REMARK SMILES CC(C)NC(=O)c1cccc(NC(=O)[C@@H]2[C@H](C(=O)OCCOC(=O)c3ccc(-c4c5nc(c(-c6ccccc6)c6ccc([nH]6)c(-c6ccccc6)c6nc(c(-c7ccccc7)c7ccc4[nH]7)C=C6)C=C5)cc3)C2(C)C)c1
REMARK SMILES IDX 20 1 19 2 17 3 18 4 16 5 15 6 73 7 74 8 75 9 13 10 12 11
REMARK SMILES IDX 14 13 11 14 7 15 8 16 76 17 9 18 10 19 5 20 4 21 6 23 2 24
REMARK SMILES IDX 1 25 3 26 21 27 22 28 23 29 24 30 25 31 26 32 72 33 27 34
REMARK SMILES IDX 71 35 28 36 29 37 30 38 65 39 31 40 70 41 64 42 66 43 32 44
REMARK SMILES IDX 69 45 63 46 62 47 33 49 55 50 40 51 54 52 41 53 44 54 53 55
REMARK SMILES IDX 67 56 42 57 43 58 52 60 68 61 45 62 34 63 35 64 39 65 36 66
REMARK SMILES IDX 38 67 37 68 56 69 57 70 61 71 58 72 60 73 59 74 46 75 47 76
REMARK SMILES IDX 51 77 48 78 50 79 49 80
REMARK H PARENT 12 12 4 22 66 48 44 59
REMARK Flexibility Score: inf
ROOT
ATOM      1  C   UNL A   1      36.658  22.538  23.632  1.00  0.00     0.274 C 
ENDROOT
BRANCH   1   2
ATOM      2  O   UNL A   1      35.944  23.436  24.507  1.00  0.00    -0.462 OA
BRANCH   2   3
ATOM      3  C   UNL A   1      34.720  23.835  24.053  1.00  0.00     0.310 C 
ATOM      4  O   UNL A   1      34.475  24.134  22.902  1.00  0.00    -0.252 OA
BRANCH   3   5
ATOM      5  C   UNL A   1      33.702  23.823  25.146  1.00  0.00     0.118 C 
ATOM      6  C   UNL A   1      32.226  23.473  24.941  1.00  0.00     0.100 C 
ATOM      7  C   UNL A   1      33.143  22.524  25.713  1.00  0.00    -0.009 C 
ATOM      8  C   UNL A   1      32.946  22.461  27.216  1.00  0.00     0.013 C 
ATOM      9  C   UNL A   1      33.590  21.211  25.133  1.00  0.00     0.013 C 
BRANCH   6  10
ATOM     10  C   UNL A   1      31.673  23.380  23.561  1.00  0.00     0.228 C 
ATOM     11  N   UNL A   1      31.199  24.454  22.844  1.00  0.00    -0.326 N 
ATOM     12  H   UNL A   1      30.913  24.204  21.935  1.00  0.00     0.169 HD
ATOM     13  O   UNL A   1      31.812  22.324  22.943  1.00  0.00    -0.274 OA
BRANCH  11  14
ATOM     14  C   UNL A   1      31.025  25.824  23.101  1.00  0.00     0.041 A 
ATOM     15  C   UNL A   1      32.047  28.031  23.253  1.00  0.00     0.041 A 
ATOM     16  C   UNL A   1      30.790  28.621  23.373  1.00  0.00     0.014 A 
ATOM     17  C   UNL A   1      32.163  26.638  23.090  1.00  0.00     0.040 A 
ATOM     18  C   UNL A   1      29.668  27.813  23.450  1.00  0.00     0.003 A 
ATOM     19  C   UNL A   1      29.808  26.427  23.375  1.00  0.00     0.026 A 
BRANCH  15  20
ATOM     20  C   UNL A   1      33.225  28.896  23.485  1.00  0.00     0.251 C 
ATOM     21  N   UNL A   1      33.319  29.646  24.622  1.00  0.00    -0.350 N 
ATOM     22  H   UNL A   1      33.714  30.543  24.534  1.00  0.00     0.164 HD
ATOM     23  O   UNL A   1      34.098  28.986  22.627  1.00  0.00    -0.269 OA
BRANCH  21  24
ATOM     24  C   UNL A   1      32.891  29.240  25.946  1.00  0.00     0.076 C 
ATOM     25  C   UNL A   1      34.005  28.389  26.527  1.00  0.00     0.030 C 
ATOM     26  C   UNL A   1      32.573  30.465  26.793  1.00  0.00     0.030 C 
ENDBRANCH  21  24
ENDBRANCH  15  20
ENDBRANCH  11  14
ENDBRANCH   6  10
ENDBRANCH   3   5
ENDBRANCH   2   3
ENDBRANCH   1   2
BRANCH   1  27
ATOM     27  C   UNL A   1      37.218  21.318  24.364  1.00  0.00     0.275 C 
BRANCH  27  28
ATOM     28  O   UNL A   1      37.500  21.622  25.745  1.00  0.00    -0.458 OA
BRANCH  28  29
ATOM     29  C   UNL A   1      38.803  21.554  26.090  1.00  0.00     0.338 C 
ATOM     30  O   UNL A   1      39.556  20.605  25.928  1.00  0.00    -0.246 OA
BRANCH  29  31
ATOM     31  C   UNL A   1      39.290  22.811  26.695  1.00  0.00     0.060 A 
ATOM     32  C   UNL A   1      38.768  24.043  26.300  1.00  0.00     0.016 A 
ATOM     33  C   UNL A   1      40.467  22.765  27.439  1.00  0.00     0.016 A 
ATOM     34  C   UNL A   1      39.512  25.207  26.497  1.00  0.00     0.010 A 
ATOM     35  C   UNL A   1      41.125  23.951  27.773  1.00  0.00     0.010 A 
ATOM     36  C   UNL A   1      40.687  25.184  27.262  1.00  0.00    -0.014 A 
BRANCH  36  37
ATOM     37  C   UNL A   1      41.438  26.438  27.571  1.00  0.00     0.031 A 
ATOM     38  C   UNL A   1      40.893  27.436  28.567  1.00  0.00     0.074 A 
ATOM     39  C   UNL A   1      42.577  26.696  26.892  1.00  0.00     0.049 A 
ATOM     40  N   UNL A   1      41.354  28.620  28.886  1.00  0.00    -0.248 NA
ATOM     41  C   UNL A   1      39.659  27.071  29.286  1.00  0.00     0.031 C 
ATOM     42  C   UNL A   1      43.229  25.769  25.965  1.00  0.00     0.029 A 
ATOM     43  N   UNL A   1      43.413  27.789  26.894  1.00  0.00    -0.354 N 
ATOM     44  C   UNL A   1      40.415  29.179  29.749  1.00  0.00     0.074 A 
ATOM     45  C   UNL A   1      39.373  28.194  29.933  1.00  0.00     0.031 C 
ATOM     46  C   UNL A   1      44.404  26.278  25.576  1.00  0.00     0.029 A 
ATOM     47  C   UNL A   1      44.558  27.611  26.142  1.00  0.00     0.049 A 
ATOM     48  H   UNL A   1      43.214  28.619  27.384  1.00  0.00     0.167 HD
ATOM     49  C   UNL A   1      40.412  30.417  30.305  1.00  0.00     0.031 A 
ATOM     50  C   UNL A   1      45.650  28.396  26.004  1.00  0.00     0.031 A 
ATOM     51  C   UNL A   1      41.491  31.359  30.157  1.00  0.00     0.049 A 
ATOM     52  C   UNL A   1      45.671  29.699  26.763  1.00  0.00     0.074 A 
ATOM     53  C   UNL A   1      41.600  32.640  30.670  1.00  0.00     0.029 A 
ATOM     54  N   UNL A   1      42.662  31.109  29.455  1.00  0.00    -0.354 N 
ATOM     55  N   UNL A   1      44.796  30.179  27.615  1.00  0.00    -0.248 NA
ATOM     56  C   UNL A   1      46.863  30.538  26.585  1.00  0.00     0.031 C 
ATOM     57  C   UNL A   1      42.807  33.188  30.225  1.00  0.00     0.029 A 
ATOM     58  C   UNL A   1      43.481  32.224  29.492  1.00  0.00     0.049 A 
ATOM     59  H   UNL A   1      42.877  30.264  28.999  1.00  0.00     0.167 HD
ATOM     60  C   UNL A   1      45.337  31.370  28.080  1.00  0.00     0.074 A 
ATOM     61  C   UNL A   1      46.654  31.486  27.488  1.00  0.00     0.031 C 
ATOM     62  C   UNL A   1      44.784  32.312  28.884  1.00  0.00     0.031 A 
BRANCH  49  63
ATOM     63  C   UNL A   1      39.176  30.865  31.046  1.00  0.00    -0.014 A 
ATOM     64  C   UNL A   1      39.013  30.688  32.428  1.00  0.00     0.009 A 
ATOM     65  C   UNL A   1      38.167  31.536  30.332  1.00  0.00     0.009 A 
ATOM     66  C   UNL A   1      37.854  31.141  33.069  1.00  0.00     0.001 A 
ATOM     67  C   UNL A   1      37.026  32.016  30.979  1.00  0.00     0.001 A 
ATOM     68  C   UNL A   1      36.866  31.810  32.347  1.00  0.00     0.000 A 
ENDBRANCH  49  63
BRANCH  50  69
ATOM     69  C   UNL A   1      46.901  27.843  25.387  1.00  0.00    -0.014 A 
ATOM     70  C   UNL A   1      47.821  27.142  26.194  1.00  0.00     0.009 A 
ATOM     71  C   UNL A   1      47.160  27.907  24.010  1.00  0.00     0.009 A 
ATOM     72  C   UNL A   1      48.942  26.514  25.650  1.00  0.00     0.001 A 
ATOM     73  C   UNL A   1      48.262  27.241  23.460  1.00  0.00     0.001 A 
ATOM     74  C   UNL A   1      49.152  26.547  24.279  1.00  0.00     0.000 A 
ENDBRANCH  50  69
BRANCH  62  75
ATOM     75  C   UNL A   1      45.584  33.568  29.108  1.00  0.00    -0.014 A 
ATOM     76  C   UNL A   1      45.456  34.659  28.231  1.00  0.00     0.009 A 
ATOM     77  C   UNL A   1      46.434  33.688  30.217  1.00  0.00     0.009 A 
ATOM     78  C   UNL A   1      46.203  35.820  28.426  1.00  0.00     0.001 A 
ATOM     79  C   UNL A   1      47.150  34.868  30.433  1.00  0.00     0.001 A 
ATOM     80  C   UNL A   1      47.045  35.926  29.531  1.00  0.00     0.000 A 
ENDBRANCH  62  75
ENDBRANCH  36  37
ENDBRANCH  29  31
ENDBRANCH  28  29
ENDBRANCH  27  28
ENDBRANCH   1  27
TORSDOF 15
ENDMDL
MODEL 3
REMARK VINA RESULT:     -11.3      0.436      5.927
REMARK SMILES CC(C)NC(=O)c1cccc(NC(=O)[C@@H]2[C@H](C(=O)OCCOC(=O)c3ccc(-c4c5nc(c(-c6ccccc6)c6ccc([nH]6)c(-c6ccccc6)c6nc(c(-c7ccccc7)c7ccc4[nH]7)C=C6)C=C5)cc3)C2(C)C)c1
REMARK SMILES IDX 20 1 19 2 17 3 18 4 16 5 15 6 73 7 74 8 75 9 13 10 12 11
REMARK SMILES IDX 14 13 11 14 7 15 8 16 76 17 9 18 10 19 5 20 4 21 6 23 2 24
REMARK SMILES IDX 1 25 3 26 21 27 22 28 23 29 24 30 25 31 26 32 72 33 27 34
REMARK SMILES IDX 71 35 28 36 29 37 30 38 65 39 31 40 70 41 64 42 66 43 32 44
REMARK SMILES IDX 69 45 63 46 62 47 33 49 55 50 40 51 54 52 41 53 44 54 53 55
REMARK SMILES IDX 67 56 42 57 43 58 52 60 68 61 45 62 34 63 35 64 39 65 36 66
REMARK SMILES IDX 38 67 37 68 56 69 57 70 61 71 58 72 60 73 59 74 46 75 47 76
REMARK SMILES IDX 51 77 48 78 50 79 49 80
REMARK H PARENT 12 12 4 22 66 48 44 59
REMARK Flexibility Score: inf
ROOT
ATOM      1  C   UNL A   1      35.246  20.421  25.342  1.00  0.00     0.274 C 
ENDROOT
BRANCH   1   2
ATOM      2  O   UNL A   1      35.021  21.622  26.109  1.00  0.00    -0.462 OA
BRANCH   2   3
ATOM      3  C   UNL A   1      33.721  21.850  26.458  1.00  0.00     0.310 C 
ATOM      4  O   UNL A   1      33.298  21.828  27.597  1.00  0.00    -0.252 OA
BRANCH   3   5
ATOM      5  C   UNL A   1      32.883  22.170  25.264  1.00  0.00     0.118 C 
ATOM      6  C   UNL A   1      31.714  23.158  25.275  1.00  0.00     0.100 C 
ATOM      7  C   UNL A   1      33.003  23.499  24.527  1.00  0.00    -0.009 C 
ATOM      8  C   UNL A   1      32.943  23.450  23.012  1.00  0.00     0.013 C 
ATOM      9  C   UNL A   1      33.957  24.543  25.035  1.00  0.00     0.013 C 
BRANCH   6  10
ATOM     10  C   UNL A   1      31.181  23.660  26.573  1.00  0.00     0.228 C 
ATOM     11  N   UNL A   1      31.004  24.991  26.874  1.00  0.00    -0.326 N 
ATOM     12  H   UNL A   1      30.602  25.126  27.762  1.00  0.00     0.169 HD
ATOM     13  O   UNL A   1      30.693  22.849  27.360  1.00  0.00    -0.274 OA
BRANCH  11  14
ATOM     14  C   UNL A   1      31.261  26.203  26.212  1.00  0.00     0.041 A 
ATOM     15  C   UNL A   1      30.792  27.640  24.302  1.00  0.00     0.041 A 
ATOM     16  C   UNL A   1      31.508  28.682  24.891  1.00  0.00     0.014 A 
ATOM     17  C   UNL A   1      30.646  26.413  24.973  1.00  0.00     0.040 A 
ATOM     18  C   UNL A   1      32.171  28.456  26.084  1.00  0.00     0.003 A 
ATOM     19  C   UNL A   1      32.089  27.205  26.696  1.00  0.00     0.026 A 
BRANCH  15  20
ATOM     20  C   UNL A   1      30.365  27.824  22.897  1.00  0.00     0.251 C 
ATOM     21  N   UNL A   1      31.251  27.642  21.875  1.00  0.00    -0.350 N 
ATOM     22  H   UNL A   1      31.180  28.254  21.107  1.00  0.00     0.164 HD
ATOM     23  O   UNL A   1      29.222  28.195  22.647  1.00  0.00    -0.269 OA
BRANCH  21  24
ATOM     24  C   UNL A   1      32.288  26.630  21.817  1.00  0.00     0.076 C 
ATOM     25  C   UNL A   1      32.149  25.934  20.476  1.00  0.00     0.030 C 
ATOM     26  C   UNL A   1      33.655  27.268  22.020  1.00  0.00     0.030 C 
ENDBRANCH  21  24
ENDBRANCH  15  20
ENDBRANCH  11  14
ENDBRANCH   6  10
ENDBRANCH   3   5
ENDBRANCH   2   3
ENDBRANCH   1   2
BRANCH   1  27
ATOM     27  C   UNL A   1      36.721  20.205  25.000  1.00  0.00     0.275 C 
BRANCH  27  28
ATOM     28  O   UNL A   1      37.479  21.421  25.168  1.00  0.00    -0.458 OA
BRANCH  28  29
ATOM     29  C   UNL A   1      38.664  21.273  25.797  1.00  0.00     0.338 C 
ATOM     30  O   UNL A   1      39.341  20.257  25.856  1.00  0.00    -0.246 OA
BRANCH  29  31
ATOM     31  C   UNL A   1      39.123  22.525  26.430  1.00  0.00     0.060 A 
ATOM     32  C   UNL A   1      38.481  23.736  26.169  1.00  0.00     0.016 A 
ATOM     33  C   UNL A   1      40.372  22.525  27.050  1.00  0.00     0.016 A 
ATOM     34  C   UNL A   1      39.161  24.939  26.366  1.00  0.00     0.010 A 
ATOM     35  C   UNL A   1      40.978  23.736  27.393  1.00  0.00     0.010 A 
ATOM     36  C   UNL A   1      40.407  24.959  27.007  1.00  0.00    -0.014 A 
BRANCH  36  37
ATOM     37  C   UNL A   1      41.099  26.246  27.320  1.00  0.00     0.031 A 
ATOM     38  C   UNL A   1      42.408  26.600  26.650  1.00  0.00     0.074 A 
ATOM     39  C   UNL A   1      40.571  27.055  28.264  1.00  0.00     0.049 A 
ATOM     40  N   UNL A   1      43.199  27.621  26.869  1.00  0.00    -0.248 NA
ATOM     41  C   UNL A   1      42.908  25.680  25.612  1.00  0.00     0.031 C 
ATOM     42  C   UNL A   1      39.278  26.845  28.919  1.00  0.00     0.029 A 
ATOM     43  N   UNL A   1      41.024  28.229  28.818  1.00  0.00    -0.354 N 
ATOM     44  C   UNL A   1      44.330  27.406  26.085  1.00  0.00     0.074 A 
ATOM     45  C   UNL A   1      44.111  26.177  25.357  1.00  0.00     0.031 C 
ATOM     46  C   UNL A   1      38.993  27.899  29.694  1.00  0.00     0.029 A 
ATOM     47  C   UNL A   1      40.119  28.822  29.678  1.00  0.00     0.049 A 
ATOM     48  H   UNL A   1      41.910  28.612  28.622  1.00  0.00     0.167 HD
ATOM     49  C   UNL A   1      45.459  28.155  26.011  1.00  0.00     0.031 A 
ATOM     50  C   UNL A   1      40.156  30.020  30.303  1.00  0.00     0.031 A 
ATOM     51  C   UNL A   1      45.629  29.409  26.699  1.00  0.00     0.049 A 
ATOM     52  C   UNL A   1      41.366  30.890  30.073  1.00  0.00     0.074 A 
ATOM     53  C   UNL A   1      46.727  30.253  26.703  1.00  0.00     0.029 A 
ATOM     54  N   UNL A   1      44.661  30.008  27.493  1.00  0.00    -0.354 N 
ATOM     55  N   UNL A   1      42.396  30.689  29.283  1.00  0.00    -0.248 NA
ATOM     56  C   UNL A   1      41.385  32.179  30.774  1.00  0.00     0.031 C 
ATOM     57  C   UNL A   1      46.446  31.331  27.550  1.00  0.00     0.029 A 
ATOM     58  C   UNL A   1      45.149  31.192  28.020  1.00  0.00     0.049 A 
ATOM     59  H   UNL A   1      43.761  29.645  27.656  1.00  0.00     0.167 HD
ATOM     60  C   UNL A   1      43.178  31.830  29.389  1.00  0.00     0.074 A 
ATOM     61  C   UNL A   1      42.454  32.753  30.241  1.00  0.00     0.031 C 
ATOM     62  C   UNL A   1      44.406  32.084  28.872  1.00  0.00     0.031 A 
BRANCH  49  63
ATOM     63  C   UNL A   1      46.633  27.605  25.239  1.00  0.00    -0.014 A 
ATOM     64  C   UNL A   1      47.540  26.688  25.788  1.00  0.00     0.009 A 
ATOM     65  C   UNL A   1      46.797  27.989  23.896  1.00  0.00     0.009 A 
ATOM     66  C   UNL A   1      48.602  26.194  25.020  1.00  0.00     0.001 A 
ATOM     67  C   UNL A   1      47.837  27.472  23.122  1.00  0.00     0.001 A 
ATOM     68  C   UNL A   1      48.746  26.580  23.687  1.00  0.00     0.000 A 
ENDBRANCH  49  63
BRANCH  50  69
ATOM     69  C   UNL A   1      38.912  30.580  30.929  1.00  0.00    -0.014 A 
ATOM     70  C   UNL A   1      38.044  31.376  30.153  1.00  0.00     0.009 A 
ATOM     71  C   UNL A   1      38.515  30.270  32.237  1.00  0.00     0.009 A 
ATOM     72  C   UNL A   1      36.822  31.828  30.653  1.00  0.00     0.001 A 
ATOM     73  C   UNL A   1      37.270  30.688  32.724  1.00  0.00     0.001 A 
ATOM     74  C   UNL A   1      36.426  31.466  31.933  1.00  0.00     0.000 A 
ENDBRANCH  50  69
BRANCH  62  75
ATOM     75  C   UNL A   1      45.057  33.382  29.274  1.00  0.00    -0.014 A 
ATOM     76  C   UNL A   1      45.849  33.452  30.432  1.00  0.00     0.009 A 
ATOM     77  C   UNL A   1      44.922  34.528  28.476  1.00  0.00     0.009 A 
ATOM     78  C   UNL A   1      46.444  34.653  30.816  1.00  0.00     0.001 A 
ATOM     79  C   UNL A   1      45.553  35.719  28.841  1.00  0.00     0.001 A 
ATOM     80  C   UNL A   1      46.301  35.785  30.016  1.00  0.00     0.000 A 
ENDBRANCH  62  75
ENDBRANCH  36  37
ENDBRANCH  29  31
ENDBRANCH  28  29
ENDBRANCH  27  28
ENDBRANCH   1  27
TORSDOF 15
ENDMDL
