MODEL 1
REMARK VINA RESULT:     -11.3      0.000      0.000
REMARK SMILES CCC(CC)(NC(=O)Nc1cc(Cl)cc(Cl)c1)C(=O)OCCOC(=O)c1ccc(-c2c3nc(c(-c4ccccc4)c4ccc([nH]4)c(-c4ccccc4)c4nc(c(-c5ccccc5)c5ccc2[nH]5)C=C4)C=C3)cc1
REMARK SMILES IDX 21 1 20 2 18 3 19 4 3 5 2 6 1 7 4 8 5 9 6 10 7 11 8 13 9 14
REMARK SMILES IDX 10 16 11 17 17 18 12 19 15 20 13 21 14 22 16 23 22 24 23 25
REMARK SMILES IDX 24 26 25 27 26 28 27 29 73 30 28 31 72 32 29 33 30 34 31 35
REMARK SMILES IDX 66 36 32 37 71 38 65 39 67 40 33 41 70 42 64 43 63 44 34 46
REMARK SMILES IDX 56 47 41 48 55 49 42 50 45 51 54 52 68 53 43 54 44 55 53 57
REMARK SMILES IDX 69 58 46 59 35 60 36 61 40 62 37 63 39 64 38 65 57 66 58 67
REMARK SMILES IDX 62 68 59 69 61 70 60 71 47 72 48 73 52 74 49 75 51 76 50 77
REMARK H PARENT 6 12 9 15 67 45 45 56
REMARK Flexibility Score: inf
ROOT
ATOM      1  C   UNL A   1      34.623  20.709  24.691  1.00  0.00     0.274 C 
ENDROOT
BRANCH   1   2
ATOM      2  O   UNL A   1      33.711  20.765  25.877  1.00  0.00    -0.460 OA
BRANCH   2   3
ATOM      3  C   UNL A   1      33.393  21.915  26.639  1.00  0.00     0.332 C 
ATOM      4  O   UNL A   1      33.846  22.081  27.769  1.00  0.00    -0.249 OA
BRANCH   3   5
ATOM      5  C   UNL A   1      32.248  22.974  25.911  1.00  0.00     0.139 C 
BRANCH   5   6
ATOM      6  C   UNL A   1      31.433  23.082  24.536  1.00  0.00     0.037 C 
ATOM      7  C   UNL A   1      31.886  22.605  23.186  1.00  0.00     0.007 C 
ENDBRANCH   5   6
BRANCH   5   8
ATOM      8  C   UNL A   1      32.769  24.392  26.274  1.00  0.00     0.037 C 
ATOM      9  C   UNL A   1      33.963  24.982  25.521  1.00  0.00     0.007 C 
ENDBRANCH   5   8
BRANCH   5  10
ATOM     10  N   UNL A   1      31.179  22.440  26.672  1.00  0.00    -0.322 N 
ATOM     11  C   UNL A   1      30.151  23.267  26.959  1.00  0.00     0.320 C 
ATOM     12  H   UNL A   1      31.185  21.505  26.978  1.00  0.00     0.166 HD
ATOM     13  O   UNL A   1      29.238  22.766  27.620  1.00  0.00    -0.248 OA
ATOM     14  N   UNL A   1      30.072  24.601  26.554  1.00  0.00    -0.308 N 
ATOM     15  H   UNL A   1      29.312  24.923  27.091  1.00  0.00     0.171 HD
BRANCH  14  16
ATOM     16  C   UNL A   1      30.435  25.802  25.819  1.00  0.00     0.045 A 
ATOM     17  C   UNL A   1      30.207  26.195  24.504  1.00  0.00     0.046 A 
ATOM     18  C   UNL A   1      31.025  26.816  26.613  1.00  0.00     0.046 A 
ATOM     19  C   UNL A   1      30.563  27.477  24.018  1.00  0.00     0.044 A 
ATOM     20  C   UNL A   1      31.419  28.072  26.132  1.00  0.00     0.044 A 
ATOM     21  Cl  UNL A   1      30.169  27.912  22.395  1.00  0.00    -0.084 Cl
ATOM     22  C   UNL A   1      31.200  28.409  24.817  1.00  0.00     0.041 A 
ATOM     23  Cl  UNL A   1      32.153  29.201  27.203  1.00  0.00    -0.084 Cl
ENDBRANCH  14  16
ENDBRANCH   5  10
ENDBRANCH   3   5
ENDBRANCH   2   3
ENDBRANCH   1   2
BRANCH   1  24
ATOM     24  C   UNL A   1      35.981  21.669  24.728  1.00  0.00     0.275 C 
BRANCH  24  25
ATOM     25  O   UNL A   1      36.922  21.564  25.915  1.00  0.00    -0.458 OA
BRANCH  25  26
ATOM     26  C   UNL A   1      38.300  21.389  25.830  1.00  0.00     0.338 C 
ATOM     27  O   UNL A   1      38.843  20.390  25.363  1.00  0.00    -0.246 OA
BRANCH  26  28
ATOM     28  C   UNL A   1      39.107  22.598  26.405  1.00  0.00     0.060 A 
ATOM     29  C   UNL A   1      38.811  23.950  26.104  1.00  0.00     0.016 A 
ATOM     30  C   UNL A   1      40.200  22.422  27.253  1.00  0.00     0.016 A 
ATOM     31  C   UNL A   1      39.392  25.064  26.740  1.00  0.00     0.010 A 
ATOM     32  C   UNL A   1      40.884  23.546  27.812  1.00  0.00     0.010 A 
ATOM     33  C   UNL A   1      40.475  24.880  27.581  1.00  0.00    -0.014 A 
BRANCH  33  34
ATOM     34  C   UNL A   1      41.356  26.049  27.910  1.00  0.00     0.031 A 
ATOM     35  C   UNL A   1      40.778  27.097  28.826  1.00  0.00     0.074 A 
ATOM     36  C   UNL A   1      42.637  26.201  27.516  1.00  0.00     0.049 A 
ATOM     37  N   UNL A   1      41.164  28.327  29.049  1.00  0.00    -0.248 NA
ATOM     38  C   UNL A   1      39.593  26.687  29.594  1.00  0.00     0.031 C 
ATOM     39  C   UNL A   1      43.451  25.212  26.814  1.00  0.00     0.029 A 
ATOM     40  N   UNL A   1      43.479  27.290  27.645  1.00  0.00    -0.354 N 
ATOM     41  C   UNL A   1      40.217  28.861  29.915  1.00  0.00     0.074 A 
ATOM     42  C   UNL A   1      39.260  27.815  30.198  1.00  0.00     0.031 C 
ATOM     43  C   UNL A   1      44.652  25.755  26.530  1.00  0.00     0.029 A 
ATOM     44  C   UNL A   1      44.668  27.154  26.964  1.00  0.00     0.049 A 
ATOM     45  H   UNL A   1      43.249  28.088  28.173  1.00  0.00     0.167 HD
ATOM     46  C   UNL A   1      40.132  30.120  30.408  1.00  0.00     0.031 A 
ATOM     47  C   UNL A   1      45.623  28.064  26.663  1.00  0.00     0.031 A 
ATOM     48  C   UNL A   1      41.089  31.158  30.140  1.00  0.00     0.049 A 
ATOM     49  C   UNL A   1      45.458  29.503  27.100  1.00  0.00     0.074 A 
ATOM     50  C   UNL A   1      41.075  32.475  30.564  1.00  0.00     0.029 A 
ATOM     51  N   UNL A   1      42.239  30.991  29.385  1.00  0.00    -0.354 N 
ATOM     52  N   UNL A   1      44.505  30.045  27.819  1.00  0.00    -0.248 NA
ATOM     53  C   UNL A   1      46.493  30.459  26.669  1.00  0.00     0.031 C 
ATOM     54  C   UNL A   1      42.184  33.122  30.010  1.00  0.00     0.029 A 
ATOM     55  C   UNL A   1      42.930  32.187  29.309  1.00  0.00     0.049 A 
ATOM     56  H   UNL A   1      42.522  30.147  28.964  1.00  0.00     0.167 HD
ATOM     57  C   UNL A   1      44.843  31.389  27.956  1.00  0.00     0.074 A 
ATOM     58  C   UNL A   1      46.089  31.582  27.247  1.00  0.00     0.031 C 
ATOM     59  C   UNL A   1      44.179  32.371  28.616  1.00  0.00     0.031 A 
BRANCH  46  60
ATOM     60  C   UNL A   1      38.896  30.462  31.193  1.00  0.00    -0.014 A 
ATOM     61  C   UNL A   1      38.833  30.325  32.588  1.00  0.00     0.009 A 
ATOM     62  C   UNL A   1      37.757  30.911  30.505  1.00  0.00     0.009 A 
ATOM     63  C   UNL A   1      37.639  30.579  33.269  1.00  0.00     0.001 A 
ATOM     64  C   UNL A   1      36.577  31.201  31.189  1.00  0.00     0.001 A 
ATOM     65  C   UNL A   1      36.515  31.020  32.569  1.00  0.00     0.000 A 
ENDBRANCH  46  60
BRANCH  47  66
ATOM     66  C   UNL A   1      46.793  27.676  25.821  1.00  0.00    -0.014 A 
ATOM     67  C   UNL A   1      47.997  27.249  26.403  1.00  0.00     0.009 A 
ATOM     68  C   UNL A   1      46.720  27.762  24.421  1.00  0.00     0.009 A 
ATOM     69  C   UNL A   1      49.101  26.926  25.604  1.00  0.00     0.001 A 
ATOM     70  C   UNL A   1      47.813  27.409  23.623  1.00  0.00     0.001 A 
ATOM     71  C   UNL A   1      49.003  26.996  24.215  1.00  0.00     0.000 A 
ENDBRANCH  47  66
BRANCH  59  72
ATOM     72  C   UNL A   1      44.812  33.736  28.680  1.00  0.00    -0.014 A 
ATOM     73  C   UNL A   1      44.505  34.740  27.750  1.00  0.00     0.009 A 
ATOM     74  C   UNL A   1      45.669  34.045  29.750  1.00  0.00     0.009 A 
ATOM     75  C   UNL A   1      45.063  36.016  27.879  1.00  0.00     0.001 A 
ATOM     76  C   UNL A   1      46.199  35.327  29.894  1.00  0.00     0.001 A 
ATOM     77  C   UNL A   1      45.902  36.311  28.953  1.00  0.00     0.000 A 
ENDBRANCH  59  72
ENDBRANCH  33  34
ENDBRANCH  26  28
ENDBRANCH  25  26
ENDBRANCH  24  25
ENDBRANCH   1  24
TORSDOF 15
ENDMDL
MODEL 2
REMARK VINA RESULT:     -11.2      3.732      6.678
REMARK SMILES CCC(CC)(NC(=O)Nc1cc(Cl)cc(Cl)c1)C(=O)OCCOC(=O)c1ccc(-c2c3nc(c(-c4ccccc4)c4ccc([nH]4)c(-c4ccccc4)c4nc(c(-c5ccccc5)c5ccc2[nH]5)C=C4)C=C3)cc1
REMARK SMILES IDX 21 1 20 2 18 3 19 4 3 5 2 6 1 7 4 8 5 9 6 10 7 11 8 13 9 14
REMARK SMILES IDX 10 16 11 17 17 18 12 19 15 20 13 21 14 22 16 23 22 24 23 25
REMARK SMILES IDX 24 26 25 27 26 28 27 29 73 30 28 31 72 32 29 33 30 34 31 35
REMARK SMILES IDX 66 36 32 37 71 38 65 39 67 40 33 41 70 42 64 43 63 44 34 46
REMARK SMILES IDX 56 47 41 48 55 49 42 50 45 51 54 52 68 53 43 54 44 55 53 57
REMARK SMILES IDX 69 58 46 59 35 60 36 61 40 62 37 63 39 64 38 65 57 66 58 67
REMARK SMILES IDX 62 68 59 69 61 70 60 71 47 72 48 73 52 74 49 75 51 76 50 77
REMARK H PARENT 6 12 9 15 67 45 45 56
REMARK Flexibility Score: inf
ROOT
ATOM      1  C   UNL A   1      35.856  21.486  25.225  1.00  0.00     0.274 C 
ENDROOT
BRANCH   1   2
ATOM      2  O   UNL A   1      34.366  21.401  25.335  1.00  0.00    -0.460 OA
BRANCH   2   3
ATOM      3  C   UNL A   1      33.562  21.991  26.340  1.00  0.00     0.332 C 
ATOM      4  O   UNL A   1      33.647  21.645  27.515  1.00  0.00    -0.249 OA
BRANCH   3   5
ATOM      5  C   UNL A   1      32.398  23.122  25.766  1.00  0.00     0.139 C 
BRANCH   5   6
ATOM      6  C   UNL A   1      31.478  23.330  24.471  1.00  0.00     0.037 C 
ATOM      7  C   UNL A   1      31.754  22.822  23.085  1.00  0.00     0.007 C 
ENDBRANCH   5   6
BRANCH   5   8
ATOM      8  C   UNL A   1      32.994  24.502  26.159  1.00  0.00     0.037 C 
ATOM      9  C   UNL A   1      33.946  25.223  25.202  1.00  0.00     0.007 C 
ENDBRANCH   5   8
BRANCH   5  10
ATOM     10  N   UNL A   1      31.377  22.579  26.584  1.00  0.00    -0.322 N 
ATOM     11  C   UNL A   1      30.377  23.406  26.957  1.00  0.00     0.320 C 
ATOM     12  H   UNL A   1      31.395  21.637  26.868  1.00  0.00     0.166 HD
ATOM     13  O   UNL A   1      29.505  22.895  27.665  1.00  0.00    -0.248 OA
ATOM     14  N   UNL A   1      30.283  24.749  26.589  1.00  0.00    -0.308 N 
ATOM     15  H   UNL A   1      29.563  25.064  27.182  1.00  0.00     0.171 HD
BRANCH  14  16
ATOM     16  C   UNL A   1      30.607  25.964  25.859  1.00  0.00     0.045 A 
ATOM     17  C   UNL A   1      30.352  26.362  24.550  1.00  0.00     0.046 A 
ATOM     18  C   UNL A   1      31.184  26.986  26.653  1.00  0.00     0.046 A 
ATOM     19  C   UNL A   1      30.670  27.656  24.069  1.00  0.00     0.044 A 
ATOM     20  C   UNL A   1      31.540  28.255  26.176  1.00  0.00     0.044 A 
ATOM     21  Cl  UNL A   1      30.243  28.094  22.456  1.00  0.00    -0.084 Cl
ATOM     22  C   UNL A   1      31.296  28.597  24.867  1.00  0.00     0.041 A 
ATOM     23  Cl  UNL A   1      32.262  29.392  27.247  1.00  0.00    -0.084 Cl
ENDBRANCH  14  16
ENDBRANCH   5  10
ENDBRANCH   3   5
ENDBRANCH   2   3
ENDBRANCH   1   2
BRANCH   1  24
ATOM     24  C   UNL A   1      36.573  22.922  25.666  1.00  0.00     0.275 C 
BRANCH  24  25
ATOM     25  O   UNL A   1      38.007  23.188  25.243  1.00  0.00    -0.458 OA
BRANCH  25  26
ATOM     26  C   UNL A   1      39.119  23.070  26.070  1.00  0.00     0.338 C 
ATOM     27  O   UNL A   1      39.796  22.050  26.179  1.00  0.00    -0.246 OA
BRANCH  26  28
ATOM     28  C   UNL A   1      39.428  24.378  26.870  1.00  0.00     0.060 A 
ATOM     29  C   UNL A   1      38.952  24.623  28.181  1.00  0.00     0.016 A 
ATOM     30  C   UNL A   1      40.191  25.412  26.331  1.00  0.00     0.016 A 
ATOM     31  C   UNL A   1      39.355  25.697  28.999  1.00  0.00     0.010 A 
ATOM     32  C   UNL A   1      40.508  26.571  27.104  1.00  0.00     0.010 A 
ATOM     33  C   UNL A   1      40.114  26.718  28.455  1.00  0.00    -0.014 A 
BRANCH  33  34
ATOM     34  C   UNL A   1      40.179  28.040  29.163  1.00  0.00     0.031 A 
ATOM     35  C   UNL A   1      41.330  28.244  30.114  1.00  0.00     0.074 A 
ATOM     36  C   UNL A   1      39.342  29.079  28.963  1.00  0.00     0.049 A 
ATOM     37  N   UNL A   1      41.491  29.127  31.065  1.00  0.00    -0.248 NA
ATOM     38  C   UNL A   1      42.454  27.307  29.962  1.00  0.00     0.031 C 
ATOM     39  C   UNL A   1      38.304  29.171  27.939  1.00  0.00     0.029 A 
ATOM     40  N   UNL A   1      39.232  30.271  29.653  1.00  0.00    -0.354 N 
ATOM     41  C   UNL A   1      42.694  28.796  31.678  1.00  0.00     0.074 A 
ATOM     42  C   UNL A   1      43.231  27.653  30.975  1.00  0.00     0.031 C 
ATOM     43  C   UNL A   1      37.631  30.328  28.102  1.00  0.00     0.029 A 
ATOM     44  C   UNL A   1      38.142  31.026  29.283  1.00  0.00     0.049 A 
ATOM     45  H   UNL A   1      39.873  30.553  30.345  1.00  0.00     0.167 HD
ATOM     46  C   UNL A   1      43.285  29.371  32.753  1.00  0.00     0.031 A 
ATOM     47  C   UNL A   1      37.577  32.109  29.867  1.00  0.00     0.031 A 
ATOM     48  C   UNL A   1      42.761  30.516  33.446  1.00  0.00     0.049 A 
ATOM     49  C   UNL A   1      38.163  32.667  31.145  1.00  0.00     0.074 A 
ATOM     50  C   UNL A   1      43.267  31.153  34.565  1.00  0.00     0.029 A 
ATOM     51  N   UNL A   1      41.615  31.201  33.076  1.00  0.00    -0.354 N 
ATOM     52  N   UNL A   1      39.233  32.287  31.801  1.00  0.00    -0.248 NA
ATOM     53  C   UNL A   1      37.452  33.795  31.773  1.00  0.00     0.031 C 
ATOM     54  C   UNL A   1      42.389  32.185  34.912  1.00  0.00     0.029 A 
ATOM     55  C   UNL A   1      41.382  32.240  33.961  1.00  0.00     0.049 A 
ATOM     56  H   UNL A   1      41.049  30.982  32.301  1.00  0.00     0.167 HD
ATOM     57  C   UNL A   1      39.342  33.146  32.891  1.00  0.00     0.074 A 
ATOM     58  C   UNL A   1      38.232  34.069  32.810  1.00  0.00     0.031 C 
ATOM     59  C   UNL A   1      40.284  33.168  33.867  1.00  0.00     0.031 A 
BRANCH  46  60
ATOM     60  C   UNL A   1      44.507  28.690  33.304  1.00  0.00    -0.014 A 
ATOM     61  C   UNL A   1      45.800  28.980  32.842  1.00  0.00     0.009 A 
ATOM     62  C   UNL A   1      44.347  27.711  34.298  1.00  0.00     0.009 A 
ATOM     63  C   UNL A   1      46.899  28.266  33.327  1.00  0.00     0.001 A 
ATOM     64  C   UNL A   1      45.449  27.026  34.810  1.00  0.00     0.001 A 
ATOM     65  C   UNL A   1      46.723  27.293  34.312  1.00  0.00     0.000 A 
ENDBRANCH  46  60
BRANCH  47  66
ATOM     66  C   UNL A   1      36.324  32.697  29.307  1.00  0.00    -0.014 A 
ATOM     67  C   UNL A   1      36.362  33.826  28.473  1.00  0.00     0.009 A 
ATOM     68  C   UNL A   1      35.074  32.148  29.634  1.00  0.00     0.009 A 
ATOM     69  C   UNL A   1      35.177  34.392  27.986  1.00  0.00     0.001 A 
ATOM     70  C   UNL A   1      33.894  32.696  29.123  1.00  0.00     0.001 A 
ATOM     71  C   UNL A   1      33.946  33.821  28.303  1.00  0.00     0.000 A 
ENDBRANCH  47  66
BRANCH  59  72
ATOM     72  C   UNL A   1      40.217  34.266  34.894  1.00  0.00    -0.014 A 
ATOM     73  C   UNL A   1      39.542  34.102  36.113  1.00  0.00     0.009 A 
ATOM     74  C   UNL A   1      40.921  35.462  34.667  1.00  0.00     0.009 A 
ATOM     75  C   UNL A   1      39.555  35.121  37.071  1.00  0.00     0.001 A 
ATOM     76  C   UNL A   1      40.958  36.463  35.637  1.00  0.00     0.001 A 
ATOM     77  C   UNL A   1      40.269  36.296  36.836  1.00  0.00     0.000 A 
ENDBRANCH  59  72
ENDBRANCH  33  34
ENDBRANCH  26  28
ENDBRANCH  25  26
ENDBRANCH  24  25
ENDBRANCH   1  24
TORSDOF 15
ENDMDL
MODEL 3
REMARK VINA RESULT:     -11.1      4.105      8.661
REMARK SMILES CCC(CC)(NC(=O)Nc1cc(Cl)cc(Cl)c1)C(=O)OCCOC(=O)c1ccc(-c2c3nc(c(-c4ccccc4)c4ccc([nH]4)c(-c4ccccc4)c4nc(c(-c5ccccc5)c5ccc2[nH]5)C=C4)C=C3)cc1
REMARK SMILES IDX 21 1 20 2 18 3 19 4 3 5 2 6 1 7 4 8 5 9 6 10 7 11 8 13 9 14
REMARK SMILES IDX 10 16 11 17 17 18 12 19 15 20 13 21 14 22 16 23 22 24 23 25
REMARK SMILES IDX 24 26 25 27 26 28 27 29 73 30 28 31 72 32 29 33 30 34 31 35
REMARK SMILES IDX 66 36 32 37 71 38 65 39 67 40 33 41 70 42 64 43 63 44 34 46
REMARK SMILES IDX 56 47 41 48 55 49 42 50 45 51 54 52 68 53 43 54 44 55 53 57
REMARK SMILES IDX 69 58 46 59 35 60 36 61 40 62 37 63 39 64 38 65 57 66 58 67
REMARK SMILES IDX 62 68 59 69 61 70 60 71 47 72 48 73 52 74 49 75 51 76 50 77
REMARK H PARENT 6 12 9 15 67 45 45 56
REMARK Flexibility Score: inf
ROOT
ATOM      1  C   UNL A   1      30.817  28.406  24.356  1.00  0.00     0.274 C 
ENDROOT
BRANCH   1   2
ATOM      2  O   UNL A   1      31.040  27.118  23.626  1.00  0.00    -0.460 OA
BRANCH   2   3
ATOM      3  C   UNL A   1      30.440  25.870  23.922  1.00  0.00     0.332 C 
ATOM      4  O   UNL A   1      29.277  25.627  23.610  1.00  0.00    -0.249 OA
BRANCH   3   5
ATOM      5  C   UNL A   1      31.420  24.794  24.840  1.00  0.00     0.139 C 
BRANCH   5   6
ATOM      6  C   UNL A   1      32.672  24.881  25.836  1.00  0.00     0.037 C 
ATOM      7  C   UNL A   1      33.926  25.682  25.632  1.00  0.00     0.007 C 
ENDBRANCH   5   6
BRANCH   5   8
ATOM      8  C   UNL A   1      31.648  23.590  23.884  1.00  0.00     0.037 C 
ATOM      9  C   UNL A   1      32.611  23.726  22.702  1.00  0.00     0.007 C 
ENDBRANCH   5   8
BRANCH   5  10
ATOM     10  N   UNL A   1      30.438  24.666  25.853  1.00  0.00    -0.322 N 
ATOM     11  C   UNL A   1      30.414  23.509  26.547  1.00  0.00     0.320 C 
ATOM     12  H   UNL A   1      29.800  25.390  26.042  1.00  0.00     0.166 HD
ATOM     13  O   UNL A   1      29.547  23.436  27.423  1.00  0.00    -0.248 OA
ATOM     14  N   UNL A   1      31.289  22.441  26.338  1.00  0.00    -0.308 N 
ATOM     15  H   UNL A   1      30.861  21.731  26.869  1.00  0.00     0.171 HD
BRANCH  14  16
ATOM     16  C   UNL A   1      32.450  21.745  25.807  1.00  0.00     0.045 A 
ATOM     17  C   UNL A   1      33.817  21.958  25.962  1.00  0.00     0.046 A 
ATOM     18  C   UNL A   1      32.145  20.557  25.099  1.00  0.00     0.046 A 
ATOM     19  C   UNL A   1      34.791  21.078  25.432  1.00  0.00     0.044 A 
ATOM     20  C   UNL A   1      33.101  19.702  24.535  1.00  0.00     0.044 A 
ATOM     21  Cl  UNL A   1      36.463  21.373  25.741  1.00  0.00    -0.084 Cl
ATOM     22  C   UNL A   1      34.442  19.965  24.688  1.00  0.00     0.041 A 
ATOM     23  Cl  UNL A   1      32.588  18.304  23.672  1.00  0.00    -0.084 Cl
ENDBRANCH  14  16
ENDBRANCH   5  10
ENDBRANCH   3   5
ENDBRANCH   2   3
ENDBRANCH   1   2
BRANCH   1  24
ATOM     24  C   UNL A   1      32.160  29.186  24.952  1.00  0.00     0.275 C 
BRANCH  24  25
ATOM     25  O   UNL A   1      32.159  29.650  26.398  1.00  0.00    -0.458 OA
BRANCH  25  26
ATOM     26  C   UNL A   1      32.636  30.879  26.844  1.00  0.00     0.338 C 
ATOM     27  O   UNL A   1      32.030  31.941  26.725  1.00  0.00    -0.246 OA
BRANCH  26  28
ATOM     28  C   UNL A   1      34.045  30.782  27.514  1.00  0.00     0.060 A 
ATOM     29  C   UNL A   1      34.667  29.555  27.853  1.00  0.00     0.016 A 
ATOM     30  C   UNL A   1      34.789  31.915  27.842  1.00  0.00     0.016 A 
ATOM     31  C   UNL A   1      36.001  29.419  28.285  1.00  0.00     0.010 A 
ATOM     32  C   UNL A   1      36.099  31.797  28.399  1.00  0.00     0.010 A 
ATOM     33  C   UNL A   1      36.731  30.549  28.607  1.00  0.00    -0.014 A 
BRANCH  33  34
ATOM     34  C   UNL A   1      37.958  30.411  29.459  1.00  0.00     0.031 A 
ATOM     35  C   UNL A   1      39.095  29.604  28.885  1.00  0.00     0.074 A 
ATOM     36  C   UNL A   1      38.155  31.006  30.653  1.00  0.00     0.049 A 
ATOM     37  N   UNL A   1      40.133  29.071  29.476  1.00  0.00    -0.248 NA
ATOM     38  C   UNL A   1      39.039  29.370  27.434  1.00  0.00     0.031 C 
ATOM     39  C   UNL A   1      37.283  31.994  31.283  1.00  0.00     0.029 A 
ATOM     40  N   UNL A   1      39.176  30.835  31.569  1.00  0.00    -0.354 N 
ATOM     41  C   UNL A   1      40.803  28.366  28.484  1.00  0.00     0.074 A 
ATOM     42  C   UNL A   1      40.072  28.565  27.252  1.00  0.00     0.031 C 
ATOM     43  C   UNL A   1      37.776  32.300  32.500  1.00  0.00     0.029 A 
ATOM     44  C   UNL A   1      38.960  31.479  32.766  1.00  0.00     0.049 A 
ATOM     45  H   UNL A   1      39.983  30.303  31.382  1.00  0.00     0.167 HD
ATOM     46  C   UNL A   1      41.912  27.596  28.591  1.00  0.00     0.031 A 
ATOM     47  C   UNL A   1      39.593  31.368  33.957  1.00  0.00     0.031 A 
ATOM     48  C   UNL A   1      42.649  27.407  29.811  1.00  0.00     0.049 A 
ATOM     49  C   UNL A   1      40.747  30.403  34.109  1.00  0.00     0.074 A 
ATOM     50  C   UNL A   1      43.765  26.620  30.032  1.00  0.00     0.029 A 
ATOM     51  N   UNL A   1      42.347  28.024  31.014  1.00  0.00    -0.354 N 
ATOM     52  N   UNL A   1      41.315  29.641  33.205  1.00  0.00    -0.248 NA
ATOM     53  C   UNL A   1      41.339  30.270  35.452  1.00  0.00     0.031 C 
ATOM     54  C   UNL A   1      44.099  26.709  31.387  1.00  0.00     0.029 A 
ATOM     55  C   UNL A   1      43.240  27.616  31.989  1.00  0.00     0.049 A 
ATOM     56  H   UNL A   1      41.606  28.657  31.156  1.00  0.00     0.167 HD
ATOM     57  C   UNL A   1      42.346  28.971  33.858  1.00  0.00     0.074 A 
ATOM     58  C   UNL A   1      42.328  29.414  35.234  1.00  0.00     0.031 C 
ATOM     59  C   UNL A   1      43.230  28.072  33.355  1.00  0.00     0.031 A 
BRANCH  46  60
ATOM     60  C   UNL A   1      42.318  26.812  27.374  1.00  0.00    -0.014 A 
ATOM     61  C   UNL A   1      41.814  25.530  27.104  1.00  0.00     0.009 A 
ATOM     62  C   UNL A   1      43.251  27.372  26.486  1.00  0.00     0.009 A 
ATOM     63  C   UNL A   1      42.278  24.807  26.003  1.00  0.00     0.001 A 
ATOM     64  C   UNL A   1      43.685  26.664  25.366  1.00  0.00     0.001 A 
ATOM     65  C   UNL A   1      43.210  25.375  25.134  1.00  0.00     0.000 A 
ENDBRANCH  46  60
BRANCH  47  66
ATOM     66  C   UNL A   1      39.097  32.123  35.146  1.00  0.00    -0.014 A 
ATOM     67  C   UNL A   1      38.200  31.540  36.054  1.00  0.00     0.009 A 
ATOM     68  C   UNL A   1      39.497  33.453  35.360  1.00  0.00     0.009 A 
ATOM     69  C   UNL A   1      37.711  32.271  37.144  1.00  0.00     0.001 A 
ATOM     70  C   UNL A   1      39.032  34.172  36.466  1.00  0.00     0.001 A 
ATOM     71  C   UNL A   1      38.136  33.582  37.353  1.00  0.00     0.000 A 
ENDBRANCH  47  66
BRANCH  59  72
ATOM     72  C   UNL A   1      44.310  27.554  34.266  1.00  0.00    -0.014 A 
ATOM     73  C   UNL A   1      44.162  26.361  34.990  1.00  0.00     0.009 A 
ATOM     74  C   UNL A   1      45.538  28.236  34.331  1.00  0.00     0.009 A 
ATOM     75  C   UNL A   1      45.212  25.877  35.776  1.00  0.00     0.001 A 
ATOM     76  C   UNL A   1      46.594  27.734  35.091  1.00  0.00     0.001 A 
ATOM     77  C   UNL A   1      46.428  26.559  35.820  1.00  0.00     0.000 A 
ENDBRANCH  59  72
ENDBRANCH  33  34
ENDBRANCH  26  28
ENDBRANCH  25  26
ENDBRANCH  24  25
ENDBRANCH   1  24
TORSDOF 15
ENDMDL
