MODEL 1
REMARK VINA RESULT:     -11.6      0.000      0.000
REMARK SMILES COc1cccc2c(C)cc(S[C@H](C)C(=O)Nc3ccc(C(=O)OCCOC(=O)c4ccc(-c5c6nc(c(-c7ccccc7)c7ccc([nH]7)c(-c7ccccc7)c7nc(c(-c8ccccc8)c8ccc5[nH]8)C=C7)C=C6)cc4)cc3)nc12
REMARK SMILES IDX 24 1 22 2 23 3 21 4 18 5 19 6 79 7 20 8 78 9 17 10 15 11
REMARK SMILES IDX 16 12 13 14 14 15 12 16 11 17 3 18 4 19 81 20 5 21 7 22
REMARK SMILES IDX 80 23 6 24 8 25 9 26 10 27 2 28 1 29 25 30 26 31 27 32 28 33
REMARK SMILES IDX 29 34 30 35 31 36 77 37 32 38 76 39 33 40 34 41 35 42 70 43
REMARK SMILES IDX 36 44 75 45 69 46 71 47 37 48 74 49 68 50 67 51 38 53 60 54
REMARK SMILES IDX 45 55 59 56 46 57 49 58 58 59 72 60 47 61 48 62 57 64 73 65
REMARK SMILES IDX 50 66 39 67 40 68 44 69 41 70 43 71 42 72 61 73 62 74 66 75
REMARK SMILES IDX 63 76 65 77 64 78 51 79 52 80 56 81 53 82 55 83 54 84
REMARK H PARENT 17 13 71 52 49 63
REMARK Flexibility Score: inf
ROOT
ATOM      1  O   UNL A   1      40.418  20.319  26.468  1.00  0.00    -0.458 OA
ENDROOT
BRANCH   1   2
ATOM      2  C   UNL A   1      40.024  21.573  26.794  1.00  0.00     0.338 C 
ATOM      3  O   UNL A   1      40.589  22.303  27.597  1.00  0.00    -0.246 OA
BRANCH   2   4
ATOM      4  C   UNL A   1      38.799  22.012  26.076  1.00  0.00     0.060 A 
ATOM      5  C   UNL A   1      36.821  22.872  24.312  1.00  0.00     0.041 A 
ATOM      6  C   UNL A   1      37.204  21.536  24.305  1.00  0.00     0.027 A 
ATOM      7  C   UNL A   1      37.315  23.747  25.281  1.00  0.00     0.027 A 
ATOM      8  C   UNL A   1      38.232  21.126  25.146  1.00  0.00     0.018 A 
ATOM      9  C   UNL A   1      38.287  23.308  26.188  1.00  0.00     0.018 A 
BRANCH   5  10
ATOM     10  N   UNL A   1      35.915  23.287  23.344  1.00  0.00    -0.325 N 
ATOM     11  C   UNL A   1      34.554  23.329  23.426  1.00  0.00     0.237 C 
ATOM     12  O   UNL A   1      33.959  23.786  22.440  1.00  0.00    -0.273 OA
ATOM     13  H   UNL A   1      36.304  23.590  22.492  1.00  0.00     0.169 HD
BRANCH  11  14
ATOM     14  C   UNL A   1      33.749  22.859  24.648  1.00  0.00     0.139 C 
ATOM     15  C   UNL A   1      33.698  21.353  24.847  1.00  0.00     0.030 C 
BRANCH  14  16
ATOM     16  S   UNL A   1      33.690  24.101  26.016  1.00  0.00    -0.093 SA
BRANCH  16  17
ATOM     17  C   UNL A   1      32.812  25.588  25.608  1.00  0.00     0.098 A 
ATOM     18  C   UNL A   1      33.285  29.020  26.774  1.00  0.00     0.145 A 
ATOM     19  C   UNL A   1      32.713  30.293  26.682  1.00  0.00     0.049 A 
ATOM     20  C   UNL A   1      32.796  27.910  26.062  1.00  0.00     0.114 A 
ATOM     21  C   UNL A   1      31.681  30.511  25.788  1.00  0.00     0.005 A 
ATOM     22  C   UNL A   1      31.766  28.144  25.128  1.00  0.00     0.007 A 
ATOM     23  N   UNL A   1      33.297  26.665  26.269  1.00  0.00    -0.238 NA
ATOM     24  C   UNL A   1      31.237  29.454  24.995  1.00  0.00     0.011 A 
ATOM     25  C   UNL A   1      31.303  27.032  24.387  1.00  0.00    -0.039 A 
ATOM     26  C   UNL A   1      30.209  27.128  23.355  1.00  0.00     0.045 C 
ATOM     27  C   UNL A   1      31.823  25.754  24.663  1.00  0.00     0.039 A 
BRANCH  18  28
ATOM     28  O   UNL A   1      34.367  28.933  27.626  1.00  0.00    -0.494 OA
ATOM     29  C   UNL A   1      35.011  30.206  27.730  1.00  0.00     0.278 C 
ENDBRANCH  18  28
ENDBRANCH  16  17
ENDBRANCH  14  16
ENDBRANCH  11  14
ENDBRANCH   5  10
ENDBRANCH   2   4
ENDBRANCH   1   2
BRANCH   1  30
ATOM     30  C   UNL A   1      41.627  19.884  27.127  1.00  0.00     0.275 C 
BRANCH  30  31
ATOM     31  C   UNL A   1      42.405  18.852  26.313  1.00  0.00     0.275 C 
BRANCH  31  32
ATOM     32  O   UNL A   1      42.767  19.384  25.029  1.00  0.00    -0.458 OA
BRANCH  32  33
ATOM     33  C   UNL A   1      44.096  19.424  24.789  1.00  0.00     0.338 C 
ATOM     34  O   UNL A   1      44.824  18.503  24.462  1.00  0.00    -0.246 OA
BRANCH  33  35
ATOM     35  C   UNL A   1      44.579  20.808  24.875  1.00  0.00     0.060 A 
ATOM     36  C   UNL A   1      45.245  21.193  26.033  1.00  0.00     0.016 A 
ATOM     37  C   UNL A   1      44.201  21.762  23.938  1.00  0.00     0.016 A 
ATOM     38  C   UNL A   1      45.470  22.525  26.324  1.00  0.00     0.010 A 
ATOM     39  C   UNL A   1      44.493  23.106  24.189  1.00  0.00     0.010 A 
ATOM     40  C   UNL A   1      45.090  23.498  25.404  1.00  0.00    -0.014 A 
BRANCH  40  41
ATOM     41  C   UNL A   1      45.196  24.927  25.776  1.00  0.00     0.031 A 
ATOM     42  C   UNL A   1      46.510  25.625  25.580  1.00  0.00     0.074 A 
ATOM     43  C   UNL A   1      44.125  25.604  26.231  1.00  0.00     0.049 A 
ATOM     44  N   UNL A   1      46.921  26.767  26.064  1.00  0.00    -0.248 NA
ATOM     45  C   UNL A   1      47.502  24.935  24.738  1.00  0.00     0.031 C 
ATOM     46  C   UNL A   1      42.762  25.076  26.339  1.00  0.00     0.029 A 
ATOM     47  N   UNL A   1      44.018  26.892  26.686  1.00  0.00    -0.354 N 
ATOM     48  C   UNL A   1      48.242  26.892  25.652  1.00  0.00     0.074 A 
ATOM     49  C   UNL A   1      48.561  25.719  24.870  1.00  0.00     0.031 C 
ATOM     50  C   UNL A   1      41.955  26.038  26.810  1.00  0.00     0.029 A 
ATOM     51  C   UNL A   1      42.760  27.207  27.138  1.00  0.00     0.049 A 
ATOM     52  H   UNL A   1      44.770  27.529  26.688  1.00  0.00     0.167 HD
ATOM     53  C   UNL A   1      49.109  27.894  25.925  1.00  0.00     0.031 A 
ATOM     54  C   UNL A   1      42.324  28.291  27.805  1.00  0.00     0.031 A 
ATOM     55  C   UNL A   1      48.751  29.068  26.674  1.00  0.00     0.049 A 
ATOM     56  C   UNL A   1      43.320  29.357  28.163  1.00  0.00     0.074 A 
ATOM     57  C   UNL A   1      49.543  30.143  27.035  1.00  0.00     0.029 A 
ATOM     58  N   UNL A   1      47.476  29.327  27.159  1.00  0.00    -0.354 N 
ATOM     59  N   UNL A   1      44.597  29.426  27.872  1.00  0.00    -0.248 NA
ATOM     60  C   UNL A   1      42.819  30.483  28.961  1.00  0.00     0.031 C 
ATOM     61  C   UNL A   1      48.756  31.033  27.773  1.00  0.00     0.029 A 
ATOM     62  C   UNL A   1      47.461  30.539  27.825  1.00  0.00     0.049 A 
ATOM     63  H   UNL A   1      46.697  28.736  27.045  1.00  0.00     0.167 HD
ATOM     64  C   UNL A   1      45.051  30.608  28.438  1.00  0.00     0.074 A 
ATOM     65  C   UNL A   1      43.906  31.234  29.070  1.00  0.00     0.031 C 
ATOM     66  C   UNL A   1      46.301  31.131  28.441  1.00  0.00     0.031 A 
BRANCH  53  67
ATOM     67  C   UNL A   1      50.531  27.722  25.474  1.00  0.00    -0.014 A 
ATOM     68  C   UNL A   1      50.954  28.090  24.187  1.00  0.00     0.009 A 
ATOM     69  C   UNL A   1      51.471  27.177  26.364  1.00  0.00     0.009 A 
ATOM     70  C   UNL A   1      52.277  27.881  23.791  1.00  0.00     0.001 A 
ATOM     71  C   UNL A   1      52.800  26.997  25.976  1.00  0.00     0.001 A 
ATOM     72  C   UNL A   1      53.199  27.339  24.686  1.00  0.00     0.000 A 
ENDBRANCH  53  67
BRANCH  54  73
ATOM     73  C   UNL A   1      40.907  28.376  28.245  1.00  0.00    -0.014 A 
ATOM     74  C   UNL A   1      40.500  27.810  29.462  1.00  0.00     0.009 A 
ATOM     75  C   UNL A   1      39.951  29.034  27.453  1.00  0.00     0.009 A 
ATOM     76  C   UNL A   1      39.165  27.888  29.868  1.00  0.00     0.001 A 
ATOM     77  C   UNL A   1      38.625  29.141  27.876  1.00  0.00     0.001 A 
ATOM     78  C   UNL A   1      38.231  28.559  29.079  1.00  0.00     0.000 A 
ENDBRANCH  54  73
BRANCH  66  79
ATOM     79  C   UNL A   1      46.475  32.462  29.111  1.00  0.00    -0.014 A 
ATOM     80  C   UNL A   1      46.280  33.661  28.410  1.00  0.00     0.009 A 
ATOM     81  C   UNL A   1      46.807  32.510  30.473  1.00  0.00     0.009 A 
ATOM     82  C   UNL A   1      46.449  34.886  29.056  1.00  0.00     0.001 A 
ATOM     83  C   UNL A   1      46.946  33.735  31.123  1.00  0.00     0.001 A 
ATOM     84  C   UNL A   1      46.777  34.923  30.411  1.00  0.00     0.000 A 
ENDBRANCH  66  79
ENDBRANCH  40  41
ENDBRANCH  33  35
ENDBRANCH  32  33
ENDBRANCH  31  32
ENDBRANCH  30  31
ENDBRANCH   1  30
TORSDOF 16
ENDMDL
MODEL 2
REMARK VINA RESULT:     -11.5      4.193      9.440
REMARK SMILES COc1cccc2c(C)cc(S[C@H](C)C(=O)Nc3ccc(C(=O)OCCOC(=O)c4ccc(-c5c6nc(c(-c7ccccc7)c7ccc([nH]7)c(-c7ccccc7)c7nc(c(-c8ccccc8)c8ccc5[nH]8)C=C7)C=C6)cc4)cc3)nc12
REMARK SMILES IDX 24 1 22 2 23 3 21 4 18 5 19 6 79 7 20 8 78 9 17 10 15 11
REMARK SMILES IDX 16 12 13 14 14 15 12 16 11 17 3 18 4 19 81 20 5 21 7 22
REMARK SMILES IDX 80 23 6 24 8 25 9 26 10 27 2 28 1 29 25 30 26 31 27 32 28 33
REMARK SMILES IDX 29 34 30 35 31 36 77 37 32 38 76 39 33 40 34 41 35 42 70 43
REMARK SMILES IDX 36 44 75 45 69 46 71 47 37 48 74 49 68 50 67 51 38 53 60 54
REMARK SMILES IDX 45 55 59 56 46 57 49 58 58 59 72 60 47 61 48 62 57 64 73 65
REMARK SMILES IDX 50 66 39 67 40 68 44 69 41 70 43 71 42 72 61 73 62 74 66 75
REMARK SMILES IDX 63 76 65 77 64 78 51 79 52 80 56 81 53 82 55 83 54 84
REMARK H PARENT 17 13 71 52 49 63
REMARK Flexibility Score: inf
ROOT
ATOM      1  O   UNL A   1      32.882  28.431  24.904  1.00  0.00    -0.458 OA
ENDROOT
BRANCH   1   2
ATOM      2  C   UNL A   1      33.214  27.978  23.671  1.00  0.00     0.338 C 
ATOM      3  O   UNL A   1      33.666  28.666  22.766  1.00  0.00    -0.246 OA
BRANCH   2   4
ATOM      4  C   UNL A   1      32.974  26.523  23.493  1.00  0.00     0.060 A 
ATOM      5  C   UNL A   1      32.910  23.737  23.509  1.00  0.00     0.041 A 
ATOM      6  C   UNL A   1      32.281  24.438  24.532  1.00  0.00     0.027 A 
ATOM      7  C   UNL A   1      33.448  24.413  22.413  1.00  0.00     0.027 A 
ATOM      8  C   UNL A   1      32.366  25.825  24.549  1.00  0.00     0.018 A 
ATOM      9  C   UNL A   1      33.453  25.812  22.388  1.00  0.00     0.018 A 
BRANCH   5  10
ATOM     10  N   UNL A   1      32.954  22.352  23.610  1.00  0.00    -0.325 N 
ATOM     11  C   UNL A   1      33.787  21.590  24.375  1.00  0.00     0.237 C 
ATOM     12  O   UNL A   1      33.603  20.365  24.333  1.00  0.00    -0.273 OA
ATOM     13  H   UNL A   1      32.302  21.859  23.062  1.00  0.00     0.169 HD
BRANCH  11  14
ATOM     14  C   UNL A   1      34.904  22.159  25.265  1.00  0.00     0.139 C 
ATOM     15  C   UNL A   1      34.556  22.280  26.739  1.00  0.00     0.030 C 
BRANCH  14  16
ATOM     16  S   UNL A   1      36.603  21.843  24.609  1.00  0.00    -0.093 SA
BRANCH  16  17
ATOM     17  C   UNL A   1      37.908  22.354  25.698  1.00  0.00     0.098 A 
ATOM     18  C   UNL A   1      41.031  20.686  26.608  1.00  0.00     0.145 A 
ATOM     19  C   UNL A   1      42.133  20.821  27.458  1.00  0.00     0.049 A 
ATOM     20  C   UNL A   1      40.016  21.656  26.512  1.00  0.00     0.114 A 
ATOM     21  C   UNL A   1      42.301  21.993  28.172  1.00  0.00     0.005 A 
ATOM     22  C   UNL A   1      40.208  22.862  27.216  1.00  0.00     0.007 A 
ATOM     23  N   UNL A   1      38.900  21.437  25.771  1.00  0.00    -0.238 NA
ATOM     24  C   UNL A   1      41.364  23.016  28.025  1.00  0.00     0.011 A 
ATOM     25  C   UNL A   1      39.205  23.851  27.088  1.00  0.00    -0.039 A 
ATOM     26  C   UNL A   1      39.271  25.187  27.780  1.00  0.00     0.045 C 
ATOM     27  C   UNL A   1      38.046  23.564  26.342  1.00  0.00     0.039 A 
BRANCH  18  28
ATOM     28  O   UNL A   1      41.008  19.518  25.872  1.00  0.00    -0.494 OA
ATOM     29  C   UNL A   1      42.224  18.792  26.071  1.00  0.00     0.278 C 
ENDBRANCH  18  28
ENDBRANCH  16  17
ENDBRANCH  14  16
ENDBRANCH  11  14
ENDBRANCH   5  10
ENDBRANCH   2   4
ENDBRANCH   1   2
BRANCH   1  30
ATOM     30  C   UNL A   1      31.763  29.343  24.922  1.00  0.00     0.275 C 
BRANCH  30  31
ATOM     31  C   UNL A   1      31.882  30.402  26.017  1.00  0.00     0.275 C 
BRANCH  31  32
ATOM     32  O   UNL A   1      33.063  30.187  26.806  1.00  0.00    -0.458 OA
BRANCH  32  33
ATOM     33  C   UNL A   1      33.603  31.309  27.332  1.00  0.00     0.338 C 
ATOM     34  O   UNL A   1      33.051  32.374  27.545  1.00  0.00    -0.246 OA
BRANCH  33  35
ATOM     35  C   UNL A   1      34.991  31.053  27.737  1.00  0.00     0.060 A 
ATOM     36  C   UNL A   1      35.337  29.752  28.085  1.00  0.00     0.016 A 
ATOM     37  C   UNL A   1      35.876  32.097  27.974  1.00  0.00     0.016 A 
ATOM     38  C   UNL A   1      36.517  29.476  28.749  1.00  0.00     0.010 A 
ATOM     39  C   UNL A   1      37.106  31.815  28.577  1.00  0.00     0.010 A 
ATOM     40  C   UNL A   1      37.414  30.509  29.007  1.00  0.00    -0.014 A 
BRANCH  40  41
ATOM     41  C   UNL A   1      38.606  30.242  29.842  1.00  0.00     0.031 A 
ATOM     42  C   UNL A   1      39.782  29.552  29.217  1.00  0.00     0.074 A 
ATOM     43  C   UNL A   1      38.658  30.655  31.122  1.00  0.00     0.049 A 
ATOM     44  N   UNL A   1      40.809  28.982  29.791  1.00  0.00    -0.248 NA
ATOM     45  C   UNL A   1      39.796  29.479  27.746  1.00  0.00     0.031 C 
ATOM     46  C   UNL A   1      37.637  31.454  31.806  1.00  0.00     0.029 A 
ATOM     47  N   UNL A   1      39.621  30.461  32.078  1.00  0.00    -0.354 N 
ATOM     48  C   UNL A   1      41.545  28.416  28.759  1.00  0.00     0.074 A 
ATOM     49  C   UNL A   1      40.857  28.718  27.524  1.00  0.00     0.031 C 
ATOM     50  C   UNL A   1      38.037  31.695  33.064  1.00  0.00     0.029 A 
ATOM     51  C   UNL A   1      39.284  30.981  33.304  1.00  0.00     0.049 A 
ATOM     52  H   UNL A   1      40.470  29.994  31.902  1.00  0.00     0.167 HD
ATOM     53  C   UNL A   1      42.684  27.691  28.847  1.00  0.00     0.031 A 
ATOM     54  C   UNL A   1      39.880  30.836  34.501  1.00  0.00     0.031 A 
ATOM     55  C   UNL A   1      43.367  27.439  30.087  1.00  0.00     0.049 A 
ATOM     56  C   UNL A   1      41.102  29.967  34.590  1.00  0.00     0.074 A 
ATOM     57  C   UNL A   1      44.516  26.703  30.311  1.00  0.00     0.029 A 
ATOM     58  N   UNL A   1      42.966  27.942  31.317  1.00  0.00    -0.354 N 
ATOM     59  N   UNL A   1      41.738  29.336  33.632  1.00  0.00    -0.248 NA
ATOM     60  C   UNL A   1      41.673  29.770  35.928  1.00  0.00     0.031 C 
ATOM     61  C   UNL A   1      44.787  26.728  31.683  1.00  0.00     0.029 A 
ATOM     62  C   UNL A   1      43.837  27.525  32.306  1.00  0.00     0.049 A 
ATOM     63  H   UNL A   1      42.177  28.512  31.464  1.00  0.00     0.167 HD
ATOM     64  C   UNL A   1      42.794  28.679  34.247  1.00  0.00     0.074 A 
ATOM     65  C   UNL A   1      42.723  29.007  35.657  1.00  0.00     0.031 C 
ATOM     66  C   UNL A   1      43.736  27.873  33.700  1.00  0.00     0.031 A 
BRANCH  53  67
ATOM     67  C   UNL A   1      43.210  27.069  27.584  1.00  0.00    -0.014 A 
ATOM     68  C   UNL A   1      42.753  25.825  27.121  1.00  0.00     0.009 A 
ATOM     69  C   UNL A   1      44.188  27.750  26.841  1.00  0.00     0.009 A 
ATOM     70  C   UNL A   1      43.291  25.262  25.961  1.00  0.00     0.001 A 
ATOM     71  C   UNL A   1      44.703  27.198  25.667  1.00  0.00     0.001 A 
ATOM     72  C   UNL A   1      44.262  25.951  25.234  1.00  0.00     0.000 A 
ENDBRANCH  53  67
BRANCH  54  73
ATOM     73  C   UNL A   1      39.283  31.458  35.712  1.00  0.00    -0.014 A 
ATOM     74  C   UNL A   1      39.718  32.714  36.160  1.00  0.00     0.009 A 
ATOM     75  C   UNL A   1      38.265  30.801  36.424  1.00  0.00     0.009 A 
ATOM     76  C   UNL A   1      39.157  33.291  37.303  1.00  0.00     0.001 A 
ATOM     77  C   UNL A   1      37.683  31.394  37.546  1.00  0.00     0.001 A 
ATOM     78  C   UNL A   1      38.136  32.635  37.990  1.00  0.00     0.000 A 
ENDBRANCH  54  73
BRANCH  66  79
ATOM     79  C   UNL A   1      44.784  27.334  34.627  1.00  0.00    -0.014 A 
ATOM     80  C   UNL A   1      45.962  28.050  34.890  1.00  0.00     0.009 A 
ATOM     81  C   UNL A   1      44.571  26.105  35.270  1.00  0.00     0.009 A 
ATOM     82  C   UNL A   1      46.922  27.526  35.756  1.00  0.00     0.001 A 
ATOM     83  C   UNL A   1      45.519  25.598  36.157  1.00  0.00     0.001 A 
ATOM     84  C   UNL A   1      46.698  26.304  36.392  1.00  0.00     0.000 A 
ENDBRANCH  66  79
ENDBRANCH  40  41
ENDBRANCH  33  35
ENDBRANCH  32  33
ENDBRANCH  31  32
ENDBRANCH  30  31
ENDBRANCH   1  30
TORSDOF 16
ENDMDL
MODEL 3
REMARK VINA RESULT:     -11.2      5.539     10.050
REMARK SMILES COc1cccc2c(C)cc(S[C@H](C)C(=O)Nc3ccc(C(=O)OCCOC(=O)c4ccc(-c5c6nc(c(-c7ccccc7)c7ccc([nH]7)c(-c7ccccc7)c7nc(c(-c8ccccc8)c8ccc5[nH]8)C=C7)C=C6)cc4)cc3)nc12
REMARK SMILES IDX 24 1 22 2 23 3 21 4 18 5 19 6 79 7 20 8 78 9 17 10 15 11
REMARK SMILES IDX 16 12 13 14 14 15 12 16 11 17 3 18 4 19 81 20 5 21 7 22
REMARK SMILES IDX 80 23 6 24 8 25 9 26 10 27 2 28 1 29 25 30 26 31 27 32 28 33
REMARK SMILES IDX 29 34 30 35 31 36 77 37 32 38 76 39 33 40 34 41 35 42 70 43
REMARK SMILES IDX 36 44 75 45 69 46 71 47 37 48 74 49 68 50 67 51 38 53 60 54
REMARK SMILES IDX 45 55 59 56 46 57 49 58 58 59 72 60 47 61 48 62 57 64 73 65
REMARK SMILES IDX 50 66 39 67 40 68 44 69 41 70 43 71 42 72 61 73 62 74 66 75
REMARK SMILES IDX 63 76 65 77 64 78 51 79 52 80 56 81 53 82 55 83 54 84
REMARK H PARENT 17 13 71 52 49 63
REMARK Flexibility Score: inf
ROOT
ATOM      1  O   UNL A   1      32.630  29.372  26.336  1.00  0.00    -0.458 OA
ENDROOT
BRANCH   1   2
ATOM      2  C   UNL A   1      32.019  28.376  27.023  1.00  0.00     0.338 C 
ATOM      3  O   UNL A   1      31.300  28.533  28.001  1.00  0.00    -0.246 OA
BRANCH   2   4
ATOM      4  C   UNL A   1      32.306  27.023  26.481  1.00  0.00     0.060 A 
ATOM      5  C   UNL A   1      32.806  24.331  25.966  1.00  0.00     0.041 A 
ATOM      6  C   UNL A   1      31.495  24.755  26.152  1.00  0.00     0.027 A 
ATOM      7  C   UNL A   1      33.848  25.256  25.898  1.00  0.00     0.027 A 
ATOM      8  C   UNL A   1      31.257  26.088  26.467  1.00  0.00     0.018 A 
ATOM      9  C   UNL A   1      33.594  26.613  26.126  1.00  0.00     0.018 A 
BRANCH   5  10
ATOM     10  N   UNL A   1      33.026  22.966  25.824  1.00  0.00    -0.325 N 
ATOM     11  C   UNL A   1      33.731  22.323  24.849  1.00  0.00     0.237 C 
ATOM     12  O   UNL A   1      33.828  21.093  24.963  1.00  0.00    -0.273 OA
ATOM     13  H   UNL A   1      32.624  22.391  26.514  1.00  0.00     0.169 HD
BRANCH  11  14
ATOM     14  C   UNL A   1      34.396  23.031  23.657  1.00  0.00     0.139 C 
ATOM     15  C   UNL A   1      35.826  22.605  23.371  1.00  0.00     0.030 C 
BRANCH  14  16
ATOM     16  S   UNL A   1      33.194  23.604  22.375  1.00  0.00    -0.093 SA
BRANCH  16  17
ATOM     17  C   UNL A   1      32.795  25.330  22.474  1.00  0.00     0.098 A 
ATOM     18  C   UNL A   1      29.636  26.995  23.256  1.00  0.00     0.145 A 
ATOM     19  C   UNL A   1      29.059  28.268  23.316  1.00  0.00     0.049 A 
ATOM     20  C   UNL A   1      30.996  26.787  22.959  1.00  0.00     0.114 A 
ATOM     21  C   UNL A   1      29.861  29.385  23.176  1.00  0.00     0.005 A 
ATOM     22  C   UNL A   1      31.815  27.929  22.849  1.00  0.00     0.007 A 
ATOM     23  N   UNL A   1      31.494  25.536  22.787  1.00  0.00    -0.238 NA
ATOM     24  C   UNL A   1      31.230  29.216  22.978  1.00  0.00     0.011 A 
ATOM     25  C   UNL A   1      33.188  27.714  22.589  1.00  0.00    -0.039 A 
ATOM     26  C   UNL A   1      34.184  28.835  22.444  1.00  0.00     0.045 C 
ATOM     27  C   UNL A   1      33.653  26.403  22.378  1.00  0.00     0.039 A 
BRANCH  18  28
ATOM     28  O   UNL A   1      28.766  25.953  23.502  1.00  0.00    -0.494 OA
ATOM     29  C   UNL A   1      27.640  26.423  24.250  1.00  0.00     0.278 C 
ENDBRANCH  18  28
ENDBRANCH  16  17
ENDBRANCH  14  16
ENDBRANCH  11  14
ENDBRANCH   5  10
ENDBRANCH   2   4
ENDBRANCH   1   2
BRANCH   1  30
ATOM     30  C   UNL A   1      33.300  30.345  27.166  1.00  0.00     0.275 C 
BRANCH  30  31
ATOM     31  C   UNL A   1      32.607  31.705  27.159  1.00  0.00     0.275 C 
BRANCH  31  32
ATOM     32  O   UNL A   1      33.572  32.768  27.112  1.00  0.00    -0.458 OA
BRANCH  32  33
ATOM     33  C   UNL A   1      33.424  33.708  28.071  1.00  0.00     0.338 C 
ATOM     34  O   UNL A   1      32.528  34.527  28.182  1.00  0.00    -0.246 OA
BRANCH  33  35
ATOM     35  C   UNL A   1      34.477  33.560  29.083  1.00  0.00     0.060 A 
ATOM     36  C   UNL A   1      35.716  34.135  28.820  1.00  0.00     0.016 A 
ATOM     37  C   UNL A   1      34.322  32.701  30.165  1.00  0.00     0.016 A 
ATOM     38  C   UNL A   1      36.833  33.803  29.563  1.00  0.00     0.010 A 
ATOM     39  C   UNL A   1      35.431  32.419  30.966  1.00  0.00     0.010 A 
ATOM     40  C   UNL A   1      36.703  32.935  30.643  1.00  0.00    -0.014 A 
BRANCH  40  41
ATOM     41  C   UNL A   1      37.917  32.465  31.346  1.00  0.00     0.031 A 
ATOM     42  C   UNL A   1      38.727  31.364  30.727  1.00  0.00     0.074 A 
ATOM     43  C   UNL A   1      38.322  33.047  32.491  1.00  0.00     0.049 A 
ATOM     44  N   UNL A   1      39.655  30.617  31.262  1.00  0.00    -0.248 NA
ATOM     45  C   UNL A   1      38.439  31.051  29.316  1.00  0.00     0.031 C 
ATOM     46  C   UNL A   1      37.699  34.214  33.124  1.00  0.00     0.029 A 
ATOM     47  N   UNL A   1      39.362  32.734  33.326  1.00  0.00    -0.354 N 
ATOM     48  C   UNL A   1      40.003  29.696  30.282  1.00  0.00     0.074 A 
ATOM     49  C   UNL A   1      39.198  29.984  29.116  1.00  0.00     0.031 C 
ATOM     50  C   UNL A   1      38.381  34.526  34.235  1.00  0.00     0.029 A 
ATOM     51  C   UNL A   1      39.416  33.523  34.448  1.00  0.00     0.049 A 
ATOM     52  H   UNL A   1      40.007  32.014  33.138  1.00  0.00     0.167 HD
ATOM     53  C   UNL A   1      40.904  28.690  30.365  1.00  0.00     0.031 A 
ATOM     54  C   UNL A   1      40.169  33.405  35.557  1.00  0.00     0.031 A 
ATOM     55  C   UNL A   1      41.719  28.452  31.525  1.00  0.00     0.049 A 
ATOM     56  C   UNL A   1      41.110  32.238  35.659  1.00  0.00     0.074 A 
ATOM     57  C   UNL A   1      42.653  27.455  31.740  1.00  0.00     0.029 A 
ATOM     58  N   UNL A   1      41.708  29.246  32.664  1.00  0.00    -0.354 N 
ATOM     59  N   UNL A   1      41.361  31.299  34.778  1.00  0.00    -0.248 NA
ATOM     60  C   UNL A   1      41.853  32.102  36.918  1.00  0.00     0.031 C 
ATOM     61  C   UNL A   1      43.177  27.622  33.027  1.00  0.00     0.029 A 
ATOM     62  C   UNL A   1      42.610  28.755  33.591  1.00  0.00     0.049 A 
ATOM     63  H   UNL A   1      41.142  30.041  32.794  1.00  0.00     0.167 HD
ATOM     64  C   UNL A   1      42.301  30.468  35.368  1.00  0.00     0.074 A 
ATOM     65  C   UNL A   1      42.590  31.027  36.674  1.00  0.00     0.031 C 
ATOM     66  C   UNL A   1      42.873  29.340  34.880  1.00  0.00     0.031 A 
BRANCH  53  67
ATOM     67  C   UNL A   1      40.995  27.743  29.202  1.00  0.00    -0.014 A 
ATOM     68  C   UNL A   1      40.127  26.647  29.066  1.00  0.00     0.009 A 
ATOM     69  C   UNL A   1      41.975  27.956  28.220  1.00  0.00     0.009 A 
ATOM     70  C   UNL A   1      40.265  25.768  27.989  1.00  0.00     0.001 A 
ATOM     71  C   UNL A   1      42.091  27.092  27.129  1.00  0.00     0.001 A 
ATOM     72  C   UNL A   1      41.243  25.993  27.021  1.00  0.00     0.000 A 
ENDBRANCH  53  67
BRANCH  54  73
ATOM     73  C   UNL A   1      40.002  34.365  36.679  1.00  0.00    -0.014 A 
ATOM     74  C   UNL A   1      40.742  35.556  36.719  1.00  0.00     0.009 A 
ATOM     75  C   UNL A   1      39.091  34.100  37.715  1.00  0.00     0.009 A 
ATOM     76  C   UNL A   1      40.584  36.452  37.780  1.00  0.00     0.001 A 
ATOM     77  C   UNL A   1      38.910  35.012  38.757  1.00  0.00     0.001 A 
ATOM     78  C   UNL A   1      39.664  36.183  38.794  1.00  0.00     0.000 A 
ENDBRANCH  54  73
BRANCH  66  79
ATOM     79  C   UNL A   1      43.897  28.673  35.749  1.00  0.00    -0.014 A 
ATOM     80  C   UNL A   1      45.246  29.058  35.713  1.00  0.00     0.009 A 
ATOM     81  C   UNL A   1      43.496  27.665  36.639  1.00  0.00     0.009 A 
ATOM     82  C   UNL A   1      46.180  28.421  36.530  1.00  0.00     0.001 A 
ATOM     83  C   UNL A   1      44.426  27.050  37.475  1.00  0.00     0.001 A 
ATOM     84  C   UNL A   1      45.769  27.422  37.413  1.00  0.00     0.000 A 
ENDBRANCH  66  79
ENDBRANCH  40  41
ENDBRANCH  33  35
ENDBRANCH  32  33
ENDBRANCH  31  32
ENDBRANCH  30  31
ENDBRANCH   1  30
TORSDOF 16
ENDMDL
