MODEL 1
REMARK VINA RESULT:     -11.6      0.000      0.000
REMARK SMILES O=C(OCCOC(=O)c1ccc(-c2c3nc(c(-c4ccccc4)c4ccc([nH]4)c(-c4ccccc4)c4nc(c(-c5ccccc5)c5ccc2[nH]5)C=C4)C=C3)cc1)C1=Cc2cc(S(F)(F)(F)(F)F)ccc2O[C@@H]1C(F)(F)F
REMARK SMILES IDX 5 1 4 2 3 3 2 4 1 5 57 6 58 7 72 8 59 9 71 10 60 11 70 12
REMARK SMILES IDX 61 13 69 14 68 15 73 16 74 17 75 18 76 19 62 20 63 21 64 22
REMARK SMILES IDX 65 23 66 24 67 25 6 26 7 27 8 28 9 29 10 30 56 31 11 32
REMARK SMILES IDX 55 33 12 34 13 35 14 36 49 37 15 38 54 39 48 40 50 41 16 42
REMARK SMILES IDX 53 43 47 44 46 45 17 47 39 48 24 49 38 50 25 51 28 52 37 53
REMARK SMILES IDX 51 54 26 55 27 56 36 58 52 59 29 60 18 61 19 62 23 63 20 64
REMARK SMILES IDX 22 65 21 66 40 67 41 68 45 69 42 70 44 71 43 72 30 73 31 74
REMARK SMILES IDX 35 75 32 76 34 77 33 78
REMARK H PARENT 50 46 28 57
REMARK Flexibility Score: inf
ROOT
ATOM      1  C   UNL A   1      32.978  29.854  27.258  1.00  0.00     0.275 C 
ENDROOT
BRANCH   1   2
ATOM      2  C   UNL A   1      33.659  28.547  26.886  1.00  0.00     0.275 C 
BRANCH   2   3
ATOM      3  O   UNL A   1      32.807  27.459  27.212  1.00  0.00    -0.459 OA
BRANCH   3   4
ATOM      4  C   UNL A   1      31.820  27.028  26.285  1.00  0.00     0.338 C 
ATOM      5  O   UNL A   1      30.668  26.684  26.698  1.00  0.00    -0.246 OA
BRANCH   4   6
ATOM      6  C   UNL A   1      32.142  26.978  24.800  1.00  0.00     0.087 C 
ATOM      7  C   UNL A   1      33.020  26.055  24.325  1.00  0.00     0.027 C 
ATOM      8  C   UNL A   1      31.481  27.960  23.847  1.00  0.00     0.316 C 
ATOM      9  C   UNL A   1      33.680  25.072  25.279  1.00  0.00     0.019 A 
ATOM     10  O   UNL A   1      31.572  24.988  26.373  1.00  0.00    -0.475 OA
ATOM     11  C   UNL A   1      35.016  24.721  25.168  1.00  0.00     0.036 A 
ATOM     12  C   UNL A   1      32.888  24.495  26.176  1.00  0.00     0.128 A 
ATOM     13  C   UNL A   1      35.356  23.535  25.859  1.00  0.00     0.107 A 
ATOM     14  C   UNL A   1      33.333  23.424  26.914  1.00  0.00     0.048 A 
ATOM     15  C   UNL A   1      34.624  22.986  26.812  1.00  0.00     0.028 A 
BRANCH   8  16
ATOM     16  C   UNL A   1      30.681  27.195  22.805  1.00  0.00     0.430 C 
ATOM     17  F   UNL A   1      29.875  28.034  22.161  1.00  0.00    -0.167 F 
ATOM     18  F   UNL A   1      31.513  26.625  21.938  1.00  0.00    -0.167 F 
ATOM     19  F   UNL A   1      29.954  26.256  23.405  1.00  0.00    -0.167 F 
ENDBRANCH   8  16
BRANCH  13  20
ATOM     20  S   UNL A   1      36.903  22.712  25.408  1.00  0.00     0.310 S 
ATOM     21  F   UNL A   1      37.096  23.628  24.127  1.00  0.00    -0.094 F 
ATOM     22  F   UNL A   1      36.079  21.728  24.495  1.00  0.00    -0.094 F 
ATOM     23  F   UNL A   1      38.232  22.000  25.022  1.00  0.00    -0.094 F 
ATOM     24  F   UNL A   1      37.727  23.793  26.214  1.00  0.00    -0.094 F 
ATOM     25  F   UNL A   1      35.577  23.513  25.718  1.00  0.00    -0.094 F 
ENDBRANCH  13  20
ENDBRANCH   4   6
ENDBRANCH   3   4
ENDBRANCH   2   3
ENDBRANCH   1   2
BRANCH   1  26
ATOM     26  O   UNL A   1      33.924  30.912  27.205  1.00  0.00    -0.458 OA
BRANCH  26  27
ATOM     27  C   UNL A   1      34.744  31.190  28.330  1.00  0.00     0.338 C 
ATOM     28  O   UNL A   1      34.333  31.983  29.235  1.00  0.00    -0.246 OA
BRANCH  27  29
ATOM     29  C   UNL A   1      36.111  30.540  28.455  1.00  0.00     0.060 A 
ATOM     30  C   UNL A   1      37.076  30.571  27.461  1.00  0.00     0.016 A 
ATOM     31  C   UNL A   1      36.367  30.011  29.645  1.00  0.00     0.016 A 
ATOM     32  C   UNL A   1      38.200  29.753  27.727  1.00  0.00     0.010 A 
ATOM     33  C   UNL A   1      37.545  29.341  29.876  1.00  0.00     0.010 A 
ATOM     34  C   UNL A   1      38.518  29.283  28.919  1.00  0.00    -0.014 A 
BRANCH  34  35
ATOM     35  C   UNL A   1      39.895  28.706  29.211  1.00  0.00     0.031 A 
ATOM     36  C   UNL A   1      40.805  29.612  29.758  1.00  0.00     0.074 A 
ATOM     37  C   UNL A   1      40.221  27.419  28.823  1.00  0.00     0.049 A 
ATOM     38  N   UNL A   1      42.095  29.405  30.029  1.00  0.00    -0.248 NA
ATOM     39  C   UNL A   1      40.469  30.991  30.140  1.00  0.00     0.031 C 
ATOM     40  C   UNL A   1      39.306  26.497  28.277  1.00  0.00     0.029 A 
ATOM     41  N   UNL A   1      41.452  26.804  28.885  1.00  0.00    -0.354 N 
ATOM     42  C   UNL A   1      42.636  30.501  30.565  1.00  0.00     0.074 A 
ATOM     43  C   UNL A   1      41.599  31.540  30.638  1.00  0.00     0.031 C 
ATOM     44  C   UNL A   1      39.978  25.348  28.005  1.00  0.00     0.029 A 
ATOM     45  C   UNL A   1      41.323  25.531  28.375  1.00  0.00     0.049 A 
ATOM     46  H   UNL A   1      42.281  27.205  29.233  1.00  0.00     0.167 HD
ATOM     47  C   UNL A   1      43.952  30.675  30.997  1.00  0.00     0.031 A 
ATOM     48  C   UNL A   1      42.312  24.570  28.231  1.00  0.00     0.031 A 
ATOM     49  C   UNL A   1      44.930  29.699  30.892  1.00  0.00     0.049 A 
ATOM     50  C   UNL A   1      43.642  24.764  28.609  1.00  0.00     0.074 A 
ATOM     51  C   UNL A   1      46.260  29.856  31.329  1.00  0.00     0.029 A 
ATOM     52  N   UNL A   1      44.807  28.435  30.360  1.00  0.00    -0.354 N 
ATOM     53  N   UNL A   1      44.173  25.847  29.181  1.00  0.00    -0.248 NA
ATOM     54  C   UNL A   1      44.705  23.766  28.431  1.00  0.00     0.031 C 
ATOM     55  C   UNL A   1      46.931  28.705  31.056  1.00  0.00     0.029 A 
ATOM     56  C   UNL A   1      46.032  27.812  30.444  1.00  0.00     0.049 A 
ATOM     57  H   UNL A   1      43.985  28.044  29.985  1.00  0.00     0.167 HD
ATOM     58  C   UNL A   1      45.473  25.653  29.413  1.00  0.00     0.074 A 
ATOM     59  C   UNL A   1      45.836  24.315  28.927  1.00  0.00     0.031 C 
ATOM     60  C   UNL A   1      46.370  26.538  30.013  1.00  0.00     0.031 A 
BRANCH  47  61
ATOM     61  C   UNL A   1      44.333  32.010  31.615  1.00  0.00    -0.014 A 
ATOM     62  C   UNL A   1      44.140  32.228  32.970  1.00  0.00     0.009 A 
ATOM     63  C   UNL A   1      44.727  32.989  30.810  1.00  0.00     0.009 A 
ATOM     64  C   UNL A   1      44.110  33.594  33.333  1.00  0.00     0.001 A 
ATOM     65  C   UNL A   1      44.806  34.283  31.268  1.00  0.00     0.001 A 
ATOM     66  C   UNL A   1      44.570  34.579  32.583  1.00  0.00     0.000 A 
ENDBRANCH  47  61
BRANCH  48  67
ATOM     67  C   UNL A   1      41.926  23.230  27.627  1.00  0.00    -0.014 A 
ATOM     68  C   UNL A   1      41.384  22.219  28.404  1.00  0.00     0.009 A 
ATOM     69  C   UNL A   1      42.014  23.112  26.307  1.00  0.00     0.009 A 
ATOM     70  C   UNL A   1      41.224  20.992  27.718  1.00  0.00     0.001 A 
ATOM     71  C   UNL A   1      41.710  21.923  25.689  1.00  0.00     0.001 A 
ATOM     72  C   UNL A   1      41.226  20.863  26.404  1.00  0.00     0.000 A 
ENDBRANCH  48  67
BRANCH  60  73
ATOM     73  C   UNL A   1      47.805  26.076  30.209  1.00  0.00    -0.014 A 
ATOM     74  C   UNL A   1      48.293  25.622  31.424  1.00  0.00     0.009 A 
ATOM     75  C   UNL A   1      48.560  26.066  29.117  1.00  0.00     0.009 A 
ATOM     76  C   UNL A   1      49.696  25.444  31.448  1.00  0.00     0.001 A 
ATOM     77  C   UNL A   1      49.895  25.749  29.192  1.00  0.00     0.001 A 
ATOM     78  C   UNL A   1      50.457  25.351  30.373  1.00  0.00     0.000 A 
ENDBRANCH  60  73
ENDBRANCH  34  35
ENDBRANCH  27  29
ENDBRANCH  26  27
ENDBRANCH   1  26
TORSDOF 13
ENDMDL
MODEL 2
REMARK VINA RESULT:     -11.5      3.131      7.729
REMARK SMILES O=C(OCCOC(=O)c1ccc(-c2c3nc(c(-c4ccccc4)c4ccc([nH]4)c(-c4ccccc4)c4nc(c(-c5ccccc5)c5ccc2[nH]5)C=C4)C=C3)cc1)C1=Cc2cc(S(F)(F)(F)(F)F)ccc2O[C@@H]1C(F)(F)F
REMARK SMILES IDX 5 1 4 2 3 3 2 4 1 5 57 6 58 7 72 8 59 9 71 10 60 11 70 12
REMARK SMILES IDX 61 13 69 14 68 15 73 16 74 17 75 18 76 19 62 20 63 21 64 22
REMARK SMILES IDX 65 23 66 24 67 25 6 26 7 27 8 28 9 29 10 30 56 31 11 32
REMARK SMILES IDX 55 33 12 34 13 35 14 36 49 37 15 38 54 39 48 40 50 41 16 42
REMARK SMILES IDX 53 43 47 44 46 45 17 47 39 48 24 49 38 50 25 51 28 52 37 53
REMARK SMILES IDX 51 54 26 55 27 56 36 58 52 59 29 60 18 61 19 62 23 63 20 64
REMARK SMILES IDX 22 65 21 66 40 67 41 68 45 69 42 70 44 71 43 72 30 73 31 74
REMARK SMILES IDX 35 75 32 76 34 77 33 78
REMARK H PARENT 50 46 28 57
REMARK Flexibility Score: inf
ROOT
ATOM      1  C   UNL A   1      37.550  22.376  24.945  1.00  0.00     0.275 C 
ENDROOT
BRANCH   1   2
ATOM      2  C   UNL A   1      36.812  23.683  25.189  1.00  0.00     0.275 C 
BRANCH   2   3
ATOM      3  O   UNL A   1      36.132  24.071  24.005  1.00  0.00    -0.459 OA
BRANCH   3   4
ATOM      4  C   UNL A   1      34.885  23.476  23.676  1.00  0.00     0.338 C 
ATOM      5  O   UNL A   1      34.621  23.181  22.468  1.00  0.00    -0.246 OA
BRANCH   4   6
ATOM      6  C   UNL A   1      33.866  23.193  24.768  1.00  0.00     0.087 C 
ATOM      7  C   UNL A   1      33.250  24.223  25.407  1.00  0.00     0.027 C 
ATOM      8  C   UNL A   1      33.534  21.758  25.143  1.00  0.00     0.316 C 
ATOM      9  C   UNL A   1      33.581  25.658  25.030  1.00  0.00     0.019 A 
ATOM     10  O   UNL A   1      33.656  24.868  22.791  1.00  0.00    -0.475 OA
ATOM     11  C   UNL A   1      33.722  26.656  25.982  1.00  0.00     0.036 A 
ATOM     12  C   UNL A   1      33.642  25.931  23.732  1.00  0.00     0.128 A 
ATOM     13  C   UNL A   1      33.635  27.966  25.455  1.00  0.00     0.107 A 
ATOM     14  C   UNL A   1      33.693  27.232  23.292  1.00  0.00     0.048 A 
ATOM     15  C   UNL A   1      33.773  28.271  24.177  1.00  0.00     0.028 A 
BRANCH   8  16
ATOM     16  C   UNL A   1      32.054  21.502  24.912  1.00  0.00     0.430 C 
ATOM     17  F   UNL A   1      31.680  22.066  23.766  1.00  0.00    -0.167 F 
ATOM     18  F   UNL A   1      31.834  20.191  24.854  1.00  0.00    -0.167 F 
ATOM     19  F   UNL A   1      31.351  22.026  25.913  1.00  0.00    -0.167 F 
ENDBRANCH   8  16
BRANCH  13  20
ATOM     20  S   UNL A   1      33.313  29.319  26.612  1.00  0.00     0.310 S 
ATOM     21  F   UNL A   1      33.061  28.319  27.818  1.00  0.00    -0.094 F 
ATOM     22  F   UNL A   1      31.778  29.197  26.281  1.00  0.00    -0.094 F 
ATOM     23  F   UNL A   1      33.034  30.486  27.603  1.00  0.00    -0.094 F 
ATOM     24  F   UNL A   1      34.834  29.333  27.038  1.00  0.00    -0.094 F 
ATOM     25  F   UNL A   1      33.596  28.063  25.696  1.00  0.00    -0.094 F 
ENDBRANCH  13  20
ENDBRANCH   4   6
ENDBRANCH   3   4
ENDBRANCH   2   3
ENDBRANCH   1   2
BRANCH   1  26
ATOM     26  O   UNL A   1      38.285  22.024  26.107  1.00  0.00    -0.458 OA
BRANCH  26  27
ATOM     27  C   UNL A   1      39.599  22.527  26.297  1.00  0.00     0.338 C 
ATOM     28  O   UNL A   1      40.603  21.835  25.936  1.00  0.00    -0.246 OA
BRANCH  27  29
ATOM     29  C   UNL A   1      39.807  23.894  26.928  1.00  0.00     0.060 A 
ATOM     30  C   UNL A   1      39.611  24.163  28.272  1.00  0.00     0.016 A 
ATOM     31  C   UNL A   1      40.300  24.814  26.106  1.00  0.00     0.016 A 
ATOM     32  C   UNL A   1      39.694  25.538  28.600  1.00  0.00     0.010 A 
ATOM     33  C   UNL A   1      40.482  26.108  26.533  1.00  0.00     0.010 A 
ATOM     34  C   UNL A   1      40.251  26.457  27.834  1.00  0.00    -0.014 A 
BRANCH  34  35
ATOM     35  C   UNL A   1      40.616  27.833  28.370  1.00  0.00     0.031 A 
ATOM     36  C   UNL A   1      41.936  27.961  28.804  1.00  0.00     0.074 A 
ATOM     37  C   UNL A   1      39.650  28.811  28.527  1.00  0.00     0.049 A 
ATOM     38  N   UNL A   1      42.500  29.016  29.395  1.00  0.00    -0.248 NA
ATOM     39  C   UNL A   1      42.955  26.909  28.669  1.00  0.00     0.031 C 
ATOM     40  C   UNL A   1      38.318  28.692  28.084  1.00  0.00     0.029 A 
ATOM     41  N   UNL A   1      39.787  30.045  29.123  1.00  0.00    -0.354 N 
ATOM     42  C   UNL A   1      43.787  28.772  29.647  1.00  0.00     0.074 A 
ATOM     43  C   UNL A   1      44.097  27.410  29.189  1.00  0.00     0.031 C 
ATOM     44  C   UNL A   1      37.660  29.833  28.418  1.00  0.00     0.029 A 
ATOM     45  C   UNL A   1      38.568  30.684  29.075  1.00  0.00     0.049 A 
ATOM     46  H   UNL A   1      40.614  30.408  29.516  1.00  0.00     0.167 HD
ATOM     47  C   UNL A   1      44.715  29.631  30.238  1.00  0.00     0.031 A 
ATOM     48  C   UNL A   1      38.246  31.938  29.572  1.00  0.00     0.031 A 
ATOM     49  C   UNL A   1      44.402  30.901  30.696  1.00  0.00     0.049 A 
ATOM     50  C   UNL A   1      39.160  32.775  30.216  1.00  0.00     0.074 A 
ATOM     51  C   UNL A   1      45.328  31.783  31.288  1.00  0.00     0.029 A 
ATOM     52  N   UNL A   1      43.178  31.530  30.670  1.00  0.00    -0.354 N 
ATOM     53  N   UNL A   1      40.457  32.545  30.432  1.00  0.00    -0.248 NA
ATOM     54  C   UNL A   1      38.823  34.090  30.776  1.00  0.00     0.031 C 
ATOM     55  C   UNL A   1      44.668  32.923  31.622  1.00  0.00     0.029 A 
ATOM     56  C   UNL A   1      43.321  32.773  31.245  1.00  0.00     0.049 A 
ATOM     57  H   UNL A   1      42.345  31.156  30.303  1.00  0.00     0.167 HD
ATOM     58  C   UNL A   1      41.009  33.585  31.061  1.00  0.00     0.074 A 
ATOM     59  C   UNL A   1      39.964  34.591  31.298  1.00  0.00     0.031 C 
ATOM     60  C   UNL A   1      42.343  33.736  31.443  1.00  0.00     0.031 A 
BRANCH  47  61
ATOM     61  C   UNL A   1      46.147  29.146  30.388  1.00  0.00    -0.014 A 
ATOM     62  C   UNL A   1      47.050  29.314  29.351  1.00  0.00     0.009 A 
ATOM     63  C   UNL A   1      46.468  28.451  31.473  1.00  0.00     0.009 A 
ATOM     64  C   UNL A   1      48.175  28.460  29.426  1.00  0.00     0.001 A 
ATOM     65  C   UNL A   1      47.648  27.749  31.532  1.00  0.00     0.001 A 
ATOM     66  C   UNL A   1      48.560  27.822  30.515  1.00  0.00     0.000 A 
ENDBRANCH  47  61
BRANCH  48  67
ATOM     67  C   UNL A   1      36.817  32.428  29.407  1.00  0.00    -0.014 A 
ATOM     68  C   UNL A   1      35.890  32.301  30.429  1.00  0.00     0.009 A 
ATOM     69  C   UNL A   1      36.529  33.094  28.295  1.00  0.00     0.009 A 
ATOM     70  C   UNL A   1      34.574  32.668  30.058  1.00  0.00     0.001 A 
ATOM     71  C   UNL A   1      35.252  33.544  28.060  1.00  0.00     0.001 A 
ATOM     72  C   UNL A   1      34.271  33.398  29.000  1.00  0.00     0.000 A 
ENDBRANCH  48  67
BRANCH  60  73
ATOM     73  C   UNL A   1      42.749  35.037  32.116  1.00  0.00    -0.014 A 
ATOM     74  C   UNL A   1      43.382  36.070  31.442  1.00  0.00     0.009 A 
ATOM     75  C   UNL A   1      42.396  35.161  33.390  1.00  0.00     0.009 A 
ATOM     76  C   UNL A   1      43.863  37.096  32.289  1.00  0.00     0.001 A 
ATOM     77  C   UNL A   1      42.786  36.257  34.121  1.00  0.00     0.001 A 
ATOM     78  C   UNL A   1      43.467  37.287  33.534  1.00  0.00     0.000 A 
ENDBRANCH  60  73
ENDBRANCH  34  35
ENDBRANCH  27  29
ENDBRANCH  26  27
ENDBRANCH   1  26
TORSDOF 13
ENDMDL
MODEL 3
REMARK VINA RESULT:     -11.3      1.019      5.904
REMARK SMILES O=C(OCCOC(=O)c1ccc(-c2c3nc(c(-c4ccccc4)c4ccc([nH]4)c(-c4ccccc4)c4nc(c(-c5ccccc5)c5ccc2[nH]5)C=C4)C=C3)cc1)C1=Cc2cc(S(F)(F)(F)(F)F)ccc2O[C@@H]1C(F)(F)F
REMARK SMILES IDX 5 1 4 2 3 3 2 4 1 5 57 6 58 7 72 8 59 9 71 10 60 11 70 12
REMARK SMILES IDX 61 13 69 14 68 15 73 16 74 17 75 18 76 19 62 20 63 21 64 22
REMARK SMILES IDX 65 23 66 24 67 25 6 26 7 27 8 28 9 29 10 30 56 31 11 32
REMARK SMILES IDX 55 33 12 34 13 35 14 36 49 37 15 38 54 39 48 40 50 41 16 42
REMARK SMILES IDX 53 43 47 44 46 45 17 47 39 48 24 49 38 50 25 51 28 52 37 53
REMARK SMILES IDX 51 54 26 55 27 56 36 58 52 59 29 60 18 61 19 62 23 63 20 64
REMARK SMILES IDX 22 65 21 66 40 67 41 68 45 69 42 70 44 71 43 72 30 73 31 74
REMARK SMILES IDX 35 75 32 76 34 77 33 78
REMARK H PARENT 50 46 28 57
REMARK Flexibility Score: inf
ROOT
ATOM      1  C   UNL A   1      32.417  29.800  26.924  1.00  0.00     0.275 C 
ENDROOT
BRANCH   1   2
ATOM      2  C   UNL A   1      32.369  28.573  27.820  1.00  0.00     0.275 C 
BRANCH   2   3
ATOM      3  O   UNL A   1      32.704  27.420  27.062  1.00  0.00    -0.459 OA
BRANCH   3   4
ATOM      4  C   UNL A   1      31.790  26.910  26.103  1.00  0.00     0.338 C 
ATOM      5  O   UNL A   1      30.652  26.482  26.474  1.00  0.00    -0.246 OA
BRANCH   4   6
ATOM      6  C   UNL A   1      32.171  26.878  24.631  1.00  0.00     0.087 C 
ATOM      7  C   UNL A   1      33.079  25.970  24.184  1.00  0.00     0.027 C 
ATOM      8  C   UNL A   1      31.536  27.860  23.660  1.00  0.00     0.316 C 
ATOM      9  C   UNL A   1      33.713  24.988  25.155  1.00  0.00     0.019 A 
ATOM     10  O   UNL A   1      31.565  24.867  26.163  1.00  0.00    -0.475 OA
ATOM     11  C   UNL A   1      35.058  24.655  25.094  1.00  0.00     0.036 A 
ATOM     12  C   UNL A   1      32.895  24.392  26.014  1.00  0.00     0.128 A 
ATOM     13  C   UNL A   1      35.386  23.466  25.788  1.00  0.00     0.107 A 
ATOM     14  C   UNL A   1      33.323  23.321  26.761  1.00  0.00     0.048 A 
ATOM     15  C   UNL A   1      34.623  22.900  26.706  1.00  0.00     0.028 A 
BRANCH   8  16
ATOM     16  C   UNL A   1      30.788  27.094  22.581  1.00  0.00     0.430 C 
ATOM     17  F   UNL A   1      29.851  27.875  22.051  1.00  0.00    -0.167 F 
ATOM     18  F   UNL A   1      31.641  26.718  21.632  1.00  0.00    -0.167 F 
ATOM     19  F   UNL A   1      30.217  26.018  23.115  1.00  0.00    -0.167 F 
ENDBRANCH   8  16
BRANCH  13  20
ATOM     20  S   UNL A   1      36.960  22.668  25.392  1.00  0.00     0.310 S 
ATOM     21  F   UNL A   1      37.203  23.613  24.142  1.00  0.00    -0.094 F 
ATOM     22  F   UNL A   1      36.188  21.696  24.422  1.00  0.00    -0.094 F 
ATOM     23  F   UNL A   1      38.312  21.976  25.054  1.00  0.00    -0.094 F 
ATOM     24  F   UNL A   1      37.734  23.738  26.259  1.00  0.00    -0.094 F 
ATOM     25  F   UNL A   1      35.613  23.450  25.657  1.00  0.00    -0.094 F 
ENDBRANCH  13  20
ENDBRANCH   4   6
ENDBRANCH   3   4
ENDBRANCH   2   3
ENDBRANCH   1   2
BRANCH   1  26
ATOM     26  O   UNL A   1      33.769  30.159  26.685  1.00  0.00    -0.458 OA
BRANCH  26  27
ATOM     27  C   UNL A   1      34.538  30.760  27.716  1.00  0.00     0.338 C 
ATOM     28  O   UNL A   1      34.052  31.719  28.394  1.00  0.00    -0.246 OA
BRANCH  27  29
ATOM     29  C   UNL A   1      35.942  30.257  28.010  1.00  0.00     0.060 A 
ATOM     30  C   UNL A   1      37.020  30.431  27.159  1.00  0.00     0.016 A 
ATOM     31  C   UNL A   1      36.094  29.714  29.212  1.00  0.00     0.016 A 
ATOM     32  C   UNL A   1      38.183  29.729  27.556  1.00  0.00     0.010 A 
ATOM     33  C   UNL A   1      37.298  29.166  29.585  1.00  0.00     0.010 A 
ATOM     34  C   UNL A   1      38.391  29.250  28.768  1.00  0.00    -0.014 A 
BRANCH  34  35
ATOM     35  C   UNL A   1      39.773  28.815  29.232  1.00  0.00     0.031 A 
ATOM     36  C   UNL A   1      40.154  27.537  28.819  1.00  0.00     0.074 A 
ATOM     37  C   UNL A   1      40.505  29.597  30.107  1.00  0.00     0.049 A 
ATOM     38  N   UNL A   1      41.263  26.873  29.149  1.00  0.00    -0.248 NA
ATOM     39  C   UNL A   1      39.360  26.690  27.916  1.00  0.00     0.031 C 
ATOM     40  C   UNL A   1      40.131  30.891  30.521  1.00  0.00     0.029 A 
ATOM     41  N   UNL A   1      41.695  29.285  30.725  1.00  0.00    -0.354 N 
ATOM     42  C   UNL A   1      41.287  25.684  28.543  1.00  0.00     0.074 A 
ATOM     43  C   UNL A   1      40.060  25.547  27.746  1.00  0.00     0.031 C 
ATOM     44  C   UNL A   1      41.076  31.346  31.385  1.00  0.00     0.029 A 
ATOM     45  C   UNL A   1      42.056  30.347  31.525  1.00  0.00     0.049 A 
ATOM     46  H   UNL A   1      42.201  28.447  30.615  1.00  0.00     0.167 HD
ATOM     47  C   UNL A   1      42.284  24.711  28.622  1.00  0.00     0.031 A 
ATOM     48  C   UNL A   1      43.173  30.455  32.340  1.00  0.00     0.031 A 
ATOM     49  C   UNL A   1      43.421  24.838  29.403  1.00  0.00     0.049 A 
ATOM     50  C   UNL A   1      44.141  29.457  32.464  1.00  0.00     0.074 A 
ATOM     51  C   UNL A   1      44.440  23.868  29.489  1.00  0.00     0.029 A 
ATOM     52  N   UNL A   1      43.770  25.888  30.222  1.00  0.00    -0.354 N 
ATOM     53  N   UNL A   1      44.184  28.285  31.827  1.00  0.00    -0.248 NA
ATOM     54  C   UNL A   1      45.311  29.546  33.349  1.00  0.00     0.031 C 
ATOM     55  C   UNL A   1      45.385  24.325  30.353  1.00  0.00     0.029 A 
ATOM     56  C   UNL A   1      44.972  25.586  30.822  1.00  0.00     0.049 A 
ATOM     57  H   UNL A   1      43.250  26.714  30.354  1.00  0.00     0.167 HD
ATOM     58  C   UNL A   1      45.273  27.604  32.191  1.00  0.00     0.074 A 
ATOM     59  C   UNL A   1      46.010  28.402  33.180  1.00  0.00     0.031 C 
ATOM     60  C   UNL A   1      45.684  26.350  31.734  1.00  0.00     0.031 A 
BRANCH  47  61
ATOM     61  C   UNL A   1      42.112  23.440  27.806  1.00  0.00    -0.014 A 
ATOM     62  C   UNL A   1      42.610  23.372  26.514  1.00  0.00     0.009 A 
ATOM     63  C   UNL A   1      41.369  22.462  28.310  1.00  0.00     0.009 A 
ATOM     64  C   UNL A   1      42.023  22.354  25.727  1.00  0.00     0.001 A 
ATOM     65  C   UNL A   1      40.944  21.425  27.514  1.00  0.00     0.001 A 
ATOM     66  C   UNL A   1      41.350  21.327  26.211  1.00  0.00     0.000 A 
ENDBRANCH  47  61
BRANCH  48  67
ATOM     67  C   UNL A   1      43.352  31.733  33.144  1.00  0.00    -0.014 A 
ATOM     68  C   UNL A   1      43.980  32.842  32.601  1.00  0.00     0.009 A 
ATOM     69  C   UNL A   1      42.774  31.783  34.338  1.00  0.00     0.009 A 
ATOM     70  C   UNL A   1      44.197  33.888  33.529  1.00  0.00     0.001 A 
ATOM     71  C   UNL A   1      42.915  32.893  35.136  1.00  0.00     0.001 A 
ATOM     72  C   UNL A   1      43.574  34.003  34.688  1.00  0.00     0.000 A 
ENDBRANCH  48  67
BRANCH  60  73
ATOM     73  C   UNL A   1      46.992  25.791  32.267  1.00  0.00    -0.014 A 
ATOM     74  C   UNL A   1      47.068  25.002  33.404  1.00  0.00     0.009 A 
ATOM     75  C   UNL A   1      48.069  26.046  31.533  1.00  0.00     0.009 A 
ATOM     76  C   UNL A   1      48.390  24.764  33.849  1.00  0.00     0.001 A 
ATOM     77  C   UNL A   1      49.316  25.664  31.965  1.00  0.00     0.001 A 
ATOM     78  C   UNL A   1      49.471  24.934  33.111  1.00  0.00     0.000 A 
ENDBRANCH  60  73
ENDBRANCH  34  35
ENDBRANCH  27  29
ENDBRANCH  26  27
ENDBRANCH   1  26
TORSDOF 13
ENDMDL
