MODEL 1
REMARK VINA RESULT:     -10.0      0.000      0.000
REMARK SMILES C[C@@H]1CC[C@@H](C(=O)OCCOC(=O)c2ccc(-c3c4nc(c(-c5ccccc5)c5ccc([nH]5)c(-c5ccccc5)c5nc(c(-c6ccccc6)c6ccc3[nH]6)C=C5)C=C4)cc2)[C@H](SCC[NH+](C)C)C1
REMARK SMILES IDX 9 1 8 2 6 3 7 4 5 5 1 6 2 7 3 8 69 9 4 10 62 11 63 12 64 13
REMARK SMILES IDX 65 14 66 15 67 16 68 17 10 19 11 20 12 21 13 22 14 23 15 24
REMARK SMILES IDX 61 25 16 26 60 27 17 28 18 29 19 30 54 31 20 32 59 33 53 34
REMARK SMILES IDX 55 35 21 36 58 37 52 38 51 39 22 41 44 42 29 43 43 44 30 45
REMARK SMILES IDX 33 46 42 47 56 48 31 49 32 50 41 52 57 53 34 54 23 55 24 56
REMARK SMILES IDX 28 57 25 58 27 59 26 60 45 61 46 62 50 63 47 64 49 65 48 66
REMARK SMILES IDX 35 67 36 68 40 69 37 70 39 71 38 72
REMARK H PARENT 66 18 55 40 33 51
REMARK Flexibility Score: inf
ROOT
ATOM      1  C   UNL A   1      31.281  28.182  24.971  1.00  0.00     0.274 C 
ENDROOT
BRANCH   1   2
ATOM      2  O   UNL A   1      32.319  27.362  25.561  1.00  0.00    -0.462 OA
BRANCH   2   3
ATOM      3  C   UNL A   1      31.889  26.206  26.154  1.00  0.00     0.310 C 
ATOM      4  O   UNL A   1      30.721  26.017  26.463  1.00  0.00    -0.252 OA
BRANCH   3   5
ATOM      5  C   UNL A   1      32.998  25.125  26.141  1.00  0.00     0.112 C 
ATOM      6  C   UNL A   1      33.243  23.432  22.224  1.00  0.00     0.007 C 
ATOM      7  C   UNL A   1      32.802  24.531  23.199  1.00  0.00    -0.013 C 
ATOM      8  C   UNL A   1      33.909  25.460  23.787  1.00  0.00     0.004 C 
ATOM      9  C   UNL A   1      31.916  23.883  24.240  1.00  0.00     0.018 C 
ATOM     10  C   UNL A   1      34.078  25.745  25.298  1.00  0.00     0.017 C 
ATOM     11  C   UNL A   1      32.658  23.742  25.559  1.00  0.00     0.061 C 
BRANCH  11  12
ATOM     12  S   UNL A   1      34.047  22.370  25.338  1.00  0.00    -0.152 SA
BRANCH  12  13
ATOM     13  C   UNL A   1      33.462  20.757  24.480  1.00  0.00     0.131 C 
BRANCH  13  14
ATOM     14  C   UNL A   1      32.941  19.437  25.205  1.00  0.00     0.272 C 
BRANCH  14  15
ATOM     15  N   UNL A   1      32.978  18.149  24.438  1.00  0.00    -0.339 N 
ATOM     16  C   UNL A   1      32.420  18.271  23.089  1.00  0.00     0.332 C 
ATOM     17  C   UNL A   1      34.321  17.552  24.301  1.00  0.00     0.332 C 
ATOM     18  H   UNL A   1      32.400  17.535  25.011  1.00  0.00     0.347 HD
ENDBRANCH  14  15
ENDBRANCH  13  14
ENDBRANCH  12  13
ENDBRANCH  11  12
ENDBRANCH   3   5
ENDBRANCH   2   3
ENDBRANCH   1   2
BRANCH   1  19
ATOM     19  C   UNL A   1      31.537  29.667  25.257  1.00  0.00     0.275 C 
BRANCH  19  20
ATOM     20  O   UNL A   1      31.800  29.889  26.659  1.00  0.00    -0.458 OA
BRANCH  20  21
ATOM     21  C   UNL A   1      32.437  31.047  26.962  1.00  0.00     0.338 C 
ATOM     22  O   UNL A   1      31.929  32.172  26.929  1.00  0.00    -0.246 OA
BRANCH  21  23
ATOM     23  C   UNL A   1      33.840  30.826  27.407  1.00  0.00     0.060 A 
ATOM     24  C   UNL A   1      34.384  29.552  27.485  1.00  0.00     0.016 A 
ATOM     25  C   UNL A   1      34.611  31.897  27.868  1.00  0.00     0.016 A 
ATOM     26  C   UNL A   1      35.574  29.331  28.202  1.00  0.00     0.010 A 
ATOM     27  C   UNL A   1      35.878  31.679  28.447  1.00  0.00     0.010 A 
ATOM     28  C   UNL A   1      36.357  30.382  28.700  1.00  0.00    -0.014 A 
BRANCH  28  29
ATOM     29  C   UNL A   1      37.604  30.136  29.518  1.00  0.00     0.031 A 
ATOM     30  C   UNL A   1      38.809  29.431  28.912  1.00  0.00     0.074 A 
ATOM     31  C   UNL A   1      37.739  30.568  30.794  1.00  0.00     0.049 A 
ATOM     32  N   UNL A   1      39.865  28.923  29.509  1.00  0.00    -0.248 NA
ATOM     33  C   UNL A   1      38.833  29.274  27.448  1.00  0.00     0.031 C 
ATOM     34  C   UNL A   1      36.756  31.343  31.553  1.00  0.00     0.029 A 
ATOM     35  N   UNL A   1      38.789  30.434  31.681  1.00  0.00    -0.354 N 
ATOM     36  C   UNL A   1      40.625  28.323  28.510  1.00  0.00     0.074 A 
ATOM     37  C   UNL A   1      39.922  28.540  27.264  1.00  0.00     0.031 C 
ATOM     38  C   UNL A   1      37.281  31.698  32.735  1.00  0.00     0.029 A 
ATOM     39  C   UNL A   1      38.579  31.054  32.892  1.00  0.00     0.049 A 
ATOM     40  H   UNL A   1      39.613  29.941  31.467  1.00  0.00     0.167 HD
ATOM     41  C   UNL A   1      41.798  27.647  28.608  1.00  0.00     0.031 A 
ATOM     42  C   UNL A   1      39.298  31.066  34.034  1.00  0.00     0.031 A 
ATOM     43  C   UNL A   1      42.557  27.469  29.818  1.00  0.00     0.049 A 
ATOM     44  C   UNL A   1      40.542  30.234  34.150  1.00  0.00     0.074 A 
ATOM     45  C   UNL A   1      43.738  26.766  30.000  1.00  0.00     0.029 A 
ATOM     46  N   UNL A   1      42.235  28.024  31.044  1.00  0.00    -0.354 N 
ATOM     47  N   UNL A   1      41.164  29.543  33.230  1.00  0.00    -0.248 NA
ATOM     48  C   UNL A   1      41.158  30.150  35.485  1.00  0.00     0.031 C 
ATOM     49  C   UNL A   1      44.112  26.867  31.343  1.00  0.00     0.029 A 
ATOM     50  C   UNL A   1      43.187  27.671  31.987  1.00  0.00     0.049 A 
ATOM     51  H   UNL A   1      41.446  28.585  31.219  1.00  0.00     0.167 HD
ATOM     52  C   UNL A   1      42.238  28.939  33.874  1.00  0.00     0.074 A 
ATOM     53  C   UNL A   1      42.205  29.371  35.253  1.00  0.00     0.031 C 
ATOM     54  C   UNL A   1      43.158  28.088  33.361  1.00  0.00     0.031 A 
BRANCH  41  55
ATOM     55  C   UNL A   1      42.328  26.990  27.364  1.00  0.00    -0.014 A 
ATOM     56  C   UNL A   1      43.256  27.631  26.529  1.00  0.00     0.009 A 
ATOM     57  C   UNL A   1      41.937  25.674  27.064  1.00  0.00     0.009 A 
ATOM     58  C   UNL A   1      43.763  26.974  25.406  1.00  0.00     0.001 A 
ATOM     59  C   UNL A   1      42.465  25.012  25.955  1.00  0.00     0.001 A 
ATOM     60  C   UNL A   1      43.372  25.665  25.123  1.00  0.00     0.000 A 
ENDBRANCH  41  55
BRANCH  42  61
ATOM     61  C   UNL A   1      38.810  31.831  35.215  1.00  0.00    -0.014 A 
ATOM     62  C   UNL A   1      39.018  33.216  35.301  1.00  0.00     0.009 A 
ATOM     63  C   UNL A   1      38.158  31.176  36.272  1.00  0.00     0.009 A 
ATOM     64  C   UNL A   1      38.589  33.927  36.425  1.00  0.00     0.001 A 
ATOM     65  C   UNL A   1      37.698  31.894  37.376  1.00  0.00     0.001 A 
ATOM     66  C   UNL A   1      37.920  33.267  37.455  1.00  0.00     0.000 A 
ENDBRANCH  42  61
BRANCH  54  67
ATOM     67  C   UNL A   1      44.221  27.578  34.292  1.00  0.00    -0.014 A 
ATOM     68  C   UNL A   1      44.053  26.372  34.989  1.00  0.00     0.009 A 
ATOM     69  C   UNL A   1      45.415  28.299  34.457  1.00  0.00     0.009 A 
ATOM     70  C   UNL A   1      45.048  25.914  35.858  1.00  0.00     0.001 A 
ATOM     71  C   UNL A   1      46.416  27.827  35.307  1.00  0.00     0.001 A 
ATOM     72  C   UNL A   1      46.228  26.639  36.013  1.00  0.00     0.000 A 
ENDBRANCH  54  67
ENDBRANCH  28  29
ENDBRANCH  21  23
ENDBRANCH  20  21
ENDBRANCH  19  20
ENDBRANCH   1  19
TORSDOF 15
ENDMDL
MODEL 2
REMARK VINA RESULT:     -10.0      4.150      8.958
REMARK SMILES C[C@@H]1CC[C@@H](C(=O)OCCOC(=O)c2ccc(-c3c4nc(c(-c5ccccc5)c5ccc([nH]5)c(-c5ccccc5)c5nc(c(-c6ccccc6)c6ccc3[nH]6)C=C5)C=C4)cc2)[C@H](SCC[NH+](C)C)C1
REMARK SMILES IDX 9 1 8 2 6 3 7 4 5 5 1 6 2 7 3 8 69 9 4 10 62 11 63 12 64 13
REMARK SMILES IDX 65 14 66 15 67 16 68 17 10 19 11 20 12 21 13 22 14 23 15 24
REMARK SMILES IDX 61 25 16 26 60 27 17 28 18 29 19 30 54 31 20 32 59 33 53 34
REMARK SMILES IDX 55 35 21 36 58 37 52 38 51 39 22 41 44 42 29 43 43 44 30 45
REMARK SMILES IDX 33 46 42 47 56 48 31 49 32 50 41 52 57 53 34 54 23 55 24 56
REMARK SMILES IDX 28 57 25 58 27 59 26 60 45 61 46 62 50 63 47 64 49 65 48 66
REMARK SMILES IDX 35 67 36 68 40 69 37 70 39 71 38 72
REMARK H PARENT 66 18 55 40 33 51
REMARK Flexibility Score: inf
ROOT
ATOM      1  C   UNL A   1      34.877  21.767  25.557  1.00  0.00     0.274 C 
ENDROOT
BRANCH   1   2
ATOM      2  O   UNL A   1      33.791  21.966  24.618  1.00  0.00    -0.462 OA
BRANCH   2   3
ATOM      3  C   UNL A   1      33.906  23.063  23.810  1.00  0.00     0.310 C 
ATOM      4  O   UNL A   1      34.810  23.193  22.995  1.00  0.00    -0.252 OA
BRANCH   3   5
ATOM      5  C   UNL A   1      32.643  23.954  23.894  1.00  0.00     0.112 C 
ATOM      6  C   UNL A   1      33.552  27.444  26.187  1.00  0.00     0.007 C 
ATOM      7  C   UNL A   1      33.967  26.215  25.370  1.00  0.00    -0.013 C 
ATOM      8  C   UNL A   1      33.726  26.258  23.829  1.00  0.00     0.004 C 
ATOM      9  C   UNL A   1      33.389  24.998  26.057  1.00  0.00     0.018 C 
ATOM     10  C   UNL A   1      32.998  25.142  23.043  1.00  0.00     0.017 C 
ATOM     11  C   UNL A   1      32.200  24.460  25.278  1.00  0.00     0.061 C 
BRANCH  11  12
ATOM     12  S   UNL A   1      30.718  25.738  25.459  1.00  0.00    -0.152 SA
BRANCH  12  13
ATOM     13  C   UNL A   1      29.859  26.220  23.814  1.00  0.00     0.131 C 
BRANCH  13  14
ATOM     14  C   UNL A   1      30.213  27.474  22.896  1.00  0.00     0.272 C 
BRANCH  14  15
ATOM     15  N   UNL A   1      29.389  28.717  23.051  1.00  0.00    -0.339 N 
ATOM     16  C   UNL A   1      29.685  29.729  22.035  1.00  0.00     0.332 C 
ATOM     17  C   UNL A   1      27.930  28.494  23.033  1.00  0.00     0.332 C 
ATOM     18  H   UNL A   1      29.661  29.047  23.977  1.00  0.00     0.347 HD
ENDBRANCH  14  15
ENDBRANCH  13  14
ENDBRANCH  12  13
ENDBRANCH  11  12
ENDBRANCH   3   5
ENDBRANCH   2   3
ENDBRANCH   1   2
BRANCH   1  19
ATOM     19  C   UNL A   1      35.834  20.679  25.055  1.00  0.00     0.275 C 
BRANCH  19  20
ATOM     20  O   UNL A   1      37.083  21.248  24.606  1.00  0.00    -0.458 OA
BRANCH  20  21
ATOM     21  C   UNL A   1      38.178  20.902  25.325  1.00  0.00     0.338 C 
ATOM     22  O   UNL A   1      38.680  19.774  25.366  1.00  0.00    -0.246 OA
BRANCH  21  23
ATOM     23  C   UNL A   1      38.778  22.060  26.043  1.00  0.00     0.060 A 
ATOM     24  C   UNL A   1      38.204  23.322  25.991  1.00  0.00     0.016 A 
ATOM     25  C   UNL A   1      40.004  21.925  26.701  1.00  0.00     0.016 A 
ATOM     26  C   UNL A   1      38.939  24.453  26.392  1.00  0.00     0.010 A 
ATOM     27  C   UNL A   1      40.663  23.048  27.240  1.00  0.00     0.010 A 
ATOM     28  C   UNL A   1      40.183  24.353  27.029  1.00  0.00    -0.014 A 
BRANCH  28  29
ATOM     29  C   UNL A   1      40.992  25.573  27.407  1.00  0.00     0.031 A 
ATOM     30  C   UNL A   1      40.458  26.584  28.411  1.00  0.00     0.074 A 
ATOM     31  C   UNL A   1      42.236  25.803  26.924  1.00  0.00     0.049 A 
ATOM     32  N   UNL A   1      40.889  27.796  28.682  1.00  0.00    -0.248 NA
ATOM     33  C   UNL A   1      39.290  26.186  29.212  1.00  0.00     0.031 C 
ATOM     34  C   UNL A   1      42.990  24.930  26.023  1.00  0.00     0.029 A 
ATOM     35  N   UNL A   1      43.109  26.849  27.154  1.00  0.00    -0.354 N 
ATOM     36  C   UNL A   1      40.002  28.324  29.615  1.00  0.00     0.074 A 
ATOM     37  C   UNL A   1      39.015  27.299  29.879  1.00  0.00     0.031 C 
ATOM     38  C   UNL A   1      44.228  25.417  25.859  1.00  0.00     0.029 A 
ATOM     39  C   UNL A   1      44.322  26.714  26.516  1.00  0.00     0.049 A 
ATOM     40  H   UNL A   1      42.884  27.621  27.722  1.00  0.00     0.167 HD
ATOM     41  C   UNL A   1      39.996  29.548  30.202  1.00  0.00     0.031 A 
ATOM     42  C   UNL A   1      45.376  27.548  26.403  1.00  0.00     0.031 A 
ATOM     43  C   UNL A   1      40.997  30.565  30.015  1.00  0.00     0.049 A 
ATOM     44  C   UNL A   1      45.308  28.932  26.980  1.00  0.00     0.074 A 
ATOM     45  C   UNL A   1      41.038  31.844  30.551  1.00  0.00     0.029 A 
ATOM     46  N   UNL A   1      42.148  30.415  29.263  1.00  0.00    -0.354 N 
ATOM     47  N   UNL A   1      44.384  29.471  27.733  1.00  0.00    -0.248 NA
ATOM     48  C   UNL A   1      46.417  29.842  26.646  1.00  0.00     0.031 C 
ATOM     49  C   UNL A   1      42.198  32.479  30.095  1.00  0.00     0.029 A 
ATOM     50  C   UNL A   1      42.900  31.579  29.313  1.00  0.00     0.049 A 
ATOM     51  H   UNL A   1      42.396  29.602  28.767  1.00  0.00     0.167 HD
ATOM     52  C   UNL A   1      44.797  30.778  27.959  1.00  0.00     0.074 A 
ATOM     53  C   UNL A   1      46.069  30.945  27.292  1.00  0.00     0.031 C 
ATOM     54  C   UNL A   1      44.161  31.756  28.647  1.00  0.00     0.031 A 
BRANCH  41  55
ATOM     55  C   UNL A   1      38.828  29.890  31.085  1.00  0.00    -0.014 A 
ATOM     56  C   UNL A   1      38.891  29.750  32.479  1.00  0.00     0.009 A 
ATOM     57  C   UNL A   1      37.666  30.428  30.506  1.00  0.00     0.009 A 
ATOM     58  C   UNL A   1      37.803  30.120  33.274  1.00  0.00     0.001 A 
ATOM     59  C   UNL A   1      36.591  30.821  31.304  1.00  0.00     0.001 A 
ATOM     60  C   UNL A   1      36.658  30.660  32.686  1.00  0.00     0.000 A 
ENDBRANCH  41  55
BRANCH  42  61
ATOM     61  C   UNL A   1      46.576  27.132  25.625  1.00  0.00    -0.014 A 
ATOM     62  C   UNL A   1      46.770  27.595  24.315  1.00  0.00     0.009 A 
ATOM     63  C   UNL A   1      47.519  26.250  26.180  1.00  0.00     0.009 A 
ATOM     64  C   UNL A   1      47.879  27.178  23.575  1.00  0.00     0.001 A 
ATOM     65  C   UNL A   1      48.644  25.865  25.451  1.00  0.00     0.001 A 
ATOM     66  C   UNL A   1      48.820  26.322  24.147  1.00  0.00     0.000 A 
ENDBRANCH  42  61
BRANCH  54  67
ATOM     67  C   UNL A   1      44.839  33.094  28.732  1.00  0.00    -0.014 A 
ATOM     68  C   UNL A   1      44.607  34.084  27.766  1.00  0.00     0.009 A 
ATOM     69  C   UNL A   1      45.702  33.376  29.803  1.00  0.00     0.009 A 
ATOM     70  C   UNL A   1      45.250  35.322  27.854  1.00  0.00     0.001 A 
ATOM     71  C   UNL A   1      46.325  34.621  29.901  1.00  0.00     0.001 A 
ATOM     72  C   UNL A   1      46.106  35.589  28.922  1.00  0.00     0.000 A 
ENDBRANCH  54  67
ENDBRANCH  28  29
ENDBRANCH  21  23
ENDBRANCH  20  21
ENDBRANCH  19  20
ENDBRANCH   1  19
TORSDOF 15
ENDMDL
MODEL 3
REMARK VINA RESULT:      -9.8      1.323      1.853
REMARK SMILES C[C@@H]1CC[C@@H](C(=O)OCCOC(=O)c2ccc(-c3c4nc(c(-c5ccccc5)c5ccc([nH]5)c(-c5ccccc5)c5nc(c(-c6ccccc6)c6ccc3[nH]6)C=C5)C=C4)cc2)[C@H](SCC[NH+](C)C)C1
REMARK SMILES IDX 9 1 8 2 6 3 7 4 5 5 1 6 2 7 3 8 69 9 4 10 62 11 63 12 64 13
REMARK SMILES IDX 65 14 66 15 67 16 68 17 10 19 11 20 12 21 13 22 14 23 15 24
REMARK SMILES IDX 61 25 16 26 60 27 17 28 18 29 19 30 54 31 20 32 59 33 53 34
REMARK SMILES IDX 55 35 21 36 58 37 52 38 51 39 22 41 44 42 29 43 43 44 30 45
REMARK SMILES IDX 33 46 42 47 56 48 31 49 32 50 41 52 57 53 34 54 23 55 24 56
REMARK SMILES IDX 28 57 25 58 27 59 26 60 45 61 46 62 50 63 47 64 49 65 48 66
REMARK SMILES IDX 35 67 36 68 40 69 37 70 39 71 38 72
REMARK H PARENT 66 18 55 40 33 51
REMARK Flexibility Score: inf
ROOT
ATOM      1  C   UNL A   1      31.088  28.393  24.695  1.00  0.00     0.274 C 
ENDROOT
BRANCH   1   2
ATOM      2  O   UNL A   1      31.958  27.250  24.883  1.00  0.00    -0.462 OA
BRANCH   2   3
ATOM      3  C   UNL A   1      31.484  26.283  25.727  1.00  0.00     0.310 C 
ATOM      4  O   UNL A   1      30.314  26.229  26.080  1.00  0.00    -0.252 OA
BRANCH   3   5
ATOM      5  C   UNL A   1      32.538  25.172  25.952  1.00  0.00     0.112 C 
ATOM      6  C   UNL A   1      32.121  22.218  22.892  1.00  0.00     0.007 C 
ATOM      7  C   UNL A   1      31.874  23.619  23.464  1.00  0.00    -0.013 C 
ATOM      8  C   UNL A   1      33.090  24.594  23.535  1.00  0.00     0.004 C 
ATOM      9  C   UNL A   1      31.135  23.449  24.773  1.00  0.00     0.018 C 
ATOM     10  C   UNL A   1      33.498  25.366  24.811  1.00  0.00     0.017 C 
ATOM     11  C   UNL A   1      32.064  23.708  25.947  1.00  0.00     0.061 C 
BRANCH  11  12
ATOM     12  S   UNL A   1      33.354  22.228  26.047  1.00  0.00    -0.152 SA
BRANCH  12  13
ATOM     13  C   UNL A   1      35.141  22.743  26.515  1.00  0.00     0.131 C 
BRANCH  13  14
ATOM     14  C   UNL A   1      36.466  22.409  25.694  1.00  0.00     0.272 C 
BRANCH  14  15
ATOM     15  N   UNL A   1      37.787  22.617  26.372  1.00  0.00    -0.339 N 
ATOM     16  C   UNL A   1      38.844  21.752  25.844  1.00  0.00     0.332 C 
ATOM     17  C   UNL A   1      38.293  24.004  26.321  1.00  0.00     0.332 C 
ATOM     18  H   UNL A   1      37.578  22.378  27.341  1.00  0.00     0.347 HD
ENDBRANCH  14  15
ENDBRANCH  13  14
ENDBRANCH  12  13
ENDBRANCH  11  12
ENDBRANCH   3   5
ENDBRANCH   2   3
ENDBRANCH   1   2
BRANCH   1  19
ATOM     19  C   UNL A   1      31.820  29.693  25.049  1.00  0.00     0.275 C 
BRANCH  19  20
ATOM     20  O   UNL A   1      31.909  29.869  26.480  1.00  0.00    -0.458 OA
BRANCH  20  21
ATOM     21  C   UNL A   1      32.497  31.017  26.896  1.00  0.00     0.338 C 
ATOM     22  O   UNL A   1      31.950  32.122  26.949  1.00  0.00    -0.246 OA
BRANCH  21  23
ATOM     23  C   UNL A   1      33.898  30.806  27.355  1.00  0.00     0.060 A 
ATOM     24  C   UNL A   1      34.456  29.537  27.420  1.00  0.00     0.016 A 
ATOM     25  C   UNL A   1      34.651  31.878  27.841  1.00  0.00     0.016 A 
ATOM     26  C   UNL A   1      35.640  29.319  28.147  1.00  0.00     0.010 A 
ATOM     27  C   UNL A   1      35.913  31.666  28.431  1.00  0.00     0.010 A 
ATOM     28  C   UNL A   1      36.404  30.371  28.670  1.00  0.00    -0.014 A 
BRANCH  28  29
ATOM     29  C   UNL A   1      37.645  30.127  29.499  1.00  0.00     0.031 A 
ATOM     30  C   UNL A   1      38.856  29.423  28.904  1.00  0.00     0.074 A 
ATOM     31  C   UNL A   1      37.768  30.562  30.776  1.00  0.00     0.049 A 
ATOM     32  N   UNL A   1      39.907  28.917  29.511  1.00  0.00    -0.248 NA
ATOM     33  C   UNL A   1      38.892  29.265  27.441  1.00  0.00     0.031 C 
ATOM     34  C   UNL A   1      36.779  31.337  31.526  1.00  0.00     0.029 A 
ATOM     35  N   UNL A   1      38.811  30.430  31.672  1.00  0.00    -0.354 N 
ATOM     36  C   UNL A   1      40.676  28.316  28.519  1.00  0.00     0.074 A 
ATOM     37  C   UNL A   1      39.984  28.532  27.267  1.00  0.00     0.031 C 
ATOM     38  C   UNL A   1      37.294  31.693  32.711  1.00  0.00     0.029 A 
ATOM     39  C   UNL A   1      38.591  31.052  32.881  1.00  0.00     0.049 A 
ATOM     40  H   UNL A   1      39.638  29.937  31.466  1.00  0.00     0.167 HD
ATOM     41  C   UNL A   1      41.849  27.642  28.628  1.00  0.00     0.031 A 
ATOM     42  C   UNL A   1      39.300  31.065  34.028  1.00  0.00     0.031 A 
ATOM     43  C   UNL A   1      42.598  27.467  29.844  1.00  0.00     0.049 A 
ATOM     44  C   UNL A   1      40.544  30.235  34.156  1.00  0.00     0.074 A 
ATOM     45  C   UNL A   1      43.779  26.765  30.037  1.00  0.00     0.029 A 
ATOM     46  N   UNL A   1      42.265  28.022  31.067  1.00  0.00    -0.354 N 
ATOM     47  N   UNL A   1      41.174  29.543  33.242  1.00  0.00    -0.248 NA
ATOM     48  C   UNL A   1      41.149  30.153  35.496  1.00  0.00     0.031 C 
ATOM     49  C   UNL A   1      44.140  26.868  31.384  1.00  0.00     0.029 A 
ATOM     50  C   UNL A   1      43.210  27.671  32.018  1.00  0.00     0.049 A 
ATOM     51  H   UNL A   1      41.474  28.583  31.235  1.00  0.00     0.167 HD
ATOM     52  C   UNL A   1      42.243  28.942  33.895  1.00  0.00     0.074 A 
ATOM     53  C   UNL A   1      42.198  29.375  35.274  1.00  0.00     0.031 C 
ATOM     54  C   UNL A   1      43.169  28.091  33.392  1.00  0.00     0.031 A 
BRANCH  41  55
ATOM     55  C   UNL A   1      42.390  26.984  27.389  1.00  0.00    -0.014 A 
ATOM     56  C   UNL A   1      43.305  27.635  26.548  1.00  0.00     0.009 A 
ATOM     57  C   UNL A   1      42.024  25.658  27.102  1.00  0.00     0.009 A 
ATOM     58  C   UNL A   1      43.824  26.977  25.430  1.00  0.00     0.001 A 
ATOM     59  C   UNL A   1      42.563  24.996  25.998  1.00  0.00     0.001 A 
ATOM     60  C   UNL A   1      43.457  25.658  25.160  1.00  0.00     0.000 A 
ENDBRANCH  41  55
BRANCH  42  61
ATOM     61  C   UNL A   1      38.801  31.831  35.204  1.00  0.00    -0.014 A 
ATOM     62  C   UNL A   1      38.139  31.174  36.252  1.00  0.00     0.009 A 
ATOM     63  C   UNL A   1      38.963  33.225  35.271  1.00  0.00     0.009 A 
ATOM     64  C   UNL A   1      37.643  31.899  37.339  1.00  0.00     0.001 A 
ATOM     65  C   UNL A   1      38.499  33.940  36.376  1.00  0.00     0.001 A 
ATOM     66  C   UNL A   1      37.833  33.279  37.405  1.00  0.00     0.000 A 
ENDBRANCH  42  61
BRANCH  54  67
ATOM     67  C   UNL A   1      44.224  27.583  34.333  1.00  0.00    -0.014 A 
ATOM     68  C   UNL A   1      44.067  26.361  35.003  1.00  0.00     0.009 A 
ATOM     69  C   UNL A   1      45.400  28.323  34.533  1.00  0.00     0.009 A 
ATOM     70  C   UNL A   1      45.054  25.904  35.881  1.00  0.00     0.001 A 
ATOM     71  C   UNL A   1      46.395  27.853  35.392  1.00  0.00     0.001 A 
ATOM     72  C   UNL A   1      46.217  26.649  36.072  1.00  0.00     0.000 A 
ENDBRANCH  54  67
ENDBRANCH  28  29
ENDBRANCH  21  23
ENDBRANCH  20  21
ENDBRANCH  19  20
ENDBRANCH   1  19
TORSDOF 15
ENDMDL
