MODEL 1
REMARK VINA RESULT:     -11.0      0.000      0.000
REMARK SMILES COc1ccccc1-c1nnc(S[C@@H](C)C(=O)OCCOC(=O)c2ccc(-c3c4nc(c(-c5ccccc5)c5ccc([nH]5)c(-c5ccccc5)c5nc(c(-c6ccccc6)c6ccc3[nH]6)C=C5)C=C4)cc2)n1-c1ccccc1
REMARK SMILES IDX 19 1 18 2 16 3 17 4 14 5 15 6 13 7 12 8 9 9 10 10 72 11
REMARK SMILES IDX 11 12 8 13 3 14 4 15 5 16 7 17 6 18 2 19 1 20 73 21 74 22
REMARK SMILES IDX 78 23 75 24 77 25 76 26 20 27 21 28 22 29 23 30 24 31 25 32
REMARK SMILES IDX 71 33 26 34 70 35 27 36 28 37 29 38 64 39 30 40 69 41 63 42
REMARK SMILES IDX 65 43 31 44 68 45 62 46 61 47 32 49 54 50 39 51 53 52 40 53
REMARK SMILES IDX 43 54 52 55 66 56 41 57 42 58 51 60 67 61 44 62 33 63 34 64
REMARK SMILES IDX 38 65 35 66 37 67 36 68 55 69 56 70 60 71 57 72 59 73 58 74
REMARK SMILES IDX 45 75 46 76 50 77 47 78 49 79 48 80
REMARK H PARENT 65 48 43 59
REMARK Flexibility Score: inf
ROOT
ATOM      1  C   UNL A   1      35.151  29.859  27.542  1.00  0.00     0.274 C 
ENDROOT
BRANCH   1   2
ATOM      2  O   UNL A   1      33.950  29.057  27.412  1.00  0.00    -0.461 OA
BRANCH   2   3
ATOM      3  C   UNL A   1      33.128  29.146  26.321  1.00  0.00     0.319 C 
ATOM      4  O   UNL A   1      32.382  30.098  26.108  1.00  0.00    -0.251 OA
BRANCH   3   5
ATOM      5  C   UNL A   1      33.319  27.997  25.312  1.00  0.00     0.161 C 
ATOM      6  C   UNL A   1      34.403  28.090  24.246  1.00  0.00     0.032 C 
BRANCH   5   7
ATOM      7  S   UNL A   1      31.868  27.409  24.446  1.00  0.00    -0.071 SA
BRANCH   7   8
ATOM      8  C   UNL A   1      31.648  25.718  24.709  1.00  0.00     0.196 A 
ATOM      9  C   UNL A   1      31.605  23.544  24.832  1.00  0.00     0.173 A 
ATOM     10  N   UNL A   1      30.367  23.967  24.929  1.00  0.00    -0.129 NA
ATOM     11  N   UNL A   1      32.492  24.603  24.648  1.00  0.00    -0.270 N 
ATOM     12  N   UNL A   1      30.402  25.320  24.895  1.00  0.00    -0.122 NA
BRANCH   9  13
ATOM     13  C   UNL A   1      32.052  22.189  25.042  1.00  0.00     0.062 A 
ATOM     14  C   UNL A   1      32.631  21.811  26.265  1.00  0.00     0.129 A 
ATOM     15  C   UNL A   1      33.449  20.685  26.274  1.00  0.00     0.047 A 
ATOM     16  C   UNL A   1      33.605  19.901  25.125  1.00  0.00     0.004 A 
ATOM     17  C   UNL A   1      32.148  21.370  23.905  1.00  0.00     0.016 A 
ATOM     18  C   UNL A   1      32.931  20.223  23.950  1.00  0.00     0.001 A 
BRANCH  14  19
ATOM     19  O   UNL A   1      32.680  22.552  27.422  1.00  0.00    -0.496 OA
ATOM     20  C   UNL A   1      33.904  22.678  28.145  1.00  0.00     0.278 C 
ENDBRANCH  14  19
ENDBRANCH   9  13
BRANCH  11  21
ATOM     21  C   UNL A   1      33.908  24.416  24.415  1.00  0.00     0.050 A 
ATOM     22  C   UNL A   1      34.432  23.970  23.212  1.00  0.00     0.027 A 
ATOM     23  C   UNL A   1      34.818  24.668  25.455  1.00  0.00     0.027 A 
ATOM     24  C   UNL A   1      35.728  23.436  23.164  1.00  0.00     0.002 A 
ATOM     25  C   UNL A   1      36.096  24.100  25.430  1.00  0.00     0.002 A 
ATOM     26  C   UNL A   1      36.521  23.408  24.306  1.00  0.00     0.000 A 
ENDBRANCH  11  21
ENDBRANCH   7   8
ENDBRANCH   5   7
ENDBRANCH   3   5
ENDBRANCH   2   3
ENDBRANCH   1   2
BRANCH   1  27
ATOM     27  C   UNL A   1      36.352  28.976  27.439  1.00  0.00     0.275 C 
BRANCH  27  28
ATOM     28  O   UNL A   1      37.420  29.792  27.863  1.00  0.00    -0.458 OA
BRANCH  28  29
ATOM     29  C   UNL A   1      38.233  29.212  28.764  1.00  0.00     0.338 C 
ATOM     30  O   UNL A   1      38.005  28.894  29.935  1.00  0.00    -0.246 OA
BRANCH  29  31
ATOM     31  C   UNL A   1      39.568  29.323  28.266  1.00  0.00     0.060 A 
ATOM     32  C   UNL A   1      39.806  29.349  26.888  1.00  0.00     0.016 A 
ATOM     33  C   UNL A   1      40.431  28.706  29.145  1.00  0.00     0.016 A 
ATOM     34  C   UNL A   1      40.716  28.411  26.380  1.00  0.00     0.010 A 
ATOM     35  C   UNL A   1      41.451  28.029  28.581  1.00  0.00     0.010 A 
ATOM     36  C   UNL A   1      41.378  27.536  27.276  1.00  0.00    -0.014 A 
BRANCH  36  37
ATOM     37  C   UNL A   1      42.616  26.733  27.011  1.00  0.00     0.031 A 
ATOM     38  C   UNL A   1      42.065  25.247  27.083  1.00  0.00     0.074 A 
ATOM     39  C   UNL A   1      43.872  27.242  26.625  1.00  0.00     0.049 A 
ATOM     40  N   UNL A   1      42.043  24.575  28.201  1.00  0.00    -0.248 NA
ATOM     41  C   UNL A   1      41.055  24.603  26.139  1.00  0.00     0.031 C 
ATOM     42  C   UNL A   1      44.486  28.622  26.543  1.00  0.00     0.029 A 
ATOM     43  N   UNL A   1      45.011  26.537  26.205  1.00  0.00    -0.354 N 
ATOM     44  C   UNL A   1      41.531  23.315  27.878  1.00  0.00     0.074 A 
ATOM     45  C   UNL A   1      40.631  23.523  26.807  1.00  0.00     0.031 C 
ATOM     46  C   UNL A   1      45.670  28.629  25.841  1.00  0.00     0.029 A 
ATOM     47  C   UNL A   1      46.038  27.270  25.491  1.00  0.00     0.049 A 
ATOM     48  H   UNL A   1      45.109  25.575  26.389  1.00  0.00     0.167 HD
ATOM     49  C   UNL A   1      42.302  22.218  28.113  1.00  0.00     0.031 A 
ATOM     50  C   UNL A   1      47.211  26.787  24.902  1.00  0.00     0.031 A 
ATOM     51  C   UNL A   1      43.357  22.604  29.014  1.00  0.00     0.049 A 
ATOM     52  C   UNL A   1      47.427  25.433  25.474  1.00  0.00     0.074 A 
ATOM     53  C   UNL A   1      43.386  23.161  30.275  1.00  0.00     0.029 A 
ATOM     54  N   UNL A   1      44.487  23.008  28.354  1.00  0.00    -0.354 N 
ATOM     55  N   UNL A   1      47.759  25.290  26.726  1.00  0.00    -0.248 NA
ATOM     56  C   UNL A   1      46.592  24.392  24.881  1.00  0.00     0.031 C 
ATOM     57  C   UNL A   1      44.407  24.151  30.226  1.00  0.00     0.029 A 
ATOM     58  C   UNL A   1      45.115  24.006  29.035  1.00  0.00     0.049 A 
ATOM     59  H   UNL A   1      44.804  22.627  27.504  1.00  0.00     0.167 HD
ATOM     60  C   UNL A   1      46.746  24.495  27.228  1.00  0.00     0.074 A 
ATOM     61  C   UNL A   1      46.052  23.957  26.028  1.00  0.00     0.031 C 
ATOM     62  C   UNL A   1      46.272  24.674  28.502  1.00  0.00     0.031 A 
BRANCH  49  63
ATOM     63  C   UNL A   1      42.496  21.061  27.148  1.00  0.00    -0.014 A 
ATOM     64  C   UNL A   1      42.073  19.795  27.592  1.00  0.00     0.009 A 
ATOM     65  C   UNL A   1      43.299  21.081  25.987  1.00  0.00     0.009 A 
ATOM     66  C   UNL A   1      42.449  18.617  26.937  1.00  0.00     0.001 A 
ATOM     67  C   UNL A   1      43.649  19.904  25.308  1.00  0.00     0.001 A 
ATOM     68  C   UNL A   1      43.233  18.671  25.791  1.00  0.00     0.000 A 
ENDBRANCH  49  63
BRANCH  50  69
ATOM     69  C   UNL A   1      47.893  27.118  23.574  1.00  0.00    -0.014 A 
ATOM     70  C   UNL A   1      47.379  27.950  22.528  1.00  0.00     0.009 A 
ATOM     71  C   UNL A   1      49.263  26.852  23.504  1.00  0.00     0.009 A 
ATOM     72  C   UNL A   1      48.224  28.516  21.530  1.00  0.00     0.001 A 
ATOM     73  C   UNL A   1      50.102  27.440  22.543  1.00  0.00     0.001 A 
ATOM     74  C   UNL A   1      49.595  28.286  21.565  1.00  0.00     0.000 A 
ENDBRANCH  50  69
BRANCH  62  75
ATOM     75  C   UNL A   1      46.965  25.631  29.447  1.00  0.00    -0.014 A 
ATOM     76  C   UNL A   1      48.192  25.421  30.111  1.00  0.00     0.009 A 
ATOM     77  C   UNL A   1      46.415  26.918  29.494  1.00  0.00     0.009 A 
ATOM     78  C   UNL A   1      48.775  26.445  30.880  1.00  0.00     0.001 A 
ATOM     79  C   UNL A   1      47.011  27.943  30.224  1.00  0.00     0.001 A 
ATOM     80  C   UNL A   1      48.172  27.699  30.948  1.00  0.00     0.000 A 
ENDBRANCH  62  75
ENDBRANCH  36  37
ENDBRANCH  29  31
ENDBRANCH  28  29
ENDBRANCH  27  28
ENDBRANCH   1  27
TORSDOF 16
ENDMDL
MODEL 2
REMARK VINA RESULT:     -10.9      3.951      8.983
REMARK SMILES COc1ccccc1-c1nnc(S[C@@H](C)C(=O)OCCOC(=O)c2ccc(-c3c4nc(c(-c5ccccc5)c5ccc([nH]5)c(-c5ccccc5)c5nc(c(-c6ccccc6)c6ccc3[nH]6)C=C5)C=C4)cc2)n1-c1ccccc1
REMARK SMILES IDX 19 1 18 2 16 3 17 4 14 5 15 6 13 7 12 8 9 9 10 10 72 11
REMARK SMILES IDX 11 12 8 13 3 14 4 15 5 16 7 17 6 18 2 19 1 20 73 21 74 22
REMARK SMILES IDX 78 23 75 24 77 25 76 26 20 27 21 28 22 29 23 30 24 31 25 32
REMARK SMILES IDX 71 33 26 34 70 35 27 36 28 37 29 38 64 39 30 40 69 41 63 42
REMARK SMILES IDX 65 43 31 44 68 45 62 46 61 47 32 49 54 50 39 51 53 52 40 53
REMARK SMILES IDX 43 54 52 55 66 56 41 57 42 58 51 60 67 61 44 62 33 63 34 64
REMARK SMILES IDX 38 65 35 66 37 67 36 68 55 69 56 70 60 71 57 72 59 73 58 74
REMARK SMILES IDX 45 75 46 76 50 77 47 78 49 79 48 80
REMARK H PARENT 65 48 43 59
REMARK Flexibility Score: inf
ROOT
ATOM      1  C   UNL A   1      37.306  22.088  24.901  1.00  0.00     0.274 C 
ENDROOT
BRANCH   1   2
ATOM      2  O   UNL A   1      36.034  21.783  25.528  1.00  0.00    -0.461 OA
BRANCH   2   3
ATOM      3  C   UNL A   1      34.854  22.311  25.078  1.00  0.00     0.319 C 
ATOM      4  O   UNL A   1      34.534  22.349  23.893  1.00  0.00    -0.251 OA
BRANCH   3   5
ATOM      5  C   UNL A   1      33.900  22.737  26.212  1.00  0.00     0.161 C 
ATOM      6  C   UNL A   1      34.148  22.259  27.637  1.00  0.00     0.032 C 
BRANCH   5   7
ATOM      7  S   UNL A   1      32.146  22.508  25.945  1.00  0.00    -0.071 SA
BRANCH   7   8
ATOM      8  C   UNL A   1      31.538  23.698  24.853  1.00  0.00     0.196 A 
ATOM      9  C   UNL A   1      30.723  25.377  23.732  1.00  0.00     0.173 A 
ATOM     10  N   UNL A   1      30.311  24.279  23.147  1.00  0.00    -0.129 NA
ATOM     11  N   UNL A   1      31.486  25.096  24.864  1.00  0.00    -0.270 N 
ATOM     12  N   UNL A   1      30.855  23.237  23.821  1.00  0.00    -0.122 NA
BRANCH   9  13
ATOM     13  C   UNL A   1      30.565  26.715  23.219  1.00  0.00     0.062 A 
ATOM     14  C   UNL A   1      31.650  27.385  22.628  1.00  0.00     0.129 A 
ATOM     15  C   UNL A   1      31.604  28.776  22.580  1.00  0.00     0.047 A 
ATOM     16  C   UNL A   1      30.471  29.473  23.013  1.00  0.00     0.004 A 
ATOM     17  C   UNL A   1      29.398  27.404  23.592  1.00  0.00     0.016 A 
ATOM     18  C   UNL A   1      29.356  28.788  23.490  1.00  0.00     0.001 A 
BRANCH  14  19
ATOM     19  O   UNL A   1      32.871  26.850  22.294  1.00  0.00    -0.496 OA
ATOM     20  C   UNL A   1      32.971  25.884  21.247  1.00  0.00     0.278 C 
ENDBRANCH  14  19
ENDBRANCH   9  13
BRANCH  11  21
ATOM     21  C   UNL A   1      31.986  26.121  25.754  1.00  0.00     0.050 A 
ATOM     22  C   UNL A   1      31.181  26.835  26.627  1.00  0.00     0.027 A 
ATOM     23  C   UNL A   1      33.352  26.448  25.732  1.00  0.00     0.027 A 
ATOM     24  C   UNL A   1      31.627  28.054  27.159  1.00  0.00     0.002 A 
ATOM     25  C   UNL A   1      33.794  27.682  26.222  1.00  0.00     0.002 A 
ATOM     26  C   UNL A   1      32.902  28.525  26.867  1.00  0.00     0.000 A 
ENDBRANCH  11  21
ENDBRANCH   7   8
ENDBRANCH   5   7
ENDBRANCH   3   5
ENDBRANCH   2   3
ENDBRANCH   1   2
BRANCH   1  27
ATOM     27  C   UNL A   1      38.416  21.764  25.847  1.00  0.00     0.275 C 
BRANCH  27  28
ATOM     28  O   UNL A   1      38.749  23.003  26.428  1.00  0.00    -0.458 OA
BRANCH  28  29
ATOM     29  C   UNL A   1      39.961  23.030  27.013  1.00  0.00     0.338 C 
ATOM     30  O   UNL A   1      40.484  22.205  27.768  1.00  0.00    -0.246 OA
BRANCH  29  31
ATOM     31  C   UNL A   1      40.456  24.366  26.906  1.00  0.00     0.060 A 
ATOM     32  C   UNL A   1      41.763  24.667  27.300  1.00  0.00     0.016 A 
ATOM     33  C   UNL A   1      39.415  25.250  27.092  1.00  0.00     0.016 A 
ATOM     34  C   UNL A   1      41.925  25.703  28.232  1.00  0.00     0.010 A 
ATOM     35  C   UNL A   1      39.715  26.366  27.784  1.00  0.00     0.010 A 
ATOM     36  C   UNL A   1      40.785  26.414  28.679  1.00  0.00    -0.014 A 
BRANCH  36  37
ATOM     37  C   UNL A   1      40.761  27.748  29.365  1.00  0.00     0.031 A 
ATOM     38  C   UNL A   1      41.770  28.590  28.477  1.00  0.00     0.074 A 
ATOM     39  C   UNL A   1      39.900  28.130  30.413  1.00  0.00     0.049 A 
ATOM     40  N   UNL A   1      43.047  28.639  28.744  1.00  0.00    -0.248 NA
ATOM     41  C   UNL A   1      41.591  28.978  27.013  1.00  0.00     0.031 C 
ATOM     42  C   UNL A   1      38.930  27.403  31.317  1.00  0.00     0.029 A 
ATOM     43  N   UNL A   1      39.719  29.403  30.976  1.00  0.00    -0.354 N 
ATOM     44  C   UNL A   1      43.604  29.489  27.785  1.00  0.00     0.074 A 
ATOM     45  C   UNL A   1      42.822  29.327  26.617  1.00  0.00     0.031 C 
ATOM     46  C   UNL A   1      38.113  28.266  32.012  1.00  0.00     0.029 A 
ATOM     47  C   UNL A   1      38.518  29.636  31.755  1.00  0.00     0.049 A 
ATOM     48  H   UNL A   1      40.385  30.116  30.847  1.00  0.00     0.167 HD
ATOM     49  C   UNL A   1      44.245  30.614  28.205  1.00  0.00     0.031 A 
ATOM     50  C   UNL A   1      38.070  30.824  32.341  1.00  0.00     0.031 A 
ATOM     51  C   UNL A   1      44.524  30.466  29.609  1.00  0.00     0.049 A 
ATOM     52  C   UNL A   1      39.242  31.736  32.361  1.00  0.00     0.074 A 
ATOM     53  C   UNL A   1      45.214  29.534  30.357  1.00  0.00     0.029 A 
ATOM     54  N   UNL A   1      43.530  30.979  30.398  1.00  0.00    -0.354 N 
ATOM     55  N   UNL A   1      40.253  31.496  33.148  1.00  0.00    -0.248 NA
ATOM     56  C   UNL A   1      39.529  32.371  31.078  1.00  0.00     0.031 C 
ATOM     57  C   UNL A   1      44.402  29.294  31.501  1.00  0.00     0.029 A 
ATOM     58  C   UNL A   1      43.381  30.240  31.533  1.00  0.00     0.049 A 
ATOM     59  H   UNL A   1      42.997  31.776  30.177  1.00  0.00     0.167 HD
ATOM     60  C   UNL A   1      41.315  31.405  32.268  1.00  0.00     0.074 A 
ATOM     61  C   UNL A   1      40.805  31.970  30.992  1.00  0.00     0.031 C 
ATOM     62  C   UNL A   1      42.335  30.512  32.481  1.00  0.00     0.031 A 
BRANCH  49  63
ATOM     63  C   UNL A   1      44.081  31.995  27.592  1.00  0.00    -0.014 A 
ATOM     64  C   UNL A   1      44.608  32.175  26.301  1.00  0.00     0.009 A 
ATOM     65  C   UNL A   1      43.711  33.166  28.287  1.00  0.00     0.009 A 
ATOM     66  C   UNL A   1      44.784  33.447  25.744  1.00  0.00     0.001 A 
ATOM     67  C   UNL A   1      43.853  34.441  27.718  1.00  0.00     0.001 A 
ATOM     68  C   UNL A   1      44.402  34.581  26.450  1.00  0.00     0.000 A 
ENDBRANCH  49  63
BRANCH  50  69
ATOM     69  C   UNL A   1      36.677  31.448  32.436  1.00  0.00    -0.014 A 
ATOM     70  C   UNL A   1      36.173  32.268  33.497  1.00  0.00     0.009 A 
ATOM     71  C   UNL A   1      35.942  31.492  31.249  1.00  0.00     0.009 A 
ATOM     72  C   UNL A   1      35.041  33.115  33.322  1.00  0.00     0.001 A 
ATOM     73  C   UNL A   1      34.849  32.355  31.064  1.00  0.00     0.001 A 
ATOM     74  C   UNL A   1      34.404  33.183  32.088  1.00  0.00     0.000 A 
ENDBRANCH  50  69
BRANCH  62  75
ATOM     75  C   UNL A   1      42.406  29.729  33.773  1.00  0.00    -0.014 A 
ATOM     76  C   UNL A   1      42.880  30.195  35.018  1.00  0.00     0.009 A 
ATOM     77  C   UNL A   1      41.750  28.492  33.752  1.00  0.00     0.009 A 
ATOM     78  C   UNL A   1      42.789  29.388  36.167  1.00  0.00     0.001 A 
ATOM     79  C   UNL A   1      41.625  27.709  34.896  1.00  0.00     0.001 A 
ATOM     80  C   UNL A   1      42.176  28.139  36.098  1.00  0.00     0.000 A 
ENDBRANCH  62  75
ENDBRANCH  36  37
ENDBRANCH  29  31
ENDBRANCH  28  29
ENDBRANCH  27  28
ENDBRANCH   1  27
TORSDOF 16
ENDMDL
MODEL 3
REMARK VINA RESULT:     -10.8      3.024      5.775
REMARK SMILES COc1ccccc1-c1nnc(S[C@@H](C)C(=O)OCCOC(=O)c2ccc(-c3c4nc(c(-c5ccccc5)c5ccc([nH]5)c(-c5ccccc5)c5nc(c(-c6ccccc6)c6ccc3[nH]6)C=C5)C=C4)cc2)n1-c1ccccc1
REMARK SMILES IDX 19 1 18 2 16 3 17 4 14 5 15 6 13 7 12 8 9 9 10 10 72 11
REMARK SMILES IDX 11 12 8 13 3 14 4 15 5 16 7 17 6 18 2 19 1 20 73 21 74 22
REMARK SMILES IDX 78 23 75 24 77 25 76 26 20 27 21 28 22 29 23 30 24 31 25 32
REMARK SMILES IDX 71 33 26 34 70 35 27 36 28 37 29 38 64 39 30 40 69 41 63 42
REMARK SMILES IDX 65 43 31 44 68 45 62 46 61 47 32 49 54 50 39 51 53 52 40 53
REMARK SMILES IDX 43 54 52 55 66 56 41 57 42 58 51 60 67 61 44 62 33 63 34 64
REMARK SMILES IDX 38 65 35 66 37 67 36 68 55 69 56 70 60 71 57 72 59 73 58 74
REMARK SMILES IDX 45 75 46 76 50 77 47 78 49 79 48 80
REMARK H PARENT 65 48 43 59
REMARK Flexibility Score: inf
ROOT
ATOM      1  C   UNL A   1      32.227  30.896  26.492  1.00  0.00     0.274 C 
ENDROOT
BRANCH   1   2
ATOM      2  O   UNL A   1      31.489  29.686  26.183  1.00  0.00    -0.461 OA
BRANCH   2   3
ATOM      3  C   UNL A   1      31.435  29.167  24.918  1.00  0.00     0.319 C 
ATOM      4  O   UNL A   1      30.712  29.612  24.030  1.00  0.00    -0.251 OA
BRANCH   3   5
ATOM      5  C   UNL A   1      32.465  28.047  24.668  1.00  0.00     0.161 C 
ATOM      6  C   UNL A   1      33.955  28.349  24.754  1.00  0.00     0.032 C 
BRANCH   5   7
ATOM      7  S   UNL A   1      32.276  27.069  23.182  1.00  0.00    -0.071 SA
BRANCH   7   8
ATOM      8  C   UNL A   1      31.952  25.421  23.579  1.00  0.00     0.196 A 
ATOM      9  C   UNL A   1      31.823  23.278  23.943  1.00  0.00     0.173 A 
ATOM     10  N   UNL A   1      30.614  23.701  23.664  1.00  0.00    -0.129 NA
ATOM     11  N   UNL A   1      32.755  24.312  23.872  1.00  0.00    -0.270 N 
ATOM     12  N   UNL A   1      30.691  25.041  23.480  1.00  0.00    -0.122 NA
BRANCH   9  13
ATOM     13  C   UNL A   1      32.165  21.961  24.422  1.00  0.00     0.062 A 
ATOM     14  C   UNL A   1      32.581  21.772  25.751  1.00  0.00     0.129 A 
ATOM     15  C   UNL A   1      33.327  20.632  26.040  1.00  0.00     0.047 A 
ATOM     16  C   UNL A   1      33.567  19.662  25.060  1.00  0.00     0.004 A 
ATOM     17  C   UNL A   1      32.343  20.960  23.453  1.00  0.00     0.016 A 
ATOM     18  C   UNL A   1      33.049  19.809  23.775  1.00  0.00     0.001 A 
BRANCH  14  19
ATOM     19  O   UNL A   1      32.541  22.692  26.770  1.00  0.00    -0.496 OA
ATOM     20  C   UNL A   1      33.254  22.454  27.984  1.00  0.00     0.278 C 
ENDBRANCH  14  19
ENDBRANCH   9  13
BRANCH  11  21
ATOM     21  C   UNL A   1      34.177  24.107  24.039  1.00  0.00     0.050 A 
ATOM     22  C   UNL A   1      34.963  23.419  23.128  1.00  0.00     0.027 A 
ATOM     23  C   UNL A   1      34.815  24.599  25.190  1.00  0.00     0.027 A 
ATOM     24  C   UNL A   1      36.212  22.914  23.516  1.00  0.00     0.002 A 
ATOM     25  C   UNL A   1      36.040  24.065  25.604  1.00  0.00     0.002 A 
ATOM     26  C   UNL A   1      36.701  23.152  24.796  1.00  0.00     0.000 A 
ENDBRANCH  11  21
ENDBRANCH   7   8
ENDBRANCH   5   7
ENDBRANCH   3   5
ENDBRANCH   2   3
ENDBRANCH   1   2
BRANCH   1  27
ATOM     27  C   UNL A   1      33.168  30.629  27.621  1.00  0.00     0.275 C 
BRANCH  27  28
ATOM     28  O   UNL A   1      33.856  31.846  27.794  1.00  0.00    -0.458 OA
BRANCH  28  29
ATOM     29  C   UNL A   1      34.829  31.802  28.723  1.00  0.00     0.338 C 
ATOM     30  O   UNL A   1      34.858  32.302  29.851  1.00  0.00    -0.246 OA
BRANCH  29  31
ATOM     31  C   UNL A   1      36.021  31.362  28.069  1.00  0.00     0.060 A 
ATOM     32  C   UNL A   1      36.090  30.078  27.518  1.00  0.00     0.016 A 
ATOM     33  C   UNL A   1      37.110  31.961  28.663  1.00  0.00     0.016 A 
ATOM     34  C   UNL A   1      37.158  29.266  27.926  1.00  0.00     0.010 A 
ATOM     35  C   UNL A   1      38.206  31.187  28.785  1.00  0.00     0.010 A 
ATOM     36  C   UNL A   1      38.125  29.793  28.816  1.00  0.00    -0.014 A 
BRANCH  36  37
ATOM     37  C   UNL A   1      39.497  29.252  29.087  1.00  0.00     0.031 A 
ATOM     38  C   UNL A   1      39.506  29.162  30.671  1.00  0.00     0.074 A 
ATOM     39  C   UNL A   1      40.418  28.794  28.123  1.00  0.00     0.049 A 
ATOM     40  N   UNL A   1      39.909  30.156  31.415  1.00  0.00    -0.248 NA
ATOM     41  C   UNL A   1      38.629  28.265  31.539  1.00  0.00     0.031 C 
ATOM     42  C   UNL A   1      40.501  28.850  26.615  1.00  0.00     0.029 A 
ATOM     43  N   UNL A   1      41.638  28.129  28.325  1.00  0.00    -0.354 N 
ATOM     44  C   UNL A   1      39.809  29.709  32.735  1.00  0.00     0.074 A 
ATOM     45  C   UNL A   1      38.721  28.806  32.760  1.00  0.00     0.031 C 
ATOM     46  C   UNL A   1      41.470  28.013  26.111  1.00  0.00     0.029 A 
ATOM     47  C   UNL A   1      42.213  27.413  27.204  1.00  0.00     0.049 A 
ATOM     48  H   UNL A   1      42.088  28.148  29.200  1.00  0.00     0.167 HD
ATOM     49  C   UNL A   1      40.936  29.673  33.498  1.00  0.00     0.031 A 
ATOM     50  C   UNL A   1      43.360  26.613  27.169  1.00  0.00     0.031 A 
ATOM     51  C   UNL A   1      41.936  30.481  32.849  1.00  0.00     0.049 A 
ATOM     52  C   UNL A   1      44.120  26.937  28.404  1.00  0.00     0.074 A 
ATOM     53  C   UNL A   1      41.991  31.799  32.448  1.00  0.00     0.029 A 
ATOM     54  N   UNL A   1      42.728  29.755  32.001  1.00  0.00    -0.354 N 
ATOM     55  N   UNL A   1      44.693  28.099  28.542  1.00  0.00    -0.248 NA
ATOM     56  C   UNL A   1      43.601  26.300  29.611  1.00  0.00     0.031 C 
ATOM     57  C   UNL A   1      42.589  31.776  31.157  1.00  0.00     0.029 A 
ATOM     58  C   UNL A   1      43.086  30.497  30.917  1.00  0.00     0.049 A 
ATOM     59  H   UNL A   1      43.003  28.823  32.155  1.00  0.00     0.167 HD
ATOM     60  C   UNL A   1      44.113  28.596  29.695  1.00  0.00     0.074 A 
ATOM     61  C   UNL A   1      43.448  27.425  30.324  1.00  0.00     0.031 C 
ATOM     62  C   UNL A   1      43.835  29.932  29.827  1.00  0.00     0.031 A 
BRANCH  49  63
ATOM     63  C   UNL A   1      41.343  28.523  34.404  1.00  0.00    -0.014 A 
ATOM     64  C   UNL A   1      41.824  28.869  35.679  1.00  0.00     0.009 A 
ATOM     65  C   UNL A   1      41.546  27.186  34.000  1.00  0.00     0.009 A 
ATOM     66  C   UNL A   1      42.494  27.948  36.493  1.00  0.00     0.001 A 
ATOM     67  C   UNL A   1      42.186  26.251  34.827  1.00  0.00     0.001 A 
ATOM     68  C   UNL A   1      42.671  26.637  36.070  1.00  0.00     0.000 A 
ENDBRANCH  49  63
BRANCH  50  69
ATOM     69  C   UNL A   1      43.647  25.277  26.483  1.00  0.00    -0.014 A 
ATOM     70  C   UNL A   1      42.684  24.343  25.983  1.00  0.00     0.009 A 
ATOM     71  C   UNL A   1      44.952  25.095  26.016  1.00  0.00     0.009 A 
ATOM     72  C   UNL A   1      43.028  23.345  25.025  1.00  0.00     0.001 A 
ATOM     73  C   UNL A   1      45.283  24.135  25.045  1.00  0.00     0.001 A 
ATOM     74  C   UNL A   1      44.325  23.270  24.531  1.00  0.00     0.000 A 
ENDBRANCH  50  69
BRANCH  62  75
ATOM     75  C   UNL A   1      44.313  30.919  28.784  1.00  0.00    -0.014 A 
ATOM     76  C   UNL A   1      43.715  31.180  27.534  1.00  0.00     0.009 A 
ATOM     77  C   UNL A   1      45.332  31.780  29.208  1.00  0.00     0.009 A 
ATOM     78  C   UNL A   1      44.208  32.205  26.704  1.00  0.00     0.001 A 
ATOM     79  C   UNL A   1      45.795  32.818  28.404  1.00  0.00     0.001 A 
ATOM     80  C   UNL A   1      45.259  33.010  27.137  1.00  0.00     0.000 A 
ENDBRANCH  62  75
ENDBRANCH  36  37
ENDBRANCH  29  31
ENDBRANCH  28  29
ENDBRANCH  27  28
ENDBRANCH   1  27
TORSDOF 16
ENDMDL
