MODEL 1
REMARK VINA RESULT:     -10.6      0.000      0.000
REMARK SMILES O=C(OCCOC(=O)c1cc(SCc2csc(-c3ccsc3)n2)ccn1)c1ccc(-c2c3nc(c(-c4ccccc4)c4ccc([nH]4)c(-c4ccccc4)c4nc(c(-c5ccccc5)c5ccc2[nH]5)C=C4)C=C3)cc1
REMARK SMILES IDX 5 1 4 2 3 3 2 4 1 5 27 6 28 7 74 8 29 9 73 10 30 11 31 12
REMARK SMILES IDX 32 13 67 14 33 15 72 16 66 17 68 18 34 19 71 20 65 21 64 22
REMARK SMILES IDX 35 24 57 25 42 26 56 27 43 28 46 29 55 30 69 31 44 32 45 33
REMARK SMILES IDX 54 35 70 36 47 37 36 38 37 39 41 40 38 41 40 42 39 43 58 44
REMARK SMILES IDX 59 45 63 46 60 47 62 48 61 49 48 50 49 51 53 52 50 53 52 54
REMARK SMILES IDX 51 55 6 56 7 57 8 58 9 59 10 60 26 61 11 62 25 63 24 64
REMARK SMILES IDX 12 65 13 66 14 67 15 68 23 69 16 70 17 71 18 72 19 73 22 74
REMARK SMILES IDX 20 75 21 76
REMARK H PARENT 68 23 46 34
REMARK Flexibility Score: inf
ROOT
ATOM      1  C   UNL A   1      34.164  35.470  28.284  1.00  0.00     0.275 C 
ENDROOT
BRANCH   1   2
ATOM      2  C   UNL A   1      32.930  35.136  29.122  1.00  0.00     0.275 C 
BRANCH   2   3
ATOM      3  O   UNL A   1      32.729  36.039  30.222  1.00  0.00    -0.458 OA
BRANCH   3   4
ATOM      4  C   UNL A   1      32.810  35.834  31.557  1.00  0.00     0.338 C 
ATOM      5  O   UNL A   1      31.914  36.290  32.270  1.00  0.00    -0.246 OA
BRANCH   4   6
ATOM      6  C   UNL A   1      33.954  35.155  32.258  1.00  0.00     0.060 A 
ATOM      7  C   UNL A   1      35.262  35.627  32.365  1.00  0.00     0.016 A 
ATOM      8  C   UNL A   1      33.685  33.875  32.793  1.00  0.00     0.016 A 
ATOM      9  C   UNL A   1      36.262  34.850  32.966  1.00  0.00     0.010 A 
ATOM     10  C   UNL A   1      34.680  33.099  33.408  1.00  0.00     0.010 A 
ATOM     11  C   UNL A   1      35.987  33.580  33.480  1.00  0.00    -0.014 A 
BRANCH  11  12
ATOM     12  C   UNL A   1      37.125  32.743  33.937  1.00  0.00     0.031 A 
ATOM     13  C   UNL A   1      37.770  31.824  32.954  1.00  0.00     0.074 A 
ATOM     14  C   UNL A   1      37.634  32.860  35.176  1.00  0.00     0.049 A 
ATOM     15  N   UNL A   1      38.916  31.206  33.039  1.00  0.00    -0.248 NA
ATOM     16  C   UNL A   1      37.016  31.560  31.720  1.00  0.00     0.031 C 
ATOM     17  C   UNL A   1      37.052  33.696  36.208  1.00  0.00     0.029 A 
ATOM     18  N   UNL A   1      38.766  32.343  35.766  1.00  0.00    -0.354 N 
ATOM     19  C   UNL A   1      39.004  30.439  31.889  1.00  0.00     0.074 A 
ATOM     20  C   UNL A   1      37.810  30.693  31.111  1.00  0.00     0.031 C 
ATOM     21  C   UNL A   1      37.875  33.727  37.267  1.00  0.00     0.029 A 
ATOM     22  C   UNL A   1      39.051  32.928  36.985  1.00  0.00     0.049 A 
ATOM     23  H   UNL A   1      39.314  31.632  35.362  1.00  0.00     0.167 HD
ATOM     24  C   UNL A   1      39.976  29.565  31.543  1.00  0.00     0.031 A 
ATOM     25  C   UNL A   1      40.167  32.903  37.745  1.00  0.00     0.031 A 
ATOM     26  C   UNL A   1      41.127  29.286  32.357  1.00  0.00     0.049 A 
ATOM     27  C   UNL A   1      41.302  32.043  37.268  1.00  0.00     0.074 A 
ATOM     28  C   UNL A   1      42.141  28.371  32.139  1.00  0.00     0.029 A 
ATOM     29  N   UNL A   1      41.409  29.919  33.561  1.00  0.00    -0.354 N 
ATOM     30  N   UNL A   1      41.409  31.373  36.146  1.00  0.00    -0.248 NA
ATOM     31  C   UNL A   1      42.471  31.939  38.151  1.00  0.00     0.031 C 
ATOM     32  C   UNL A   1      43.014  28.421  33.234  1.00  0.00     0.029 A 
ATOM     33  C   UNL A   1      42.573  29.406  34.106  1.00  0.00     0.049 A 
ATOM     34  H   UNL A   1      40.861  30.630  33.967  1.00  0.00     0.167 HD
ATOM     35  C   UNL A   1      42.644  30.746  36.197  1.00  0.00     0.074 A 
ATOM     36  C   UNL A   1      43.283  31.186  37.423  1.00  0.00     0.031 C 
ATOM     37  C   UNL A   1      43.183  29.853  35.331  1.00  0.00     0.031 A 
BRANCH  24  38
ATOM     38  C   UNL A   1      39.739  28.777  30.289  1.00  0.00    -0.014 A 
ATOM     39  C   UNL A   1      39.205  27.480  30.321  1.00  0.00     0.009 A 
ATOM     40  C   UNL A   1      40.141  29.321  29.059  1.00  0.00     0.009 A 
ATOM     41  C   UNL A   1      39.122  26.725  29.149  1.00  0.00     0.001 A 
ATOM     42  C   UNL A   1      40.034  28.573  27.886  1.00  0.00     0.001 A 
ATOM     43  C   UNL A   1      39.538  27.272  27.934  1.00  0.00     0.000 A 
ENDBRANCH  24  38
BRANCH  25  44
ATOM     44  C   UNL A   1      40.347  33.827  38.914  1.00  0.00    -0.014 A 
ATOM     45  C   UNL A   1      41.117  34.999  38.776  1.00  0.00     0.009 A 
ATOM     46  C   UNL A   1      39.761  33.578  40.162  1.00  0.00     0.009 A 
ATOM     47  C   UNL A   1      41.295  35.889  39.839  1.00  0.00     0.001 A 
ATOM     48  C   UNL A   1      39.918  34.481  41.222  1.00  0.00     0.001 A 
ATOM     49  C   UNL A   1      40.688  35.632  41.062  1.00  0.00     0.000 A 
ENDBRANCH  25  44
BRANCH  37  50
ATOM     50  C   UNL A   1      44.515  29.275  35.708  1.00  0.00    -0.014 A 
ATOM     51  C   UNL A   1      44.600  28.141  36.533  1.00  0.00     0.009 A 
ATOM     52  C   UNL A   1      45.694  29.848  35.212  1.00  0.00     0.009 A 
ATOM     53  C   UNL A   1      45.844  27.618  36.888  1.00  0.00     0.001 A 
ATOM     54  C   UNL A   1      46.936  29.305  35.546  1.00  0.00     0.001 A 
ATOM     55  C   UNL A   1      47.010  28.199  36.391  1.00  0.00     0.000 A 
ENDBRANCH  37  50
ENDBRANCH  11  12
ENDBRANCH   4   6
ENDBRANCH   3   4
ENDBRANCH   2   3
ENDBRANCH   1   2
BRANCH   1  56
ATOM     56  O   UNL A   1      34.730  34.310  27.662  1.00  0.00    -0.457 OA
BRANCH  56  57
ATOM     57  C   UNL A   1      35.572  33.582  28.456  1.00  0.00     0.357 C 
ATOM     58  O   UNL A   1      36.251  33.991  29.374  1.00  0.00    -0.244 OA
BRANCH  57  59
ATOM     59  C   UNL A   1      35.478  32.170  28.013  1.00  0.00     0.149 A 
ATOM     60  C   UNL A   1      34.225  31.610  27.791  1.00  0.00     0.051 A 
ATOM     61  N   UNL A   1      36.647  31.492  27.931  1.00  0.00    -0.249 NA
ATOM     62  C   UNL A   1      34.153  30.248  27.556  1.00  0.00     0.012 A 
ATOM     63  C   UNL A   1      36.558  30.184  27.636  1.00  0.00     0.113 A 
ATOM     64  C   UNL A   1      35.352  29.527  27.451  1.00  0.00     0.035 A 
BRANCH  62  65
ATOM     65  S   UNL A   1      32.634  29.341  27.346  1.00  0.00    -0.120 SA
BRANCH  65  66
ATOM     66  C   UNL A   1      32.848  28.188  25.943  1.00  0.00     0.132 C 
BRANCH  66  67
ATOM     67  C   UNL A   1      31.915  28.223  24.755  1.00  0.00     0.062 A 
ATOM     68  C   UNL A   1      31.364  27.113  24.144  1.00  0.00     0.091 A 
ATOM     69  N   UNL A   1      31.328  29.430  24.333  1.00  0.00    -0.240 NA
ATOM     70  S   UNL A   1      30.024  27.538  23.181  1.00  0.00    -0.122 S 
ATOM     71  C   UNL A   1      30.311  29.202  23.517  1.00  0.00     0.124 A 
BRANCH  71  72
ATOM     72  C   UNL A   1      29.430  30.279  22.925  1.00  0.00     0.021 A 
ATOM     73  C   UNL A   1      28.750  31.289  23.660  1.00  0.00     0.023 A 
ATOM     74  C   UNL A   1      29.197  30.425  21.571  1.00  0.00     0.076 A 
ATOM     75  C   UNL A   1      28.031  32.154  22.865  1.00  0.00     0.065 A 
ATOM     76  S   UNL A   1      28.149  31.734  21.213  1.00  0.00    -0.152 S 
ENDBRANCH  71  72
ENDBRANCH  66  67
ENDBRANCH  65  66
ENDBRANCH  62  65
ENDBRANCH  57  59
ENDBRANCH  56  57
ENDBRANCH   1  56
TORSDOF 15
ENDMDL
MODEL 2
REMARK VINA RESULT:     -10.1      4.261      8.872
REMARK SMILES O=C(OCCOC(=O)c1cc(SCc2csc(-c3ccsc3)n2)ccn1)c1ccc(-c2c3nc(c(-c4ccccc4)c4ccc([nH]4)c(-c4ccccc4)c4nc(c(-c5ccccc5)c5ccc2[nH]5)C=C4)C=C3)cc1
REMARK SMILES IDX 5 1 4 2 3 3 2 4 1 5 27 6 28 7 74 8 29 9 73 10 30 11 31 12
REMARK SMILES IDX 32 13 67 14 33 15 72 16 66 17 68 18 34 19 71 20 65 21 64 22
REMARK SMILES IDX 35 24 57 25 42 26 56 27 43 28 46 29 55 30 69 31 44 32 45 33
REMARK SMILES IDX 54 35 70 36 47 37 36 38 37 39 41 40 38 41 40 42 39 43 58 44
REMARK SMILES IDX 59 45 63 46 60 47 62 48 61 49 48 50 49 51 53 52 50 53 52 54
REMARK SMILES IDX 51 55 6 56 7 57 8 58 9 59 10 60 26 61 11 62 25 63 24 64
REMARK SMILES IDX 12 65 13 66 14 67 15 68 23 69 16 70 17 71 18 72 19 73 22 74
REMARK SMILES IDX 20 75 21 76
REMARK H PARENT 68 23 46 34
REMARK Flexibility Score: inf
ROOT
ATOM      1  C   UNL A   1      31.670  28.851  25.921  1.00  0.00     0.275 C 
ENDROOT
BRANCH   1   2
ATOM      2  C   UNL A   1      31.872  29.811  27.093  1.00  0.00     0.275 C 
BRANCH   2   3
ATOM      3  O   UNL A   1      32.615  30.990  26.740  1.00  0.00    -0.458 OA
BRANCH   3   4
ATOM      4  C   UNL A   1      33.526  31.702  27.444  1.00  0.00     0.338 C 
ATOM      5  O   UNL A   1      33.267  32.878  27.705  1.00  0.00    -0.246 OA
BRANCH   4   6
ATOM      6  C   UNL A   1      34.874  31.193  27.873  1.00  0.00     0.060 A 
ATOM      7  C   UNL A   1      35.201  29.878  28.204  1.00  0.00     0.016 A 
ATOM      8  C   UNL A   1      35.888  32.166  28.024  1.00  0.00     0.016 A 
ATOM      9  C   UNL A   1      36.477  29.550  28.682  1.00  0.00     0.010 A 
ATOM     10  C   UNL A   1      37.171  31.840  28.490  1.00  0.00     0.010 A 
ATOM     11  C   UNL A   1      37.467  30.523  28.842  1.00  0.00    -0.014 A 
BRANCH  11  12
ATOM     12  C   UNL A   1      38.731  30.139  29.518  1.00  0.00     0.031 A 
ATOM     13  C   UNL A   1      38.863  30.407  30.980  1.00  0.00     0.074 A 
ATOM     14  C   UNL A   1      39.709  29.483  28.869  1.00  0.00     0.049 A 
ATOM     15  N   UNL A   1      39.738  29.936  31.825  1.00  0.00    -0.248 NA
ATOM     16  C   UNL A   1      37.886  31.340  31.560  1.00  0.00     0.031 C 
ATOM     17  C   UNL A   1      39.686  29.212  27.444  1.00  0.00     0.029 A 
ATOM     18  N   UNL A   1      40.865  28.875  29.304  1.00  0.00    -0.354 N 
ATOM     19  C   UNL A   1      39.449  30.550  33.032  1.00  0.00     0.074 A 
ATOM     20  C   UNL A   1      38.300  31.404  32.816  1.00  0.00     0.031 C 
ATOM     21  C   UNL A   1      40.711  28.407  27.132  1.00  0.00     0.029 A 
ATOM     22  C   UNL A   1      41.457  28.089  28.333  1.00  0.00     0.049 A 
ATOM     23  H   UNL A   1      41.232  28.990  30.210  1.00  0.00     0.167 HD
ATOM     24  C   UNL A   1      40.118  30.443  34.203  1.00  0.00     0.031 A 
ATOM     25  C   UNL A   1      42.422  27.149  28.416  1.00  0.00     0.031 A 
ATOM     26  C   UNL A   1      41.291  29.631  34.382  1.00  0.00     0.049 A 
ATOM     27  C   UNL A   1      43.054  26.932  29.761  1.00  0.00     0.074 A 
ATOM     28  C   UNL A   1      42.089  29.498  35.503  1.00  0.00     0.029 A 
ATOM     29  N   UNL A   1      41.840  28.818  33.399  1.00  0.00    -0.354 N 
ATOM     30  N   UNL A   1      42.732  27.464  30.916  1.00  0.00    -0.248 NA
ATOM     31  C   UNL A   1      44.173  25.983  29.822  1.00  0.00     0.031 C 
ATOM     32  C   UNL A   1      43.147  28.637  35.183  1.00  0.00     0.029 A 
ATOM     33  C   UNL A   1      42.976  28.192  33.881  1.00  0.00     0.049 A 
ATOM     34  H   UNL A   1      41.475  28.704  32.491  1.00  0.00     0.167 HD
ATOM     35  C   UNL A   1      43.623  26.937  31.836  1.00  0.00     0.074 A 
ATOM     36  C   UNL A   1      44.443  25.979  31.120  1.00  0.00     0.031 C 
ATOM     37  C   UNL A   1      43.780  27.250  33.146  1.00  0.00     0.031 A 
BRANCH  24  38
ATOM     38  C   UNL A   1      39.646  31.329  35.316  1.00  0.00    -0.014 A 
ATOM     39  C   UNL A   1      38.578  30.965  36.150  1.00  0.00     0.009 A 
ATOM     40  C   UNL A   1      40.237  32.593  35.475  1.00  0.00     0.009 A 
ATOM     41  C   UNL A   1      38.079  31.870  37.090  1.00  0.00     0.001 A 
ATOM     42  C   UNL A   1      39.752  33.485  36.431  1.00  0.00     0.001 A 
ATOM     43  C   UNL A   1      38.665  33.129  37.227  1.00  0.00     0.000 A 
ENDBRANCH  24  38
BRANCH  25  44
ATOM     44  C   UNL A   1      42.730  26.230  27.270  1.00  0.00    -0.014 A 
ATOM     45  C   UNL A   1      41.987  25.045  27.095  1.00  0.00     0.009 A 
ATOM     46  C   UNL A   1      43.738  26.509  26.338  1.00  0.00     0.009 A 
ATOM     47  C   UNL A   1      42.237  24.174  26.031  1.00  0.00     0.001 A 
ATOM     48  C   UNL A   1      43.974  25.648  25.257  1.00  0.00     0.001 A 
ATOM     49  C   UNL A   1      43.228  24.480  25.107  1.00  0.00     0.000 A 
ENDBRANCH  25  44
BRANCH  37  50
ATOM     50  C   UNL A   1      44.903  26.566  33.868  1.00  0.00    -0.014 A 
ATOM     51  C   UNL A   1      46.189  27.131  33.897  1.00  0.00     0.009 A 
ATOM     52  C   UNL A   1      44.671  25.364  34.550  1.00  0.00     0.009 A 
ATOM     53  C   UNL A   1      47.231  26.482  34.561  1.00  0.00     0.001 A 
ATOM     54  C   UNL A   1      45.707  24.732  35.237  1.00  0.00     0.001 A 
ATOM     55  C   UNL A   1      46.988  25.285  35.232  1.00  0.00     0.000 A 
ENDBRANCH  37  50
ENDBRANCH  11  12
ENDBRANCH   4   6
ENDBRANCH   3   4
ENDBRANCH   2   3
ENDBRANCH   1   2
BRANCH   1  56
ATOM     56  O   UNL A   1      31.558  29.538  24.668  1.00  0.00    -0.457 OA
BRANCH  56  57
ATOM     57  C   UNL A   1      30.701  28.966  23.771  1.00  0.00     0.357 C 
ATOM     58  O   UNL A   1      29.614  29.381  23.428  1.00  0.00    -0.244 OA
BRANCH  57  59
ATOM     59  C   UNL A   1      31.363  27.745  23.251  1.00  0.00     0.149 A 
ATOM     60  C   UNL A   1      30.757  26.509  23.447  1.00  0.00     0.051 A 
ATOM     61  N   UNL A   1      32.576  27.923  22.678  1.00  0.00    -0.249 NA
ATOM     62  C   UNL A   1      31.475  25.372  23.117  1.00  0.00     0.012 A 
ATOM     63  C   UNL A   1      33.228  26.808  22.304  1.00  0.00     0.113 A 
ATOM     64  C   UNL A   1      32.729  25.532  22.507  1.00  0.00     0.035 A 
BRANCH  62  65
ATOM     65  S   UNL A   1      30.903  23.707  23.386  1.00  0.00    -0.120 SA
BRANCH  65  66
ATOM     66  C   UNL A   1      31.807  23.020  24.821  1.00  0.00     0.132 C 
BRANCH  66  67
ATOM     67  C   UNL A   1      32.885  21.978  24.636  1.00  0.00     0.062 A 
ATOM     68  C   UNL A   1      34.244  22.215  24.730  1.00  0.00     0.091 A 
ATOM     69  N   UNL A   1      32.568  20.608  24.602  1.00  0.00    -0.240 NA
ATOM     70  S   UNL A   1      35.112  20.764  24.940  1.00  0.00    -0.122 S 
ATOM     71  C   UNL A   1      33.653  19.867  24.769  1.00  0.00     0.124 A 
BRANCH  71  72
ATOM     72  C   UNL A   1      33.654  18.356  24.837  1.00  0.00     0.021 A 
ATOM     73  C   UNL A   1      34.741  17.512  24.477  1.00  0.00     0.023 A 
ATOM     74  C   UNL A   1      32.585  17.606  25.289  1.00  0.00     0.076 A 
ATOM     75  C   UNL A   1      34.474  16.173  24.656  1.00  0.00     0.065 A 
ATOM     76  S   UNL A   1      32.888  15.919  25.239  1.00  0.00    -0.152 S 
ENDBRANCH  71  72
ENDBRANCH  66  67
ENDBRANCH  65  66
ENDBRANCH  62  65
ENDBRANCH  57  59
ENDBRANCH  56  57
ENDBRANCH   1  56
TORSDOF 15
ENDMDL
MODEL 3
REMARK VINA RESULT:     -10.1      1.901      3.275
REMARK SMILES O=C(OCCOC(=O)c1cc(SCc2csc(-c3ccsc3)n2)ccn1)c1ccc(-c2c3nc(c(-c4ccccc4)c4ccc([nH]4)c(-c4ccccc4)c4nc(c(-c5ccccc5)c5ccc2[nH]5)C=C4)C=C3)cc1
REMARK SMILES IDX 5 1 4 2 3 3 2 4 1 5 27 6 28 7 74 8 29 9 73 10 30 11 31 12
REMARK SMILES IDX 32 13 67 14 33 15 72 16 66 17 68 18 34 19 71 20 65 21 64 22
REMARK SMILES IDX 35 24 57 25 42 26 56 27 43 28 46 29 55 30 69 31 44 32 45 33
REMARK SMILES IDX 54 35 70 36 47 37 36 38 37 39 41 40 38 41 40 42 39 43 58 44
REMARK SMILES IDX 59 45 63 46 60 47 62 48 61 49 48 50 49 51 53 52 50 53 52 54
REMARK SMILES IDX 51 55 6 56 7 57 8 58 9 59 10 60 26 61 11 62 25 63 24 64
REMARK SMILES IDX 12 65 13 66 14 67 15 68 23 69 16 70 17 71 18 72 19 73 22 74
REMARK SMILES IDX 20 75 21 76
REMARK H PARENT 68 23 46 34
REMARK Flexibility Score: inf
ROOT
ATOM      1  C   UNL A   1      32.890  34.788  29.209  1.00  0.00     0.275 C 
ENDROOT
BRANCH   1   2
ATOM      2  C   UNL A   1      32.970  36.288  29.493  1.00  0.00     0.275 C 
BRANCH   2   3
ATOM      3  O   UNL A   1      32.443  36.650  30.780  1.00  0.00    -0.458 OA
BRANCH   3   4
ATOM      4  C   UNL A   1      32.772  36.220  32.021  1.00  0.00     0.338 C 
ATOM      5  O   UNL A   1      32.194  36.728  32.983  1.00  0.00    -0.246 OA
BRANCH   4   6
ATOM      6  C   UNL A   1      33.850  35.218  32.329  1.00  0.00     0.060 A 
ATOM      7  C   UNL A   1      33.666  33.912  32.782  1.00  0.00     0.016 A 
ATOM      8  C   UNL A   1      35.180  35.679  32.216  1.00  0.00     0.016 A 
ATOM      9  C   UNL A   1      34.761  33.106  33.124  1.00  0.00     0.010 A 
ATOM     10  C   UNL A   1      36.281  34.872  32.544  1.00  0.00     0.010 A 
ATOM     11  C   UNL A   1      36.073  33.579  33.022  1.00  0.00    -0.014 A 
BRANCH  11  12
ATOM     12  C   UNL A   1      37.169  32.740  33.568  1.00  0.00     0.031 A 
ATOM     13  C   UNL A   1      37.866  31.797  32.647  1.00  0.00     0.074 A 
ATOM     14  C   UNL A   1      37.598  32.876  34.835  1.00  0.00     0.049 A 
ATOM     15  N   UNL A   1      38.998  31.169  32.817  1.00  0.00    -0.248 NA
ATOM     16  C   UNL A   1      37.192  31.515  31.371  1.00  0.00     0.031 C 
ATOM     17  C   UNL A   1      36.960  33.739  35.811  1.00  0.00     0.029 A 
ATOM     18  N   UNL A   1      38.684  32.361  35.507  1.00  0.00    -0.354 N 
ATOM     19  C   UNL A   1      39.152  30.379  31.691  1.00  0.00     0.074 A 
ATOM     20  C   UNL A   1      38.014  30.628  30.831  1.00  0.00     0.031 C 
ATOM     21  C   UNL A   1      37.713  33.783  36.920  1.00  0.00     0.029 A 
ATOM     22  C   UNL A   1      38.896  32.967  36.731  1.00  0.00     0.049 A 
ATOM     23  H   UNL A   1      39.249  31.636  35.153  1.00  0.00     0.167 HD
ATOM     24  C   UNL A   1      40.135  29.489  31.425  1.00  0.00     0.031 A 
ATOM     25  C   UNL A   1      39.960  32.946  37.562  1.00  0.00     0.031 A 
ATOM     26  C   UNL A   1      41.228  29.215  32.317  1.00  0.00     0.049 A 
ATOM     27  C   UNL A   1      41.114  32.066  37.176  1.00  0.00     0.074 A 
ATOM     28  C   UNL A   1      42.244  28.286  32.183  1.00  0.00     0.029 A 
ATOM     29  N   UNL A   1      41.438  29.869  33.524  1.00  0.00    -0.354 N 
ATOM     30  N   UNL A   1      41.287  31.373  36.076  1.00  0.00    -0.248 NA
ATOM     31  C   UNL A   1      42.223  31.969  38.134  1.00  0.00     0.031 C 
ATOM     32  C   UNL A   1      43.044  28.350  33.331  1.00  0.00     0.029 A 
ATOM     33  C   UNL A   1      42.559  29.355  34.153  1.00  0.00     0.049 A 
ATOM     34  H   UNL A   1      40.873  30.593  33.880  1.00  0.00     0.167 HD
ATOM     35  C   UNL A   1      42.509  30.736  36.219  1.00  0.00     0.074 A 
ATOM     36  C   UNL A   1      43.072  31.194  37.475  1.00  0.00     0.031 C 
ATOM     37  C   UNL A   1      43.093  29.821  35.407  1.00  0.00     0.031 A 
BRANCH  24  38
ATOM     38  C   UNL A   1      39.972  28.679  30.173  1.00  0.00    -0.014 A 
ATOM     39  C   UNL A   1      39.333  27.429  30.180  1.00  0.00     0.009 A 
ATOM     40  C   UNL A   1      40.546  29.147  28.982  1.00  0.00     0.009 A 
ATOM     41  C   UNL A   1      39.316  26.642  29.025  1.00  0.00     0.001 A 
ATOM     42  C   UNL A   1      40.505  28.369  27.824  1.00  0.00     0.001 A 
ATOM     43  C   UNL A   1      39.904  27.113  27.850  1.00  0.00     0.000 A 
ENDBRANCH  24  38
BRANCH  25  44
ATOM     44  C   UNL A   1      40.074  33.891  38.722  1.00  0.00    -0.014 A 
ATOM     45  C   UNL A   1      39.685  33.476  40.012  1.00  0.00     0.009 A 
ATOM     46  C   UNL A   1      40.573  35.192  38.581  1.00  0.00     0.009 A 
ATOM     47  C   UNL A   1      39.790  34.324  41.118  1.00  0.00     0.001 A 
ATOM     48  C   UNL A   1      40.702  36.036  39.693  1.00  0.00     0.001 A 
ATOM     49  C   UNL A   1      40.306  35.604  40.958  1.00  0.00     0.000 A 
ENDBRANCH  25  44
BRANCH  37  50
ATOM     50  C   UNL A   1      44.392  29.238  35.881  1.00  0.00    -0.014 A 
ATOM     51  C   UNL A   1      44.412  28.094  36.697  1.00  0.00     0.009 A 
ATOM     52  C   UNL A   1      45.606  29.816  35.486  1.00  0.00     0.009 A 
ATOM     53  C   UNL A   1      45.624  27.566  37.142  1.00  0.00     0.001 A 
ATOM     54  C   UNL A   1      46.818  29.268  35.909  1.00  0.00     0.001 A 
ATOM     55  C   UNL A   1      46.825  28.152  36.745  1.00  0.00     0.000 A 
ENDBRANCH  37  50
ENDBRANCH  11  12
ENDBRANCH   4   6
ENDBRANCH   3   4
ENDBRANCH   2   3
ENDBRANCH   1   2
BRANCH   1  56
ATOM     56  O   UNL A   1      33.736  34.394  28.121  1.00  0.00    -0.457 OA
BRANCH  56  57
ATOM     57  C   UNL A   1      34.901  33.781  28.488  1.00  0.00     0.357 C 
ATOM     58  O   UNL A   1      35.811  34.260  29.132  1.00  0.00    -0.244 OA
BRANCH  57  59
ATOM     59  C   UNL A   1      34.840  32.388  27.983  1.00  0.00     0.149 A 
ATOM     60  C   UNL A   1      33.609  31.848  27.629  1.00  0.00     0.051 A 
ATOM     61  N   UNL A   1      36.009  31.704  27.977  1.00  0.00    -0.249 NA
ATOM     62  C   UNL A   1      33.551  30.497  27.335  1.00  0.00     0.012 A 
ATOM     63  C   UNL A   1      35.939  30.409  27.624  1.00  0.00     0.113 A 
ATOM     64  C   UNL A   1      34.751  29.770  27.307  1.00  0.00     0.035 A 
BRANCH  62  65
ATOM     65  S   UNL A   1      32.052  29.612  26.956  1.00  0.00    -0.120 SA
BRANCH  65  66
ATOM     66  C   UNL A   1      32.445  28.334  25.709  1.00  0.00     0.132 C 
BRANCH  66  67
ATOM     67  C   UNL A   1      32.543  26.876  26.091  1.00  0.00     0.062 A 
ATOM     68  C   UNL A   1      31.471  26.059  26.398  1.00  0.00     0.091 A 
ATOM     69  N   UNL A   1      33.743  26.162  25.915  1.00  0.00    -0.240 NA
ATOM     70  S   UNL A   1      31.900  24.413  26.308  1.00  0.00    -0.122 S 
ATOM     71  C   UNL A   1      33.532  24.857  25.990  1.00  0.00     0.124 A 
BRANCH  71  72
ATOM     72  C   UNL A   1      34.601  23.806  25.791  1.00  0.00     0.021 A 
ATOM     73  C   UNL A   1      35.930  24.049  25.347  1.00  0.00     0.023 A 
ATOM     74  C   UNL A   1      34.413  22.460  26.046  1.00  0.00     0.076 A 
ATOM     75  C   UNL A   1      36.699  22.908  25.274  1.00  0.00     0.065 A 
ATOM     76  S   UNL A   1      35.808  21.519  25.716  1.00  0.00    -0.152 S 
ENDBRANCH  71  72
ENDBRANCH  66  67
ENDBRANCH  65  66
ENDBRANCH  62  65
ENDBRANCH  57  59
ENDBRANCH  56  57
ENDBRANCH   1  56
TORSDOF 15
ENDMDL
