MODEL 1
REMARK VINA RESULT:     -10.0      0.000      0.000
REMARK SMILES CC(=O)N/C(=C/c1c[nH]c(-c2ccccc2)n1)C(=O)OCCOC(=O)c1ccc(-c2c3nc(c(-c4ccccc4)c4ccc([nH]4)c(-c4ccccc4)c4nc(c(-c5ccccc5)c5ccc2[nH]5)C=C4)C=C3)cc1
REMARK SMILES IDX 21 1 20 2 18 3 19 4 5 5 6 6 4 7 1 8 2 9 3 10 7 12 8 13 17 14
REMARK SMILES IDX 9 15 10 16 11 18 12 19 16 20 13 21 15 22 14 23 22 24 23 25
REMARK SMILES IDX 24 26 25 27 26 28 27 29 73 30 28 31 72 32 29 33 30 34 31 35
REMARK SMILES IDX 66 36 32 37 71 38 65 39 67 40 33 41 70 42 64 43 63 44 34 46
REMARK SMILES IDX 56 47 41 48 55 49 42 50 45 51 54 52 68 53 43 54 44 55 53 57
REMARK SMILES IDX 69 58 46 59 35 60 36 61 40 62 37 63 39 64 38 65 57 66 58 67
REMARK SMILES IDX 62 68 59 69 61 70 60 71 47 72 48 73 52 74 49 75 51 76 50 77
REMARK H PARENT 4 11 9 17 67 45 45 56
REMARK Flexibility Score: inf
ROOT
ATOM      1  C   UNL A   1      34.009  34.093  29.213  1.00  0.00     0.275 C 
ENDROOT
BRANCH   1   2
ATOM      2  O   UNL A   1      34.136  33.423  30.474  1.00  0.00    -0.457 OA
BRANCH   2   3
ATOM      3  C   UNL A   1      34.938  34.013  31.397  1.00  0.00     0.355 C 
ATOM      4  O   UNL A   1      36.028  34.524  31.197  1.00  0.00    -0.244 OA
BRANCH   3   5
ATOM      5  C   UNL A   1      34.171  34.102  32.682  1.00  0.00     0.129 C 
ATOM      6  C   UNL A   1      34.753  33.624  33.802  1.00  0.00     0.063 C 
BRANCH   5   7
ATOM      7  N   UNL A   1      32.896  34.635  32.738  1.00  0.00    -0.320 N 
ATOM      8  C   UNL A   1      33.266  37.005  32.005  1.00  0.00     0.114 C 
ATOM      9  C   UNL A   1      32.397  35.880  32.489  1.00  0.00     0.221 C 
ATOM     10  O   UNL A   1      31.186  36.056  32.655  1.00  0.00    -0.275 OA
ATOM     11  H   UNL A   1      32.210  33.984  33.012  1.00  0.00     0.170 HD
ENDBRANCH   5   7
BRANCH   6  12
ATOM     12  C   UNL A   1      36.071  33.101  33.876  1.00  0.00     0.084 A 
ATOM     13  C   UNL A   1      37.167  33.637  34.500  1.00  0.00     0.112 A 
ATOM     14  N   UNL A   1      36.356  31.884  33.331  1.00  0.00    -0.229 NA
ATOM     15  N   UNL A   1      38.126  32.659  34.398  1.00  0.00    -0.344 N 
ATOM     16  C   UNL A   1      37.583  31.595  33.713  1.00  0.00     0.138 A 
ATOM     17  H   UNL A   1      39.042  32.711  34.753  1.00  0.00     0.168 HD
BRANCH  16  18
ATOM     18  C   UNL A   1      38.257  30.327  33.468  1.00  0.00     0.017 A 
ATOM     19  C   UNL A   1      37.595  29.253  32.862  1.00  0.00     0.012 A 
ATOM     20  C   UNL A   1      39.620  30.208  33.768  1.00  0.00     0.012 A 
ATOM     21  C   UNL A   1      38.288  28.075  32.569  1.00  0.00     0.001 A 
ATOM     22  C   UNL A   1      40.308  29.026  33.487  1.00  0.00     0.001 A 
ATOM     23  C   UNL A   1      39.641  27.961  32.886  1.00  0.00     0.000 A 
ENDBRANCH  16  18
ENDBRANCH   6  12
ENDBRANCH   3   5
ENDBRANCH   2   3
ENDBRANCH   1   2
BRANCH   1  24
ATOM     24  C   UNL A   1      34.312  33.083  28.104  1.00  0.00     0.275 C 
BRANCH  24  25
ATOM     25  O   UNL A   1      34.057  31.748  28.587  1.00  0.00    -0.458 OA
BRANCH  25  26
ATOM     26  C   UNL A   1      34.363  30.747  27.723  1.00  0.00     0.338 C 
ATOM     27  O   UNL A   1      33.708  30.372  26.767  1.00  0.00    -0.246 OA
BRANCH  26  28
ATOM     28  C   UNL A   1      35.727  30.251  28.016  1.00  0.00     0.060 A 
ATOM     29  C   UNL A   1      35.984  29.761  29.303  1.00  0.00     0.016 A 
ATOM     30  C   UNL A   1      36.735  30.235  27.046  1.00  0.00     0.016 A 
ATOM     31  C   UNL A   1      37.239  29.233  29.614  1.00  0.00     0.010 A 
ATOM     32  C   UNL A   1      37.999  29.728  27.367  1.00  0.00     0.010 A 
ATOM     33  C   UNL A   1      38.258  29.225  28.651  1.00  0.00    -0.014 A 
BRANCH  33  34
ATOM     34  C   UNL A   1      39.617  28.762  29.015  1.00  0.00     0.031 A 
ATOM     35  C   UNL A   1      40.526  29.677  29.779  1.00  0.00     0.074 A 
ATOM     36  C   UNL A   1      40.040  27.532  28.672  1.00  0.00     0.049 A 
ATOM     37  N   UNL A   1      41.734  29.454  30.229  1.00  0.00    -0.248 NA
ATOM     38  C   UNL A   1      40.004  31.020  30.077  1.00  0.00     0.031 C 
ATOM     39  C   UNL A   1      39.245  26.537  27.959  1.00  0.00     0.029 A 
ATOM     40  N   UNL A   1      41.245  26.910  28.881  1.00  0.00    -0.354 N 
ATOM     41  C   UNL A   1      42.107  30.616  30.888  1.00  0.00     0.074 A 
ATOM     42  C   UNL A   1      41.014  31.555  30.747  1.00  0.00     0.031 C 
ATOM     43  C   UNL A   1      39.981  25.426  27.785  1.00  0.00     0.029 A 
ATOM     44  C   UNL A   1      41.307  25.642  28.356  1.00  0.00     0.049 A 
ATOM     45  H   UNL A   1      41.994  27.332  29.361  1.00  0.00     0.167 HD
ATOM     46  C   UNL A   1      43.258  30.877  31.553  1.00  0.00     0.031 A 
ATOM     47  C   UNL A   1      42.320  24.756  28.332  1.00  0.00     0.031 A 
ATOM     48  C   UNL A   1      44.371  29.972  31.642  1.00  0.00     0.049 A 
ATOM     49  C   UNL A   1      43.627  25.115  28.984  1.00  0.00     0.074 A 
ATOM     50  C   UNL A   1      45.582  30.155  32.287  1.00  0.00     0.029 A 
ATOM     51  N   UNL A   1      44.420  28.721  31.044  1.00  0.00    -0.354 N 
ATOM     52  N   UNL A   1      43.949  26.198  29.650  1.00  0.00    -0.248 NA
ATOM     53  C   UNL A   1      44.708  24.125  28.885  1.00  0.00     0.031 C 
ATOM     54  C   UNL A   1      46.385  29.038  32.031  1.00  0.00     0.029 A 
ATOM     55  C   UNL A   1      45.655  28.137  31.274  1.00  0.00     0.049 A 
ATOM     56  H   UNL A   1      43.686  28.310  30.534  1.00  0.00     0.167 HD
ATOM     57  C   UNL A   1      45.259  26.008  30.072  1.00  0.00     0.074 A 
ATOM     58  C   UNL A   1      45.666  24.700  29.599  1.00  0.00     0.031 C 
ATOM     59  C   UNL A   1      46.052  26.840  30.788  1.00  0.00     0.031 A 
BRANCH  46  60
ATOM     60  C   UNL A   1      43.373  32.224  32.203  1.00  0.00    -0.014 A 
ATOM     61  C   UNL A   1      42.952  32.426  33.528  1.00  0.00     0.009 A 
ATOM     62  C   UNL A   1      43.915  33.302  31.488  1.00  0.00     0.009 A 
ATOM     63  C   UNL A   1      43.044  33.690  34.112  1.00  0.00     0.001 A 
ATOM     64  C   UNL A   1      44.026  34.560  32.082  1.00  0.00     0.001 A 
ATOM     65  C   UNL A   1      43.583  34.754  33.391  1.00  0.00     0.000 A 
ENDBRANCH  46  60
BRANCH  47  66
ATOM     66  C   UNL A   1      42.156  23.445  27.652  1.00  0.00    -0.014 A 
ATOM     67  C   UNL A   1      42.550  23.278  26.316  1.00  0.00     0.009 A 
ATOM     68  C   UNL A   1      41.571  22.363  28.329  1.00  0.00     0.009 A 
ATOM     69  C   UNL A   1      42.332  22.062  25.662  1.00  0.00     0.001 A 
ATOM     70  C   UNL A   1      41.380  21.141  27.680  1.00  0.00     0.001 A 
ATOM     71  C   UNL A   1      41.750  20.996  26.345  1.00  0.00     0.000 A 
ENDBRANCH  47  66
BRANCH  59  72
ATOM     72  C   UNL A   1      47.433  26.353  31.120  1.00  0.00    -0.014 A 
ATOM     73  C   UNL A   1      48.499  26.515  30.220  1.00  0.00     0.009 A 
ATOM     74  C   UNL A   1      47.678  25.747  32.362  1.00  0.00     0.009 A 
ATOM     75  C   UNL A   1      49.774  26.049  30.546  1.00  0.00     0.001 A 
ATOM     76  C   UNL A   1      48.960  25.308  32.697  1.00  0.00     0.001 A 
ATOM     77  C   UNL A   1      50.005  25.451  31.784  1.00  0.00     0.000 A 
ENDBRANCH  59  72
ENDBRANCH  33  34
ENDBRANCH  26  28
ENDBRANCH  25  26
ENDBRANCH  24  25
ENDBRANCH   1  24
TORSDOF 14
ENDMDL
MODEL 2
REMARK VINA RESULT:      -9.6      4.381      7.303
REMARK SMILES CC(=O)N/C(=C/c1c[nH]c(-c2ccccc2)n1)C(=O)OCCOC(=O)c1ccc(-c2c3nc(c(-c4ccccc4)c4ccc([nH]4)c(-c4ccccc4)c4nc(c(-c5ccccc5)c5ccc2[nH]5)C=C4)C=C3)cc1
REMARK SMILES IDX 21 1 20 2 18 3 19 4 5 5 6 6 4 7 1 8 2 9 3 10 7 12 8 13 17 14
REMARK SMILES IDX 9 15 10 16 11 18 12 19 16 20 13 21 15 22 14 23 22 24 23 25
REMARK SMILES IDX 24 26 25 27 26 28 27 29 73 30 28 31 72 32 29 33 30 34 31 35
REMARK SMILES IDX 66 36 32 37 71 38 65 39 67 40 33 41 70 42 64 43 63 44 34 46
REMARK SMILES IDX 56 47 41 48 55 49 42 50 45 51 54 52 68 53 43 54 44 55 53 57
REMARK SMILES IDX 69 58 46 59 35 60 36 61 40 62 37 63 39 64 38 65 57 66 58 67
REMARK SMILES IDX 62 68 59 69 61 70 60 71 47 72 48 73 52 74 49 75 51 76 50 77
REMARK H PARENT 4 11 9 17 67 45 45 56
REMARK Flexibility Score: inf
ROOT
ATOM      1  C   UNL A   1      32.187  28.109  27.672  1.00  0.00     0.275 C 
ENDROOT
BRANCH   1   2
ATOM      2  O   UNL A   1      31.151  27.567  26.842  1.00  0.00    -0.457 OA
BRANCH   2   3
ATOM      3  C   UNL A   1      31.492  26.513  26.057  1.00  0.00     0.355 C 
ATOM      4  O   UNL A   1      32.621  26.162  25.755  1.00  0.00    -0.244 OA
BRANCH   3   5
ATOM      5  C   UNL A   1      30.245  25.730  25.774  1.00  0.00     0.129 C 
ATOM      6  C   UNL A   1      29.505  26.083  24.700  1.00  0.00     0.063 C 
BRANCH   5   7
ATOM      7  N   UNL A   1      29.834  24.688  26.585  1.00  0.00    -0.320 N 
ATOM      8  C   UNL A   1      31.360  22.824  25.888  1.00  0.00     0.114 C 
ATOM      9  C   UNL A   1      30.231  23.389  26.701  1.00  0.00     0.221 C 
ATOM     10  O   UNL A   1      29.641  22.680  27.522  1.00  0.00    -0.275 OA
ATOM     11  H   UNL A   1      29.109  24.935  27.204  1.00  0.00     0.170 HD
ENDBRANCH   5   7
BRANCH   6  12
ATOM     12  C   UNL A   1      29.851  27.099  23.771  1.00  0.00     0.084 A 
ATOM     13  C   UNL A   1      30.696  27.019  22.696  1.00  0.00     0.112 A 
ATOM     14  N   UNL A   1      29.267  28.329  23.854  1.00  0.00    -0.229 NA
ATOM     15  N   UNL A   1      30.545  28.226  22.057  1.00  0.00    -0.344 N 
ATOM     16  C   UNL A   1      29.641  28.980  22.771  1.00  0.00     0.138 A 
ATOM     17  H   UNL A   1      31.004  28.503  21.232  1.00  0.00     0.168 HD
BRANCH  16  18
ATOM     18  C   UNL A   1      29.151  30.293  22.375  1.00  0.00     0.017 A 
ATOM     19  C   UNL A   1      28.600  30.516  21.107  1.00  0.00     0.012 A 
ATOM     20  C   UNL A   1      29.153  31.336  23.311  1.00  0.00     0.012 A 
ATOM     21  C   UNL A   1      28.067  31.765  20.782  1.00  0.00     0.001 A 
ATOM     22  C   UNL A   1      28.632  32.588  22.980  1.00  0.00     0.001 A 
ATOM     23  C   UNL A   1      28.088  32.801  21.715  1.00  0.00     0.000 A 
ENDBRANCH  16  18
ENDBRANCH   6  12
ENDBRANCH   3   5
ENDBRANCH   2   3
ENDBRANCH   1   2
BRANCH   1  24
ATOM     24  C   UNL A   1      32.472  29.539  27.207  1.00  0.00     0.275 C 
BRANCH  24  25
ATOM     25  O   UNL A   1      33.892  29.712  27.026  1.00  0.00    -0.458 OA
BRANCH  25  26
ATOM     26  C   UNL A   1      34.475  30.635  27.834  1.00  0.00     0.338 C 
ATOM     27  O   UNL A   1      33.965  31.645  28.286  1.00  0.00    -0.246 OA
BRANCH  26  28
ATOM     28  C   UNL A   1      35.816  30.154  28.235  1.00  0.00     0.060 A 
ATOM     29  C   UNL A   1      36.842  30.202  27.282  1.00  0.00     0.016 A 
ATOM     30  C   UNL A   1      36.083  29.690  29.528  1.00  0.00     0.016 A 
ATOM     31  C   UNL A   1      38.137  29.809  27.626  1.00  0.00     0.010 A 
ATOM     32  C   UNL A   1      37.375  29.275  29.864  1.00  0.00     0.010 A 
ATOM     33  C   UNL A   1      38.409  29.332  28.916  1.00  0.00    -0.014 A 
BRANCH  33  34
ATOM     34  C   UNL A   1      39.759  28.818  29.246  1.00  0.00     0.031 A 
ATOM     35  C   UNL A   1      40.699  29.678  30.036  1.00  0.00     0.074 A 
ATOM     36  C   UNL A   1      40.144  27.592  28.851  1.00  0.00     0.049 A 
ATOM     37  N   UNL A   1      41.905  29.404  30.465  1.00  0.00    -0.248 NA
ATOM     38  C   UNL A   1      40.216  31.021  30.392  1.00  0.00     0.031 C 
ATOM     39  C   UNL A   1      39.316  26.648  28.108  1.00  0.00     0.029 A 
ATOM     40  N   UNL A   1      41.334  26.930  29.022  1.00  0.00    -0.354 N 
ATOM     41  C   UNL A   1      42.316  30.529  31.165  1.00  0.00     0.074 A 
ATOM     42  C   UNL A   1      41.247  31.502  31.073  1.00  0.00     0.031 C 
ATOM     43  C   UNL A   1      40.020  25.526  27.882  1.00  0.00     0.029 A 
ATOM     44  C   UNL A   1      41.356  25.683  28.447  1.00  0.00     0.049 A 
ATOM     45  H   UNL A   1      42.099  27.313  29.510  1.00  0.00     0.167 HD
ATOM     46  C   UNL A   1      43.480  30.733  31.827  1.00  0.00     0.031 A 
ATOM     47  C   UNL A   1      42.345  24.772  28.378  1.00  0.00     0.031 A 
ATOM     48  C   UNL A   1      44.569  29.795  31.868  1.00  0.00     0.049 A 
ATOM     49  C   UNL A   1      43.667  25.070  29.030  1.00  0.00     0.074 A 
ATOM     50  C   UNL A   1      45.790  29.920  32.507  1.00  0.00     0.029 A 
ATOM     51  N   UNL A   1      44.578  28.569  31.221  1.00  0.00    -0.354 N 
ATOM     52  N   UNL A   1      44.025  26.116  29.734  1.00  0.00    -0.248 NA
ATOM     53  C   UNL A   1      44.720  24.055  28.880  1.00  0.00     0.031 C 
ATOM     54  C   UNL A   1      46.560  28.793  32.198  1.00  0.00     0.029 A 
ATOM     55  C   UNL A   1      45.798  27.943  31.415  1.00  0.00     0.049 A 
ATOM     56  H   UNL A   1      43.827  28.198  30.703  1.00  0.00     0.167 HD
ATOM     57  C   UNL A   1      45.333  25.874  30.133  1.00  0.00     0.074 A 
ATOM     58  C   UNL A   1      45.700  24.576  29.605  1.00  0.00     0.031 C 
ATOM     59  C   UNL A   1      46.155  26.656  30.873  1.00  0.00     0.031 A 
BRANCH  46  60
ATOM     60  C   UNL A   1      43.637  32.050  32.528  1.00  0.00    -0.014 A 
ATOM     61  C   UNL A   1      43.228  32.211  33.862  1.00  0.00     0.009 A 
ATOM     62  C   UNL A   1      44.208  33.138  31.853  1.00  0.00     0.009 A 
ATOM     63  C   UNL A   1      43.361  33.449  34.495  1.00  0.00     0.001 A 
ATOM     64  C   UNL A   1      44.358  34.368  32.495  1.00  0.00     0.001 A 
ATOM     65  C   UNL A   1      43.927  34.524  33.812  1.00  0.00     0.000 A 
ENDBRANCH  46  60
BRANCH  47  66
ATOM     66  C   UNL A   1      42.138  23.494  27.648  1.00  0.00    -0.014 A 
ATOM     67  C   UNL A   1      41.589  22.378  28.300  1.00  0.00     0.009 A 
ATOM     68  C   UNL A   1      42.522  23.374  26.303  1.00  0.00     0.009 A 
ATOM     69  C   UNL A   1      41.458  21.161  27.627  1.00  0.00     0.001 A 
ATOM     70  C   UNL A   1      42.365  22.163  25.627  1.00  0.00     0.001 A 
ATOM     71  C   UNL A   1      41.844  21.055  26.292  1.00  0.00     0.000 A 
ENDBRANCH  47  66
BRANCH  59  72
ATOM     72  C   UNL A   1      47.526  26.119  31.171  1.00  0.00    -0.014 A 
ATOM     73  C   UNL A   1      48.554  26.177  30.217  1.00  0.00     0.009 A 
ATOM     74  C   UNL A   1      47.800  25.572  32.434  1.00  0.00     0.009 A 
ATOM     75  C   UNL A   1      49.820  25.666  30.512  1.00  0.00     0.001 A 
ATOM     76  C   UNL A   1      49.074  25.088  32.736  1.00  0.00     0.001 A 
ATOM     77  C   UNL A   1      50.080  25.127  31.771  1.00  0.00     0.000 A 
ENDBRANCH  59  72
ENDBRANCH  33  34
ENDBRANCH  26  28
ENDBRANCH  25  26
ENDBRANCH  24  25
ENDBRANCH   1  24
TORSDOF 14
ENDMDL
MODEL 3
REMARK VINA RESULT:      -9.6      4.259     11.099
REMARK SMILES CC(=O)N/C(=C/c1c[nH]c(-c2ccccc2)n1)C(=O)OCCOC(=O)c1ccc(-c2c3nc(c(-c4ccccc4)c4ccc([nH]4)c(-c4ccccc4)c4nc(c(-c5ccccc5)c5ccc2[nH]5)C=C4)C=C3)cc1
REMARK SMILES IDX 21 1 20 2 18 3 19 4 5 5 6 6 4 7 1 8 2 9 3 10 7 12 8 13 17 14
REMARK SMILES IDX 9 15 10 16 11 18 12 19 16 20 13 21 15 22 14 23 22 24 23 25
REMARK SMILES IDX 24 26 25 27 26 28 27 29 73 30 28 31 72 32 29 33 30 34 31 35
REMARK SMILES IDX 66 36 32 37 71 38 65 39 67 40 33 41 70 42 64 43 63 44 34 46
REMARK SMILES IDX 56 47 41 48 55 49 42 50 45 51 54 52 68 53 43 54 44 55 53 57
REMARK SMILES IDX 69 58 46 59 35 60 36 61 40 62 37 63 39 64 38 65 57 66 58 67
REMARK SMILES IDX 62 68 59 69 61 70 60 71 47 72 48 73 52 74 49 75 51 76 50 77
REMARK H PARENT 4 11 9 17 67 45 45 56
REMARK Flexibility Score: inf
ROOT
ATOM      1  C   UNL A   1      42.633  21.939  27.029  1.00  0.00     0.275 C 
ENDROOT
BRANCH   1   2
ATOM      2  O   UNL A   1      43.116  21.396  25.792  1.00  0.00    -0.457 OA
BRANCH   2   3
ATOM      3  C   UNL A   1      43.622  22.283  24.897  1.00  0.00     0.355 C 
ATOM      4  O   UNL A   1      43.206  23.406  24.666  1.00  0.00    -0.244 OA
BRANCH   3   5
ATOM      5  C   UNL A   1      44.907  21.719  24.370  1.00  0.00     0.129 C 
ATOM      6  C   UNL A   1      46.062  22.309  24.749  1.00  0.00     0.063 C 
BRANCH   5   7
ATOM      7  N   UNL A   1      44.933  20.640  23.504  1.00  0.00    -0.320 N 
ATOM      8  C   UNL A   1      45.328  18.709  25.054  1.00  0.00     0.114 C 
ATOM      9  C   UNL A   1      45.129  19.304  23.690  1.00  0.00     0.221 C 
ATOM     10  O   UNL A   1      45.117  18.578  22.691  1.00  0.00    -0.275 OA
ATOM     11  H   UNL A   1      44.777  20.888  22.564  1.00  0.00     0.170 HD
ENDBRANCH   5   7
BRANCH   6  12
ATOM     12  C   UNL A   1      46.162  23.386  25.667  1.00  0.00     0.084 A 
ATOM     13  C   UNL A   1      46.358  24.716  25.402  1.00  0.00     0.112 A 
ATOM     14  N   UNL A   1      45.998  23.165  27.002  1.00  0.00    -0.229 NA
ATOM     15  N   UNL A   1      46.218  25.328  26.624  1.00  0.00    -0.344 N 
ATOM     16  C   UNL A   1      45.964  24.356  27.565  1.00  0.00     0.138 A 
ATOM     17  H   UNL A   1      46.288  26.295  26.797  1.00  0.00     0.168 HD
BRANCH  16  18
ATOM     18  C   UNL A   1      45.675  24.608  28.970  1.00  0.00     0.017 A 
ATOM     19  C   UNL A   1      44.568  24.029  29.604  1.00  0.00     0.012 A 
ATOM     20  C   UNL A   1      46.569  25.377  29.726  1.00  0.00     0.012 A 
ATOM     21  C   UNL A   1      44.359  24.226  30.971  1.00  0.00     0.001 A 
ATOM     22  C   UNL A   1      46.351  25.583  31.089  1.00  0.00     0.001 A 
ATOM     23  C   UNL A   1      45.247  25.006  31.711  1.00  0.00     0.000 A 
ENDBRANCH  16  18
ENDBRANCH   6  12
ENDBRANCH   3   5
ENDBRANCH   2   3
ENDBRANCH   1   2
BRANCH   1  24
ATOM     24  C   UNL A   1      41.142  21.614  27.141  1.00  0.00     0.275 C 
BRANCH  24  25
ATOM     25  O   UNL A   1      40.445  22.152  25.998  1.00  0.00    -0.458 OA
BRANCH  25  26
ATOM     26  C   UNL A   1      39.295  22.818  26.277  1.00  0.00     0.338 C 
ATOM     27  O   UNL A   1      38.158  22.387  26.201  1.00  0.00    -0.246 OA
BRANCH  26  28
ATOM     28  C   UNL A   1      39.626  24.140  26.855  1.00  0.00     0.060 A 
ATOM     29  C   UNL A   1      40.290  25.065  26.040  1.00  0.00     0.016 A 
ATOM     30  C   UNL A   1      39.268  24.488  28.163  1.00  0.00     0.016 A 
ATOM     31  C   UNL A   1      40.577  26.344  26.521  1.00  0.00     0.010 A 
ATOM     32  C   UNL A   1      39.577  25.762  28.651  1.00  0.00     0.010 A 
ATOM     33  C   UNL A   1      40.233  26.696  27.834  1.00  0.00    -0.014 A 
BRANCH  33  34
ATOM     34  C   UNL A   1      40.632  28.016  28.375  1.00  0.00     0.031 A 
ATOM     35  C   UNL A   1      42.078  28.286  28.664  1.00  0.00     0.074 A 
ATOM     36  C   UNL A   1      39.714  28.972  28.604  1.00  0.00     0.049 A 
ATOM     37  N   UNL A   1      42.642  29.383  29.101  1.00  0.00    -0.248 NA
ATOM     38  C   UNL A   1      43.012  27.174  28.427  1.00  0.00     0.031 C 
ATOM     39  C   UNL A   1      38.285  28.848  28.335  1.00  0.00     0.029 A 
ATOM     40  N   UNL A   1      39.850  30.239  29.113  1.00  0.00    -0.354 N 
ATOM     41  C   UNL A   1      43.999  29.105  29.165  1.00  0.00     0.074 A 
ATOM     42  C   UNL A   1      44.171  27.725  28.759  1.00  0.00     0.031 C 
ATOM     43  C   UNL A   1      37.670  29.991  28.683  1.00  0.00     0.029 A 
ATOM     44  C   UNL A   1      38.661  30.919  29.219  1.00  0.00     0.049 A 
ATOM     45  H   UNL A   1      40.717  30.624  29.377  1.00  0.00     0.167 HD
ATOM     46  C   UNL A   1      45.013  29.926  29.529  1.00  0.00     0.031 A 
ATOM     47  C   UNL A   1      38.399  32.148  29.701  1.00  0.00     0.031 A 
ATOM     48  C   UNL A   1      44.842  31.276  29.993  1.00  0.00     0.049 A 
ATOM     49  C   UNL A   1      39.533  33.000  30.201  1.00  0.00     0.074 A 
ATOM     50  C   UNL A   1      45.811  32.180  30.392  1.00  0.00     0.029 A 
ATOM     51  N   UNL A   1      43.617  31.907  30.146  1.00  0.00    -0.354 N 
ATOM     52  N   UNL A   1      40.818  32.744  30.207  1.00  0.00    -0.248 NA
ATOM     53  C   UNL A   1      39.177  34.313  30.756  1.00  0.00     0.031 C 
ATOM     54  C   UNL A   1      45.168  33.339  30.841  1.00  0.00     0.029 A 
ATOM     55  C   UNL A   1      43.803  33.176  30.670  1.00  0.00     0.049 A 
ATOM     56  H   UNL A   1      42.745  31.512  29.916  1.00  0.00     0.167 HD
ATOM     57  C   UNL A   1      41.427  33.873  30.741  1.00  0.00     0.074 A 
ATOM     58  C   UNL A   1      40.370  34.821  31.032  1.00  0.00     0.031 C 
ATOM     59  C   UNL A   1      42.742  34.105  30.966  1.00  0.00     0.031 A 
BRANCH  46  60
ATOM     60  C   UNL A   1      46.400  29.355  29.471  1.00  0.00    -0.014 A 
ATOM     61  C   UNL A   1      47.083  29.000  30.645  1.00  0.00     0.009 A 
ATOM     62  C   UNL A   1      47.026  29.163  28.232  1.00  0.00     0.009 A 
ATOM     63  C   UNL A   1      48.382  28.491  30.578  1.00  0.00     0.001 A 
ATOM     64  C   UNL A   1      48.316  28.634  28.166  1.00  0.00     0.001 A 
ATOM     65  C   UNL A   1      48.995  28.306  29.340  1.00  0.00     0.000 A 
ENDBRANCH  46  60
BRANCH  47  66
ATOM     66  C   UNL A   1      37.001  32.651  29.755  1.00  0.00    -0.014 A 
ATOM     67  C   UNL A   1      36.171  32.342  30.844  1.00  0.00     0.009 A 
ATOM     68  C   UNL A   1      36.480  33.415  28.699  1.00  0.00     0.009 A 
ATOM     69  C   UNL A   1      34.839  32.763  30.858  1.00  0.00     0.001 A 
ATOM     70  C   UNL A   1      35.157  33.857  28.729  1.00  0.00     0.001 A 
ATOM     71  C   UNL A   1      34.334  33.521  29.803  1.00  0.00     0.000 A 
ENDBRANCH  47  66
BRANCH  59  72
ATOM     72  C   UNL A   1      43.113  35.443  31.538  1.00  0.00    -0.014 A 
ATOM     73  C   UNL A   1      43.048  35.689  32.919  1.00  0.00     0.009 A 
ATOM     74  C   UNL A   1      43.561  36.465  30.687  1.00  0.00     0.009 A 
ATOM     75  C   UNL A   1      43.391  36.942  33.431  1.00  0.00     0.001 A 
ATOM     76  C   UNL A   1      43.930  37.708  31.204  1.00  0.00     0.001 A 
ATOM     77  C   UNL A   1      43.836  37.948  32.574  1.00  0.00     0.000 A 
ENDBRANCH  59  72
ENDBRANCH  33  34
ENDBRANCH  26  28
ENDBRANCH  25  26
ENDBRANCH  24  25
ENDBRANCH   1  24
TORSDOF 14
ENDMDL
