MODEL 1
REMARK VINA RESULT:      -9.9      0.000      0.000
REMARK SMILES CC[NH2+][C@]1(C(=O)OCCOC(=O)c2ccc(-c3c4nc(c(-c5ccccc5)c5ccc([nH]5)c(-c5ccccc5)c5nc(c(-c6ccccc6)c6ccc3[nH]6)C=C5)C=C4)cc2)CCC[C@H]1CC[N@H+]1CCC[C@@H](CC)C1
REMARK SMILES IDX 8 1 7 2 5 3 6 4 4 5 61 6 64 7 62 8 63 9 3 10 2 13 1 14 65 15
REMARK SMILES IDX 66 16 67 17 68 18 74 19 69 21 71 22 70 23 72 24 73 25 9 26
REMARK SMILES IDX 10 27 11 28 12 29 13 30 14 31 60 32 15 33 59 34 16 35 17 36
REMARK SMILES IDX 18 37 53 38 19 39 58 40 52 41 54 42 20 43 57 44 51 45 50 46
REMARK SMILES IDX 21 48 43 49 28 50 42 51 29 52 32 53 41 54 55 55 30 56 31 57
REMARK SMILES IDX 40 59 56 60 33 61 22 62 23 63 27 64 24 65 26 66 25 67 44 68
REMARK SMILES IDX 45 69 49 70 46 71 48 72 47 73 34 74 35 75 39 76 36 77 38 78
REMARK SMILES IDX 37 79
REMARK H PARENT 3 11 3 12 67 20 54 47 32 58
REMARK Flexibility Score: inf
ROOT
ATOM      1  C   UNL A   1      32.133  29.695  26.780  1.00  0.00     0.274 C 
ENDROOT
BRANCH   1   2
ATOM      2  O   UNL A   1      31.668  29.739  25.410  1.00  0.00    -0.457 OA
BRANCH   2   3
ATOM      3  C   UNL A   1      32.194  28.840  24.548  1.00  0.00     0.368 C 
ATOM      4  O   UNL A   1      33.332  28.937  24.093  1.00  0.00    -0.245 OA
BRANCH   3   5
ATOM      5  C   UNL A   1      31.193  27.733  24.096  1.00  0.00     0.197 C 
ATOM      6  C   UNL A   1      31.919  26.949  22.973  1.00  0.00     0.081 C 
ATOM      7  C   UNL A   1      30.725  26.550  25.010  1.00  0.00     0.068 C 
ATOM      8  C   UNL A   1      31.080  25.716  22.695  1.00  0.00     0.008 C 
ATOM      9  C   UNL A   1      30.285  25.473  23.973  1.00  0.00     0.011 C 
BRANCH   5  10
ATOM     10  N   UNL A   1      30.033  28.443  23.466  1.00  0.00    -0.332 N 
ATOM     11  H   UNL A   1      29.359  27.744  23.157  1.00  0.00     0.347 HD
ATOM     12  H   UNL A   1      29.653  29.072  24.174  1.00  0.00     0.347 HD
BRANCH  10  13
ATOM     13  C   UNL A   1      30.395  29.272  22.317  1.00  0.00     0.257 C 
ATOM     14  C   UNL A   1      29.184  30.070  21.868  1.00  0.00     0.071 C 
ENDBRANCH  10  13
ENDBRANCH   5  10
BRANCH   7  15
ATOM     15  C   UNL A   1      31.718  25.891  25.997  1.00  0.00     0.072 C 
BRANCH  15  16
ATOM     16  C   UNL A   1      31.390  24.470  26.486  1.00  0.00     0.262 C 
BRANCH  16  17
ATOM     17  N   UNL A   1      32.480  23.485  26.295  1.00  0.00    -0.335 N 
ATOM     18  C   UNL A   1      32.224  22.650  25.108  1.00  0.00     0.262 C 
ATOM     19  C   UNL A   1      33.767  24.190  26.162  1.00  0.00     0.265 C 
ATOM     20  H   UNL A   1      32.518  22.872  27.109  1.00  0.00     0.348 HD
ATOM     21  C   UNL A   1      33.378  21.687  24.807  1.00  0.00     0.062 C 
ATOM     22  C   UNL A   1      34.969  23.279  25.880  1.00  0.00     0.044 C 
ATOM     23  C   UNL A   1      34.698  22.437  24.633  1.00  0.00     0.015 C 
BRANCH  22  24
ATOM     24  C   UNL A   1      36.297  24.062  25.788  1.00  0.00     0.006 C 
ATOM     25  C   UNL A   1      37.544  23.228  25.523  1.00  0.00     0.004 C 
ENDBRANCH  22  24
ENDBRANCH  16  17
ENDBRANCH  15  16
ENDBRANCH   7  15
ENDBRANCH   3   5
ENDBRANCH   2   3
ENDBRANCH   1   2
BRANCH   1  26
ATOM     26  C   UNL A   1      32.989  30.919  27.101  1.00  0.00     0.275 C 
BRANCH  26  27
ATOM     27  O   UNL A   1      34.321  30.472  27.389  1.00  0.00    -0.458 OA
BRANCH  27  28
ATOM     28  C   UNL A   1      34.925  30.984  28.480  1.00  0.00     0.338 C 
ATOM     29  O   UNL A   1      34.480  31.817  29.259  1.00  0.00    -0.246 OA
BRANCH  28  30
ATOM     30  C   UNL A   1      36.252  30.356  28.616  1.00  0.00     0.060 A 
ATOM     31  C   UNL A   1      37.113  30.294  27.517  1.00  0.00     0.016 A 
ATOM     32  C   UNL A   1      36.637  29.796  29.832  1.00  0.00     0.016 A 
ATOM     33  C   UNL A   1      38.343  29.656  27.611  1.00  0.00     0.010 A 
ATOM     34  C   UNL A   1      37.909  29.233  29.952  1.00  0.00     0.010 A 
ATOM     35  C   UNL A   1      38.772  29.162  28.844  1.00  0.00    -0.014 A 
BRANCH  35  36
ATOM     36  C   UNL A   1      40.136  28.606  29.008  1.00  0.00     0.031 A 
ATOM     37  C   UNL A   1      41.269  29.517  29.367  1.00  0.00     0.074 A 
ATOM     38  C   UNL A   1      40.360  27.301  28.758  1.00  0.00     0.049 A 
ATOM     39  N   UNL A   1      42.554  29.322  29.248  1.00  0.00    -0.248 NA
ATOM     40  C   UNL A   1      40.902  30.833  29.915  1.00  0.00     0.031 C 
ATOM     41  C   UNL A   1      39.332  26.299  28.465  1.00  0.00     0.029 A 
ATOM     42  N   UNL A   1      41.536  26.598  28.687  1.00  0.00    -0.354 N 
ATOM     43  C   UNL A   1      43.152  30.509  29.649  1.00  0.00     0.074 A 
ATOM     44  C   UNL A   1      42.088  31.415  30.026  1.00  0.00     0.031 C 
ATOM     45  C   UNL A   1      39.921  25.115  28.244  1.00  0.00     0.029 A 
ATOM     46  C   UNL A   1      41.365  25.295  28.288  1.00  0.00     0.049 A 
ATOM     47  H   UNL A   1      42.414  26.990  28.900  1.00  0.00     0.167 HD
ATOM     48  C   UNL A   1      44.471  30.814  29.677  1.00  0.00     0.031 A 
ATOM     49  C   UNL A   1      42.269  24.365  27.928  1.00  0.00     0.031 A 
ATOM     50  C   UNL A   1      45.512  29.890  29.309  1.00  0.00     0.049 A 
ATOM     51  C   UNL A   1      43.721  24.739  27.914  1.00  0.00     0.074 A 
ATOM     52  C   UNL A   1      46.881  30.092  29.286  1.00  0.00     0.029 A 
ATOM     53  N   UNL A   1      45.292  28.581  28.908  1.00  0.00    -0.354 N 
ATOM     54  N   UNL A   1      44.277  25.888  28.220  1.00  0.00    -0.248 NA
ATOM     55  C   UNL A   1      44.666  23.702  27.485  1.00  0.00     0.031 C 
ATOM     56  C   UNL A   1      47.487  28.912  28.842  1.00  0.00     0.029 A 
ATOM     57  C   UNL A   1      46.498  27.963  28.629  1.00  0.00     0.049 A 
ATOM     58  H   UNL A   1      44.408  28.154  28.833  1.00  0.00     0.167 HD
ATOM     59  C   UNL A   1      45.639  25.707  28.034  1.00  0.00     0.074 A 
ATOM     60  C   UNL A   1      45.825  24.336  27.601  1.00  0.00     0.031 C 
ATOM     61  C   UNL A   1      46.648  26.597  28.202  1.00  0.00     0.031 A 
BRANCH  48  62
ATOM     62  C   UNL A   1      44.851  32.214  30.067  1.00  0.00    -0.014 A 
ATOM     63  C   UNL A   1      44.931  33.244  29.117  1.00  0.00     0.009 A 
ATOM     64  C   UNL A   1      45.112  32.510  31.414  1.00  0.00     0.009 A 
ATOM     65  C   UNL A   1      45.296  34.536  29.506  1.00  0.00     0.001 A 
ATOM     66  C   UNL A   1      45.454  33.806  31.803  1.00  0.00     0.001 A 
ATOM     67  C   UNL A   1      45.553  34.816  30.848  1.00  0.00     0.000 A 
ENDBRANCH  48  62
BRANCH  49  68
ATOM     68  C   UNL A   1      41.810  23.021  27.491  1.00  0.00    -0.014 A 
ATOM     69  C   UNL A   1      41.471  22.786  26.151  1.00  0.00     0.009 A 
ATOM     70  C   UNL A   1      41.753  21.955  28.403  1.00  0.00     0.009 A 
ATOM     71  C   UNL A   1      41.078  21.512  25.735  1.00  0.00     0.001 A 
ATOM     72  C   UNL A   1      41.387  20.677  27.979  1.00  0.00     0.001 A 
ATOM     73  C   UNL A   1      41.044  20.457  26.646  1.00  0.00     0.000 A 
ENDBRANCH  49  68
BRANCH  61  74
ATOM     74  C   UNL A   1      48.037  26.092  27.951  1.00  0.00    -0.014 A 
ATOM     75  C   UNL A   1      48.804  25.540  28.986  1.00  0.00     0.009 A 
ATOM     76  C   UNL A   1      48.567  26.145  26.653  1.00  0.00     0.009 A 
ATOM     77  C   UNL A   1      50.093  25.071  28.729  1.00  0.00     0.001 A 
ATOM     78  C   UNL A   1      49.848  25.658  26.397  1.00  0.00     0.001 A 
ATOM     79  C   UNL A   1      50.613  25.128  27.436  1.00  0.00     0.000 A 
ENDBRANCH  61  74
ENDBRANCH  35  36
ENDBRANCH  28  30
ENDBRANCH  27  28
ENDBRANCH  26  27
ENDBRANCH   1  26
TORSDOF 17
ENDMDL
MODEL 2
REMARK VINA RESULT:      -9.7      3.665      6.700
REMARK SMILES CC[NH2+][C@]1(C(=O)OCCOC(=O)c2ccc(-c3c4nc(c(-c5ccccc5)c5ccc([nH]5)c(-c5ccccc5)c5nc(c(-c6ccccc6)c6ccc3[nH]6)C=C5)C=C4)cc2)CCC[C@H]1CC[N@H+]1CCC[C@@H](CC)C1
REMARK SMILES IDX 8 1 7 2 5 3 6 4 4 5 61 6 64 7 62 8 63 9 3 10 2 13 1 14 65 15
REMARK SMILES IDX 66 16 67 17 68 18 74 19 69 21 71 22 70 23 72 24 73 25 9 26
REMARK SMILES IDX 10 27 11 28 12 29 13 30 14 31 60 32 15 33 59 34 16 35 17 36
REMARK SMILES IDX 18 37 53 38 19 39 58 40 52 41 54 42 20 43 57 44 51 45 50 46
REMARK SMILES IDX 21 48 43 49 28 50 42 51 29 52 32 53 41 54 55 55 30 56 31 57
REMARK SMILES IDX 40 59 56 60 33 61 22 62 23 63 27 64 24 65 26 66 25 67 44 68
REMARK SMILES IDX 45 69 49 70 46 71 48 72 47 73 34 74 35 75 39 76 36 77 38 78
REMARK SMILES IDX 37 79
REMARK H PARENT 3 11 3 12 67 20 54 47 32 58
REMARK Flexibility Score: inf
ROOT
ATOM      1  C   UNL A   1      31.825  28.508  26.778  1.00  0.00     0.274 C 
ENDROOT
BRANCH   1   2
ATOM      2  O   UNL A   1      31.296  27.510  25.872  1.00  0.00    -0.457 OA
BRANCH   2   3
ATOM      3  C   UNL A   1      32.152  26.972  24.975  1.00  0.00     0.368 C 
ATOM      4  O   UNL A   1      33.319  27.344  24.859  1.00  0.00    -0.245 OA
BRANCH   3   5
ATOM      5  C   UNL A   1      31.499  25.920  24.028  1.00  0.00     0.197 C 
ATOM      6  C   UNL A   1      32.681  25.147  23.388  1.00  0.00     0.081 C 
ATOM      7  C   UNL A   1      30.614  24.726  24.523  1.00  0.00     0.068 C 
ATOM      8  C   UNL A   1      32.078  23.956  22.667  1.00  0.00     0.008 C 
ATOM      9  C   UNL A   1      30.742  23.701  23.355  1.00  0.00     0.011 C 
BRANCH   5  10
ATOM     10  N   UNL A   1      30.830  26.694  22.933  1.00  0.00    -0.332 N 
ATOM     11  H   UNL A   1      31.468  27.423  22.619  1.00  0.00     0.347 HD
ATOM     12  H   UNL A   1      30.602  26.025  22.197  1.00  0.00     0.347 HD
BRANCH  10  13
ATOM     13  C   UNL A   1      29.572  27.325  23.333  1.00  0.00     0.257 C 
ATOM     14  C   UNL A   1      29.583  28.783  22.910  1.00  0.00     0.071 C 
ENDBRANCH  10  13
ENDBRANCH   5  10
BRANCH   7  15
ATOM     15  C   UNL A   1      30.961  23.998  25.843  1.00  0.00     0.072 C 
BRANCH  15  16
ATOM     16  C   UNL A   1      30.782  22.470  25.875  1.00  0.00     0.262 C 
BRANCH  16  17
ATOM     17  N   UNL A   1      32.044  21.703  25.995  1.00  0.00    -0.335 N 
ATOM     18  C   UNL A   1      32.193  20.768  24.866  1.00  0.00     0.262 C 
ATOM     19  C   UNL A   1      33.186  22.633  26.047  1.00  0.00     0.265 C 
ATOM     20  H   UNL A   1      32.019  21.157  26.856  1.00  0.00     0.348 HD
ATOM     21  C   UNL A   1      33.535  20.029  24.888  1.00  0.00     0.062 C 
ATOM     22  C   UNL A   1      34.561  21.955  26.093  1.00  0.00     0.044 C 
ATOM     23  C   UNL A   1      34.709  21.006  24.904  1.00  0.00     0.015 C 
BRANCH  22  24
ATOM     24  C   UNL A   1      35.720  22.971  26.186  1.00  0.00     0.006 C 
ATOM     25  C   UNL A   1      35.540  24.260  25.394  1.00  0.00     0.004 C 
ENDBRANCH  22  24
ENDBRANCH  16  17
ENDBRANCH  15  16
ENDBRANCH   7  15
ENDBRANCH   3   5
ENDBRANCH   2   3
ENDBRANCH   1   2
BRANCH   1  26
ATOM     26  C   UNL A   1      31.791  29.894  26.135  1.00  0.00     0.275 C 
BRANCH  26  27
ATOM     27  O   UNL A   1      33.115  30.444  26.184  1.00  0.00    -0.458 OA
BRANCH  27  28
ATOM     28  C   UNL A   1      33.350  31.417  27.087  1.00  0.00     0.338 C 
ATOM     29  O   UNL A   1      32.634  32.371  27.361  1.00  0.00    -0.246 OA
BRANCH  28  30
ATOM     30  C   UNL A   1      34.646  31.147  27.737  1.00  0.00     0.060 A 
ATOM     31  C   UNL A   1      35.547  32.192  27.962  1.00  0.00     0.016 A 
ATOM     32  C   UNL A   1      34.987  29.846  28.098  1.00  0.00     0.016 A 
ATOM     33  C   UNL A   1      36.795  31.948  28.521  1.00  0.00     0.010 A 
ATOM     34  C   UNL A   1      36.205  29.613  28.740  1.00  0.00     0.010 A 
ATOM     35  C   UNL A   1      37.116  30.662  28.959  1.00  0.00    -0.014 A 
BRANCH  35  36
ATOM     36  C   UNL A   1      38.379  30.399  29.687  1.00  0.00     0.031 A 
ATOM     37  C   UNL A   1      39.426  29.527  29.063  1.00  0.00     0.074 A 
ATOM     38  C   UNL A   1      38.546  30.883  30.933  1.00  0.00     0.049 A 
ATOM     39  N   UNL A   1      40.431  28.913  29.627  1.00  0.00    -0.248 NA
ATOM     40  C   UNL A   1      39.310  29.299  27.615  1.00  0.00     0.031 C 
ATOM     41  C   UNL A   1      37.631  31.797  31.623  1.00  0.00     0.029 A 
ATOM     42  N   UNL A   1      39.536  30.650  31.853  1.00  0.00    -0.354 N 
ATOM     43  C   UNL A   1      41.036  28.178  28.616  1.00  0.00     0.074 A 
ATOM     44  C   UNL A   1      40.291  28.432  27.402  1.00  0.00     0.031 C 
ATOM     45  C   UNL A   1      38.101  32.044  32.854  1.00  0.00     0.029 A 
ATOM     46  C   UNL A   1      39.293  31.237  33.071  1.00  0.00     0.049 A 
ATOM     47  H   UNL A   1      40.339  30.115  31.659  1.00  0.00     0.167 HD
ATOM     48  C   UNL A   1      42.105  27.353  28.708  1.00  0.00     0.031 A 
ATOM     49  C   UNL A   1      39.919  31.090  34.253  1.00  0.00     0.031 A 
ATOM     50  C   UNL A   1      42.838  27.126  29.925  1.00  0.00     0.049 A 
ATOM     51  C   UNL A   1      41.067  30.129  34.345  1.00  0.00     0.074 A 
ATOM     52  C   UNL A   1      43.929  26.303  30.140  1.00  0.00     0.029 A 
ATOM     53  N   UNL A   1      42.554  27.741  31.136  1.00  0.00    -0.354 N 
ATOM     54  N   UNL A   1      41.588  29.378  33.404  1.00  0.00    -0.248 NA
ATOM     55  C   UNL A   1      41.699  29.979  35.662  1.00  0.00     0.031 C 
ATOM     56  C   UNL A   1      44.287  26.397  31.489  1.00  0.00     0.029 A 
ATOM     57  C   UNL A   1      43.445  27.312  32.104  1.00  0.00     0.049 A 
ATOM     58  H   UNL A   1      41.828  28.388  31.284  1.00  0.00     0.167 HD
ATOM     59  C   UNL A   1      42.617  28.674  34.012  1.00  0.00     0.074 A 
ATOM     60  C   UNL A   1      42.655  29.099  35.397  1.00  0.00     0.031 C 
ATOM     61  C   UNL A   1      43.455  27.755  33.473  1.00  0.00     0.031 A 
BRANCH  48  62
ATOM     62  C   UNL A   1      42.505  26.597  27.472  1.00  0.00    -0.014 A 
ATOM     63  C   UNL A   1      43.457  27.107  26.576  1.00  0.00     0.009 A 
ATOM     64  C   UNL A   1      41.931  25.342  27.213  1.00  0.00     0.009 A 
ATOM     65  C   UNL A   1      43.804  26.386  25.430  1.00  0.00     0.001 A 
ATOM     66  C   UNL A   1      42.296  24.615  26.079  1.00  0.00     0.001 A 
ATOM     67  C   UNL A   1      43.226  25.141  25.184  1.00  0.00     0.000 A 
ENDBRANCH  48  62
BRANCH  49  68
ATOM     68  C   UNL A   1      39.423  31.822  35.446  1.00  0.00    -0.014 A 
ATOM     69  C   UNL A   1      39.899  33.107  35.741  1.00  0.00     0.009 A 
ATOM     70  C   UNL A   1      38.437  31.258  36.272  1.00  0.00     0.009 A 
ATOM     71  C   UNL A   1      39.402  33.810  36.842  1.00  0.00     0.001 A 
ATOM     72  C   UNL A   1      37.923  31.972  37.354  1.00  0.00     0.001 A 
ATOM     73  C   UNL A   1      38.409  33.246  37.642  1.00  0.00     0.000 A 
ENDBRANCH  49  68
BRANCH  61  74
ATOM     74  C   UNL A   1      44.501  27.186  34.383  1.00  0.00    -0.014 A 
ATOM     75  C   UNL A   1      45.744  27.814  34.541  1.00  0.00     0.009 A 
ATOM     76  C   UNL A   1      44.220  26.021  35.114  1.00  0.00     0.009 A 
ATOM     77  C   UNL A   1      46.701  27.268  35.398  1.00  0.00     0.001 A 
ATOM     78  C   UNL A   1      45.172  25.490  35.984  1.00  0.00     0.001 A 
ATOM     79  C   UNL A   1      46.414  26.110  36.120  1.00  0.00     0.000 A 
ENDBRANCH  61  74
ENDBRANCH  35  36
ENDBRANCH  28  30
ENDBRANCH  27  28
ENDBRANCH  26  27
ENDBRANCH   1  26
TORSDOF 17
ENDMDL
MODEL 3
REMARK VINA RESULT:      -9.7      3.657      8.606
REMARK SMILES CC[NH2+][C@]1(C(=O)OCCOC(=O)c2ccc(-c3c4nc(c(-c5ccccc5)c5ccc([nH]5)c(-c5ccccc5)c5nc(c(-c6ccccc6)c6ccc3[nH]6)C=C5)C=C4)cc2)CCC[C@H]1CC[N@H+]1CCC[C@@H](CC)C1
REMARK SMILES IDX 8 1 7 2 5 3 6 4 4 5 61 6 64 7 62 8 63 9 3 10 2 13 1 14 65 15
REMARK SMILES IDX 66 16 67 17 68 18 74 19 69 21 71 22 70 23 72 24 73 25 9 26
REMARK SMILES IDX 10 27 11 28 12 29 13 30 14 31 60 32 15 33 59 34 16 35 17 36
REMARK SMILES IDX 18 37 53 38 19 39 58 40 52 41 54 42 20 43 57 44 51 45 50 46
REMARK SMILES IDX 21 48 43 49 28 50 42 51 29 52 32 53 41 54 55 55 30 56 31 57
REMARK SMILES IDX 40 59 56 60 33 61 22 62 23 63 27 64 24 65 26 66 25 67 44 68
REMARK SMILES IDX 45 69 49 70 46 71 48 72 47 73 34 74 35 75 39 76 36 77 38 78
REMARK SMILES IDX 37 79
REMARK H PARENT 3 11 3 12 67 20 54 47 32 58
REMARK Flexibility Score: inf
ROOT
ATOM      1  C   UNL A   1      36.384  21.546  25.565  1.00  0.00     0.274 C 
ENDROOT
BRANCH   1   2
ATOM      2  O   UNL A   1      35.625  22.464  24.742  1.00  0.00    -0.457 OA
BRANCH   2   3
ATOM      3  C   UNL A   1      34.518  23.014  25.288  1.00  0.00     0.368 C 
ATOM      4  O   UNL A   1      34.452  23.354  26.468  1.00  0.00    -0.245 OA
BRANCH   3   5
ATOM      5  C   UNL A   1      33.298  23.075  24.319  1.00  0.00     0.197 C 
ATOM      6  C   UNL A   1      32.134  23.672  25.153  1.00  0.00     0.081 C 
ATOM      7  C   UNL A   1      33.233  23.990  23.049  1.00  0.00     0.068 C 
ATOM      8  C   UNL A   1      31.017  23.982  24.175  1.00  0.00     0.008 C 
ATOM      9  C   UNL A   1      31.699  24.150  22.822  1.00  0.00     0.011 C 
BRANCH   5  10
ATOM     10  N   UNL A   1      32.936  21.656  24.003  1.00  0.00    -0.332 N 
ATOM     11  H   UNL A   1      32.208  21.662  23.290  1.00  0.00     0.347 HD
ATOM     12  H   UNL A   1      33.791  21.197  23.688  1.00  0.00     0.347 HD
BRANCH  10  13
ATOM     13  C   UNL A   1      32.449  20.894  25.152  1.00  0.00     0.257 C 
ATOM     14  C   UNL A   1      33.023  19.489  25.107  1.00  0.00     0.071 C 
ENDBRANCH  10  13
ENDBRANCH   5  10
BRANCH   7  15
ATOM     15  C   UNL A   1      33.866  25.402  23.076  1.00  0.00     0.072 C 
BRANCH  15  16
ATOM     16  C   UNL A   1      33.202  26.489  22.213  1.00  0.00     0.262 C 
BRANCH  16  17
ATOM     17  N   UNL A   1      32.859  27.732  22.942  1.00  0.00    -0.335 N 
ATOM     18  C   UNL A   1      31.397  27.900  23.025  1.00  0.00     0.262 C 
ATOM     19  C   UNL A   1      33.450  27.693  24.292  1.00  0.00     0.265 C 
ATOM     20  H   UNL A   1      33.240  28.530  22.435  1.00  0.00     0.348 HD
ATOM     21  C   UNL A   1      30.992  29.116  23.864  1.00  0.00     0.062 C 
ATOM     22  C   UNL A   1      33.099  28.895  25.178  1.00  0.00     0.044 C 
ATOM     23  C   UNL A   1      31.580  29.042  25.272  1.00  0.00     0.015 C 
BRANCH  22  24
ATOM     24  C   UNL A   1      33.773  28.825  26.566  1.00  0.00     0.006 C 
ATOM     25  C   UNL A   1      34.171  30.161  27.181  1.00  0.00     0.004 C 
ENDBRANCH  22  24
ENDBRANCH  16  17
ENDBRANCH  15  16
ENDBRANCH   7  15
ENDBRANCH   3   5
ENDBRANCH   2   3
ENDBRANCH   1   2
BRANCH   1  26
ATOM     26  C   UNL A   1      37.884  21.732  25.342  1.00  0.00     0.275 C 
BRANCH  26  27
ATOM     27  O   UNL A   1      38.284  22.953  25.980  1.00  0.00    -0.458 OA
BRANCH  27  28
ATOM     28  C   UNL A   1      39.586  23.086  26.306  1.00  0.00     0.338 C 
ATOM     29  O   UNL A   1      40.496  22.297  26.084  1.00  0.00    -0.246 OA
BRANCH  28  30
ATOM     30  C   UNL A   1      39.766  24.381  26.987  1.00  0.00     0.060 A 
ATOM     31  C   UNL A   1      39.212  24.590  28.253  1.00  0.00     0.016 A 
ATOM     32  C   UNL A   1      40.463  25.409  26.356  1.00  0.00     0.016 A 
ATOM     33  C   UNL A   1      39.323  25.822  28.885  1.00  0.00     0.010 A 
ATOM     34  C   UNL A   1      40.652  26.619  27.027  1.00  0.00     0.010 A 
ATOM     35  C   UNL A   1      40.085  26.833  28.297  1.00  0.00    -0.014 A 
BRANCH  35  36
ATOM     36  C   UNL A   1      40.341  28.106  29.011  1.00  0.00     0.031 A 
ATOM     37  C   UNL A   1      41.541  28.228  29.899  1.00  0.00     0.074 A 
ATOM     38  C   UNL A   1      39.454  29.115  28.916  1.00  0.00     0.049 A 
ATOM     39  N   UNL A   1      41.783  29.097  30.843  1.00  0.00    -0.248 NA
ATOM     40  C   UNL A   1      42.600  27.225  29.711  1.00  0.00     0.031 C 
ATOM     41  C   UNL A   1      38.283  29.143  28.036  1.00  0.00     0.029 A 
ATOM     42  N   UNL A   1      39.387  30.307  29.592  1.00  0.00    -0.354 N 
ATOM     43  C   UNL A   1      42.994  28.713  31.404  1.00  0.00     0.074 A 
ATOM     44  C   UNL A   1      43.442  27.539  30.686  1.00  0.00     0.031 C 
ATOM     45  C   UNL A   1      37.615  30.289  28.226  1.00  0.00     0.029 A 
ATOM     46  C   UNL A   1      38.256  31.031  29.304  1.00  0.00     0.049 A 
ATOM     47  H   UNL A   1      40.080  30.611  30.222  1.00  0.00     0.167 HD
ATOM     48  C   UNL A   1      43.654  29.283  32.440  1.00  0.00     0.031 A 
ATOM     49  C   UNL A   1      37.750  32.133  29.887  1.00  0.00     0.031 A 
ATOM     50  C   UNL A   1      43.194  30.459  33.130  1.00  0.00     0.049 A 
ATOM     51  C   UNL A   1      38.469  32.717  31.067  1.00  0.00     0.074 A 
ATOM     52  C   UNL A   1      43.773  31.118  34.200  1.00  0.00     0.029 A 
ATOM     53  N   UNL A   1      42.041  31.157  32.804  1.00  0.00    -0.354 N 
ATOM     54  N   UNL A   1      39.573  32.305  31.643  1.00  0.00    -0.248 NA
ATOM     55  C   UNL A   1      37.863  33.900  31.689  1.00  0.00     0.031 C 
ATOM     56  C   UNL A   1      42.953  32.199  34.542  1.00  0.00     0.029 A 
ATOM     57  C   UNL A   1      41.886  32.237  33.656  1.00  0.00     0.049 A 
ATOM     58  H   UNL A   1      41.424  30.921  32.075  1.00  0.00     0.167 HD
ATOM     59  C   UNL A   1      39.802  33.187  32.689  1.00  0.00     0.074 A 
ATOM     60  C   UNL A   1      38.730  34.162  32.658  1.00  0.00     0.031 C 
ATOM     61  C   UNL A   1      40.808  33.188  33.597  1.00  0.00     0.031 A 
BRANCH  48  62
ATOM     62  C   UNL A   1      44.909  28.609  32.916  1.00  0.00    -0.014 A 
ATOM     63  C   UNL A   1      46.145  28.830  32.289  1.00  0.00     0.009 A 
ATOM     64  C   UNL A   1      44.855  27.754  34.028  1.00  0.00     0.009 A 
ATOM     65  C   UNL A   1      47.296  28.183  32.749  1.00  0.00     0.001 A 
ATOM     66  C   UNL A   1      46.010  27.127  34.499  1.00  0.00     0.001 A 
ATOM     67  C   UNL A   1      47.228  27.335  33.854  1.00  0.00     0.000 A 
ENDBRANCH  48  62
BRANCH  49  68
ATOM     68  C   UNL A   1      36.468  32.703  29.400  1.00  0.00    -0.014 A 
ATOM     69  C   UNL A   1      35.256  32.351  30.010  1.00  0.00     0.009 A 
ATOM     70  C   UNL A   1      36.455  33.638  28.352  1.00  0.00     0.009 A 
ATOM     71  C   UNL A   1      34.055  32.919  29.575  1.00  0.00     0.001 A 
ATOM     72  C   UNL A   1      35.258  34.224  27.938  1.00  0.00     0.001 A 
ATOM     73  C   UNL A   1      34.058  33.861  28.548  1.00  0.00     0.000 A 
ENDBRANCH  49  68
BRANCH  61  74
ATOM     74  C   UNL A   1      40.806  34.303  34.600  1.00  0.00    -0.014 A 
ATOM     75  C   UNL A   1      41.512  35.491  34.364  1.00  0.00     0.009 A 
ATOM     76  C   UNL A   1      40.059  34.168  35.780  1.00  0.00     0.009 A 
ATOM     77  C   UNL A   1      41.491  36.518  35.309  1.00  0.00     0.001 A 
ATOM     78  C   UNL A   1      40.025  35.204  36.713  1.00  0.00     0.001 A 
ATOM     79  C   UNL A   1      40.747  36.375  36.480  1.00  0.00     0.000 A 
ENDBRANCH  61  74
ENDBRANCH  35  36
ENDBRANCH  28  30
ENDBRANCH  27  28
ENDBRANCH  26  27
ENDBRANCH   1  26
TORSDOF 17
ENDMDL
