MODEL 1
REMARK VINA RESULT:     -12.4      0.000      0.000
REMARK SMILES CN(C)S(=O)(=O)c1ccc(-n2c(CCC(=O)OCCOC(=O)c3ccc(-c4c5nc(c(-c6ccccc6)c6ccc([nH]6)c(-c6ccccc6)c6nc(c(-c7ccccc7)c7ccc4[nH]7)C=C6)C=C5)cc3)ccc2-c2ccc(F)cc2)cc1
REMARK SMILES IDX 17 1 15 2 16 3 14 4 13 5 12 6 11 7 73 8 71 9 72 10 10 11
REMARK SMILES IDX 7 12 8 13 82 14 9 15 81 16 4 17 5 18 6 19 2 20 1 21 3 22
REMARK SMILES IDX 74 23 75 24 80 25 76 26 79 27 77 28 78 29 18 30 19 31 20 32
REMARK SMILES IDX 21 33 22 34 23 35 24 36 70 37 25 38 69 39 26 40 27 41 28 42
REMARK SMILES IDX 63 43 29 44 68 45 62 46 64 47 30 48 67 49 61 50 60 51 31 53
REMARK SMILES IDX 53 54 38 55 52 56 39 57 42 58 51 59 65 60 40 61 41 62 50 64
REMARK SMILES IDX 66 65 43 66 32 67 33 68 37 69 34 70 36 71 35 72 54 73 55 74
REMARK SMILES IDX 59 75 56 76 58 77 57 78 44 79 45 80 49 81 46 82 48 83 47 84
REMARK H PARENT 64 52 42 63
REMARK Flexibility Score: inf
ROOT
ATOM      1  O   UNL A   1      35.740  22.593  25.647  1.00  0.00    -0.462 OA
ENDROOT
BRANCH   1   2
ATOM      2  C   UNL A   1      34.550  22.923  25.067  1.00  0.00     0.306 C 
ATOM      3  O   UNL A   1      33.745  22.097  24.648  1.00  0.00    -0.252 OA
BRANCH   2   4
ATOM      4  C   UNL A   1      34.249  24.420  25.055  1.00  0.00     0.129 C 
BRANCH   4   5
ATOM      5  C   UNL A   1      33.277  24.998  26.096  1.00  0.00     0.066 C 
BRANCH   5   6
ATOM      6  C   UNL A   1      32.014  25.495  25.490  1.00  0.00     0.024 A 
ATOM      7  N   UNL A   1      31.649  26.829  25.318  1.00  0.00    -0.314 N 
ATOM      8  C   UNL A   1      30.602  26.835  24.378  1.00  0.00     0.053 A 
ATOM      9  C   UNL A   1      31.002  24.705  24.971  1.00  0.00     0.024 A 
ATOM     10  C   UNL A   1      30.119  25.542  24.277  1.00  0.00     0.029 A 
BRANCH   7  11
ATOM     11  C   UNL A   1      32.268  27.993  25.880  1.00  0.00     0.046 A 
ATOM     12  C   UNL A   1      34.010  30.810  27.366  1.00  0.00     0.082 A 
ATOM     13  C   UNL A   1      34.903  29.312  26.971  1.00  0.00     0.024 A 
ATOM     14  C   UNL A   1      32.245  30.929  27.064  1.00  0.00     0.024 A 
ATOM     15  C   UNL A   1      34.058  27.907  26.220  1.00  0.00     0.028 A 
ATOM     16  C   UNL A   1      31.372  29.556  26.258  1.00  0.00     0.028 A 
BRANCH  12  17
ATOM     17  S   UNL A   1      34.807  32.057  28.340  1.00  0.00     0.242 S 
ATOM     18  O   UNL A   1      33.820  32.592  29.255  1.00  0.00    -0.207 OA
ATOM     19  O   UNL A   1      35.491  32.909  27.392  1.00  0.00    -0.207 OA
BRANCH  17  20
ATOM     20  N   UNL A   1      35.972  31.210  29.264  1.00  0.00    -0.204 NA
ATOM     21  C   UNL A   1      37.374  31.495  28.865  1.00  0.00     0.124 C 
ATOM     22  C   UNL A   1      35.824  31.332  30.735  1.00  0.00     0.124 C 
ENDBRANCH  17  20
ENDBRANCH  12  17
ENDBRANCH   7  11
BRANCH   8  23
ATOM     23  C   UNL A   1      30.208  27.950  23.511  1.00  0.00    -0.001 A 
ATOM     24  C   UNL A   1      28.863  28.330  23.390  1.00  0.00     0.013 A 
ATOM     25  C   UNL A   1      31.182  28.632  22.765  1.00  0.00     0.013 A 
ATOM     26  C   UNL A   1      28.510  29.412  22.579  1.00  0.00     0.040 A 
ATOM     27  C   UNL A   1      30.828  29.714  21.957  1.00  0.00     0.040 A 
ATOM     28  C   UNL A   1      29.496  30.095  21.875  1.00  0.00     0.123 A 
ATOM     29  F   UNL A   1      29.156  31.136  21.104  1.00  0.00    -0.207 F 
ENDBRANCH   8  23
ENDBRANCH   5   6
ENDBRANCH   4   5
ENDBRANCH   2   4
ENDBRANCH   1   2
BRANCH   1  30
ATOM     30  C   UNL A   1      36.793  23.599  25.593  1.00  0.00     0.274 C 
BRANCH  30  31
ATOM     31  C   UNL A   1      38.329  23.196  26.170  1.00  0.00     0.275 C 
BRANCH  31  32
ATOM     32  O   UNL A   1      39.245  21.387  26.108  1.00  0.00    -0.458 OA
BRANCH  32  33
ATOM     33  C   UNL A   1      40.265  20.436  26.209  1.00  0.00     0.338 C 
ATOM     34  O   UNL A   1      40.272  19.242  25.903  1.00  0.00    -0.246 OA
BRANCH  33  35
ATOM     35  C   UNL A   1      41.547  21.022  26.563  1.00  0.00     0.060 A 
ATOM     36  C   UNL A   1      41.781  21.263  27.925  1.00  0.00     0.016 A 
ATOM     37  C   UNL A   1      42.088  21.797  25.555  1.00  0.00     0.016 A 
ATOM     38  C   UNL A   1      42.431  22.427  28.280  1.00  0.00     0.010 A 
ATOM     39  C   UNL A   1      42.665  22.988  25.902  1.00  0.00     0.010 A 
ATOM     40  C   UNL A   1      42.780  23.317  27.261  1.00  0.00    -0.014 A 
BRANCH  40  41
ATOM     41  C   UNL A   1      43.329  24.636  27.575  1.00  0.00     0.031 A 
ATOM     42  C   UNL A   1      42.245  25.606  28.014  1.00  0.00     0.074 A 
ATOM     43  C   UNL A   1      44.690  24.734  27.541  1.00  0.00     0.049 A 
ATOM     44  N   UNL A   1      42.360  26.813  28.462  1.00  0.00    -0.248 NA
ATOM     45  C   UNL A   1      40.825  25.151  28.019  1.00  0.00     0.031 C 
ATOM     46  C   UNL A   1      45.612  23.652  27.120  1.00  0.00     0.029 A 
ATOM     47  N   UNL A   1      45.571  25.743  27.858  1.00  0.00    -0.354 N 
ATOM     48  C   UNL A   1      41.102  27.183  28.966  1.00  0.00     0.074 A 
ATOM     49  C   UNL A   1      40.187  26.128  28.657  1.00  0.00     0.031 C 
ATOM     50  C   UNL A   1      46.890  24.084  27.125  1.00  0.00     0.029 A 
ATOM     51  C   UNL A   1      46.930  25.454  27.593  1.00  0.00     0.049 A 
ATOM     52  H   UNL A   1      45.278  26.601  28.239  1.00  0.00     0.167 HD
ATOM     53  C   UNL A   1      40.896  28.314  29.689  1.00  0.00     0.031 A 
ATOM     54  C   UNL A   1      48.017  26.269  27.727  1.00  0.00     0.031 A 
ATOM     55  C   UNL A   1      42.012  29.190  29.602  1.00  0.00     0.049 A 
ATOM     56  C   UNL A   1      47.551  27.465  28.443  1.00  0.00     0.074 A 
ATOM     57  C   UNL A   1      42.499  29.953  28.571  1.00  0.00     0.029 A 
ATOM     58  N   UNL A   1      42.974  29.094  30.572  1.00  0.00    -0.354 N 
ATOM     59  N   UNL A   1      47.275  27.503  29.711  1.00  0.00    -0.248 NA
ATOM     60  C   UNL A   1      47.328  28.706  27.697  1.00  0.00     0.031 C 
ATOM     61  C   UNL A   1      43.898  29.954  28.763  1.00  0.00     0.029 A 
ATOM     62  C   UNL A   1      44.189  29.274  29.948  1.00  0.00     0.049 A 
ATOM     63  H   UNL A   1      42.827  28.928  31.531  1.00  0.00     0.167 HD
ATOM     64  C   UNL A   1      46.496  28.628  29.814  1.00  0.00     0.074 A 
ATOM     65  C   UNL A   1      46.819  29.454  28.673  1.00  0.00     0.031 C 
ATOM     66  C   UNL A   1      45.326  28.578  30.500  1.00  0.00     0.031 A 
BRANCH  53  67
ATOM     67  C   UNL A   1      39.770  28.644  30.609  1.00  0.00    -0.014 A 
ATOM     68  C   UNL A   1      39.718  29.947  31.145  1.00  0.00     0.009 A 
ATOM     69  C   UNL A   1      38.955  27.665  31.195  1.00  0.00     0.009 A 
ATOM     70  C   UNL A   1      38.950  30.243  32.271  1.00  0.00     0.001 A 
ATOM     71  C   UNL A   1      38.159  27.970  32.307  1.00  0.00     0.001 A 
ATOM     72  C   UNL A   1      38.180  29.249  32.860  1.00  0.00     0.000 A 
ENDBRANCH  53  67
BRANCH  54  73
ATOM     73  C   UNL A   1      49.467  26.257  27.332  1.00  0.00    -0.014 A 
ATOM     74  C   UNL A   1      50.552  26.125  28.202  1.00  0.00     0.009 A 
ATOM     75  C   UNL A   1      49.789  26.286  25.948  1.00  0.00     0.009 A 
ATOM     76  C   UNL A   1      51.864  25.958  27.712  1.00  0.00     0.001 A 
ATOM     77  C   UNL A   1      51.081  26.082  25.455  1.00  0.00     0.001 A 
ATOM     78  C   UNL A   1      52.123  25.906  26.344  1.00  0.00     0.000 A 
ENDBRANCH  54  73
BRANCH  66  79
ATOM     79  C   UNL A   1      45.223  27.433  31.491  1.00  0.00    -0.014 A 
ATOM     80  C   UNL A   1      45.809  27.544  32.760  1.00  0.00     0.009 A 
ATOM     81  C   UNL A   1      44.644  26.198  31.147  1.00  0.00     0.009 A 
ATOM     82  C   UNL A   1      45.817  26.459  33.648  1.00  0.00     0.001 A 
ATOM     83  C   UNL A   1      44.646  25.114  32.034  1.00  0.00     0.001 A 
ATOM     84  C   UNL A   1      45.236  25.246  33.286  1.00  0.00     0.000 A 
ENDBRANCH  66  79
ENDBRANCH  40  41
ENDBRANCH  33  35
ENDBRANCH  32  33
ENDBRANCH  31  32
ENDBRANCH  30  31
ENDBRANCH   1  30
TORSDOF 17
ENDMDL
MODEL 2
REMARK VINA RESULT:     -11.9      5.572      9.412
REMARK SMILES CN(C)S(=O)(=O)c1ccc(-n2c(CCC(=O)OCCOC(=O)c3ccc(-c4c5nc(c(-c6ccccc6)c6ccc([nH]6)c(-c6ccccc6)c6nc(c(-c7ccccc7)c7ccc4[nH]7)C=C6)C=C5)cc3)ccc2-c2ccc(F)cc2)cc1
REMARK SMILES IDX 17 1 15 2 16 3 14 4 13 5 12 6 11 7 73 8 71 9 72 10 10 11
REMARK SMILES IDX 7 12 8 13 82 14 9 15 81 16 4 17 5 18 6 19 2 20 1 21 3 22
REMARK SMILES IDX 74 23 75 24 80 25 76 26 79 27 77 28 78 29 18 30 19 31 20 32
REMARK SMILES IDX 21 33 22 34 23 35 24 36 70 37 25 38 69 39 26 40 27 41 28 42
REMARK SMILES IDX 63 43 29 44 68 45 62 46 64 47 30 48 67 49 61 50 60 51 31 53
REMARK SMILES IDX 53 54 38 55 52 56 39 57 42 58 51 59 65 60 40 61 41 62 50 64
REMARK SMILES IDX 66 65 43 66 32 67 33 68 37 69 34 70 36 71 35 72 54 73 55 74
REMARK SMILES IDX 59 75 56 76 58 77 57 78 44 79 45 80 49 81 46 82 48 83 47 84
REMARK H PARENT 64 52 42 63
REMARK Flexibility Score: inf
ROOT
ATOM      1  O   UNL A   1      41.101  30.432  33.634  1.00  0.00    -0.462 OA
ENDROOT
BRANCH   1   2
ATOM      2  C   UNL A   1      40.742  31.557  34.316  1.00  0.00     0.306 C 
ATOM      3  O   UNL A   1      39.649  31.707  34.853  1.00  0.00    -0.252 OA
BRANCH   2   4
ATOM      4  C   UNL A   1      41.850  32.601  34.437  1.00  0.00     0.129 C 
BRANCH   4   5
ATOM      5  C   UNL A   1      42.071  33.597  33.287  1.00  0.00     0.066 C 
BRANCH   5   6
ATOM      6  C   UNL A   1      42.964  33.061  32.226  1.00  0.00     0.024 A 
ATOM      7  N   UNL A   1      42.586  32.690  30.937  1.00  0.00    -0.314 N 
ATOM      8  C   UNL A   1      43.771  32.627  30.180  1.00  0.00     0.053 A 
ATOM      9  C   UNL A   1      44.330  32.870  32.343  1.00  0.00     0.024 A 
ATOM     10  C   UNL A   1      44.834  32.597  31.065  1.00  0.00     0.029 A 
BRANCH   7  11
ATOM     11  C   UNL A   1      41.261  32.513  30.422  1.00  0.00     0.046 A 
ATOM     12  C   UNL A   1      37.856  32.278  29.182  1.00  0.00     0.082 A 
ATOM     13  C   UNL A   1      38.588  33.879  29.493  1.00  0.00     0.024 A 
ATOM     14  C   UNL A   1      38.780  30.773  29.507  1.00  0.00     0.024 A 
ATOM     15  C   UNL A   1      40.282  34.017  30.096  1.00  0.00     0.028 A 
ATOM     16  C   UNL A   1      40.505  30.873  30.061  1.00  0.00     0.028 A 
BRANCH  12  17
ATOM     17  S   UNL A   1      36.119  32.173  28.851  1.00  0.00     0.242 S 
ATOM     18  O   UNL A   1      35.818  30.791  28.541  1.00  0.00    -0.207 OA
ATOM     19  O   UNL A   1      35.842  33.232  27.905  1.00  0.00    -0.207 OA
BRANCH  17  20
ATOM     20  N   UNL A   1      35.368  32.552  30.341  1.00  0.00    -0.204 NA
ATOM     21  C   UNL A   1      36.085  32.018  31.526  1.00  0.00     0.124 C 
ATOM     22  C   UNL A   1      35.047  33.987  30.542  1.00  0.00     0.124 C 
ENDBRANCH  17  20
ENDBRANCH  12  17
ENDBRANCH   7  11
BRANCH   8  23
ATOM     23  C   UNL A   1      43.890  32.763  28.725  1.00  0.00    -0.001 A 
ATOM     24  C   UNL A   1      44.015  34.026  28.126  1.00  0.00     0.013 A 
ATOM     25  C   UNL A   1      43.850  31.619  27.911  1.00  0.00     0.013 A 
ATOM     26  C   UNL A   1      44.154  34.134  26.740  1.00  0.00     0.040 A 
ATOM     27  C   UNL A   1      43.992  31.729  26.527  1.00  0.00     0.040 A 
ATOM     28  C   UNL A   1      44.145  32.985  25.956  1.00  0.00     0.123 A 
ATOM     29  F   UNL A   1      44.285  33.091  24.628  1.00  0.00    -0.207 F 
ENDBRANCH   8  23
ENDBRANCH   5   6
ENDBRANCH   4   5
ENDBRANCH   2   4
ENDBRANCH   1   2
BRANCH   1  30
ATOM     30  C   UNL A   1      40.885  29.161  34.313  1.00  0.00     0.274 C 
BRANCH  30  31
ATOM     31  C   UNL A   1      41.787  28.820  35.700  1.00  0.00     0.275 C 
BRANCH  31  32
ATOM     32  O   UNL A   1      43.623  27.964  35.810  1.00  0.00    -0.458 OA
BRANCH  32  33
ATOM     33  C   UNL A   1      44.606  26.971  35.755  1.00  0.00     0.338 C 
ATOM     34  O   UNL A   1      45.423  26.612  36.606  1.00  0.00    -0.246 OA
BRANCH  33  35
ATOM     35  C   UNL A   1      44.499  26.138  34.568  1.00  0.00     0.060 A 
ATOM     36  C   UNL A   1      45.657  25.460  34.161  1.00  0.00     0.016 A 
ATOM     37  C   UNL A   1      43.529  26.573  33.685  1.00  0.00     0.016 A 
ATOM     38  C   UNL A   1      45.927  25.379  32.811  1.00  0.00     0.010 A 
ATOM     39  C   UNL A   1      43.827  26.563  32.350  1.00  0.00     0.010 A 
ATOM     40  C   UNL A   1      45.049  26.017  31.930  1.00  0.00    -0.014 A 
BRANCH  40  41
ATOM     41  C   UNL A   1      45.354  26.105  30.502  1.00  0.00     0.031 A 
ATOM     42  C   UNL A   1      44.876  24.875  29.749  1.00  0.00     0.074 A 
ATOM     43  C   UNL A   1      45.887  27.289  30.082  1.00  0.00     0.049 A 
ATOM     44  N   UNL A   1      44.877  24.643  28.477  1.00  0.00    -0.248 NA
ATOM     45  C   UNL A   1      44.242  23.760  30.511  1.00  0.00     0.031 C 
ATOM     46  C   UNL A   1      46.259  28.418  30.969  1.00  0.00     0.029 A 
ATOM     47  N   UNL A   1      46.212  27.791  28.843  1.00  0.00    -0.354 N 
ATOM     48  C   UNL A   1      44.102  23.490  28.272  1.00  0.00     0.074 A 
ATOM     49  C   UNL A   1      43.744  22.976  29.558  1.00  0.00     0.031 C 
ATOM     50  C   UNL A   1      46.827  29.415  30.260  1.00  0.00     0.029 A 
ATOM     51  C   UNL A   1      46.834  29.061  28.856  1.00  0.00     0.049 A 
ATOM     52  H   UNL A   1      46.027  27.301  28.009  1.00  0.00     0.167 HD
ATOM     53  C   UNL A   1      43.725  23.060  27.041  1.00  0.00     0.031 A 
ATOM     54  C   UNL A   1      47.336  29.776  27.807  1.00  0.00     0.031 A 
ATOM     55  C   UNL A   1      44.451  23.727  26.018  1.00  0.00     0.049 A 
ATOM     56  C   UNL A   1      46.893  29.085  26.587  1.00  0.00     0.074 A 
ATOM     57  C   UNL A   1      45.764  23.651  25.627  1.00  0.00     0.029 A 
ATOM     58  N   UNL A   1      43.895  24.855  25.474  1.00  0.00    -0.354 N 
ATOM     59  N   UNL A   1      45.682  29.116  26.123  1.00  0.00    -0.248 NA
ATOM     60  C   UNL A   1      47.849  28.260  25.844  1.00  0.00     0.031 C 
ATOM     61  C   UNL A   1      46.080  24.957  25.194  1.00  0.00     0.029 A 
ATOM     62  C   UNL A   1      44.926  25.741  25.252  1.00  0.00     0.049 A 
ATOM     63  H   UNL A   1      42.942  25.004  25.278  1.00  0.00     0.167 HD
ATOM     64  C   UNL A   1      45.654  28.027  25.287  1.00  0.00     0.074 A 
ATOM     65  C   UNL A   1      47.027  27.754  24.927  1.00  0.00     0.031 C 
ATOM     66  C   UNL A   1      44.623  27.148  25.358  1.00  0.00     0.031 A 
BRANCH  53  67
ATOM     67  C   UNL A   1      42.613  22.135  26.672  1.00  0.00    -0.014 A 
ATOM     68  C   UNL A   1      41.301  22.508  27.029  1.00  0.00     0.009 A 
ATOM     69  C   UNL A   1      42.829  20.808  26.274  1.00  0.00     0.009 A 
ATOM     70  C   UNL A   1      40.264  21.577  27.068  1.00  0.00     0.001 A 
ATOM     71  C   UNL A   1      41.780  19.881  26.283  1.00  0.00     0.001 A 
ATOM     72  C   UNL A   1      40.507  20.258  26.707  1.00  0.00     0.000 A 
ENDBRANCH  53  67
BRANCH  54  73
ATOM     73  C   UNL A   1      48.188  30.997  27.604  1.00  0.00    -0.014 A 
ATOM     74  C   UNL A   1      49.558  31.093  27.867  1.00  0.00     0.009 A 
ATOM     75  C   UNL A   1      47.596  32.141  27.004  1.00  0.00     0.009 A 
ATOM     76  C   UNL A   1      50.295  32.232  27.484  1.00  0.00     0.001 A 
ATOM     77  C   UNL A   1      48.327  33.256  26.587  1.00  0.00     0.001 A 
ATOM     78  C   UNL A   1      49.688  33.296  26.819  1.00  0.00     0.000 A 
ENDBRANCH  54  73
BRANCH  66  79
ATOM     79  C   UNL A   1      43.365  27.701  26.003  1.00  0.00    -0.014 A 
ATOM     80  C   UNL A   1      43.149  27.543  27.379  1.00  0.00     0.009 A 
ATOM     81  C   UNL A   1      42.334  28.286  25.246  1.00  0.00     0.009 A 
ATOM     82  C   UNL A   1      41.947  27.951  27.972  1.00  0.00     0.001 A 
ATOM     83  C   UNL A   1      41.133  28.700  25.836  1.00  0.00     0.001 A 
ATOM     84  C   UNL A   1      40.940  28.529  27.203  1.00  0.00     0.000 A 
ENDBRANCH  66  79
ENDBRANCH  40  41
ENDBRANCH  33  35
ENDBRANCH  32  33
ENDBRANCH  31  32
ENDBRANCH  30  31
ENDBRANCH   1  30
TORSDOF 17
ENDMDL
MODEL 3
REMARK VINA RESULT:     -11.8      5.846     11.543
REMARK SMILES CN(C)S(=O)(=O)c1ccc(-n2c(CCC(=O)OCCOC(=O)c3ccc(-c4c5nc(c(-c6ccccc6)c6ccc([nH]6)c(-c6ccccc6)c6nc(c(-c7ccccc7)c7ccc4[nH]7)C=C6)C=C5)cc3)ccc2-c2ccc(F)cc2)cc1
REMARK SMILES IDX 17 1 15 2 16 3 14 4 13 5 12 6 11 7 73 8 71 9 72 10 10 11
REMARK SMILES IDX 7 12 8 13 82 14 9 15 81 16 4 17 5 18 6 19 2 20 1 21 3 22
REMARK SMILES IDX 74 23 75 24 80 25 76 26 79 27 77 28 78 29 18 30 19 31 20 32
REMARK SMILES IDX 21 33 22 34 23 35 24 36 70 37 25 38 69 39 26 40 27 41 28 42
REMARK SMILES IDX 63 43 29 44 68 45 62 46 64 47 30 48 67 49 61 50 60 51 31 53
REMARK SMILES IDX 53 54 38 55 52 56 39 57 42 58 51 59 65 60 40 61 41 62 50 64
REMARK SMILES IDX 66 65 43 66 32 67 33 68 37 69 34 70 36 71 35 72 54 73 55 74
REMARK SMILES IDX 59 75 56 76 58 77 57 78 44 79 45 80 49 81 46 82 48 83 47 84
REMARK H PARENT 64 52 42 63
REMARK Flexibility Score: inf
ROOT
ATOM      1  O   UNL A   1      45.510  23.026  34.636  1.00  0.00    -0.462 OA
ENDROOT
BRANCH   1   2
ATOM      2  C   UNL A   1      44.505  23.931  34.458  1.00  0.00     0.306 C 
ATOM      3  O   UNL A   1      43.466  23.931  35.110  1.00  0.00    -0.252 OA
BRANCH   2   4
ATOM      4  C   UNL A   1      44.810  25.015  33.427  1.00  0.00     0.129 C 
BRANCH   4   5
ATOM      5  C   UNL A   1      45.944  24.790  32.415  1.00  0.00     0.066 C 
BRANCH   5   6
ATOM      6  C   UNL A   1      46.222  25.992  31.584  1.00  0.00     0.024 A 
ATOM      7  N   UNL A   1      45.789  26.211  30.278  1.00  0.00    -0.314 N 
ATOM      8  C   UNL A   1      45.935  27.591  30.040  1.00  0.00     0.053 A 
ATOM      9  C   UNL A   1      46.940  27.104  31.990  1.00  0.00     0.024 A 
ATOM     10  C   UNL A   1      46.761  28.103  31.024  1.00  0.00     0.029 A 
BRANCH   7  11
ATOM     11  C   UNL A   1      45.202  25.270  29.373  1.00  0.00     0.046 A 
ATOM     12  C   UNL A   1      43.893  22.909  26.943  1.00  0.00     0.082 A 
ATOM     13  C   UNL A   1      45.631  23.333  26.935  1.00  0.00     0.024 A 
ATOM     14  C   UNL A   1      42.774  23.665  28.126  1.00  0.00     0.024 A 
ATOM     15  C   UNL A   1      46.301  24.493  28.142  1.00  0.00     0.028 A 
ATOM     16  C   UNL A   1      43.423  24.794  29.390  1.00  0.00     0.028 A 
BRANCH  12  17
ATOM     17  S   UNL A   1      43.226  21.984  25.588  1.00  0.00     0.242 S 
ATOM     18  O   UNL A   1      43.478  22.740  24.379  1.00  0.00    -0.207 OA
ATOM     19  O   UNL A   1      41.880  21.633  25.986  1.00  0.00    -0.207 OA
BRANCH  17  20
ATOM     20  N   UNL A   1      44.172  20.561  25.523  1.00  0.00    -0.204 NA
ATOM     21  C   UNL A   1      43.372  19.314  25.422  1.00  0.00     0.124 C 
ATOM     22  C   UNL A   1      45.248  20.562  24.501  1.00  0.00     0.124 C 
ENDBRANCH  17  20
ENDBRANCH  12  17
ENDBRANCH   7  11
BRANCH   8  23
ATOM     23  C   UNL A   1      45.201  28.393  29.055  1.00  0.00    -0.001 A 
ATOM     24  C   UNL A   1      44.390  29.464  29.458  1.00  0.00     0.013 A 
ATOM     25  C   UNL A   1      45.285  28.072  27.691  1.00  0.00     0.013 A 
ATOM     26  C   UNL A   1      43.719  30.234  28.504  1.00  0.00     0.040 A 
ATOM     27  C   UNL A   1      44.617  28.843  26.739  1.00  0.00     0.040 A 
ATOM     28  C   UNL A   1      43.844  29.918  27.155  1.00  0.00     0.123 A 
ATOM     29  F   UNL A   1      43.205  30.661  26.241  1.00  0.00    -0.207 F 
ENDBRANCH   8  23
ENDBRANCH   5   6
ENDBRANCH   4   5
ENDBRANCH   2   4
ENDBRANCH   1   2
BRANCH   1  30
ATOM     30  C   UNL A   1      45.756  22.586  36.004  1.00  0.00     0.274 C 
BRANCH  30  31
ATOM     31  C   UNL A   1      46.416  23.686  37.102  1.00  0.00     0.275 C 
BRANCH  31  32
ATOM     32  O   UNL A   1      46.849  25.644  36.793  1.00  0.00    -0.458 OA
BRANCH  32  33
ATOM     33  C   UNL A   1      46.965  26.865  36.121  1.00  0.00     0.338 C 
ATOM     34  O   UNL A   1      47.790  27.238  35.286  1.00  0.00    -0.246 OA
BRANCH  33  35
ATOM     35  C   UNL A   1      45.817  27.733  36.332  1.00  0.00     0.060 A 
ATOM     36  C   UNL A   1      44.612  27.115  36.694  1.00  0.00     0.016 A 
ATOM     37  C   UNL A   1      45.876  28.900  35.595  1.00  0.00     0.016 A 
ATOM     38  C   UNL A   1      43.441  27.593  36.142  1.00  0.00     0.010 A 
ATOM     39  C   UNL A   1      44.731  29.332  34.986  1.00  0.00     0.010 A 
ATOM     40  C   UNL A   1      43.533  28.639  35.221  1.00  0.00    -0.014 A 
BRANCH  40  41
ATOM     41  C   UNL A   1      42.355  29.092  34.481  1.00  0.00     0.031 A 
ATOM     42  C   UNL A   1      41.593  30.164  35.242  1.00  0.00     0.074 A 
ATOM     43  C   UNL A   1      42.213  28.582  33.224  1.00  0.00     0.049 A 
ATOM     44  N   UNL A   1      40.573  30.864  34.866  1.00  0.00    -0.248 NA
ATOM     45  C   UNL A   1      42.068  30.567  36.597  1.00  0.00     0.031 C 
ATOM     46  C   UNL A   1      43.093  27.554  32.617  1.00  0.00     0.029 A 
ATOM     47  N   UNL A   1      41.322  28.823  32.202  1.00  0.00    -0.354 N 
ATOM     48  C   UNL A   1      40.407  31.886  35.817  1.00  0.00     0.074 A 
ATOM     49  C   UNL A   1      41.345  31.651  36.870  1.00  0.00     0.031 C 
ATOM     50  C   UNL A   1      42.647  27.206  31.392  1.00  0.00     0.029 A 
ATOM     51  C   UNL A   1      41.480  27.999  31.064  1.00  0.00     0.049 A 
ATOM     52  H   UNL A   1      40.626  29.517  32.261  1.00  0.00     0.167 HD
ATOM     53  C   UNL A   1      39.552  32.926  35.645  1.00  0.00     0.031 A 
ATOM     54  C   UNL A   1      40.713  27.946  29.936  1.00  0.00     0.031 A 
ATOM     55  C   UNL A   1      38.660  32.686  34.566  1.00  0.00     0.049 A 
ATOM     56  C   UNL A   1      39.801  29.098  30.003  1.00  0.00     0.074 A 
ATOM     57  C   UNL A   1      37.608  31.816  34.423  1.00  0.00     0.029 A 
ATOM     58  N   UNL A   1      39.016  33.154  33.328  1.00  0.00    -0.354 N 
ATOM     59  N   UNL A   1      40.154  30.328  29.794  1.00  0.00    -0.248 NA
ATOM     60  C   UNL A   1      38.400  28.881  30.373  1.00  0.00     0.031 C 
ATOM     61  C   UNL A   1      37.626  31.463  33.055  1.00  0.00     0.029 A 
ATOM     62  C   UNL A   1      38.622  32.202  32.413  1.00  0.00     0.049 A 
ATOM     63  H   UNL A   1      39.466  34.006  33.130  1.00  0.00     0.167 HD
ATOM     64  C   UNL A   1      39.134  31.036  30.380  1.00  0.00     0.074 A 
ATOM     65  C   UNL A   1      37.994  30.148  30.424  1.00  0.00     0.031 C 
ATOM     66  C   UNL A   1      39.420  32.063  31.219  1.00  0.00     0.031 A 
BRANCH  53  67
ATOM     67  C   UNL A   1      39.545  34.254  36.325  1.00  0.00    -0.014 A 
ATOM     68  C   UNL A   1      40.313  35.290  35.756  1.00  0.00     0.009 A 
ATOM     69  C   UNL A   1      39.074  34.434  37.634  1.00  0.00     0.009 A 
ATOM     70  C   UNL A   1      40.668  36.422  36.488  1.00  0.00     0.001 A 
ATOM     71  C   UNL A   1      39.405  35.587  38.358  1.00  0.00     0.001 A 
ATOM     72  C   UNL A   1      40.224  36.564  37.796  1.00  0.00     0.000 A 
ENDBRANCH  53  67
BRANCH  54  73
ATOM     73  C   UNL A   1      40.564  27.053  28.737  1.00  0.00    -0.014 A 
ATOM     74  C   UNL A   1      39.688  25.970  28.626  1.00  0.00     0.009 A 
ATOM     75  C   UNL A   1      41.299  27.372  27.563  1.00  0.00     0.009 A 
ATOM     76  C   UNL A   1      39.509  25.300  27.398  1.00  0.00     0.001 A 
ATOM     77  C   UNL A   1      41.096  26.740  26.334  1.00  0.00     0.001 A 
ATOM     78  C   UNL A   1      40.186  25.704  26.249  1.00  0.00     0.000 A 
ENDBRANCH  54  73
BRANCH  66  79
ATOM     79  C   UNL A   1      40.813  32.644  31.054  1.00  0.00    -0.014 A 
ATOM     80  C   UNL A   1      41.849  32.248  31.910  1.00  0.00     0.009 A 
ATOM     81  C   UNL A   1      41.090  33.664  30.125  1.00  0.00     0.009 A 
ATOM     82  C   UNL A   1      43.111  32.851  31.842  1.00  0.00     0.001 A 
ATOM     83  C   UNL A   1      42.352  34.266  30.051  1.00  0.00     0.001 A 
ATOM     84  C   UNL A   1      43.364  33.859  30.914  1.00  0.00     0.000 A 
ENDBRANCH  66  79
ENDBRANCH  40  41
ENDBRANCH  33  35
ENDBRANCH  32  33
ENDBRANCH  31  32
ENDBRANCH  30  31
ENDBRANCH   1  30
TORSDOF 17
ENDMDL
