MODEL 1
REMARK VINA RESULT:     -11.2      0.000      0.000
REMARK SMILES Nc1nc(N2CCOC[C@H]2C(=O)OCCOC(=O)c2ccc(-c3c4nc(c(-c5ccccc5)c5ccc([nH]5)c(-c5ccccc5)c5nc(c(-c6ccccc6)c6ccc3[nH]6)C=C5)C=C4)cc2)ccc1[N+](=O)[O-]
REMARK SMILES IDX 14 1 13 2 11 3 12 4 10 5 5 6 6 7 7 8 9 9 8 10 4 11 2 12 3 13
REMARK SMILES IDX 69 14 68 15 67 16 1 17 70 20 71 21 72 22 15 23 16 24 17 25
REMARK SMILES IDX 18 26 19 27 20 28 66 29 21 30 65 31 22 32 23 33 24 34 59 35
REMARK SMILES IDX 25 36 64 37 58 38 60 39 26 40 63 41 57 42 56 43 27 45 49 46
REMARK SMILES IDX 34 47 48 48 35 49 38 50 47 51 61 52 36 53 37 54 46 56 62 57
REMARK SMILES IDX 39 58 28 59 29 60 33 61 30 62 32 63 31 64 50 65 51 66 55 67
REMARK SMILES IDX 52 68 54 69 53 70 40 71 41 72 45 73 42 74 44 75 43 76
REMARK H PARENT 1 18 1 19 60 44 38 55
REMARK Flexibility Score: inf
ROOT
ATOM      1  C   UNL A   1      35.814  23.201  23.853  1.00  0.00     0.274 C 
ENDROOT
BRANCH   1   2
ATOM      2  O   UNL A   1      34.889  23.076  22.756  1.00  0.00    -0.460 OA
BRANCH   2   3
ATOM      3  C   UNL A   1      33.686  23.691  22.910  1.00  0.00     0.331 C 
ATOM      4  O   UNL A   1      33.535  24.912  22.925  1.00  0.00    -0.250 OA
BRANCH   3   5
ATOM      5  C   UNL A   1      32.510  22.736  23.125  1.00  0.00     0.220 C 
ATOM      6  N   UNL A   1      32.563  21.873  24.324  1.00  0.00    -0.339 N 
ATOM      7  C   UNL A   1      32.311  22.512  25.615  1.00  0.00     0.147 C 
ATOM      8  C   UNL A   1      31.037  23.360  25.532  1.00  0.00     0.181 C 
ATOM      9  C   UNL A   1      31.231  23.595  23.181  1.00  0.00     0.197 C 
ATOM     10  O   UNL A   1      31.086  24.287  24.437  1.00  0.00    -0.377 OA
BRANCH   6  11
ATOM     11  C   UNL A   1      32.790  20.523  24.201  1.00  0.00     0.132 A 
ATOM     12  C   UNL A   1      32.484  18.530  23.003  1.00  0.00     0.204 A 
ATOM     13  N   UNL A   1      32.179  19.840  23.206  1.00  0.00    -0.207 NA
ATOM     14  C   UNL A   1      33.331  17.840  23.866  1.00  0.00     0.311 A 
ATOM     15  C   UNL A   1      33.897  18.510  24.946  1.00  0.00     0.093 A 
ATOM     16  C   UNL A   1      33.628  19.865  25.100  1.00  0.00     0.054 A 
BRANCH  12  17
ATOM     17  N   UNL A   1      31.829  17.941  21.934  1.00  0.00    -0.378 N 
ATOM     18  H   UNL A   1      31.611  16.981  21.960  1.00  0.00     0.158 HD
ATOM     19  H   UNL A   1      31.581  18.482  21.150  1.00  0.00     0.158 HD
ENDBRANCH  12  17
BRANCH  14  20
ATOM     20  N   UNL A   1      33.683  16.445  23.643  1.00  0.00     0.066 N 
ATOM     21  O   UNL A   1      34.352  16.182  22.632  1.00  0.00    -0.258 OA
ATOM     22  O   UNL A   1      33.259  15.595  24.441  1.00  0.00    -0.258 OA
ENDBRANCH  14  20
ENDBRANCH   6  11
ENDBRANCH   3   5
ENDBRANCH   2   3
ENDBRANCH   1   2
BRANCH   1  23
ATOM     23  C   UNL A   1      36.373  21.834  24.234  1.00  0.00     0.275 C 
BRANCH  23  24
ATOM     24  O   UNL A   1      36.884  21.892  25.575  1.00  0.00    -0.458 OA
BRANCH  24  25
ATOM     25  C   UNL A   1      38.176  21.538  25.730  1.00  0.00     0.338 C 
ATOM     26  O   UNL A   1      38.703  20.461  25.518  1.00  0.00    -0.246 OA
BRANCH  25  27
ATOM     27  C   UNL A   1      38.903  22.690  26.275  1.00  0.00     0.060 A 
ATOM     28  C   UNL A   1      38.390  23.979  26.114  1.00  0.00     0.016 A 
ATOM     29  C   UNL A   1      40.152  22.487  26.859  1.00  0.00     0.016 A 
ATOM     30  C   UNL A   1      39.130  25.081  26.531  1.00  0.00     0.010 A 
ATOM     31  C   UNL A   1      40.877  23.588  27.310  1.00  0.00     0.010 A 
ATOM     32  C   UNL A   1      40.379  24.891  27.136  1.00  0.00    -0.014 A 
BRANCH  32  33
ATOM     33  C   UNL A   1      41.202  26.052  27.541  1.00  0.00     0.031 A 
ATOM     34  C   UNL A   1      40.637  27.061  28.497  1.00  0.00     0.074 A 
ATOM     35  C   UNL A   1      42.440  26.208  27.040  1.00  0.00     0.049 A 
ATOM     36  N   UNL A   1      41.118  28.225  28.850  1.00  0.00    -0.248 NA
ATOM     37  C   UNL A   1      39.355  26.716  29.132  1.00  0.00     0.031 C 
ATOM     38  C   UNL A   1      43.124  25.265  26.154  1.00  0.00     0.029 A 
ATOM     39  N   UNL A   1      43.340  27.231  27.203  1.00  0.00    -0.354 N 
ATOM     40  C   UNL A   1      40.183  28.767  29.722  1.00  0.00     0.074 A 
ATOM     41  C   UNL A   1      39.101  27.811  29.833  1.00  0.00     0.031 C 
ATOM     42  C   UNL A   1      44.341  25.748  25.860  1.00  0.00     0.029 A 
ATOM     43  C   UNL A   1      44.497  27.058  26.484  1.00  0.00     0.049 A 
ATOM     44  H   UNL A   1      43.173  28.011  27.778  1.00  0.00     0.167 HD
ATOM     45  C   UNL A   1      40.224  29.955  30.369  1.00  0.00     0.031 A 
ATOM     46  C   UNL A   1      45.549  27.882  26.320  1.00  0.00     0.031 A 
ATOM     47  C   UNL A   1      41.306  30.898  30.261  1.00  0.00     0.049 A 
ATOM     48  C   UNL A   1      45.534  29.230  26.983  1.00  0.00     0.074 A 
ATOM     49  C   UNL A   1      41.445  32.129  30.878  1.00  0.00     0.029 A 
ATOM     50  N   UNL A   1      42.439  30.708  29.485  1.00  0.00    -0.354 N 
ATOM     51  N   UNL A   1      44.630  29.750  27.779  1.00  0.00    -0.248 NA
ATOM     52  C   UNL A   1      46.678  30.110  26.713  1.00  0.00     0.031 C 
ATOM     53  C   UNL A   1      42.645  32.702  30.442  1.00  0.00     0.029 A 
ATOM     54  C   UNL A   1      43.274  31.806  29.591  1.00  0.00     0.049 A 
ATOM     55  H   UNL A   1      42.622  29.909  28.940  1.00  0.00     0.167 HD
ATOM     56  C   UNL A   1      45.107  31.007  28.123  1.00  0.00     0.074 A 
ATOM     57  C   UNL A   1      46.385  31.167  27.458  1.00  0.00     0.031 C 
ATOM     58  C   UNL A   1      44.539  31.946  28.919  1.00  0.00     0.031 A 
BRANCH  45  59
ATOM     59  C   UNL A   1      39.036  30.315  31.216  1.00  0.00    -0.014 A 
ATOM     60  C   UNL A   1      37.920  30.968  30.672  1.00  0.00     0.009 A 
ATOM     61  C   UNL A   1      39.034  29.986  32.580  1.00  0.00     0.009 A 
ATOM     62  C   UNL A   1      36.842  31.322  31.488  1.00  0.00     0.001 A 
ATOM     63  C   UNL A   1      37.945  30.317  33.387  1.00  0.00     0.001 A 
ATOM     64  C   UNL A   1      36.855  30.994  32.843  1.00  0.00     0.000 A 
ENDBRANCH  45  59
BRANCH  46  65
ATOM     65  C   UNL A   1      46.694  27.466  25.472  1.00  0.00    -0.014 A 
ATOM     66  C   UNL A   1      46.771  27.881  24.134  1.00  0.00     0.009 A 
ATOM     67  C   UNL A   1      47.714  26.655  25.993  1.00  0.00     0.009 A 
ATOM     68  C   UNL A   1      47.839  27.477  23.330  1.00  0.00     0.001 A 
ATOM     69  C   UNL A   1      48.793  26.274  25.194  1.00  0.00     0.001 A 
ATOM     70  C   UNL A   1      48.851  26.679  23.861  1.00  0.00     0.000 A 
ENDBRANCH  46  65
BRANCH  58  71
ATOM     71  C   UNL A   1      45.316  33.212  29.139  1.00  0.00    -0.014 A 
ATOM     72  C   UNL A   1      46.254  33.318  30.176  1.00  0.00     0.009 A 
ATOM     73  C   UNL A   1      45.127  34.301  28.274  1.00  0.00     0.009 A 
ATOM     74  C   UNL A   1      46.968  34.503  30.361  1.00  0.00     0.001 A 
ATOM     75  C   UNL A   1      45.859  35.476  28.447  1.00  0.00     0.001 A 
ATOM     76  C   UNL A   1      46.773  35.579  29.494  1.00  0.00     0.000 A 
ENDBRANCH  58  71
ENDBRANCH  32  33
ENDBRANCH  25  27
ENDBRANCH  24  25
ENDBRANCH  23  24
ENDBRANCH   1  23
TORSDOF 14
ENDMDL
MODEL 2
REMARK VINA RESULT:     -11.1      3.968      7.340
REMARK SMILES Nc1nc(N2CCOC[C@H]2C(=O)OCCOC(=O)c2ccc(-c3c4nc(c(-c5ccccc5)c5ccc([nH]5)c(-c5ccccc5)c5nc(c(-c6ccccc6)c6ccc3[nH]6)C=C5)C=C4)cc2)ccc1[N+](=O)[O-]
REMARK SMILES IDX 14 1 13 2 11 3 12 4 10 5 5 6 6 7 7 8 9 9 8 10 4 11 2 12 3 13
REMARK SMILES IDX 69 14 68 15 67 16 1 17 70 20 71 21 72 22 15 23 16 24 17 25
REMARK SMILES IDX 18 26 19 27 20 28 66 29 21 30 65 31 22 32 23 33 24 34 59 35
REMARK SMILES IDX 25 36 64 37 58 38 60 39 26 40 63 41 57 42 56 43 27 45 49 46
REMARK SMILES IDX 34 47 48 48 35 49 38 50 47 51 61 52 36 53 37 54 46 56 62 57
REMARK SMILES IDX 39 58 28 59 29 60 33 61 30 62 32 63 31 64 50 65 51 66 55 67
REMARK SMILES IDX 52 68 54 69 53 70 40 71 41 72 45 73 42 74 44 75 43 76
REMARK H PARENT 1 18 1 19 60 44 38 55
REMARK Flexibility Score: inf
ROOT
ATOM      1  C   UNL A   1      32.864  28.182  26.190  1.00  0.00     0.274 C 
ENDROOT
BRANCH   1   2
ATOM      2  O   UNL A   1      33.856  27.140  26.121  1.00  0.00    -0.460 OA
BRANCH   2   3
ATOM      3  C   UNL A   1      33.589  26.109  25.275  1.00  0.00     0.331 C 
ATOM      4  O   UNL A   1      34.446  25.516  24.622  1.00  0.00    -0.250 OA
BRANCH   3   5
ATOM      5  C   UNL A   1      32.104  25.767  25.145  1.00  0.00     0.220 C 
ATOM      6  N   UNL A   1      31.520  25.833  23.788  1.00  0.00    -0.339 N 
ATOM      7  C   UNL A   1      31.874  24.760  22.859  1.00  0.00     0.147 C 
ATOM      8  C   UNL A   1      31.676  23.401  23.541  1.00  0.00     0.181 C 
ATOM      9  C   UNL A   1      31.914  24.341  25.703  1.00  0.00     0.197 C 
ATOM     10  O   UNL A   1      32.377  23.326  24.792  1.00  0.00    -0.377 OA
BRANCH   6  11
ATOM     11  C   UNL A   1      30.647  26.840  23.453  1.00  0.00     0.132 A 
ATOM     12  C   UNL A   1      30.246  28.879  22.368  1.00  0.00     0.204 A 
ATOM     13  N   UNL A   1      31.116  27.931  22.807  1.00  0.00    -0.207 NA
ATOM     14  C   UNL A   1      28.886  28.810  22.664  1.00  0.00     0.311 A 
ATOM     15  C   UNL A   1      28.404  27.735  23.406  1.00  0.00     0.093 A 
ATOM     16  C   UNL A   1      29.297  26.741  23.788  1.00  0.00     0.054 A 
BRANCH  12  17
ATOM     17  N   UNL A   1      30.831  29.933  21.686  1.00  0.00    -0.378 N 
ATOM     18  H   UNL A   1      30.885  29.913  20.703  1.00  0.00     0.158 HD
ATOM     19  H   UNL A   1      31.192  30.702  22.184  1.00  0.00     0.158 HD
ENDBRANCH  12  17
BRANCH  14  20
ATOM     20  N   UNL A   1      27.944  29.807  22.179  1.00  0.00     0.066 N 
ATOM     21  O   UNL A   1      28.030  30.137  20.986  1.00  0.00    -0.258 OA
ATOM     22  O   UNL A   1      27.143  30.304  22.985  1.00  0.00    -0.258 OA
ENDBRANCH  14  20
ENDBRANCH   6  11
ENDBRANCH   3   5
ENDBRANCH   2   3
ENDBRANCH   1   2
BRANCH   1  23
ATOM     23  C   UNL A   1      33.536  29.546  26.317  1.00  0.00     0.275 C 
BRANCH  23  24
ATOM     24  O   UNL A   1      33.827  29.800  27.700  1.00  0.00    -0.458 OA
BRANCH  24  25
ATOM     25  C   UNL A   1      34.724  30.777  27.945  1.00  0.00     0.338 C 
ATOM     26  O   UNL A   1      34.571  31.983  27.897  1.00  0.00    -0.246 OA
BRANCH  25  27
ATOM     27  C   UNL A   1      36.014  30.146  28.250  1.00  0.00     0.060 A 
ATOM     28  C   UNL A   1      36.227  29.562  29.501  1.00  0.00     0.016 A 
ATOM     29  C   UNL A   1      37.044  30.229  27.316  1.00  0.00     0.016 A 
ATOM     30  C   UNL A   1      37.483  29.063  29.831  1.00  0.00     0.010 A 
ATOM     31  C   UNL A   1      38.293  29.696  27.634  1.00  0.00     0.010 A 
ATOM     32  C   UNL A   1      38.524  29.124  28.897  1.00  0.00    -0.014 A 
BRANCH  32  33
ATOM     33  C   UNL A   1      39.878  28.643  29.247  1.00  0.00     0.031 A 
ATOM     34  C   UNL A   1      40.801  29.536  30.023  1.00  0.00     0.074 A 
ATOM     35  C   UNL A   1      40.283  27.422  28.857  1.00  0.00     0.049 A 
ATOM     36  N   UNL A   1      42.072  29.381  30.288  1.00  0.00    -0.248 NA
ATOM     37  C   UNL A   1      40.216  30.774  30.563  1.00  0.00     0.031 C 
ATOM     38  C   UNL A   1      39.457  26.437  28.155  1.00  0.00     0.029 A 
ATOM     39  N   UNL A   1      41.501  26.806  28.991  1.00  0.00    -0.354 N 
ATOM     40  C   UNL A   1      42.448  30.515  30.996  1.00  0.00     0.074 A 
ATOM     41  C   UNL A   1      41.274  31.355  31.107  1.00  0.00     0.031 C 
ATOM     42  C   UNL A   1      40.191  25.336  27.931  1.00  0.00     0.029 A 
ATOM     43  C   UNL A   1      41.549  25.560  28.415  1.00  0.00     0.049 A 
ATOM     44  H   UNL A   1      42.265  27.216  29.456  1.00  0.00     0.167 HD
ATOM     45  C   UNL A   1      43.663  30.826  31.505  1.00  0.00     0.031 A 
ATOM     46  C   UNL A   1      42.583  24.713  28.264  1.00  0.00     0.031 A 
ATOM     47  C   UNL A   1      44.825  29.983  31.399  1.00  0.00     0.049 A 
ATOM     48  C   UNL A   1      43.941  25.117  28.766  1.00  0.00     0.074 A 
ATOM     49  C   UNL A   1      46.102  30.205  31.884  1.00  0.00     0.029 A 
ATOM     50  N   UNL A   1      44.845  28.750  30.766  1.00  0.00    -0.354 N 
ATOM     51  N   UNL A   1      44.296  26.205  29.405  1.00  0.00    -0.248 NA
ATOM     52  C   UNL A   1      45.043  24.178  28.513  1.00  0.00     0.031 C 
ATOM     53  C   UNL A   1      46.905  29.123  31.507  1.00  0.00     0.029 A 
ATOM     54  C   UNL A   1      46.116  28.207  30.829  1.00  0.00     0.049 A 
ATOM     55  H   UNL A   1      44.069  28.324  30.335  1.00  0.00     0.167 HD
ATOM     56  C   UNL A   1      45.656  26.074  29.650  1.00  0.00     0.074 A 
ATOM     57  C   UNL A   1      46.059  24.795  29.100  1.00  0.00     0.031 C 
ATOM     58  C   UNL A   1      46.496  26.935  30.274  1.00  0.00     0.031 A 
BRANCH  45  59
ATOM     59  C   UNL A   1      43.799  32.159  32.185  1.00  0.00    -0.014 A 
ATOM     60  C   UNL A   1      43.585  32.304  33.564  1.00  0.00     0.009 A 
ATOM     61  C   UNL A   1      44.155  33.288  31.429  1.00  0.00     0.009 A 
ATOM     62  C   UNL A   1      43.684  33.560  34.166  1.00  0.00     0.001 A 
ATOM     63  C   UNL A   1      44.278  34.537  32.038  1.00  0.00     0.001 A 
ATOM     64  C   UNL A   1      44.033  34.674  33.404  1.00  0.00     0.000 A 
ENDBRANCH  45  59
BRANCH  46  65
ATOM     65  C   UNL A   1      42.382  23.408  27.586  1.00  0.00    -0.014 A 
ATOM     66  C   UNL A   1      41.943  22.292  28.313  1.00  0.00     0.009 A 
ATOM     67  C   UNL A   1      42.627  23.270  26.210  1.00  0.00     0.009 A 
ATOM     68  C   UNL A   1      41.770  21.059  27.679  1.00  0.00     0.001 A 
ATOM     69  C   UNL A   1      42.429  22.044  25.575  1.00  0.00     0.001 A 
ATOM     70  C   UNL A   1      42.008  20.937  26.312  1.00  0.00     0.000 A 
ENDBRANCH  46  65
BRANCH  58  71
ATOM     71  C   UNL A   1      47.925  26.500  30.426  1.00  0.00    -0.014 A 
ATOM     72  C   UNL A   1      48.352  25.783  31.553  1.00  0.00     0.009 A 
ATOM     73  C   UNL A   1      48.849  26.786  29.408  1.00  0.00     0.009 A 
ATOM     74  C   UNL A   1      49.685  25.385  31.673  1.00  0.00     0.001 A 
ATOM     75  C   UNL A   1      50.175  26.367  29.519  1.00  0.00     0.001 A 
ATOM     76  C   UNL A   1      50.593  25.674  30.655  1.00  0.00     0.000 A 
ENDBRANCH  58  71
ENDBRANCH  32  33
ENDBRANCH  25  27
ENDBRANCH  24  25
ENDBRANCH  23  24
ENDBRANCH   1  23
TORSDOF 14
ENDMDL
MODEL 3
REMARK VINA RESULT:     -11.0      2.923      6.395
REMARK SMILES Nc1nc(N2CCOC[C@H]2C(=O)OCCOC(=O)c2ccc(-c3c4nc(c(-c5ccccc5)c5ccc([nH]5)c(-c5ccccc5)c5nc(c(-c6ccccc6)c6ccc3[nH]6)C=C5)C=C4)cc2)ccc1[N+](=O)[O-]
REMARK SMILES IDX 14 1 13 2 11 3 12 4 10 5 5 6 6 7 7 8 9 9 8 10 4 11 2 12 3 13
REMARK SMILES IDX 69 14 68 15 67 16 1 17 70 20 71 21 72 22 15 23 16 24 17 25
REMARK SMILES IDX 18 26 19 27 20 28 66 29 21 30 65 31 22 32 23 33 24 34 59 35
REMARK SMILES IDX 25 36 64 37 58 38 60 39 26 40 63 41 57 42 56 43 27 45 49 46
REMARK SMILES IDX 34 47 48 48 35 49 38 50 47 51 61 52 36 53 37 54 46 56 62 57
REMARK SMILES IDX 39 58 28 59 29 60 33 61 30 62 32 63 31 64 50 65 51 66 55 67
REMARK SMILES IDX 52 68 54 69 53 70 40 71 41 72 45 73 42 74 44 75 43 76
REMARK H PARENT 1 18 1 19 60 44 38 55
REMARK Flexibility Score: inf
ROOT
ATOM      1  C   UNL A   1      36.063  23.012  23.638  1.00  0.00     0.274 C 
ENDROOT
BRANCH   1   2
ATOM      2  O   UNL A   1      34.826  23.635  24.035  1.00  0.00    -0.460 OA
BRANCH   2   3
ATOM      3  C   UNL A   1      33.875  23.753  23.072  1.00  0.00     0.331 C 
ATOM      4  O   UNL A   1      33.895  24.608  22.187  1.00  0.00    -0.250 OA
BRANCH   3   5
ATOM      5  C   UNL A   1      32.718  22.761  23.200  1.00  0.00     0.220 C 
ATOM      6  N   UNL A   1      32.725  21.877  24.385  1.00  0.00    -0.339 N 
ATOM      7  C   UNL A   1      32.377  22.485  25.669  1.00  0.00     0.147 C 
ATOM      8  C   UNL A   1      31.085  23.296  25.524  1.00  0.00     0.181 C 
ATOM      9  C   UNL A   1      31.411  23.581  23.193  1.00  0.00     0.197 C 
ATOM     10  O   UNL A   1      31.171  24.245  24.449  1.00  0.00    -0.377 OA
BRANCH   6  11
ATOM     11  C   UNL A   1      33.000  20.537  24.254  1.00  0.00     0.132 A 
ATOM     12  C   UNL A   1      32.593  18.494  23.176  1.00  0.00     0.204 A 
ATOM     13  N   UNL A   1      32.259  19.793  23.402  1.00  0.00    -0.207 NA
ATOM     14  C   UNL A   1      33.618  17.875  23.887  1.00  0.00     0.311 A 
ATOM     15  C   UNL A   1      34.332  18.607  24.832  1.00  0.00     0.093 A 
ATOM     16  C   UNL A   1      34.021  19.951  25.001  1.00  0.00     0.054 A 
BRANCH  12  17
ATOM     17  N   UNL A   1      31.790  17.839  22.257  1.00  0.00    -0.378 N 
ATOM     18  H   UNL A   1      32.004  16.917  21.986  1.00  0.00     0.158 HD
ATOM     19  H   UNL A   1      31.006  18.296  21.875  1.00  0.00     0.158 HD
ENDBRANCH  12  17
BRANCH  14  20
ATOM     20  N   UNL A   1      34.000  16.493  23.636  1.00  0.00     0.066 N 
ATOM     21  O   UNL A   1      33.915  15.698  24.585  1.00  0.00    -0.258 OA
ATOM     22  O   UNL A   1      34.433  16.195  22.512  1.00  0.00    -0.258 OA
ENDBRANCH  14  20
ENDBRANCH   6  11
ENDBRANCH   3   5
ENDBRANCH   2   3
ENDBRANCH   1   2
BRANCH   1  23
ATOM     23  C   UNL A   1      36.833  22.532  24.864  1.00  0.00     0.275 C 
BRANCH  23  24
ATOM     24  O   UNL A   1      37.788  23.536  25.243  1.00  0.00    -0.458 OA
BRANCH  24  25
ATOM     25  C   UNL A   1      38.770  23.133  26.075  1.00  0.00     0.338 C 
ATOM     26  O   UNL A   1      39.189  22.007  26.271  1.00  0.00    -0.246 OA
BRANCH  25  27
ATOM     27  C   UNL A   1      39.265  24.309  26.800  1.00  0.00     0.060 A 
ATOM     28  C   UNL A   1      38.869  24.533  28.121  1.00  0.00     0.016 A 
ATOM     29  C   UNL A   1      40.048  25.241  26.122  1.00  0.00     0.016 A 
ATOM     30  C   UNL A   1      39.247  25.703  28.772  1.00  0.00     0.010 A 
ATOM     31  C   UNL A   1      40.457  26.395  26.787  1.00  0.00     0.010 A 
ATOM     32  C   UNL A   1      40.048  26.641  28.109  1.00  0.00    -0.014 A 
BRANCH  32  33
ATOM     33  C   UNL A   1      40.420  27.912  28.768  1.00  0.00     0.031 A 
ATOM     34  C   UNL A   1      41.787  28.062  29.366  1.00  0.00     0.074 A 
ATOM     35  C   UNL A   1      39.530  28.916  28.846  1.00  0.00     0.049 A 
ATOM     36  N   UNL A   1      42.257  29.017  30.126  1.00  0.00    -0.248 NA
ATOM     37  C   UNL A   1      42.751  26.988  29.076  1.00  0.00     0.031 C 
ATOM     38  C   UNL A   1      38.193  28.916  28.248  1.00  0.00     0.029 A 
ATOM     39  N   UNL A   1      39.619  30.135  29.470  1.00  0.00    -0.354 N 
ATOM     40  C   UNL A   1      43.559  28.644  30.434  1.00  0.00     0.074 A 
ATOM     41  C   UNL A   1      43.799  27.370  29.790  1.00  0.00     0.031 C 
ATOM     42  C   UNL A   1      37.591  30.083  28.527  1.00  0.00     0.029 A 
ATOM     43  C   UNL A   1      38.472  30.884  29.371  1.00  0.00     0.049 A 
ATOM     44  H   UNL A   1      40.426  30.441  29.943  1.00  0.00     0.167 HD
ATOM     45  C   UNL A   1      44.469  29.306  31.188  1.00  0.00     0.031 A 
ATOM     46  C   UNL A   1      38.158  32.067  29.928  1.00  0.00     0.031 A 
ATOM     47  C   UNL A   1      44.226  30.576  31.819  1.00  0.00     0.049 A 
ATOM     48  C   UNL A   1      39.155  32.742  30.827  1.00  0.00     0.074 A 
ATOM     49  C   UNL A   1      45.083  31.331  32.600  1.00  0.00     0.029 A 
ATOM     50  N   UNL A   1      43.036  31.281  31.733  1.00  0.00    -0.354 N 
ATOM     51  N   UNL A   1      40.371  32.367  31.141  1.00  0.00    -0.248 NA
ATOM     52  C   UNL A   1      38.728  33.998  31.460  1.00  0.00     0.031 C 
ATOM     53  C   UNL A   1      44.396  32.474  33.022  1.00  0.00     0.029 A 
ATOM     54  C   UNL A   1      43.127  32.453  32.464  1.00  0.00     0.049 A 
ATOM     55  H   UNL A   1      42.243  30.990  31.228  1.00  0.00     0.167 HD
ATOM     56  C   UNL A   1      40.864  33.351  31.988  1.00  0.00     0.074 A 
ATOM     57  C   UNL A   1      39.818  34.344  32.130  1.00  0.00     0.031 C 
ATOM     58  C   UNL A   1      42.074  33.425  32.594  1.00  0.00     0.031 A 
BRANCH  45  59
ATOM     59  C   UNL A   1      45.796  28.635  31.402  1.00  0.00    -0.014 A 
ATOM     60  C   UNL A   1      45.967  27.646  32.382  1.00  0.00     0.009 A 
ATOM     61  C   UNL A   1      46.892  28.998  30.603  1.00  0.00     0.009 A 
ATOM     62  C   UNL A   1      47.220  27.062  32.585  1.00  0.00     0.001 A 
ATOM     63  C   UNL A   1      48.136  28.394  30.791  1.00  0.00     0.001 A 
ATOM     64  C   UNL A   1      48.301  27.434  31.788  1.00  0.00     0.000 A 
ENDBRANCH  45  59
BRANCH  46  65
ATOM     65  C   UNL A   1      36.829  32.679  29.675  1.00  0.00    -0.014 A 
ATOM     66  C   UNL A   1      35.780  32.497  30.588  1.00  0.00     0.009 A 
ATOM     67  C   UNL A   1      36.602  33.446  28.521  1.00  0.00     0.009 A 
ATOM     68  C   UNL A   1      34.524  33.058  30.343  1.00  0.00     0.001 A 
ATOM     69  C   UNL A   1      35.354  34.026  28.292  1.00  0.00     0.001 A 
ATOM     70  C   UNL A   1      34.314  33.826  29.198  1.00  0.00     0.000 A 
ENDBRANCH  46  65
BRANCH  58  71
ATOM     71  C   UNL A   1      42.340  34.641  33.435  1.00  0.00    -0.014 A 
ATOM     72  C   UNL A   1      42.057  34.651  34.808  1.00  0.00     0.009 A 
ATOM     73  C   UNL A   1      42.911  35.780  32.846  1.00  0.00     0.009 A 
ATOM     74  C   UNL A   1      42.315  35.791  35.572  1.00  0.00     0.001 A 
ATOM     75  C   UNL A   1      43.189  36.909  33.616  1.00  0.00     0.001 A 
ATOM     76  C   UNL A   1      42.884  36.917  34.976  1.00  0.00     0.000 A 
ENDBRANCH  58  71
ENDBRANCH  32  33
ENDBRANCH  25  27
ENDBRANCH  24  25
ENDBRANCH  23  24
ENDBRANCH   1  23
TORSDOF 14
ENDMDL
