MODEL 1
REMARK VINA RESULT:      -8.9      0.000      0.000
REMARK SMILES CC[C@H](CCO)CNc1cc(C(=O)OCCOC(=O)c2ccc(-c3c4nc(c(-c5ccccc5)c5ccc([nH]5)c(-c5ccccc5)c5nc(c(-c6ccccc6)c6ccc3[nH]6)C=C5)C=C4)cc2)ccn1
REMARK SMILES IDX 12 1 13 2 11 3 9 4 10 5 70 6 69 7 68 8 8 9 7 11 3 12 2 13
REMARK SMILES IDX 1 14 4 15 5 16 6 17 14 19 15 20 16 21 17 22 18 23 19 24
REMARK SMILES IDX 20 25 21 26 67 27 22 28 66 29 23 30 24 31 25 32 60 33 26 34
REMARK SMILES IDX 65 35 59 36 61 37 27 38 64 39 58 40 57 41 28 43 50 44 35 45
REMARK SMILES IDX 49 46 36 47 39 48 48 49 62 50 37 51 38 52 47 54 63 55 40 56
REMARK SMILES IDX 29 57 30 58 34 59 31 60 33 61 32 62 51 63 52 64 56 65 53 66
REMARK SMILES IDX 55 67 54 68 41 69 42 70 46 71 43 72 45 73 44 74
REMARK H PARENT 8 10 6 18 61 42 39 53
REMARK Flexibility Score: inf
ROOT
ATOM      1  C   UNL A   1      42.781  19.017  25.624  1.00  0.00     0.338 C 
ATOM      2  O   UNL A   1      42.652  17.815  25.781  1.00  0.00    -0.246 OA
ENDROOT
BRANCH   1   3
ATOM      3  C   UNL A   1      44.098  19.652  25.379  1.00  0.00     0.065 A 
ATOM      4  C   UNL A   1      45.514  21.564  25.164  1.00  0.00     0.126 A 
ATOM      5  C   UNL A   1      44.257  21.033  25.410  1.00  0.00     0.062 A 
ATOM      6  N   UNL A   1      46.578  20.792  24.865  1.00  0.00    -0.240 NA
ATOM      7  C   UNL A   1      46.403  19.455  24.843  1.00  0.00     0.114 A 
ATOM      8  C   UNL A   1      45.200  18.840  25.123  1.00  0.00     0.036 A 
BRANCH   4   9
ATOM      9  N   UNL A   1      45.759  22.919  25.230  1.00  0.00    -0.370 N 
ATOM     10  H   UNL A   1      46.684  23.254  25.261  1.00  0.00     0.162 HD
BRANCH   9  11
ATOM     11  C   UNL A   1      44.642  23.845  25.253  1.00  0.00     0.118 C 
BRANCH  11  12
ATOM     12  C   UNL A   1      44.543  24.609  26.600  1.00  0.00     0.010 C 
BRANCH  12  13
ATOM     13  C   UNL A   1      43.404  23.944  27.415  1.00  0.00     0.002 C 
ATOM     14  C   UNL A   1      43.682  23.678  28.887  1.00  0.00     0.004 C 
ENDBRANCH  12  13
BRANCH  12  15
ATOM     15  C   UNL A   1      44.361  26.132  26.377  1.00  0.00     0.033 C 
BRANCH  15  16
ATOM     16  C   UNL A   1      43.915  26.486  24.956  1.00  0.00     0.156 C 
BRANCH  16  17
ATOM     17  O   UNL A   1      43.329  27.776  24.905  1.00  0.00    -0.396 OA
ATOM     18  H   UNL A   1      43.921  28.417  25.326  1.00  0.00     0.210 HD
ENDBRANCH  16  17
ENDBRANCH  15  16
ENDBRANCH  12  15
ENDBRANCH  11  12
ENDBRANCH   9  11
ENDBRANCH   4   9
ENDBRANCH   1   3
BRANCH   1  19
ATOM     19  O   UNL A   1      41.789  19.939  25.560  1.00  0.00    -0.458 OA
BRANCH  19  20
ATOM     20  C   UNL A   1      40.823  19.918  26.630  1.00  0.00     0.275 C 
BRANCH  20  21
ATOM     21  C   UNL A   1      40.765  21.273  27.334  1.00  0.00     0.275 C 
BRANCH  21  22
ATOM     22  O   UNL A   1      40.634  22.313  26.350  1.00  0.00    -0.458 OA
BRANCH  22  23
ATOM     23  C   UNL A   1      39.437  22.941  26.302  1.00  0.00     0.338 C 
ATOM     24  O   UNL A   1      38.387  22.523  25.852  1.00  0.00    -0.246 OA
BRANCH  23  25
ATOM     25  C   UNL A   1      39.576  24.260  26.937  1.00  0.00     0.060 A 
ATOM     26  C   UNL A   1      40.249  25.268  26.250  1.00  0.00     0.016 A 
ATOM     27  C   UNL A   1      39.134  24.472  28.240  1.00  0.00     0.016 A 
ATOM     28  C   UNL A   1      40.528  26.481  26.873  1.00  0.00     0.010 A 
ATOM     29  C   UNL A   1      39.357  25.714  28.845  1.00  0.00     0.010 A 
ATOM     30  C   UNL A   1      40.077  26.723  28.177  1.00  0.00    -0.014 A 
BRANCH  30  31
ATOM     31  C   UNL A   1      40.409  28.002  28.858  1.00  0.00     0.031 A 
ATOM     32  C   UNL A   1      41.775  28.203  29.458  1.00  0.00     0.074 A 
ATOM     33  C   UNL A   1      39.506  29.000  28.924  1.00  0.00     0.049 A 
ATOM     34  N   UNL A   1      42.208  29.173  30.225  1.00  0.00    -0.248 NA
ATOM     35  C   UNL A   1      42.786  27.173  29.165  1.00  0.00     0.031 C 
ATOM     36  C   UNL A   1      38.164  28.973  28.338  1.00  0.00     0.029 A 
ATOM     37  N   UNL A   1      39.585  30.240  29.511  1.00  0.00    -0.354 N 
ATOM     38  C   UNL A   1      43.518  28.841  30.551  1.00  0.00     0.074 A 
ATOM     39  C   UNL A   1      43.812  27.585  29.896  1.00  0.00     0.031 C 
ATOM     40  C   UNL A   1      37.561  30.152  28.566  1.00  0.00     0.029 A 
ATOM     41  C   UNL A   1      38.440  30.986  29.379  1.00  0.00     0.049 A 
ATOM     42  H   UNL A   1      40.388  30.562  29.981  1.00  0.00     0.167 HD
ATOM     43  C   UNL A   1      44.394  29.518  31.330  1.00  0.00     0.031 A 
ATOM     44  C   UNL A   1      38.113  32.189  29.887  1.00  0.00     0.031 A 
ATOM     45  C   UNL A   1      44.121  30.789  31.947  1.00  0.00     0.049 A 
ATOM     46  C   UNL A   1      39.090  32.906  30.775  1.00  0.00     0.074 A 
ATOM     47  C   UNL A   1      44.951  31.552  32.751  1.00  0.00     0.029 A 
ATOM     48  N   UNL A   1      42.935  31.491  31.814  1.00  0.00    -0.354 N 
ATOM     49  N   UNL A   1      40.302  32.551  31.125  1.00  0.00    -0.248 NA
ATOM     50  C   UNL A   1      38.643  34.182  31.354  1.00  0.00     0.031 C 
ATOM     51  C   UNL A   1      44.254  32.704  33.130  1.00  0.00     0.029 A 
ATOM     52  C   UNL A   1      43.006  32.674  32.529  1.00  0.00     0.049 A 
ATOM     53  H   UNL A   1      42.157  31.192  31.289  1.00  0.00     0.167 HD
ATOM     54  C   UNL A   1      40.764  33.559  31.959  1.00  0.00     0.074 A 
ATOM     55  C   UNL A   1      39.713  34.552  32.044  1.00  0.00     0.031 C 
ATOM     56  C   UNL A   1      41.951  33.649  32.605  1.00  0.00     0.031 A 
BRANCH  43  57
ATOM     57  C   UNL A   1      45.723  28.873  31.599  1.00  0.00    -0.014 A 
ATOM     58  C   UNL A   1      45.905  27.985  32.670  1.00  0.00     0.009 A 
ATOM     59  C   UNL A   1      46.800  29.130  30.735  1.00  0.00     0.009 A 
ATOM     60  C   UNL A   1      47.149  27.388  32.885  1.00  0.00     0.001 A 
ATOM     61  C   UNL A   1      48.035  28.514  30.939  1.00  0.00     0.001 A 
ATOM     62  C   UNL A   1      48.211  27.649  32.019  1.00  0.00     0.000 A 
ENDBRANCH  43  57
BRANCH  44  63
ATOM     63  C   UNL A   1      36.773  32.770  29.615  1.00  0.00    -0.014 A 
ATOM     64  C   UNL A   1      36.538  33.509  28.446  1.00  0.00     0.009 A 
ATOM     65  C   UNL A   1      35.723  32.596  30.532  1.00  0.00     0.009 A 
ATOM     66  C   UNL A   1      35.282  34.073  28.209  1.00  0.00     0.001 A 
ATOM     67  C   UNL A   1      34.462  33.138  30.278  1.00  0.00     0.001 A 
ATOM     68  C   UNL A   1      34.244  33.882  29.121  1.00  0.00     0.000 A 
ENDBRANCH  44  63
BRANCH  56  69
ATOM     69  C   UNL A   1      42.182  34.874  33.440  1.00  0.00    -0.014 A 
ATOM     70  C   UNL A   1      41.719  34.943  34.764  1.00  0.00     0.009 A 
ATOM     71  C   UNL A   1      42.897  35.957  32.908  1.00  0.00     0.009 A 
ATOM     72  C   UNL A   1      41.945  36.089  35.529  1.00  0.00     0.001 A 
ATOM     73  C   UNL A   1      43.139  37.092  33.683  1.00  0.00     0.001 A 
ATOM     74  C   UNL A   1      42.657  37.160  34.989  1.00  0.00     0.000 A 
ENDBRANCH  56  69
ENDBRANCH  30  31
ENDBRANCH  23  25
ENDBRANCH  22  23
ENDBRANCH  21  22
ENDBRANCH  20  21
ENDBRANCH  19  20
ENDBRANCH   1  19
TORSDOF 18
ENDMDL
MODEL 2
REMARK VINA RESULT:      -8.8      1.236      6.295
REMARK SMILES CC[C@H](CCO)CNc1cc(C(=O)OCCOC(=O)c2ccc(-c3c4nc(c(-c5ccccc5)c5ccc([nH]5)c(-c5ccccc5)c5nc(c(-c6ccccc6)c6ccc3[nH]6)C=C5)C=C4)cc2)ccn1
REMARK SMILES IDX 12 1 13 2 11 3 9 4 10 5 70 6 69 7 68 8 8 9 7 11 3 12 2 13
REMARK SMILES IDX 1 14 4 15 5 16 6 17 14 19 15 20 16 21 17 22 18 23 19 24
REMARK SMILES IDX 20 25 21 26 67 27 22 28 66 29 23 30 24 31 25 32 60 33 26 34
REMARK SMILES IDX 65 35 59 36 61 37 27 38 64 39 58 40 57 41 28 43 50 44 35 45
REMARK SMILES IDX 49 46 36 47 39 48 48 49 62 50 37 51 38 52 47 54 63 55 40 56
REMARK SMILES IDX 29 57 30 58 34 59 31 60 33 61 32 62 51 63 52 64 56 65 53 66
REMARK SMILES IDX 55 67 54 68 41 69 42 70 46 71 43 72 45 73 44 74
REMARK H PARENT 8 10 6 18 61 42 39 53
REMARK Flexibility Score: inf
ROOT
ATOM      1  C   UNL A   1      42.718  18.904  25.613  1.00  0.00     0.338 C 
ATOM      2  O   UNL A   1      42.672  17.693  25.750  1.00  0.00    -0.246 OA
ENDROOT
BRANCH   1   3
ATOM      3  C   UNL A   1      43.992  19.638  25.428  1.00  0.00     0.065 A 
ATOM      4  C   UNL A   1      45.249  21.648  25.130  1.00  0.00     0.126 A 
ATOM      5  C   UNL A   1      44.024  21.023  25.310  1.00  0.00     0.062 A 
ATOM      6  N   UNL A   1      46.403  20.959  25.032  1.00  0.00    -0.240 NA
ATOM      7  C   UNL A   1      46.351  19.616  25.150  1.00  0.00     0.114 A 
ATOM      8  C   UNL A   1      45.183  18.918  25.379  1.00  0.00     0.036 A 
BRANCH   4   9
ATOM      9  N   UNL A   1      45.364  23.020  25.060  1.00  0.00    -0.370 N 
ATOM     10  H   UNL A   1      46.246  23.437  24.929  1.00  0.00     0.162 HD
BRANCH   9  11
ATOM     11  C   UNL A   1      44.174  23.842  25.180  1.00  0.00     0.118 C 
BRANCH  11  12
ATOM     12  C   UNL A   1      44.107  24.578  26.544  1.00  0.00     0.010 C 
BRANCH  12  13
ATOM     13  C   UNL A   1      45.569  24.830  26.995  1.00  0.00     0.002 C 
ATOM     14  C   UNL A   1      46.158  26.196  26.673  1.00  0.00     0.004 C 
ENDBRANCH  12  13
BRANCH  12  15
ATOM     15  C   UNL A   1      43.249  23.796  27.571  1.00  0.00     0.033 C 
BRANCH  15  16
ATOM     16  C   UNL A   1      44.079  23.137  28.676  1.00  0.00     0.156 C 
BRANCH  16  17
ATOM     17  O   UNL A   1      43.254  22.640  29.715  1.00  0.00    -0.396 OA
ATOM     18  H   UNL A   1      42.324  22.814  29.501  1.00  0.00     0.210 HD
ENDBRANCH  16  17
ENDBRANCH  15  16
ENDBRANCH  12  15
ENDBRANCH  11  12
ENDBRANCH   9  11
ENDBRANCH   4   9
ENDBRANCH   1   3
BRANCH   1  19
ATOM     19  O   UNL A   1      41.663  19.751  25.522  1.00  0.00    -0.458 OA
BRANCH  19  20
ATOM     20  C   UNL A   1      40.780  19.801  26.662  1.00  0.00     0.275 C 
BRANCH  20  21
ATOM     21  C   UNL A   1      40.702  21.219  27.225  1.00  0.00     0.275 C 
BRANCH  21  22
ATOM     22  O   UNL A   1      40.431  22.140  26.154  1.00  0.00    -0.458 OA
BRANCH  22  23
ATOM     23  C   UNL A   1      39.254  22.804  26.223  1.00  0.00     0.338 C 
ATOM     24  O   UNL A   1      38.151  22.416  25.885  1.00  0.00    -0.246 OA
BRANCH  23  25
ATOM     25  C   UNL A   1      39.496  24.121  26.831  1.00  0.00     0.060 A 
ATOM     26  C   UNL A   1      40.177  25.086  26.092  1.00  0.00     0.016 A 
ATOM     27  C   UNL A   1      39.143  24.369  28.155  1.00  0.00     0.016 A 
ATOM     28  C   UNL A   1      40.552  26.290  26.680  1.00  0.00     0.010 A 
ATOM     29  C   UNL A   1      39.463  25.605  28.729  1.00  0.00     0.010 A 
ATOM     30  C   UNL A   1      40.192  26.568  28.006  1.00  0.00    -0.014 A 
BRANCH  30  31
ATOM     31  C   UNL A   1      40.628  27.837  28.648  1.00  0.00     0.031 A 
ATOM     32  C   UNL A   1      39.633  28.942  28.882  1.00  0.00     0.074 A 
ATOM     33  C   UNL A   1      41.904  28.000  29.049  1.00  0.00     0.049 A 
ATOM     34  N   UNL A   1      39.841  30.173  29.279  1.00  0.00    -0.248 NA
ATOM     35  C   UNL A   1      38.218  28.624  28.628  1.00  0.00     0.031 C 
ATOM     36  C   UNL A   1      42.966  26.997  28.942  1.00  0.00     0.029 A 
ATOM     37  N   UNL A   1      42.525  29.077  29.636  1.00  0.00    -0.354 N 
ATOM     38  C   UNL A   1      38.596  30.790  29.267  1.00  0.00     0.074 A 
ATOM     39  C   UNL A   1      37.637  29.798  28.829  1.00  0.00     0.031 C 
ATOM     40  C   UNL A   1      44.094  27.493  29.477  1.00  0.00     0.029 A 
ATOM     41  C   UNL A   1      43.859  28.872  29.891  1.00  0.00     0.049 A 
ATOM     42  H   UNL A   1      42.057  29.916  29.854  1.00  0.00     0.167 HD
ATOM     43  C   UNL A   1      38.281  32.067  29.584  1.00  0.00     0.031 A 
ATOM     44  C   UNL A   1      44.800  29.709  30.366  1.00  0.00     0.031 A 
ATOM     45  C   UNL A   1      39.223  33.043  30.062  1.00  0.00     0.049 A 
ATOM     46  C   UNL A   1      44.433  31.131  30.681  1.00  0.00     0.074 A 
ATOM     47  C   UNL A   1      38.994  34.363  30.414  1.00  0.00     0.029 A 
ATOM     48  N   UNL A   1      40.571  32.801  30.271  1.00  0.00    -0.354 N 
ATOM     49  N   UNL A   1      43.263  31.717  30.606  1.00  0.00    -0.248 NA
ATOM     50  C   UNL A   1      45.522  32.011  31.129  1.00  0.00     0.031 C 
ATOM     51  C   UNL A   1      40.212  34.929  30.808  1.00  0.00     0.029 A 
ATOM     52  C   UNL A   1      41.189  33.949  30.738  1.00  0.00     0.049 A 
ATOM     53  H   UNL A   1      41.022  31.940  30.113  1.00  0.00     0.167 HD
ATOM     54  C   UNL A   1      43.474  33.031  31.000  1.00  0.00     0.074 A 
ATOM     55  C   UNL A   1      44.877  33.151  31.337  1.00  0.00     0.031 C 
ATOM     56  C   UNL A   1      42.585  34.051  31.067  1.00  0.00     0.031 A 
BRANCH  43  57
ATOM     57  C   UNL A   1      36.858  32.500  29.382  1.00  0.00    -0.014 A 
ATOM     58  C   UNL A   1      36.409  32.993  28.147  1.00  0.00     0.009 A 
ATOM     59  C   UNL A   1      35.942  32.371  30.439  1.00  0.00     0.009 A 
ATOM     60  C   UNL A   1      35.074  33.372  27.985  1.00  0.00     0.001 A 
ATOM     61  C   UNL A   1      34.605  32.729  30.267  1.00  0.00     0.001 A 
ATOM     62  C   UNL A   1      34.173  33.237  29.042  1.00  0.00     0.000 A 
ENDBRANCH  43  57
BRANCH  44  63
ATOM     63  C   UNL A   1      46.201  29.240  30.520  1.00  0.00    -0.014 A 
ATOM     64  C   UNL A   1      47.104  29.321  29.448  1.00  0.00     0.009 A 
ATOM     65  C   UNL A   1      46.641  28.698  31.738  1.00  0.00     0.009 A 
ATOM     66  C   UNL A   1      48.413  28.856  29.593  1.00  0.00     0.001 A 
ATOM     67  C   UNL A   1      47.957  28.260  31.887  1.00  0.00     0.001 A 
ATOM     68  C   UNL A   1      48.840  28.332  30.812  1.00  0.00     0.000 A 
ENDBRANCH  44  63
BRANCH  56  69
ATOM     69  C   UNL A   1      43.102  35.376  31.544  1.00  0.00    -0.014 A 
ATOM     70  C   UNL A   1      43.066  35.718  32.905  1.00  0.00     0.009 A 
ATOM     71  C   UNL A   1      43.660  36.280  30.627  1.00  0.00     0.009 A 
ATOM     72  C   UNL A   1      43.555  36.954  33.334  1.00  0.00     0.001 A 
ATOM     73  C   UNL A   1      44.167  37.504  31.062  1.00  0.00     0.001 A 
ATOM     74  C   UNL A   1      44.107  37.844  32.412  1.00  0.00     0.000 A 
ENDBRANCH  56  69
ENDBRANCH  30  31
ENDBRANCH  23  25
ENDBRANCH  22  23
ENDBRANCH  21  22
ENDBRANCH  20  21
ENDBRANCH  19  20
ENDBRANCH   1  19
TORSDOF 18
ENDMDL
MODEL 3
REMARK VINA RESULT:      -8.1      4.533      7.295
REMARK SMILES CC[C@H](CCO)CNc1cc(C(=O)OCCOC(=O)c2ccc(-c3c4nc(c(-c5ccccc5)c5ccc([nH]5)c(-c5ccccc5)c5nc(c(-c6ccccc6)c6ccc3[nH]6)C=C5)C=C4)cc2)ccn1
REMARK SMILES IDX 12 1 13 2 11 3 9 4 10 5 70 6 69 7 68 8 8 9 7 11 3 12 2 13
REMARK SMILES IDX 1 14 4 15 5 16 6 17 14 19 15 20 16 21 17 22 18 23 19 24
REMARK SMILES IDX 20 25 21 26 67 27 22 28 66 29 23 30 24 31 25 32 60 33 26 34
REMARK SMILES IDX 65 35 59 36 61 37 27 38 64 39 58 40 57 41 28 43 50 44 35 45
REMARK SMILES IDX 49 46 36 47 39 48 48 49 62 50 37 51 38 52 47 54 63 55 40 56
REMARK SMILES IDX 29 57 30 58 34 59 31 60 33 61 32 62 51 63 52 64 56 65 53 66
REMARK SMILES IDX 55 67 54 68 41 69 42 70 46 71 43 72 45 73 44 74
REMARK H PARENT 8 10 6 18 61 42 39 53
REMARK Flexibility Score: inf
ROOT
ATOM      1  C   UNL A   1      36.895  22.047  25.120  1.00  0.00     0.338 C 
ATOM      2  O   UNL A   1      37.142  22.895  24.278  1.00  0.00    -0.246 OA
ENDROOT
BRANCH   1   3
ATOM      3  C   UNL A   1      35.523  21.801  25.625  1.00  0.00     0.065 A 
ATOM      4  C   UNL A   1      33.560  20.456  25.837  1.00  0.00     0.126 A 
ATOM      5  C   UNL A   1      34.844  20.621  25.342  1.00  0.00     0.062 A 
ATOM      6  N   UNL A   1      32.935  21.411  26.554  1.00  0.00    -0.240 NA
ATOM      7  C   UNL A   1      33.611  22.548  26.819  1.00  0.00     0.114 A 
ATOM      8  C   UNL A   1      34.909  22.775  26.408  1.00  0.00     0.036 A 
BRANCH   4   9
ATOM      9  N   UNL A   1      32.847  19.292  25.643  1.00  0.00    -0.370 N 
ATOM     10  H   UNL A   1      32.421  18.839  26.406  1.00  0.00     0.162 HD
BRANCH   9  11
ATOM     11  C   UNL A   1      32.730  18.743  24.305  1.00  0.00     0.118 C 
BRANCH  11  12
ATOM     12  C   UNL A   1      32.903  17.201  24.288  1.00  0.00     0.010 C 
BRANCH  12  13
ATOM     13  C   UNL A   1      32.455  16.680  25.679  1.00  0.00     0.002 C 
ATOM     14  C   UNL A   1      32.188  15.187  25.796  1.00  0.00     0.004 C 
ENDBRANCH  12  13
BRANCH  12  15
ATOM     15  C   UNL A   1      34.344  16.794  23.889  1.00  0.00     0.033 C 
BRANCH  15  16
ATOM     16  C   UNL A   1      35.227  16.441  25.089  1.00  0.00     0.156 C 
BRANCH  16  17
ATOM     17  O   UNL A   1      35.530  15.057  25.118  1.00  0.00    -0.396 OA
ATOM     18  H   UNL A   1      35.383  14.676  24.238  1.00  0.00     0.210 HD
ENDBRANCH  16  17
ENDBRANCH  15  16
ENDBRANCH  12  15
ENDBRANCH  11  12
ENDBRANCH   9  11
ENDBRANCH   4   9
ENDBRANCH   1   3
BRANCH   1  19
ATOM     19  O   UNL A   1      37.767  21.160  25.659  1.00  0.00    -0.458 OA
BRANCH  19  20
ATOM     20  C   UNL A   1      38.074  19.997  24.864  1.00  0.00     0.275 C 
BRANCH  20  21
ATOM     21  C   UNL A   1      39.258  19.234  25.454  1.00  0.00     0.275 C 
BRANCH  21  22
ATOM     22  O   UNL A   1      39.648  19.849  26.695  1.00  0.00    -0.458 OA
BRANCH  22  23
ATOM     23  C   UNL A   1      40.973  20.060  26.865  1.00  0.00     0.338 C 
ATOM     24  O   UNL A   1      41.880  19.255  26.773  1.00  0.00    -0.246 OA
BRANCH  23  25
ATOM     25  C   UNL A   1      41.184  21.486  27.158  1.00  0.00     0.060 A 
ATOM     26  C   UNL A   1      40.588  22.436  26.332  1.00  0.00     0.016 A 
ATOM     27  C   UNL A   1      42.044  21.881  28.179  1.00  0.00     0.016 A 
ATOM     28  C   UNL A   1      40.880  23.788  26.488  1.00  0.00     0.010 A 
ATOM     29  C   UNL A   1      42.289  23.245  28.378  1.00  0.00     0.010 A 
ATOM     30  C   UNL A   1      41.729  24.211  27.519  1.00  0.00    -0.014 A 
BRANCH  30  31
ATOM     31  C   UNL A   1      42.074  25.650  27.661  1.00  0.00     0.031 A 
ATOM     32  C   UNL A   1      43.301  26.200  26.985  1.00  0.00     0.074 A 
ATOM     33  C   UNL A   1      41.284  26.479  28.371  1.00  0.00     0.049 A 
ATOM     34  N   UNL A   1      43.858  27.379  27.112  1.00  0.00    -0.248 NA
ATOM     35  C   UNL A   1      43.999  25.304  26.048  1.00  0.00     0.031 C 
ATOM     36  C   UNL A   1      40.032  26.103  29.034  1.00  0.00     0.029 A 
ATOM     37  N   UNL A   1      41.414  27.818  28.650  1.00  0.00    -0.354 N 
ATOM     38  C   UNL A   1      44.999  27.345  26.319  1.00  0.00     0.074 A 
ATOM     39  C   UNL A   1      45.053  26.033  25.711  1.00  0.00     0.031 C 
ATOM     40  C   UNL A   1      39.496  27.191  29.610  1.00  0.00     0.029 A 
ATOM     41  C   UNL A   1      40.400  28.321  29.428  1.00  0.00     0.049 A 
ATOM     42  H   UNL A   1      42.165  28.366  28.321  1.00  0.00     0.167 HD
ATOM     43  C   UNL A   1      45.922  28.316  26.121  1.00  0.00     0.031 A 
ATOM     44  C   UNL A   1      40.234  29.542  29.970  1.00  0.00     0.031 A 
ATOM     45  C   UNL A   1      45.849  29.636  26.689  1.00  0.00     0.049 A 
ATOM     46  C   UNL A   1      41.287  30.593  29.762  1.00  0.00     0.074 A 
ATOM     47  C   UNL A   1      46.737  30.689  26.540  1.00  0.00     0.029 A 
ATOM     48  N   UNL A   1      44.822  30.090  27.499  1.00  0.00    -0.354 N 
ATOM     49  N   UNL A   1      42.392  30.527  29.060  1.00  0.00    -0.248 NA
ATOM     50  C   UNL A   1      41.077  31.882  30.439  1.00  0.00     0.031 C 
ATOM     51  C   UNL A   1      46.261  31.771  27.287  1.00  0.00     0.029 A 
ATOM     52  C   UNL A   1      45.058  31.404  27.867  1.00  0.00     0.049 A 
ATOM     53  H   UNL A   1      44.040  29.557  27.773  1.00  0.00     0.167 HD
ATOM     54  C   UNL A   1      43.006  31.762  29.207  1.00  0.00     0.074 A 
ATOM     55  C   UNL A   1      42.141  32.568  30.043  1.00  0.00     0.031 C 
ATOM     56  C   UNL A   1      44.188  32.189  28.701  1.00  0.00     0.031 A 
BRANCH  43  57
ATOM     57  C   UNL A   1      47.121  27.972  25.287  1.00  0.00    -0.014 A 
ATOM     58  C   UNL A   1      47.057  27.945  23.885  1.00  0.00     0.009 A 
ATOM     59  C   UNL A   1      48.347  27.709  25.919  1.00  0.00     0.009 A 
ATOM     60  C   UNL A   1      48.194  27.637  23.135  1.00  0.00     0.001 A 
ATOM     61  C   UNL A   1      49.486  27.423  25.165  1.00  0.00     0.001 A 
ATOM     62  C   UNL A   1      49.407  27.380  23.774  1.00  0.00     0.000 A 
ENDBRANCH  43  57
BRANCH  44  63
ATOM     63  C   UNL A   1      39.043  29.823  30.813  1.00  0.00    -0.014 A 
ATOM     64  C   UNL A   1      39.071  29.575  32.194  1.00  0.00     0.009 A 
ATOM     65  C   UNL A   1      37.868  30.333  30.238  1.00  0.00     0.009 A 
ATOM     66  C   UNL A   1      37.940  29.819  32.977  1.00  0.00     0.001 A 
ATOM     67  C   UNL A   1      36.750  30.602  31.028  1.00  0.00     0.001 A 
ATOM     68  C   UNL A   1      36.783  30.337  32.396  1.00  0.00     0.000 A 
ENDBRANCH  44  63
BRANCH  56  69
ATOM     69  C   UNL A   1      44.599  33.596  29.021  1.00  0.00    -0.014 A 
ATOM     70  C   UNL A   1      45.396  33.879  30.141  1.00  0.00     0.009 A 
ATOM     71  C   UNL A   1      44.211  34.646  28.175  1.00  0.00     0.009 A 
ATOM     72  C   UNL A   1      45.773  35.193  30.423  1.00  0.00     0.001 A 
ATOM     73  C   UNL A   1      44.608  35.955  28.448  1.00  0.00     0.001 A 
ATOM     74  C   UNL A   1      45.381  36.229  29.575  1.00  0.00     0.000 A 
ENDBRANCH  56  69
ENDBRANCH  30  31
ENDBRANCH  23  25
ENDBRANCH  22  23
ENDBRANCH  21  22
ENDBRANCH  20  21
ENDBRANCH  19  20
ENDBRANCH   1  19
TORSDOF 18
ENDMDL
