MODEL 1
REMARK VINA RESULT:     -10.3      0.000      0.000
REMARK SMILES CCN(C(=O)N(C)Cc1cccc(C)n1)C(C)(C)C(=O)OCCOC(=O)c1ccc(-c2c3nc(c(-c4ccccc4)c4ccc([nH]4)c(-c4ccccc4)c4nc(c(-c5ccccc5)c5ccc2[nH]5)C=C4)C=C3)cc1
REMARK SMILES IDX 21 1 19 2 20 3 16 4 17 5 18 6 3 7 2 8 1 9 4 10 5 11 6 12
REMARK SMILES IDX 7 13 8 14 9 15 10 16 15 17 11 18 13 19 12 20 14 21 22 22
REMARK SMILES IDX 23 23 24 24 25 25 26 26 27 27 28 28 74 29 29 30 73 31 30 32
REMARK SMILES IDX 31 33 32 34 67 35 33 36 72 37 66 38 68 39 34 40 71 41 65 42
REMARK SMILES IDX 64 43 35 45 57 46 42 47 56 48 43 49 46 50 55 51 69 52 44 53
REMARK SMILES IDX 45 54 54 56 70 57 47 58 36 59 37 60 41 61 38 62 40 63 39 64
REMARK SMILES IDX 58 65 59 66 63 67 60 68 62 69 61 70 48 71 49 72 53 73 50 74
REMARK SMILES IDX 52 75 51 76
REMARK H PARENT 68 44 46 55
REMARK Flexibility Score: inf
ROOT
ATOM      1  O   UNL A   1      37.346  21.979  26.112  1.00  0.00    -0.460 OA
ENDROOT
BRANCH   1   2
ATOM      2  C   UNL A   1      36.345  21.604  25.255  1.00  0.00     0.331 C 
ATOM      3  O   UNL A   1      36.143  20.427  24.983  1.00  0.00    -0.249 OA
BRANCH   2   4
ATOM      4  C   UNL A   1      35.564  22.849  24.651  1.00  0.00     0.136 C 
ATOM      5  C   UNL A   1      36.016  23.049  23.200  1.00  0.00     0.047 C 
ATOM      6  C   UNL A   1      36.015  24.098  25.456  1.00  0.00     0.047 C 
BRANCH   4   7
ATOM      7  N   UNL A   1      34.051  22.681  24.735  1.00  0.00    -0.309 N 
BRANCH   7   8
ATOM      8  C   UNL A   1      33.333  21.869  23.723  1.00  0.00     0.119 C 
ATOM      9  C   UNL A   1      32.704  20.545  24.153  1.00  0.00     0.027 C 
ENDBRANCH   7   8
BRANCH   7  10
ATOM     10  C   UNL A   1      33.461  22.747  26.024  1.00  0.00     0.321 C 
ATOM     11  O   UNL A   1      33.929  22.208  27.020  1.00  0.00    -0.248 OA
BRANCH  10  12
ATOM     12  N   UNL A   1      32.334  23.581  26.078  1.00  0.00    -0.322 N 
ATOM     13  C   UNL A   1      31.208  23.047  26.857  1.00  0.00     0.149 C 
BRANCH  12  14
ATOM     14  C   UNL A   1      32.567  25.095  26.141  1.00  0.00     0.177 C 
BRANCH  14  15
ATOM     15  C   UNL A   1      31.774  26.337  25.287  1.00  0.00     0.060 A 
ATOM     16  C   UNL A   1      30.235  26.461  23.969  1.00  0.00     0.026 A 
ATOM     17  N   UNL A   1      32.445  27.914  25.804  1.00  0.00    -0.256 NA
ATOM     18  C   UNL A   1      29.685  28.027  23.350  1.00  0.00     0.004 A 
ATOM     19  C   UNL A   1      31.756  29.394  25.135  1.00  0.00     0.038 A 
ATOM     20  C   UNL A   1      30.447  29.446  23.942  1.00  0.00     0.023 A 
ATOM     21  C   UNL A   1      31.690  30.646  26.006  1.00  0.00     0.067 C 
ENDBRANCH  14  15
ENDBRANCH  12  14
ENDBRANCH  10  12
ENDBRANCH   7  10
ENDBRANCH   4   7
ENDBRANCH   2   4
ENDBRANCH   1   2
BRANCH   1  22
ATOM     22  C   UNL A   1      38.695  21.649  25.711  1.00  0.00     0.274 C 
BRANCH  22  23
ATOM     23  C   UNL A   1      39.759  21.947  26.779  1.00  0.00     0.275 C 
BRANCH  23  24
ATOM     24  O   UNL A   1      40.662  22.994  26.377  1.00  0.00    -0.458 OA
BRANCH  24  25
ATOM     25  C   UNL A   1      40.350  24.200  26.896  1.00  0.00     0.338 C 
ATOM     26  O   UNL A   1      39.301  24.526  27.432  1.00  0.00    -0.246 OA
BRANCH  25  27
ATOM     27  C   UNL A   1      41.512  25.074  26.969  1.00  0.00     0.060 A 
ATOM     28  C   UNL A   1      42.040  25.837  25.478  1.00  0.00     0.016 A 
ATOM     29  C   UNL A   1      42.620  25.171  28.353  1.00  0.00     0.016 A 
ATOM     30  C   UNL A   1      43.579  26.758  25.290  1.00  0.00     0.010 A 
ATOM     31  C   UNL A   1      44.356  26.182  28.123  1.00  0.00     0.010 A 
ATOM     32  C   UNL A   1      44.690  27.019  26.609  1.00  0.00    -0.014 A 
BRANCH  32  33
ATOM     33  C   UNL A   1      45.821  27.954  26.672  1.00  0.00     0.031 A 
ATOM     34  C   UNL A   1      45.429  29.360  26.861  1.00  0.00     0.074 A 
ATOM     35  C   UNL A   1      47.083  27.623  26.305  1.00  0.00     0.049 A 
ATOM     36  N   UNL A   1      46.166  30.425  26.781  1.00  0.00    -0.248 NA
ATOM     37  C   UNL A   1      43.985  29.605  27.019  1.00  0.00     0.031 C 
ATOM     38  C   UNL A   1      47.511  26.346  25.751  1.00  0.00     0.029 A 
ATOM     39  N   UNL A   1      48.265  28.322  26.337  1.00  0.00    -0.354 N 
ATOM     40  C   UNL A   1      45.266  31.469  26.837  1.00  0.00     0.074 A 
ATOM     41  C   UNL A   1      43.935  30.915  26.879  1.00  0.00     0.031 C 
ATOM     42  C   UNL A   1      48.847  26.240  25.761  1.00  0.00     0.029 A 
ATOM     43  C   UNL A   1      49.383  27.551  26.061  1.00  0.00     0.049 A 
ATOM     44  H   UNL A   1      48.314  29.285  26.539  1.00  0.00     0.167 HD
ATOM     45  C   UNL A   1      45.548  32.783  26.859  1.00  0.00     0.031 A 
ATOM     46  C   UNL A   1      50.686  27.886  25.964  1.00  0.00     0.031 A 
ATOM     47  C   UNL A   1      46.884  33.281  26.737  1.00  0.00     0.049 A 
ATOM     48  C   UNL A   1      50.976  29.357  26.024  1.00  0.00     0.074 A 
ATOM     49  C   UNL A   1      47.320  34.587  26.781  1.00  0.00     0.029 A 
ATOM     50  N   UNL A   1      48.000  32.479  26.519  1.00  0.00    -0.354 N 
ATOM     51  N   UNL A   1      50.133  30.347  26.200  1.00  0.00    -0.248 NA
ATOM     52  C   UNL A   1      52.367  29.771  25.821  1.00  0.00     0.031 C 
ATOM     53  C   UNL A   1      48.694  34.581  26.524  1.00  0.00     0.029 A 
ATOM     54  C   UNL A   1      49.129  33.267  26.415  1.00  0.00     0.049 A 
ATOM     55  H   UNL A   1      47.987  31.497  26.450  1.00  0.00     0.167 HD
ATOM     56  C   UNL A   1      50.886  31.503  26.145  1.00  0.00     0.074 A 
ATOM     57  C   UNL A   1      52.264  31.087  25.953  1.00  0.00     0.031 C 
ATOM     58  C   UNL A   1      50.479  32.793  26.234  1.00  0.00     0.031 A 
BRANCH  45  59
ATOM     59  C   UNL A   1      44.374  33.701  26.984  1.00  0.00    -0.014 A 
ATOM     60  C   UNL A   1      43.784  34.278  25.844  1.00  0.00     0.009 A 
ATOM     61  C   UNL A   1      43.909  34.067  28.252  1.00  0.00     0.009 A 
ATOM     62  C   UNL A   1      42.791  35.248  25.976  1.00  0.00     0.001 A 
ATOM     63  C   UNL A   1      42.883  35.002  28.379  1.00  0.00     0.001 A 
ATOM     64  C   UNL A   1      42.337  35.603  27.244  1.00  0.00     0.000 A 
ENDBRANCH  45  59
BRANCH  46  65
ATOM     65  C   UNL A   1      51.775  26.884  25.731  1.00  0.00    -0.014 A 
ATOM     66  C   UNL A   1      52.180  26.567  24.421  1.00  0.00     0.009 A 
ATOM     67  C   UNL A   1      52.410  26.213  26.790  1.00  0.00     0.009 A 
ATOM     68  C   UNL A   1      53.166  25.601  24.180  1.00  0.00     0.001 A 
ATOM     69  C   UNL A   1      53.427  25.280  26.551  1.00  0.00     0.001 A 
ATOM     70  C   UNL A   1      53.797  24.965  25.247  1.00  0.00     0.000 A 
ENDBRANCH  46  65
BRANCH  58  71
ATOM     71  C   UNL A   1      51.560  33.827  26.213  1.00  0.00    -0.014 A 
ATOM     72  C   UNL A   1      52.225  34.226  27.380  1.00  0.00     0.009 A 
ATOM     73  C   UNL A   1      51.942  34.370  24.977  1.00  0.00     0.009 A 
ATOM     74  C   UNL A   1      53.230  35.188  27.312  1.00  0.00     0.001 A 
ATOM     75  C   UNL A   1      52.979  35.293  24.906  1.00  0.00     0.001 A 
ATOM     76  C   UNL A   1      53.612  35.711  26.075  1.00  0.00     0.000 A 
ENDBRANCH  58  71
ENDBRANCH  32  33
ENDBRANCH  25  27
ENDBRANCH  24  25
ENDBRANCH  23  24
ENDBRANCH  22  23
ENDBRANCH   1  22
TORSDOF 17
ENDMDL
MODEL 2
REMARK VINA RESULT:      -9.7      5.097      8.364
REMARK SMILES CCN(C(=O)N(C)Cc1cccc(C)n1)C(C)(C)C(=O)OCCOC(=O)c1ccc(-c2c3nc(c(-c4ccccc4)c4ccc([nH]4)c(-c4ccccc4)c4nc(c(-c5ccccc5)c5ccc2[nH]5)C=C4)C=C3)cc1
REMARK SMILES IDX 21 1 19 2 20 3 16 4 17 5 18 6 3 7 2 8 1 9 4 10 5 11 6 12
REMARK SMILES IDX 7 13 8 14 9 15 10 16 15 17 11 18 13 19 12 20 14 21 22 22
REMARK SMILES IDX 23 23 24 24 25 25 26 26 27 27 28 28 74 29 29 30 73 31 30 32
REMARK SMILES IDX 31 33 32 34 67 35 33 36 72 37 66 38 68 39 34 40 71 41 65 42
REMARK SMILES IDX 64 43 35 45 57 46 42 47 56 48 43 49 46 50 55 51 69 52 44 53
REMARK SMILES IDX 45 54 54 56 70 57 47 58 36 59 37 60 41 61 38 62 40 63 39 64
REMARK SMILES IDX 58 65 59 66 63 67 60 68 62 69 61 70 48 71 49 72 53 73 50 74
REMARK SMILES IDX 52 75 51 76
REMARK H PARENT 68 44 46 55
REMARK Flexibility Score: inf
ROOT
ATOM      1  O   UNL A   1      33.491  29.989  25.938  1.00  0.00    -0.460 OA
ENDROOT
BRANCH   1   2
ATOM      2  C   UNL A   1      33.157  28.697  25.630  1.00  0.00     0.331 C 
ATOM      3  O   UNL A   1      33.594  27.751  26.274  1.00  0.00    -0.249 OA
BRANCH   2   4
ATOM      4  C   UNL A   1      32.218  28.600  24.351  1.00  0.00     0.136 C 
ATOM      5  C   UNL A   1      33.038  28.992  23.116  1.00  0.00     0.047 C 
ATOM      6  C   UNL A   1      31.103  29.665  24.529  1.00  0.00     0.047 C 
BRANCH   4   7
ATOM      7  N   UNL A   1      31.606  27.213  24.185  1.00  0.00    -0.309 N 
BRANCH   7   8
ATOM      8  C   UNL A   1      30.640  26.698  25.186  1.00  0.00     0.119 C 
ATOM      9  C   UNL A   1      30.873  25.314  25.789  1.00  0.00     0.027 C 
ENDBRANCH   7   8
BRANCH   7  10
ATOM     10  C   UNL A   1      31.464  26.720  22.862  1.00  0.00     0.321 C 
ATOM     11  O   UNL A   1      30.652  27.155  22.053  1.00  0.00    -0.248 OA
BRANCH  10  12
ATOM     12  N   UNL A   1      32.418  25.749  22.524  1.00  0.00    -0.322 N 
ATOM     13  C   UNL A   1      32.676  25.611  21.084  1.00  0.00     0.149 C 
BRANCH  12  14
ATOM     14  C   UNL A   1      33.614  25.563  23.465  1.00  0.00     0.177 C 
BRANCH  14  15
ATOM     15  C   UNL A   1      34.241  24.126  24.130  1.00  0.00     0.060 A 
ATOM     16  C   UNL A   1      33.849  22.141  23.968  1.00  0.00     0.026 A 
ATOM     17  N   UNL A   1      35.667  24.527  25.134  1.00  0.00    -0.256 NA
ATOM     18  C   UNL A   1      34.825  20.942  24.833  1.00  0.00     0.004 A 
ATOM     19  C   UNL A   1      36.571  23.215  25.893  1.00  0.00     0.038 A 
ATOM     20  C   UNL A   1      36.153  21.498  25.765  1.00  0.00     0.023 A 
ATOM     21  C   UNL A   1      38.083  23.352  26.062  1.00  0.00     0.067 C 
ENDBRANCH  14  15
ENDBRANCH  12  14
ENDBRANCH  10  12
ENDBRANCH   7  10
ENDBRANCH   4   7
ENDBRANCH   2   4
ENDBRANCH   1   2
BRANCH   1  22
ATOM     22  C   UNL A   1      33.139  30.447  27.263  1.00  0.00     0.274 C 
BRANCH  22  23
ATOM     23  C   UNL A   1      34.105  31.494  27.843  1.00  0.00     0.275 C 
BRANCH  23  24
ATOM     24  O   UNL A   1      33.684  31.972  29.134  1.00  0.00    -0.458 OA
BRANCH  24  25
ATOM     25  C   UNL A   1      34.629  32.694  29.772  1.00  0.00     0.338 C 
ATOM     26  O   UNL A   1      34.485  33.772  30.329  1.00  0.00    -0.246 OA
BRANCH  25  27
ATOM     27  C   UNL A   1      35.860  31.937  29.948  1.00  0.00     0.060 A 
ATOM     28  C   UNL A   1      37.052  32.031  28.661  1.00  0.00     0.016 A 
ATOM     29  C   UNL A   1      36.113  30.687  31.182  1.00  0.00     0.016 A 
ATOM     30  C   UNL A   1      38.528  31.001  28.558  1.00  0.00     0.010 A 
ATOM     31  C   UNL A   1      37.757  29.518  31.042  1.00  0.00     0.010 A 
ATOM     32  C   UNL A   1      38.943  29.820  29.773  1.00  0.00    -0.014 A 
BRANCH  32  33
ATOM     33  C   UNL A   1      40.218  29.116  29.957  1.00  0.00     0.031 A 
ATOM     34  C   UNL A   1      41.241  29.902  30.667  1.00  0.00     0.074 A 
ATOM     35  C   UNL A   1      40.543  27.977  29.299  1.00  0.00     0.049 A 
ATOM     36  N   UNL A   1      42.501  29.635  30.827  1.00  0.00    -0.248 NA
ATOM     37  C   UNL A   1      40.815  31.232  31.132  1.00  0.00     0.031 C 
ATOM     38  C   UNL A   1      39.736  27.307  28.288  1.00  0.00     0.029 A 
ATOM     39  N   UNL A   1      41.641  27.154  29.368  1.00  0.00    -0.354 N 
ATOM     40  C   UNL A   1      43.027  30.786  31.375  1.00  0.00     0.074 A 
ATOM     41  C   UNL A   1      41.976  31.772  31.448  1.00  0.00     0.031 C 
ATOM     42  C   UNL A   1      40.198  26.073  28.043  1.00  0.00     0.029 A 
ATOM     43  C   UNL A   1      41.499  25.965  28.670  1.00  0.00     0.049 A 
ATOM     44  H   UNL A   1      42.456  27.387  29.868  1.00  0.00     0.167 HD
ATOM     45  C   UNL A   1      44.291  30.985  31.788  1.00  0.00     0.031 A 
ATOM     46  C   UNL A   1      42.358  24.944  28.478  1.00  0.00     0.031 A 
ATOM     47  C   UNL A   1      45.314  29.998  31.621  1.00  0.00     0.049 A 
ATOM     48  C   UNL A   1      43.754  25.179  28.977  1.00  0.00     0.074 A 
ATOM     49  C   UNL A   1      46.629  30.050  32.027  1.00  0.00     0.029 A 
ATOM     50  N   UNL A   1      45.129  28.784  30.968  1.00  0.00    -0.354 N 
ATOM     51  N   UNL A   1      44.227  26.227  29.610  1.00  0.00    -0.248 NA
ATOM     52  C   UNL A   1      44.746  24.137  28.699  1.00  0.00     0.031 C 
ATOM     53  C   UNL A   1      47.259  28.893  31.560  1.00  0.00     0.029 A 
ATOM     54  C   UNL A   1      46.315  28.078  30.949  1.00  0.00     0.049 A 
ATOM     55  H   UNL A   1      44.280  28.474  30.578  1.00  0.00     0.167 HD
ATOM     56  C   UNL A   1      45.568  25.971  29.820  1.00  0.00     0.074 A 
ATOM     57  C   UNL A   1      45.824  24.649  29.277  1.00  0.00     0.031 C 
ATOM     58  C   UNL A   1      46.506  26.758  30.401  1.00  0.00     0.031 A 
BRANCH  45  59
ATOM     59  C   UNL A   1      44.575  32.318  32.403  1.00  0.00    -0.014 A 
ATOM     60  C   UNL A   1      45.059  33.385  31.624  1.00  0.00     0.009 A 
ATOM     61  C   UNL A   1      44.447  32.487  33.787  1.00  0.00     0.009 A 
ATOM     62  C   UNL A   1      45.466  34.574  32.227  1.00  0.00     0.001 A 
ATOM     63  C   UNL A   1      44.810  33.695  34.381  1.00  0.00     0.001 A 
ATOM     64  C   UNL A   1      45.333  34.729  33.605  1.00  0.00     0.000 A 
ENDBRANCH  45  59
BRANCH  46  65
ATOM     65  C   UNL A   1      41.991  23.689  27.748  1.00  0.00    -0.014 A 
ATOM     66  C   UNL A   1      41.357  22.632  28.429  1.00  0.00     0.009 A 
ATOM     67  C   UNL A   1      42.277  23.507  26.385  1.00  0.00     0.009 A 
ATOM     68  C   UNL A   1      41.044  21.433  27.775  1.00  0.00     0.001 A 
ATOM     69  C   UNL A   1      41.923  22.326  25.721  1.00  0.00     0.001 A 
ATOM     70  C   UNL A   1      41.318  21.284  26.418  1.00  0.00     0.000 A 
ENDBRANCH  46  65
BRANCH  58  71
ATOM     71  C   UNL A   1      47.868  26.157  30.549  1.00  0.00    -0.014 A 
ATOM     72  C   UNL A   1      48.801  26.170  29.504  1.00  0.00     0.009 A 
ATOM     73  C   UNL A   1      48.226  25.609  31.791  1.00  0.00     0.009 A 
ATOM     74  C   UNL A   1      50.061  25.605  29.691  1.00  0.00     0.001 A 
ATOM     75  C   UNL A   1      49.501  25.091  31.989  1.00  0.00     0.001 A 
ATOM     76  C   UNL A   1      50.411  25.076  30.934  1.00  0.00     0.000 A 
ENDBRANCH  58  71
ENDBRANCH  32  33
ENDBRANCH  25  27
ENDBRANCH  24  25
ENDBRANCH  23  24
ENDBRANCH  22  23
ENDBRANCH   1  22
TORSDOF 17
ENDMDL
MODEL 3
REMARK VINA RESULT:      -9.7      6.464      9.110
REMARK SMILES CCN(C(=O)N(C)Cc1cccc(C)n1)C(C)(C)C(=O)OCCOC(=O)c1ccc(-c2c3nc(c(-c4ccccc4)c4ccc([nH]4)c(-c4ccccc4)c4nc(c(-c5ccccc5)c5ccc2[nH]5)C=C4)C=C3)cc1
REMARK SMILES IDX 21 1 19 2 20 3 16 4 17 5 18 6 3 7 2 8 1 9 4 10 5 11 6 12
REMARK SMILES IDX 7 13 8 14 9 15 10 16 15 17 11 18 13 19 12 20 14 21 22 22
REMARK SMILES IDX 23 23 24 24 25 25 26 26 27 27 28 28 74 29 29 30 73 31 30 32
REMARK SMILES IDX 31 33 32 34 67 35 33 36 72 37 66 38 68 39 34 40 71 41 65 42
REMARK SMILES IDX 64 43 35 45 57 46 42 47 56 48 43 49 46 50 55 51 69 52 44 53
REMARK SMILES IDX 45 54 54 56 70 57 47 58 36 59 37 60 41 61 38 62 40 63 39 64
REMARK SMILES IDX 58 65 59 66 63 67 60 68 62 69 61 70 48 71 49 72 53 73 50 74
REMARK SMILES IDX 52 75 51 76
REMARK H PARENT 68 44 46 55
REMARK Flexibility Score: inf
ROOT
ATOM      1  O   UNL A   1      33.239  30.235  26.104  1.00  0.00    -0.460 OA
ENDROOT
BRANCH   1   2
ATOM      2  C   UNL A   1      33.472  28.889  26.213  1.00  0.00     0.331 C 
ATOM      3  O   UNL A   1      34.558  28.454  26.573  1.00  0.00    -0.249 OA
BRANCH   2   4
ATOM      4  C   UNL A   1      32.217  28.018  25.774  1.00  0.00     0.136 C 
ATOM      5  C   UNL A   1      31.382  28.835  24.781  1.00  0.00     0.047 C 
ATOM      6  C   UNL A   1      31.352  27.800  27.045  1.00  0.00     0.047 C 
BRANCH   4   7
ATOM      7  N   UNL A   1      32.625  26.676  25.173  1.00  0.00    -0.309 N 
BRANCH   7   8
ATOM      8  C   UNL A   1      31.969  25.425  25.626  1.00  0.00     0.119 C 
ATOM      9  C   UNL A   1      32.776  24.430  26.457  1.00  0.00     0.027 C 
ENDBRANCH   7   8
BRANCH   7  10
ATOM     10  C   UNL A   1      33.117  26.684  23.842  1.00  0.00     0.321 C 
ATOM     11  O   UNL A   1      34.062  27.367  23.465  1.00  0.00    -0.248 OA
BRANCH  10  12
ATOM     12  N   UNL A   1      32.482  25.751  23.008  1.00  0.00    -0.322 N 
ATOM     13  C   UNL A   1      31.531  26.329  22.047  1.00  0.00     0.149 C 
BRANCH  12  14
ATOM     14  C   UNL A   1      33.296  24.541  22.539  1.00  0.00     0.177 C 
BRANCH  14  15
ATOM     15  C   UNL A   1      33.273  22.941  23.124  1.00  0.00     0.060 A 
ATOM     16  C   UNL A   1      32.121  21.293  22.847  1.00  0.00     0.026 A 
ATOM     17  N   UNL A   1      34.710  22.684  24.160  1.00  0.00    -0.256 NA
ATOM     18  C   UNL A   1      32.508  19.762  23.648  1.00  0.00     0.004 A 
ATOM     19  C   UNL A   1      34.988  21.083  24.849  1.00  0.00     0.038 A 
ATOM     20  C   UNL A   1      33.919  19.688  24.620  1.00  0.00     0.023 A 
ATOM     21  C   UNL A   1      36.421  20.591  25.036  1.00  0.00     0.067 C 
ENDBRANCH  14  15
ENDBRANCH  12  14
ENDBRANCH  10  12
ENDBRANCH   7  10
ENDBRANCH   4   7
ENDBRANCH   2   4
ENDBRANCH   1   2
BRANCH   1  22
ATOM     22  C   UNL A   1      33.147  30.975  27.342  1.00  0.00     0.274 C 
BRANCH  22  23
ATOM     23  C   UNL A   1      34.432  31.728  27.721  1.00  0.00     0.275 C 
BRANCH  23  24
ATOM     24  O   UNL A   1      34.168  33.067  28.180  1.00  0.00    -0.458 OA
BRANCH  24  25
ATOM     25  C   UNL A   1      34.569  33.287  29.450  1.00  0.00     0.338 C 
ATOM     26  O   UNL A   1      34.004  33.961  30.298  1.00  0.00    -0.246 OA
BRANCH  25  27
ATOM     27  C   UNL A   1      35.682  32.425  29.822  1.00  0.00     0.060 A 
ATOM     28  C   UNL A   1      37.266  32.837  29.183  1.00  0.00     0.016 A 
ATOM     29  C   UNL A   1      35.518  30.831  30.586  1.00  0.00     0.016 A 
ATOM     30  C   UNL A   1      38.726  31.788  29.316  1.00  0.00     0.010 A 
ATOM     31  C   UNL A   1      37.155  29.651  30.705  1.00  0.00     0.010 A 
ATOM     32  C   UNL A   1      38.715  30.254  30.146  1.00  0.00    -0.014 A 
BRANCH  32  33
ATOM     33  C   UNL A   1      39.862  29.436  30.560  1.00  0.00     0.031 A 
ATOM     34  C   UNL A   1      40.491  29.874  31.816  1.00  0.00     0.074 A 
ATOM     35  C   UNL A   1      40.479  28.549  29.741  1.00  0.00     0.049 A 
ATOM     36  N   UNL A   1      41.608  29.479  32.344  1.00  0.00    -0.248 NA
ATOM     37  C   UNL A   1      39.844  31.012  32.492  1.00  0.00     0.031 C 
ATOM     38  C   UNL A   1      40.158  28.301  28.342  1.00  0.00     0.029 A 
ATOM     39  N   UNL A   1      41.513  27.669  29.949  1.00  0.00    -0.354 N 
ATOM     40  C   UNL A   1      41.818  30.350  33.393  1.00  0.00     0.074 A 
ATOM     41  C   UNL A   1      40.764  31.335  33.379  1.00  0.00     0.031 C 
ATOM     42  C   UNL A   1      40.748  27.181  27.903  1.00  0.00     0.029 A 
ATOM     43  C   UNL A   1      41.716  26.781  28.903  1.00  0.00     0.049 A 
ATOM     44  H   UNL A   1      42.062  27.668  30.766  1.00  0.00     0.167 HD
ATOM     45  C   UNL A   1      42.816  30.311  34.293  1.00  0.00     0.031 A 
ATOM     46  C   UNL A   1      42.641  25.816  28.730  1.00  0.00     0.031 A 
ATOM     47  C   UNL A   1      43.881  29.359  34.214  1.00  0.00     0.049 A 
ATOM     48  C   UNL A   1      43.725  25.775  29.766  1.00  0.00     0.074 A 
ATOM     49  C   UNL A   1      44.938  29.180  35.080  1.00  0.00     0.029 A 
ATOM     50  N   UNL A   1      44.030  28.436  33.183  1.00  0.00    -0.354 N 
ATOM     51  N   UNL A   1      43.861  26.526  30.834  1.00  0.00    -0.248 NA
ATOM     52  C   UNL A   1      44.808  24.808  29.561  1.00  0.00     0.031 C 
ATOM     53  C   UNL A   1      45.763  28.192  34.537  1.00  0.00     0.029 A 
ATOM     54  C   UNL A   1      45.172  27.689  33.385  1.00  0.00     0.049 A 
ATOM     55  H   UNL A   1      43.412  28.331  32.423  1.00  0.00     0.167 HD
ATOM     56  C   UNL A   1      45.033  26.118  31.440  1.00  0.00     0.074 A 
ATOM     57  C   UNL A   1      45.553  25.025  30.636  1.00  0.00     0.031 C 
ATOM     58  C   UNL A   1      45.634  26.604  32.553  1.00  0.00     0.031 A 
BRANCH  45  59
ATOM     59  C   UNL A   1      42.768  31.351  35.367  1.00  0.00    -0.014 A 
ATOM     60  C   UNL A   1      42.050  31.130  36.556  1.00  0.00     0.009 A 
ATOM     61  C   UNL A   1      43.366  32.599  35.154  1.00  0.00     0.009 A 
ATOM     62  C   UNL A   1      41.882  32.157  37.483  1.00  0.00     0.001 A 
ATOM     63  C   UNL A   1      43.237  33.609  36.105  1.00  0.00     0.001 A 
ATOM     64  C   UNL A   1      42.484  33.394  37.259  1.00  0.00     0.000 A 
ENDBRANCH  45  59
BRANCH  46  65
ATOM     65  C   UNL A   1      42.652  24.893  27.551  1.00  0.00    -0.014 A 
ATOM     66  C   UNL A   1      43.366  25.236  26.387  1.00  0.00     0.009 A 
ATOM     67  C   UNL A   1      41.944  23.679  27.547  1.00  0.00     0.009 A 
ATOM     68  C   UNL A   1      43.354  24.407  25.258  1.00  0.00     0.001 A 
ATOM     69  C   UNL A   1      41.969  22.829  26.435  1.00  0.00     0.001 A 
ATOM     70  C   UNL A   1      42.663  23.198  25.286  1.00  0.00     0.000 A 
ENDBRANCH  46  65
BRANCH  58  71
ATOM     71  C   UNL A   1      46.869  25.889  33.001  1.00  0.00    -0.014 A 
ATOM     72  C   UNL A   1      48.145  26.275  32.572  1.00  0.00     0.009 A 
ATOM     73  C   UNL A   1      46.735  24.833  33.916  1.00  0.00     0.009 A 
ATOM     74  C   UNL A   1      49.267  25.584  33.021  1.00  0.00     0.001 A 
ATOM     75  C   UNL A   1      47.862  24.178  34.401  1.00  0.00     0.001 A 
ATOM     76  C   UNL A   1      49.125  24.545  33.941  1.00  0.00     0.000 A 
ENDBRANCH  58  71
ENDBRANCH  32  33
ENDBRANCH  25  27
ENDBRANCH  24  25
ENDBRANCH  23  24
ENDBRANCH  22  23
ENDBRANCH   1  22
TORSDOF 17
ENDMDL
