MODEL 1
REMARK VINA RESULT:     -11.4      0.000      0.000
REMARK SMILES O=C(NCc1ccc(C(=O)OCCOC(=O)c2ccc(-c3c4nc(c(-c5ccccc5)c5ccc([nH]5)c(-c5ccccc5)c5nc(c(-c6ccccc6)c6ccc3[nH]6)C=C5)C=C4)cc2)o1)Nc1ccc(F)c(Cl)c1
REMARK SMILES IDX 12 1 11 2 9 3 10 4 8 5 5 6 6 7 65 8 7 9 4 10 3 11 1 12 2 13
REMARK SMILES IDX 66 14 67 17 68 18 74 19 69 20 72 21 70 22 73 23 71 24 13 25
REMARK SMILES IDX 14 26 15 27 16 28 17 29 18 30 64 31 19 32 63 33 20 34 21 35
REMARK SMILES IDX 22 36 57 37 23 38 62 39 56 40 58 41 24 42 61 43 55 44 54 45
REMARK SMILES IDX 25 47 47 48 32 49 46 50 33 51 36 52 45 53 59 54 34 55 35 56
REMARK SMILES IDX 44 58 60 59 37 60 26 61 27 62 31 63 28 64 30 65 29 66 48 67
REMARK SMILES IDX 49 68 53 69 50 70 52 71 51 72 38 73 39 74 43 75 40 76 42 77
REMARK SMILES IDX 41 78
REMARK H PARENT 3 15 66 16 58 46 36 57
REMARK Flexibility Score: inf
ROOT
ATOM      1  C   UNL A   1      45.408  21.021  25.386  1.00  0.00     0.275 C 
ENDROOT
BRANCH   1   2
ATOM      2  O   UNL A   1      44.397  20.376  24.591  1.00  0.00    -0.456 OA
BRANCH   2   3
ATOM      3  C   UNL A   1      43.792  19.293  25.167  1.00  0.00     0.374 C 
ATOM      4  O   UNL A   1      44.158  18.138  25.018  1.00  0.00    -0.242 OA
BRANCH   3   5
ATOM      5  C   UNL A   1      42.739  19.732  26.058  1.00  0.00     0.211 A 
ATOM      6  C   UNL A   1      40.891  20.857  26.512  1.00  0.00     0.124 A 
ATOM      7  C   UNL A   1      41.140  20.062  27.609  1.00  0.00     0.048 A 
ATOM      8  O   UNL A   1      41.884  20.698  25.593  1.00  0.00    -0.452 OA
ATOM      9  C   UNL A   1      42.324  19.335  27.315  1.00  0.00     0.058 A 
BRANCH   6  10
ATOM     10  C   UNL A   1      39.796  21.787  26.134  1.00  0.00     0.193 C 
BRANCH  10  11
ATOM     11  N   UNL A   1      38.683  21.008  25.647  1.00  0.00    -0.331 N 
ATOM     12  O   UNL A   1      36.614  20.558  25.005  1.00  0.00    -0.248 OA
ATOM     13  C   UNL A   1      37.487  21.409  25.147  1.00  0.00     0.319 C 
ATOM     14  N   UNL A   1      37.370  22.731  24.817  1.00  0.00    -0.308 N 
ATOM     15  H   UNL A   1      38.812  20.032  25.683  1.00  0.00     0.165 HD
ATOM     16  H   UNL A   1      38.200  23.261  24.787  1.00  0.00     0.171 HD
BRANCH  14  17
ATOM     17  C   UNL A   1      36.167  23.404  24.514  1.00  0.00     0.044 A 
ATOM     18  C   UNL A   1      35.553  23.130  23.284  1.00  0.00     0.029 A 
ATOM     19  C   UNL A   1      35.582  24.339  25.376  1.00  0.00     0.049 A 
ATOM     20  C   UNL A   1      34.344  23.744  22.944  1.00  0.00     0.043 A 
ATOM     21  C   UNL A   1      34.383  24.965  25.028  1.00  0.00     0.078 A 
ATOM     22  C   UNL A   1      33.763  24.653  23.822  1.00  0.00     0.141 A 
ATOM     23  Cl  UNL A   1      33.687  26.122  26.095  1.00  0.00    -0.081 Cl
ATOM     24  F   UNL A   1      32.594  25.218  23.486  1.00  0.00    -0.205 F 
ENDBRANCH  14  17
ENDBRANCH  10  11
ENDBRANCH   6  10
ENDBRANCH   3   5
ENDBRANCH   2   3
ENDBRANCH   1   2
BRANCH   1  25
ATOM     25  C   UNL A   1      45.880  22.330  24.743  1.00  0.00     0.275 C 
BRANCH  25  26
ATOM     26  O   UNL A   1      45.301  23.488  25.377  1.00  0.00    -0.458 OA
BRANCH  26  27
ATOM     27  C   UNL A   1      44.017  23.752  25.037  1.00  0.00     0.338 C 
ATOM     28  O   UNL A   1      43.410  23.316  24.072  1.00  0.00    -0.246 OA
BRANCH  27  29
ATOM     29  C   UNL A   1      43.366  24.553  26.091  1.00  0.00     0.060 A 
ATOM     30  C   UNL A   1      43.688  25.912  26.159  1.00  0.00     0.016 A 
ATOM     31  C   UNL A   1      42.509  23.987  27.036  1.00  0.00     0.016 A 
ATOM     32  C   UNL A   1      43.153  26.714  27.161  1.00  0.00     0.010 A 
ATOM     33  C   UNL A   1      41.980  24.792  28.056  1.00  0.00     0.010 A 
ATOM     34  C   UNL A   1      42.307  26.158  28.128  1.00  0.00    -0.014 A 
BRANCH  34  35
ATOM     35  C   UNL A   1      41.817  27.017  29.232  1.00  0.00     0.031 A 
ATOM     36  C   UNL A   1      42.578  27.086  30.524  1.00  0.00     0.074 A 
ATOM     37  C   UNL A   1      40.729  27.786  29.050  1.00  0.00     0.049 A 
ATOM     38  N   UNL A   1      42.333  27.809  31.587  1.00  0.00    -0.248 NA
ATOM     39  C   UNL A   1      43.775  26.239  30.632  1.00  0.00     0.031 C 
ATOM     40  C   UNL A   1      39.927  27.844  27.827  1.00  0.00     0.029 A 
ATOM     41  N   UNL A   1      40.115  28.676  29.897  1.00  0.00    -0.354 N 
ATOM     42  C   UNL A   1      43.340  27.501  32.493  1.00  0.00     0.074 A 
ATOM     43  C   UNL A   1      44.188  26.512  31.862  1.00  0.00     0.031 C 
ATOM     44  C   UNL A   1      38.928  28.725  28.002  1.00  0.00     0.029 A 
ATOM     45  C   UNL A   1      39.004  29.271  29.354  1.00  0.00     0.049 A 
ATOM     46  H   UNL A   1      40.442  28.870  30.805  1.00  0.00     0.167 HD
ATOM     47  C   UNL A   1      43.542  27.999  33.737  1.00  0.00     0.031 A 
ATOM     48  C   UNL A   1      38.133  30.145  29.892  1.00  0.00     0.031 A 
ATOM     49  C   UNL A   1      42.697  28.973  34.374  1.00  0.00     0.049 A 
ATOM     50  C   UNL A   1      38.343  30.633  31.297  1.00  0.00     0.074 A 
ATOM     51  C   UNL A   1      42.834  29.545  35.627  1.00  0.00     0.029 A 
ATOM     52  N   UNL A   1      41.552  29.512  33.811  1.00  0.00    -0.354 N 
ATOM     53  N   UNL A   1      39.315  30.352  32.130  1.00  0.00    -0.248 NA
ATOM     54  C   UNL A   1      37.341  31.567  31.831  1.00  0.00     0.031 C 
ATOM     55  C   UNL A   1      41.748  30.401  35.838  1.00  0.00     0.029 A 
ATOM     56  C   UNL A   1      40.960  30.395  34.699  1.00  0.00     0.049 A 
ATOM     57  H   UNL A   1      41.209  29.298  32.914  1.00  0.00     0.167 HD
ATOM     58  C   UNL A   1      39.050  31.085  33.281  1.00  0.00     0.074 A 
ATOM     59  C   UNL A   1      37.836  31.836  33.031  1.00  0.00     0.031 C 
ATOM     60  C   UNL A   1      39.751  31.132  34.439  1.00  0.00     0.031 A 
BRANCH  47  61
ATOM     61  C   UNL A   1      44.719  27.468  34.504  1.00  0.00    -0.014 A 
ATOM     62  C   UNL A   1      44.601  26.331  35.317  1.00  0.00     0.009 A 
ATOM     63  C   UNL A   1      45.968  28.096  34.385  1.00  0.00     0.009 A 
ATOM     64  C   UNL A   1      45.708  25.850  36.021  1.00  0.00     0.001 A 
ATOM     65  C   UNL A   1      47.077  27.601  35.073  1.00  0.00     0.001 A 
ATOM     66  C   UNL A   1      46.945  26.484  35.896  1.00  0.00     0.000 A 
ENDBRANCH  47  61
BRANCH  48  67
ATOM     67  C   UNL A   1      36.967  30.608  29.099  1.00  0.00    -0.014 A 
ATOM     68  C   UNL A   1      35.972  29.706  28.699  1.00  0.00     0.009 A 
ATOM     69  C   UNL A   1      36.845  31.959  28.739  1.00  0.00     0.009 A 
ATOM     70  C   UNL A   1      34.879  30.145  27.948  1.00  0.00     0.001 A 
ATOM     71  C   UNL A   1      35.743  32.399  28.002  1.00  0.00     0.001 A 
ATOM     72  C   UNL A   1      34.764  31.491  27.604  1.00  0.00     0.000 A 
ENDBRANCH  48  67
BRANCH  60  73
ATOM     73  C   UNL A   1      39.239  32.047  35.513  1.00  0.00    -0.014 A 
ATOM     74  C   UNL A   1      38.377  31.577  36.515  1.00  0.00     0.009 A 
ATOM     75  C   UNL A   1      39.655  33.388  35.542  1.00  0.00     0.009 A 
ATOM     76  C   UNL A   1      37.918  32.441  37.511  1.00  0.00     0.001 A 
ATOM     77  C   UNL A   1      39.211  34.243  36.551  1.00  0.00     0.001 A 
ATOM     78  C   UNL A   1      38.337  33.772  37.530  1.00  0.00     0.000 A 
ENDBRANCH  60  73
ENDBRANCH  34  35
ENDBRANCH  27  29
ENDBRANCH  26  27
ENDBRANCH  25  26
ENDBRANCH   1  25
TORSDOF 14
ENDMDL
MODEL 2
REMARK VINA RESULT:     -11.3      3.836      5.627
REMARK SMILES O=C(NCc1ccc(C(=O)OCCOC(=O)c2ccc(-c3c4nc(c(-c5ccccc5)c5ccc([nH]5)c(-c5ccccc5)c5nc(c(-c6ccccc6)c6ccc3[nH]6)C=C5)C=C4)cc2)o1)Nc1ccc(F)c(Cl)c1
REMARK SMILES IDX 12 1 11 2 9 3 10 4 8 5 5 6 6 7 65 8 7 9 4 10 3 11 1 12 2 13
REMARK SMILES IDX 66 14 67 17 68 18 74 19 69 20 72 21 70 22 73 23 71 24 13 25
REMARK SMILES IDX 14 26 15 27 16 28 17 29 18 30 64 31 19 32 63 33 20 34 21 35
REMARK SMILES IDX 22 36 57 37 23 38 62 39 56 40 58 41 24 42 61 43 55 44 54 45
REMARK SMILES IDX 25 47 47 48 32 49 46 50 33 51 36 52 45 53 59 54 34 55 35 56
REMARK SMILES IDX 44 58 60 59 37 60 26 61 27 62 31 63 28 64 30 65 29 66 48 67
REMARK SMILES IDX 49 68 53 69 50 70 52 71 51 72 38 73 39 74 43 75 40 76 42 77
REMARK SMILES IDX 41 78
REMARK H PARENT 3 15 66 16 58 46 36 57
REMARK Flexibility Score: inf
ROOT
ATOM      1  C   UNL A   1      41.210  19.773  26.792  1.00  0.00     0.275 C 
ENDROOT
BRANCH   1   2
ATOM      2  O   UNL A   1      41.854  19.082  25.706  1.00  0.00    -0.456 OA
BRANCH   2   3
ATOM      3  C   UNL A   1      43.043  18.478  26.011  1.00  0.00     0.374 C 
ATOM      4  O   UNL A   1      43.147  17.453  26.665  1.00  0.00    -0.242 OA
BRANCH   3   5
ATOM      5  C   UNL A   1      44.130  19.168  25.352  1.00  0.00     0.211 A 
ATOM      6  C   UNL A   1      44.988  20.877  24.241  1.00  0.00     0.124 A 
ATOM      7  C   UNL A   1      46.050  20.077  24.601  1.00  0.00     0.048 A 
ATOM      8  O   UNL A   1      43.821  20.305  24.650  1.00  0.00    -0.452 OA
ATOM      9  C   UNL A   1      45.500  18.982  25.319  1.00  0.00     0.058 A 
BRANCH   6  10
ATOM     10  C   UNL A   1      44.865  22.189  23.557  1.00  0.00     0.193 C 
BRANCH  10  11
ATOM     11  N   UNL A   1      46.036  22.975  23.861  1.00  0.00    -0.331 N 
ATOM     12  O   UNL A   1      47.235  24.756  24.394  1.00  0.00    -0.248 OA
ATOM     13  C   UNL A   1      46.144  24.196  24.443  1.00  0.00     0.319 C 
ATOM     14  N   UNL A   1      45.027  24.683  25.063  1.00  0.00    -0.308 N 
ATOM     15  H   UNL A   1      46.893  22.560  23.606  1.00  0.00     0.165 HD
ATOM     16  H   UNL A   1      44.283  24.053  25.207  1.00  0.00     0.171 HD
BRANCH  14  17
ATOM     17  C   UNL A   1      44.843  26.008  25.514  1.00  0.00     0.044 A 
ATOM     18  C   UNL A   1      45.921  26.639  26.151  1.00  0.00     0.029 A 
ATOM     19  C   UNL A   1      43.633  26.697  25.373  1.00  0.00     0.049 A 
ATOM     20  C   UNL A   1      45.806  27.961  26.591  1.00  0.00     0.043 A 
ATOM     21  C   UNL A   1      43.515  28.013  25.829  1.00  0.00     0.078 A 
ATOM     22  C   UNL A   1      44.605  28.642  26.421  1.00  0.00     0.141 A 
ATOM     23  Cl  UNL A   1      42.015  28.840  25.657  1.00  0.00    -0.081 Cl
ATOM     24  F   UNL A   1      44.521  29.915  26.835  1.00  0.00    -0.205 F 
ENDBRANCH  14  17
ENDBRANCH  10  11
ENDBRANCH   6  10
ENDBRANCH   3   5
ENDBRANCH   2   3
ENDBRANCH   1   2
BRANCH   1  25
ATOM     25  C   UNL A   1      40.921  21.237  26.436  1.00  0.00     0.275 C 
BRANCH  25  26
ATOM     26  O   UNL A   1      39.642  21.676  26.937  1.00  0.00    -0.458 OA
BRANCH  26  27
ATOM     27  C   UNL A   1      39.060  22.679  26.236  1.00  0.00     0.338 C 
ATOM     28  O   UNL A   1      38.336  22.567  25.261  1.00  0.00    -0.246 OA
BRANCH  27  29
ATOM     29  C   UNL A   1      39.301  23.972  26.904  1.00  0.00     0.060 A 
ATOM     30  C   UNL A   1      39.994  24.949  26.184  1.00  0.00     0.016 A 
ATOM     31  C   UNL A   1      38.920  24.212  28.225  1.00  0.00     0.016 A 
ATOM     32  C   UNL A   1      40.304  26.172  26.772  1.00  0.00     0.010 A 
ATOM     33  C   UNL A   1      39.244  25.439  28.823  1.00  0.00     0.010 A 
ATOM     34  C   UNL A   1      39.945  26.421  28.102  1.00  0.00    -0.014 A 
BRANCH  34  35
ATOM     35  C   UNL A   1      40.359  27.699  28.728  1.00  0.00     0.031 A 
ATOM     36  C   UNL A   1      41.771  27.878  29.205  1.00  0.00     0.074 A 
ATOM     37  C   UNL A   1      39.488  28.720  28.806  1.00  0.00     0.049 A 
ATOM     38  N   UNL A   1      42.333  28.933  29.739  1.00  0.00    -0.248 NA
ATOM     39  C   UNL A   1      42.671  26.725  29.055  1.00  0.00     0.031 C 
ATOM     40  C   UNL A   1      38.101  28.688  28.339  1.00  0.00     0.029 A 
ATOM     41  N   UNL A   1      39.646  29.990  29.302  1.00  0.00    -0.354 N 
ATOM     42  C   UNL A   1      43.649  28.571  29.995  1.00  0.00     0.074 A 
ATOM     43  C   UNL A   1      43.797  27.193  29.575  1.00  0.00     0.031 C 
ATOM     44  C   UNL A   1      37.536  29.886  28.568  1.00  0.00     0.029 A 
ATOM     45  C   UNL A   1      38.509  30.756  29.222  1.00  0.00     0.049 A 
ATOM     46  H   UNL A   1      40.494  30.321  29.678  1.00  0.00     0.167 HD
ATOM     47  C   UNL A   1      44.646  29.318  30.527  1.00  0.00     0.031 A 
ATOM     48  C   UNL A   1      38.273  32.012  29.643  1.00  0.00     0.031 A 
ATOM     49  C   UNL A   1      44.502  30.683  30.957  1.00  0.00     0.049 A 
ATOM     50  C   UNL A   1      39.378  32.799  30.289  1.00  0.00     0.074 A 
ATOM     51  C   UNL A   1      45.461  31.523  31.496  1.00  0.00     0.029 A 
ATOM     52  N   UNL A   1      43.321  31.406  30.906  1.00  0.00    -0.354 N 
ATOM     53  N   UNL A   1      40.624  32.450  30.499  1.00  0.00    -0.248 NA
ATOM     54  C   UNL A   1      39.044  34.155  30.749  1.00  0.00     0.031 C 
ATOM     55  C   UNL A   1      44.851  32.742  31.808  1.00  0.00     0.029 A 
ATOM     56  C   UNL A   1      43.522  32.675  31.423  1.00  0.00     0.049 A 
ATOM     57  H   UNL A   1      42.466  31.067  30.556  1.00  0.00     0.167 HD
ATOM     58  C   UNL A   1      41.226  33.548  31.101  1.00  0.00     0.074 A 
ATOM     59  C   UNL A   1      40.214  34.579  31.206  1.00  0.00     0.031 C 
ATOM     60  C   UNL A   1      42.505  33.689  31.525  1.00  0.00     0.031 A 
BRANCH  47  61
ATOM     61  C   UNL A   1      45.981  28.655  30.701  1.00  0.00    -0.014 A 
ATOM     62  C   UNL A   1      46.280  27.917  31.857  1.00  0.00     0.009 A 
ATOM     63  C   UNL A   1      46.941  28.743  29.681  1.00  0.00     0.009 A 
ATOM     64  C   UNL A   1      47.527  27.304  32.000  1.00  0.00     0.001 A 
ATOM     65  C   UNL A   1      48.178  28.113  29.817  1.00  0.00     0.001 A 
ATOM     66  C   UNL A   1      48.474  27.401  30.979  1.00  0.00     0.000 A 
ENDBRANCH  47  61
BRANCH  48  67
ATOM     67  C   UNL A   1      36.922  32.604  29.477  1.00  0.00    -0.014 A 
ATOM     68  C   UNL A   1      36.577  33.277  28.298  1.00  0.00     0.009 A 
ATOM     69  C   UNL A   1      35.969  32.496  30.503  1.00  0.00     0.009 A 
ATOM     70  C   UNL A   1      35.305  33.837  28.149  1.00  0.00     0.001 A 
ATOM     71  C   UNL A   1      34.695  33.042  30.345  1.00  0.00     0.001 A 
ATOM     72  C   UNL A   1      34.365  33.716  29.171  1.00  0.00     0.000 A 
ENDBRANCH  48  67
BRANCH  60  73
ATOM     73  C   UNL A   1      42.888  35.015  32.117  1.00  0.00    -0.014 A 
ATOM     74  C   UNL A   1      43.513  36.002  31.340  1.00  0.00     0.009 A 
ATOM     75  C   UNL A   1      42.584  35.290  33.459  1.00  0.00     0.009 A 
ATOM     76  C   UNL A   1      43.853  37.232  31.906  1.00  0.00     0.001 A 
ATOM     77  C   UNL A   1      42.907  36.530  34.016  1.00  0.00     0.001 A 
ATOM     78  C   UNL A   1      43.547  37.496  33.242  1.00  0.00     0.000 A 
ENDBRANCH  60  73
ENDBRANCH  34  35
ENDBRANCH  27  29
ENDBRANCH  26  27
ENDBRANCH  25  26
ENDBRANCH   1  25
TORSDOF 14
ENDMDL
MODEL 3
REMARK VINA RESULT:     -11.1      3.742      7.918
REMARK SMILES O=C(NCc1ccc(C(=O)OCCOC(=O)c2ccc(-c3c4nc(c(-c5ccccc5)c5ccc([nH]5)c(-c5ccccc5)c5nc(c(-c6ccccc6)c6ccc3[nH]6)C=C5)C=C4)cc2)o1)Nc1ccc(F)c(Cl)c1
REMARK SMILES IDX 12 1 11 2 9 3 10 4 8 5 5 6 6 7 65 8 7 9 4 10 3 11 1 12 2 13
REMARK SMILES IDX 66 14 67 17 68 18 74 19 69 20 72 21 70 22 73 23 71 24 13 25
REMARK SMILES IDX 14 26 15 27 16 28 17 29 18 30 64 31 19 32 63 33 20 34 21 35
REMARK SMILES IDX 22 36 57 37 23 38 62 39 56 40 58 41 24 42 61 43 55 44 54 45
REMARK SMILES IDX 25 47 47 48 32 49 46 50 33 51 36 52 45 53 59 54 34 55 35 56
REMARK SMILES IDX 44 58 60 59 37 60 26 61 27 62 31 63 28 64 30 65 29 66 48 67
REMARK SMILES IDX 49 68 53 69 50 70 52 71 51 72 38 73 39 74 43 75 40 76 42 77
REMARK SMILES IDX 41 78
REMARK H PARENT 3 15 66 16 58 46 36 57
REMARK Flexibility Score: inf
ROOT
ATOM      1  C   UNL A   1      41.244  19.881  26.567  1.00  0.00     0.275 C 
ENDROOT
BRANCH   1   2
ATOM      2  O   UNL A   1      41.922  19.207  25.490  1.00  0.00    -0.456 OA
BRANCH   2   3
ATOM      3  C   UNL A   1      43.085  18.570  25.830  1.00  0.00     0.374 C 
ATOM      4  O   UNL A   1      43.141  17.530  26.466  1.00  0.00    -0.242 OA
BRANCH   3   5
ATOM      5  C   UNL A   1      44.212  19.251  25.229  1.00  0.00     0.211 A 
ATOM      6  C   UNL A   1      45.185  21.013  24.314  1.00  0.00     0.124 A 
ATOM      7  C   UNL A   1      46.185  20.092  24.540  1.00  0.00     0.048 A 
ATOM      8  O   UNL A   1      43.983  20.488  24.684  1.00  0.00    -0.452 OA
ATOM      9  C   UNL A   1      45.560  18.962  25.132  1.00  0.00     0.058 A 
BRANCH   6  10
ATOM     10  C   UNL A   1      45.157  22.407  23.803  1.00  0.00     0.193 C 
BRANCH  10  11
ATOM     11  N   UNL A   1      46.247  23.137  24.403  1.00  0.00    -0.331 N 
ATOM     12  O   UNL A   1      47.350  24.859  25.247  1.00  0.00    -0.248 OA
ATOM     13  C   UNL A   1      46.259  24.349  25.012  1.00  0.00     0.319 C 
ATOM     14  N   UNL A   1      45.043  24.886  25.337  1.00  0.00    -0.308 N 
ATOM     15  H   UNL A   1      47.121  22.682  24.366  1.00  0.00     0.165 HD
ATOM     16  H   UNL A   1      44.261  24.291  25.280  1.00  0.00     0.171 HD
BRANCH  14  17
ATOM     17  C   UNL A   1      44.811  26.216  25.747  1.00  0.00     0.044 A 
ATOM     18  C   UNL A   1      45.840  26.883  26.425  1.00  0.00     0.029 A 
ATOM     19  C   UNL A   1      43.598  26.878  25.524  1.00  0.00     0.049 A 
ATOM     20  C   UNL A   1      45.676  28.212  26.828  1.00  0.00     0.043 A 
ATOM     21  C   UNL A   1      43.430  28.201  25.942  1.00  0.00     0.078 A 
ATOM     22  C   UNL A   1      44.474  28.865  26.577  1.00  0.00     0.141 A 
ATOM     23  Cl  UNL A   1      41.926  28.993  25.671  1.00  0.00    -0.081 Cl
ATOM     24  F   UNL A   1      44.344  30.145  26.956  1.00  0.00    -0.205 F 
ENDBRANCH  14  17
ENDBRANCH  10  11
ENDBRANCH   6  10
ENDBRANCH   3   5
ENDBRANCH   2   3
ENDBRANCH   1   2
BRANCH   1  25
ATOM     25  C   UNL A   1      40.844  21.308  26.174  1.00  0.00     0.275 C 
BRANCH  25  26
ATOM     26  O   UNL A   1      39.657  21.750  26.862  1.00  0.00    -0.458 OA
BRANCH  26  27
ATOM     27  C   UNL A   1      38.976  22.752  26.257  1.00  0.00     0.338 C 
ATOM     28  O   UNL A   1      38.146  22.643  25.370  1.00  0.00    -0.246 OA
BRANCH  27  29
ATOM     29  C   UNL A   1      39.266  24.037  26.922  1.00  0.00     0.060 A 
ATOM     30  C   UNL A   1      39.992  24.987  26.199  1.00  0.00     0.016 A 
ATOM     31  C   UNL A   1      38.897  24.293  28.244  1.00  0.00     0.016 A 
ATOM     32  C   UNL A   1      40.347  26.199  26.784  1.00  0.00     0.010 A 
ATOM     33  C   UNL A   1      39.266  25.507  28.840  1.00  0.00     0.010 A 
ATOM     34  C   UNL A   1      40.001  26.463  28.115  1.00  0.00    -0.014 A 
BRANCH  34  35
ATOM     35  C   UNL A   1      40.462  27.726  28.738  1.00  0.00     0.031 A 
ATOM     36  C   UNL A   1      39.514  28.879  28.887  1.00  0.00     0.074 A 
ATOM     37  C   UNL A   1      41.711  27.814  29.230  1.00  0.00     0.049 A 
ATOM     38  N   UNL A   1      39.718  30.048  29.442  1.00  0.00    -0.248 NA
ATOM     39  C   UNL A   1      38.156  28.693  28.353  1.00  0.00     0.031 C 
ATOM     40  C   UNL A   1      42.715  26.749  29.186  1.00  0.00     0.029 A 
ATOM     41  N   UNL A   1      42.345  28.848  29.872  1.00  0.00    -0.354 N 
ATOM     42  C   UNL A   1      38.519  30.738  29.318  1.00  0.00     0.074 A 
ATOM     43  C   UNL A   1      37.599  29.866  28.620  1.00  0.00     0.031 C 
ATOM     44  C   UNL A   1      43.838  27.186  29.780  1.00  0.00     0.029 A 
ATOM     45  C   UNL A   1      43.642  28.565  30.218  1.00  0.00     0.049 A 
ATOM     46  H   UNL A   1      41.910  29.710  30.067  1.00  0.00     0.167 HD
ATOM     47  C   UNL A   1      38.210  31.985  29.750  1.00  0.00     0.031 A 
ATOM     48  C   UNL A   1      44.576  29.336  30.807  1.00  0.00     0.031 A 
ATOM     49  C   UNL A   1      39.123  32.861  30.433  1.00  0.00     0.049 A 
ATOM     50  C   UNL A   1      44.228  30.738  31.219  1.00  0.00     0.074 A 
ATOM     51  C   UNL A   1      38.893  34.137  30.920  1.00  0.00     0.029 A 
ATOM     52  N   UNL A   1      40.444  32.556  30.719  1.00  0.00    -0.354 N 
ATOM     53  N   UNL A   1      43.082  31.367  31.118  1.00  0.00    -0.248 NA
ATOM     54  C   UNL A   1      45.301  31.533  31.833  1.00  0.00     0.031 C 
ATOM     55  C   UNL A   1      40.088  34.619  31.465  1.00  0.00     0.029 A 
ATOM     56  C   UNL A   1      41.048  33.627  31.357  1.00  0.00     0.049 A 
ATOM     57  H   UNL A   1      40.887  31.706  30.501  1.00  0.00     0.167 HD
ATOM     58  C   UNL A   1      43.292  32.624  31.670  1.00  0.00     0.074 A 
ATOM     59  C   UNL A   1      44.669  32.663  32.118  1.00  0.00     0.031 C 
ATOM     60  C   UNL A   1      42.419  33.654  31.795  1.00  0.00     0.031 A 
BRANCH  47  61
ATOM     61  C   UNL A   1      36.824  32.486  29.463  1.00  0.00    -0.014 A 
ATOM     62  C   UNL A   1      35.791  32.335  30.400  1.00  0.00     0.009 A 
ATOM     63  C   UNL A   1      36.558  33.146  28.254  1.00  0.00     0.009 A 
ATOM     64  C   UNL A   1      34.508  32.810  30.117  1.00  0.00     0.001 A 
ATOM     65  C   UNL A   1      35.281  33.638  27.983  1.00  0.00     0.001 A 
ATOM     66  C   UNL A   1      34.255  33.463  28.910  1.00  0.00     0.000 A 
ENDBRANCH  47  61
BRANCH  48  67
ATOM     67  C   UNL A   1      45.941  28.799  31.032  1.00  0.00    -0.014 A 
ATOM     68  C   UNL A   1      46.886  28.794  29.998  1.00  0.00     0.009 A 
ATOM     69  C   UNL A   1      46.305  28.290  32.289  1.00  0.00     0.009 A 
ATOM     70  C   UNL A   1      48.168  28.283  30.213  1.00  0.00     0.001 A 
ATOM     71  C   UNL A   1      47.592  27.795  32.506  1.00  0.00     0.001 A 
ATOM     72  C   UNL A   1      48.521  27.788  31.468  1.00  0.00     0.000 A 
ENDBRANCH  48  67
BRANCH  60  73
ATOM     73  C   UNL A   1      42.921  34.898  32.468  1.00  0.00    -0.014 A 
ATOM     74  C   UNL A   1      42.853  35.047  33.861  1.00  0.00     0.009 A 
ATOM     75  C   UNL A   1      43.503  35.918  31.698  1.00  0.00     0.009 A 
ATOM     76  C   UNL A   1      43.334  36.209  34.469  1.00  0.00     0.001 A 
ATOM     77  C   UNL A   1      44.002  37.069  32.312  1.00  0.00     0.001 A 
ATOM     78  C   UNL A   1      43.910  37.216  33.695  1.00  0.00     0.000 A 
ENDBRANCH  60  73
ENDBRANCH  34  35
ENDBRANCH  27  29
ENDBRANCH  26  27
ENDBRANCH  25  26
ENDBRANCH   1  25
TORSDOF 14
ENDMDL
