MODEL 1
REMARK VINA RESULT:     -12.1      0.000      0.000
REMARK SMILES Cc1nsc(NC(=O)[C@H]2Cc3[nH]cnc3C[NH2+]2)c1C(=O)OCCOC(=O)c1ccc(-c2c3nc(c(-c4ccccc4)c4ccc([nH]4)c(-c4ccccc4)c4nc(c(-c5ccccc5)c5ccc2[nH]5)C=C4)C=C3)cc1
REMARK SMILES IDX 22 1 21 2 19 3 20 4 18 5 1 6 2 7 3 8 4 9 5 10 6 11 7 12 8 14
REMARK SMILES IDX 9 15 10 16 17 17 11 18 16 19 12 22 15 23 13 24 14 26 23 27
REMARK SMILES IDX 24 28 25 29 26 30 27 31 28 32 74 33 29 34 73 35 30 36 31 37
REMARK SMILES IDX 32 38 67 39 33 40 72 41 66 42 68 43 34 44 71 45 65 46 64 47
REMARK SMILES IDX 35 49 57 50 42 51 56 52 43 53 46 54 55 55 69 56 44 57 45 58
REMARK SMILES IDX 54 60 70 61 47 62 36 63 37 64 41 65 38 66 40 67 39 68 58 69
REMARK SMILES IDX 59 70 63 71 60 72 62 73 61 74 48 75 49 76 53 77 50 78 52 79
REMARK SMILES IDX 51 80
REMARK H PARENT 6 13 17 20 17 21 12 25 68 48 46 59
REMARK Flexibility Score: inf
ROOT
ATOM      1  C   UNL A   1      33.833  28.957  27.734  1.00  0.00     0.275 C 
ENDROOT
BRANCH   1   2
ATOM      2  O   UNL A   1      33.205  28.153  26.721  1.00  0.00    -0.458 OA
BRANCH   2   3
ATOM      3  C   UNL A   1      31.910  27.781  26.930  1.00  0.00     0.343 C 
ATOM      4  O   UNL A   1      31.344  27.841  28.019  1.00  0.00    -0.246 OA
BRANCH   3   5
ATOM      5  C   UNL A   1      31.224  27.397  25.704  1.00  0.00     0.117 A 
ATOM      6  C   UNL A   1      31.383  29.652  24.344  1.00  0.00     0.069 C 
ATOM      7  C   UNL A   1      30.993  28.227  24.537  1.00  0.00     0.068 A 
ATOM      8  N   UNL A   1      30.326  27.650  23.540  1.00  0.00    -0.195 NA
ATOM      9  S   UNL A   1      29.905  26.139  23.998  1.00  0.00    -0.017 S 
ATOM     10  C   UNL A   1      30.591  26.166  25.536  1.00  0.00     0.131 A 
BRANCH  10  11
ATOM     11  N   UNL A   1      30.432  25.162  26.478  1.00  0.00    -0.310 N 
ATOM     12  C   UNL A   1      30.807  23.852  26.584  1.00  0.00     0.283 C 
ATOM     13  H   UNL A   1      29.924  25.467  27.264  1.00  0.00     0.171 HD
ATOM     14  O   UNL A   1      30.195  23.191  27.439  1.00  0.00    -0.268 OA
BRANCH  12  15
ATOM     15  C   UNL A   1      31.895  23.144  25.750  1.00  0.00     0.279 C 
ATOM     16  C   UNL A   1      32.692  22.107  26.613  1.00  0.00     0.131 C 
ATOM     17  N   UNL A   1      31.338  22.747  24.412  1.00  0.00    -0.331 N 
ATOM     18  C   UNL A   1      32.880  20.858  25.836  1.00  0.00     0.050 A 
ATOM     19  C   UNL A   1      32.276  21.905  23.633  1.00  0.00     0.320 C 
ATOM     20  H   UNL A   1      31.137  23.593  23.879  1.00  0.00     0.347 HD
ATOM     21  H   UNL A   1      30.494  22.199  24.579  1.00  0.00     0.347 HD
ATOM     22  N   UNL A   1      33.072  19.587  26.288  1.00  0.00    -0.348 N 
ATOM     23  C   UNL A   1      32.674  20.747  24.480  1.00  0.00     0.116 A 
ATOM     24  C   UNL A   1      32.911  18.761  25.205  1.00  0.00     0.197 A 
ATOM     25  H   UNL A   1      33.285  19.315  27.211  1.00  0.00     0.167 HD
ATOM     26  N   UNL A   1      32.692  19.436  24.095  1.00  0.00    -0.236 NA
ENDBRANCH  12  15
ENDBRANCH  10  11
ENDBRANCH   3   5
ENDBRANCH   2   3
ENDBRANCH   1   2
BRANCH   1  27
ATOM     27  C   UNL A   1      34.104  30.366  27.221  1.00  0.00     0.275 C 
BRANCH  27  28
ATOM     28  O   UNL A   1      35.471  30.736  27.409  1.00  0.00    -0.458 OA
BRANCH  28  29
ATOM     29  C   UNL A   1      35.753  31.299  28.604  1.00  0.00     0.338 C 
ATOM     30  O   UNL A   1      35.243  32.290  29.098  1.00  0.00    -0.246 OA
BRANCH  29  31
ATOM     31  C   UNL A   1      36.903  30.622  29.198  1.00  0.00     0.060 A 
ATOM     32  C   UNL A   1      38.180  31.006  28.782  1.00  0.00     0.016 A 
ATOM     33  C   UNL A   1      36.686  29.471  29.966  1.00  0.00     0.016 A 
ATOM     34  C   UNL A   1      39.236  30.155  29.031  1.00  0.00     0.010 A 
ATOM     35  C   UNL A   1      37.744  28.631  30.223  1.00  0.00     0.010 A 
ATOM     36  C   UNL A   1      38.994  28.943  29.689  1.00  0.00    -0.014 A 
BRANCH  36  37
ATOM     37  C   UNL A   1      40.110  28.032  29.874  1.00  0.00     0.031 A 
ATOM     38  C   UNL A   1      40.732  28.099  31.219  1.00  0.00     0.074 A 
ATOM     39  C   UNL A   1      40.457  27.124  28.943  1.00  0.00     0.049 A 
ATOM     40  N   UNL A   1      41.969  28.328  31.509  1.00  0.00    -0.248 NA
ATOM     41  C   UNL A   1      39.839  28.014  32.388  1.00  0.00     0.031 C 
ATOM     42  C   UNL A   1      39.752  26.812  27.693  1.00  0.00     0.029 A 
ATOM     43  N   UNL A   1      41.448  26.190  28.982  1.00  0.00    -0.354 N 
ATOM     44  C   UNL A   1      42.048  28.254  32.897  1.00  0.00     0.074 A 
ATOM     45  C   UNL A   1      40.697  28.190  33.390  1.00  0.00     0.031 C 
ATOM     46  C   UNL A   1      40.178  25.617  27.230  1.00  0.00     0.029 A 
ATOM     47  C   UNL A   1      41.276  25.162  28.064  1.00  0.00     0.049 A 
ATOM     48  H   UNL A   1      42.211  26.238  29.601  1.00  0.00     0.167 HD
ATOM     49  C   UNL A   1      43.223  27.999  33.529  1.00  0.00     0.031 A 
ATOM     50  C   UNL A   1      41.943  23.986  28.029  1.00  0.00     0.031 A 
ATOM     51  C   UNL A   1      44.359  28.253  32.686  1.00  0.00     0.049 A 
ATOM     52  C   UNL A   1      43.199  24.153  28.789  1.00  0.00     0.074 A 
ATOM     53  C   UNL A   1      44.953  29.368  32.139  1.00  0.00     0.029 A 
ATOM     54  N   UNL A   1      44.847  27.165  32.009  1.00  0.00    -0.354 N 
ATOM     55  N   UNL A   1      44.171  24.926  28.401  1.00  0.00    -0.248 NA
ATOM     56  C   UNL A   1      43.252  23.743  30.185  1.00  0.00     0.031 C 
ATOM     57  C   UNL A   1      45.522  28.930  30.907  1.00  0.00     0.029 A 
ATOM     58  C   UNL A   1      45.272  27.562  30.770  1.00  0.00     0.049 A 
ATOM     59  H   UNL A   1      44.884  26.245  32.358  1.00  0.00     0.167 HD
ATOM     60  C   UNL A   1      44.692  25.448  29.573  1.00  0.00     0.074 A 
ATOM     61  C   UNL A   1      44.214  24.559  30.625  1.00  0.00     0.031 C 
ATOM     62  C   UNL A   1      45.212  26.710  29.601  1.00  0.00     0.031 A 
BRANCH  49  63
ATOM     63  C   UNL A   1      43.312  27.068  34.714  1.00  0.00    -0.014 A 
ATOM     64  C   UNL A   1      43.107  25.692  34.511  1.00  0.00     0.009 A 
ATOM     65  C   UNL A   1      43.271  27.526  36.046  1.00  0.00     0.009 A 
ATOM     66  C   UNL A   1      42.810  24.837  35.579  1.00  0.00     0.001 A 
ATOM     67  C   UNL A   1      43.011  26.668  37.118  1.00  0.00     0.001 A 
ATOM     68  C   UNL A   1      42.753  25.327  36.880  1.00  0.00     0.000 A 
ENDBRANCH  49  63
BRANCH  50  69
ATOM     69  C   UNL A   1      41.439  22.674  27.582  1.00  0.00    -0.014 A 
ATOM     70  C   UNL A   1      40.147  22.528  27.061  1.00  0.00     0.009 A 
ATOM     71  C   UNL A   1      42.332  21.594  27.442  1.00  0.00     0.009 A 
ATOM     72  C   UNL A   1      39.771  21.351  26.400  1.00  0.00     0.001 A 
ATOM     73  C   UNL A   1      41.956  20.420  26.786  1.00  0.00     0.001 A 
ATOM     74  C   UNL A   1      40.678  20.303  26.253  1.00  0.00     0.000 A 
ENDBRANCH  50  69
BRANCH  62  75
ATOM     75  C   UNL A   1      45.504  27.359  28.273  1.00  0.00    -0.014 A 
ATOM     76  C   UNL A   1      44.538  28.073  27.542  1.00  0.00     0.009 A 
ATOM     77  C   UNL A   1      46.824  27.344  27.798  1.00  0.00     0.009 A 
ATOM     78  C   UNL A   1      44.877  28.724  26.353  1.00  0.00     0.001 A 
ATOM     79  C   UNL A   1      47.166  28.013  26.622  1.00  0.00     0.001 A 
ATOM     80  C   UNL A   1      46.192  28.697  25.896  1.00  0.00     0.000 A 
ENDBRANCH  62  75
ENDBRANCH  36  37
ENDBRANCH  29  31
ENDBRANCH  28  29
ENDBRANCH  27  28
ENDBRANCH   1  27
TORSDOF 13
ENDMDL
MODEL 2
REMARK VINA RESULT:     -12.0      1.321      1.680
REMARK SMILES Cc1nsc(NC(=O)[C@H]2Cc3[nH]cnc3C[NH2+]2)c1C(=O)OCCOC(=O)c1ccc(-c2c3nc(c(-c4ccccc4)c4ccc([nH]4)c(-c4ccccc4)c4nc(c(-c5ccccc5)c5ccc2[nH]5)C=C4)C=C3)cc1
REMARK SMILES IDX 22 1 21 2 19 3 20 4 18 5 1 6 2 7 3 8 4 9 5 10 6 11 7 12 8 14
REMARK SMILES IDX 9 15 10 16 17 17 11 18 16 19 12 22 15 23 13 24 14 26 23 27
REMARK SMILES IDX 24 28 25 29 26 30 27 31 28 32 74 33 29 34 73 35 30 36 31 37
REMARK SMILES IDX 32 38 67 39 33 40 72 41 66 42 68 43 34 44 71 45 65 46 64 47
REMARK SMILES IDX 35 49 57 50 42 51 56 52 43 53 46 54 55 55 69 56 44 57 45 58
REMARK SMILES IDX 54 60 70 61 47 62 36 63 37 64 41 65 38 66 40 67 39 68 58 69
REMARK SMILES IDX 59 70 63 71 60 72 62 73 61 74 48 75 49 76 53 77 50 78 52 79
REMARK SMILES IDX 51 80
REMARK H PARENT 6 13 17 20 17 21 12 25 68 48 46 59
REMARK Flexibility Score: inf
ROOT
ATOM      1  C   UNL A   1      33.824  29.217  27.242  1.00  0.00     0.275 C 
ENDROOT
BRANCH   1   2
ATOM      2  O   UNL A   1      32.747  28.981  26.320  1.00  0.00    -0.458 OA
BRANCH   2   3
ATOM      3  C   UNL A   1      31.788  28.087  26.691  1.00  0.00     0.343 C 
ATOM      4  O   UNL A   1      31.413  27.920  27.850  1.00  0.00    -0.246 OA
BRANCH   3   5
ATOM      5  C   UNL A   1      31.170  27.410  25.559  1.00  0.00     0.117 A 
ATOM      6  C   UNL A   1      30.574  29.481  24.036  1.00  0.00     0.069 C 
ATOM      7  C   UNL A   1      30.634  28.028  24.361  1.00  0.00     0.068 A 
ATOM      8  N   UNL A   1      30.106  27.194  23.467  1.00  0.00    -0.195 NA
ATOM      9  S   UNL A   1      30.178  25.674  24.063  1.00  0.00    -0.017 S 
ATOM     10  C   UNL A   1      30.920  26.038  25.532  1.00  0.00     0.131 A 
BRANCH  10  11
ATOM     11  N   UNL A   1      31.121  25.122  26.551  1.00  0.00    -0.310 N 
ATOM     12  C   UNL A   1      31.715  23.896  26.660  1.00  0.00     0.283 C 
ATOM     13  H   UNL A   1      30.746  25.430  27.407  1.00  0.00     0.171 HD
ATOM     14  O   UNL A   1      31.407  23.244  27.671  1.00  0.00    -0.268 OA
BRANCH  12  15
ATOM     15  C   UNL A   1      32.705  23.268  25.656  1.00  0.00     0.279 C 
ATOM     16  C   UNL A   1      33.896  24.237  25.348  1.00  0.00     0.131 C 
ATOM     17  N   UNL A   1      32.969  21.836  26.024  1.00  0.00    -0.331 N 
ATOM     18  C   UNL A   1      35.168  23.473  25.348  1.00  0.00     0.050 A 
ATOM     19  C   UNL A   1      34.047  21.228  25.209  1.00  0.00     0.320 C 
ATOM     20  H   UNL A   1      32.111  21.300  25.886  1.00  0.00     0.347 HD
ATOM     21  H   UNL A   1      33.269  21.817  26.999  1.00  0.00     0.347 HD
ATOM     22  N   UNL A   1      36.434  23.914  25.592  1.00  0.00    -0.348 N 
ATOM     23  C   UNL A   1      35.249  22.100  25.305  1.00  0.00     0.116 A 
ATOM     24  C   UNL A   1      37.211  22.795  25.750  1.00  0.00     0.197 A 
ATOM     25  H   UNL A   1      36.732  24.851  25.644  1.00  0.00     0.167 HD
ATOM     26  N   UNL A   1      36.527  21.685  25.560  1.00  0.00    -0.236 NA
ENDBRANCH  12  15
ENDBRANCH  10  11
ENDBRANCH   3   5
ENDBRANCH   2   3
ENDBRANCH   1   2
BRANCH   1  27
ATOM     27  C   UNL A   1      33.893  30.688  27.635  1.00  0.00     0.275 C 
BRANCH  27  28
ATOM     28  O   UNL A   1      35.210  31.212  27.465  1.00  0.00    -0.458 OA
BRANCH  28  29
ATOM     29  C   UNL A   1      35.894  31.425  28.610  1.00  0.00     0.338 C 
ATOM     30  O   UNL A   1      35.612  32.196  29.511  1.00  0.00    -0.246 OA
BRANCH  29  31
ATOM     31  C   UNL A   1      37.154  30.686  28.566  1.00  0.00     0.060 A 
ATOM     32  C   UNL A   1      37.126  29.364  28.118  1.00  0.00     0.016 A 
ATOM     33  C   UNL A   1      38.281  31.237  29.189  1.00  0.00     0.016 A 
ATOM     34  C   UNL A   1      38.196  28.547  28.415  1.00  0.00     0.010 A 
ATOM     35  C   UNL A   1      39.351  30.422  29.473  1.00  0.00     0.010 A 
ATOM     36  C   UNL A   1      39.268  29.068  29.151  1.00  0.00    -0.014 A 
BRANCH  36  37
ATOM     37  C   UNL A   1      40.349  28.168  29.513  1.00  0.00     0.031 A 
ATOM     38  C   UNL A   1      40.681  28.168  30.959  1.00  0.00     0.074 A 
ATOM     39  C   UNL A   1      40.905  27.321  28.626  1.00  0.00     0.049 A 
ATOM     40  N   UNL A   1      41.825  28.402  31.509  1.00  0.00    -0.248 NA
ATOM     41  C   UNL A   1      39.571  27.999  31.913  1.00  0.00     0.031 C 
ATOM     42  C   UNL A   1      40.480  27.070  27.244  1.00  0.00     0.029 A 
ATOM     43  N   UNL A   1      41.894  26.405  28.818  1.00  0.00    -0.354 N 
ATOM     44  C   UNL A   1      41.621  28.249  32.877  1.00  0.00     0.074 A 
ATOM     45  C   UNL A   1      40.201  28.133  33.078  1.00  0.00     0.031 C 
ATOM     46  C   UNL A   1      41.026  25.912  26.816  1.00  0.00     0.029 A 
ATOM     47  C   UNL A   1      41.943  25.429  27.832  1.00  0.00     0.049 A 
ATOM     48  H   UNL A   1      42.513  26.430  29.583  1.00  0.00     0.167 HD
ATOM     49  C   UNL A   1      42.649  27.979  33.723  1.00  0.00     0.031 A 
ATOM     50  C   UNL A   1      42.638  24.269  27.873  1.00  0.00     0.031 A 
ATOM     51  C   UNL A   1      43.925  28.302  33.146  1.00  0.00     0.049 A 
ATOM     52  C   UNL A   1      43.707  24.414  28.882  1.00  0.00     0.074 A 
ATOM     53  C   UNL A   1      44.585  29.457  32.793  1.00  0.00     0.029 A 
ATOM     54  N   UNL A   1      44.573  27.263  32.527  1.00  0.00    -0.354 N 
ATOM     55  N   UNL A   1      44.715  25.226  28.744  1.00  0.00    -0.248 NA
ATOM     56  C   UNL A   1      43.486  23.925  30.235  1.00  0.00     0.031 C 
ATOM     57  C   UNL A   1      45.407  29.101  31.683  1.00  0.00     0.029 A 
ATOM     58  C   UNL A   1      45.230  27.740  31.425  1.00  0.00     0.049 A 
ATOM     59  H   UNL A   1      44.565  26.326  32.827  1.00  0.00     0.167 HD
ATOM     60  C   UNL A   1      44.969  25.688  30.024  1.00  0.00     0.074 A 
ATOM     61  C   UNL A   1      44.313  24.731  30.906  1.00  0.00     0.031 C 
ATOM     62  C   UNL A   1      45.435  26.955  30.225  1.00  0.00     0.031 A 
BRANCH  49  63
ATOM     63  C   UNL A   1      42.521  26.983  34.850  1.00  0.00    -0.014 A 
ATOM     64  C   UNL A   1      42.620  25.612  34.555  1.00  0.00     0.009 A 
ATOM     65  C   UNL A   1      41.998  27.325  36.113  1.00  0.00     0.009 A 
ATOM     66  C   UNL A   1      42.153  24.642  35.451  1.00  0.00     0.001 A 
ATOM     67  C   UNL A   1      41.566  26.358  37.024  1.00  0.00     0.001 A 
ATOM     68  C   UNL A   1      41.619  25.016  36.681  1.00  0.00     0.000 A 
ENDBRANCH  49  63
BRANCH  50  69
ATOM     69  C   UNL A   1      42.274  22.977  27.262  1.00  0.00    -0.014 A 
ATOM     70  C   UNL A   1      43.176  22.271  26.456  1.00  0.00     0.009 A 
ATOM     71  C   UNL A   1      41.104  22.313  27.679  1.00  0.00     0.009 A 
ATOM     72  C   UNL A   1      42.927  20.938  26.101  1.00  0.00     0.001 A 
ATOM     73  C   UNL A   1      40.855  20.985  27.323  1.00  0.00     0.001 A 
ATOM     74  C   UNL A   1      41.773  20.293  26.544  1.00  0.00     0.000 A 
ENDBRANCH  50  69
BRANCH  62  75
ATOM     75  C   UNL A   1      45.974  27.685  29.021  1.00  0.00    -0.014 A 
ATOM     76  C   UNL A   1      45.160  28.445  28.162  1.00  0.00     0.009 A 
ATOM     77  C   UNL A   1      47.360  27.698  28.814  1.00  0.00     0.009 A 
ATOM     78  C   UNL A   1      45.717  29.168  27.103  1.00  0.00     0.001 A 
ATOM     79  C   UNL A   1      47.918  28.439  27.769  1.00  0.00     0.001 A 
ATOM     80  C   UNL A   1      47.097  29.168  26.911  1.00  0.00     0.000 A 
ENDBRANCH  62  75
ENDBRANCH  36  37
ENDBRANCH  29  31
ENDBRANCH  28  29
ENDBRANCH  27  28
ENDBRANCH   1  27
TORSDOF 13
ENDMDL
MODEL 3
REMARK VINA RESULT:     -11.7      3.559      8.458
REMARK SMILES Cc1nsc(NC(=O)[C@H]2Cc3[nH]cnc3C[NH2+]2)c1C(=O)OCCOC(=O)c1ccc(-c2c3nc(c(-c4ccccc4)c4ccc([nH]4)c(-c4ccccc4)c4nc(c(-c5ccccc5)c5ccc2[nH]5)C=C4)C=C3)cc1
REMARK SMILES IDX 22 1 21 2 19 3 20 4 18 5 1 6 2 7 3 8 4 9 5 10 6 11 7 12 8 14
REMARK SMILES IDX 9 15 10 16 17 17 11 18 16 19 12 22 15 23 13 24 14 26 23 27
REMARK SMILES IDX 24 28 25 29 26 30 27 31 28 32 74 33 29 34 73 35 30 36 31 37
REMARK SMILES IDX 32 38 67 39 33 40 72 41 66 42 68 43 34 44 71 45 65 46 64 47
REMARK SMILES IDX 35 49 57 50 42 51 56 52 43 53 46 54 55 55 69 56 44 57 45 58
REMARK SMILES IDX 54 60 70 61 47 62 36 63 37 64 41 65 38 66 40 67 39 68 58 69
REMARK SMILES IDX 59 70 63 71 60 72 62 73 61 74 48 75 49 76 53 77 50 78 52 79
REMARK SMILES IDX 51 80
REMARK H PARENT 6 13 17 20 17 21 12 25 68 48 46 59
REMARK Flexibility Score: inf
ROOT
ATOM      1  C   UNL A   1      37.663  23.482  25.451  1.00  0.00     0.275 C 
ENDROOT
BRANCH   1   2
ATOM      2  O   UNL A   1      36.406  22.829  25.207  1.00  0.00    -0.458 OA
BRANCH   2   3
ATOM      3  C   UNL A   1      35.937  22.828  23.927  1.00  0.00     0.343 C 
ATOM      4  O   UNL A   1      36.651  22.927  22.932  1.00  0.00    -0.246 OA
BRANCH   3   5
ATOM      5  C   UNL A   1      34.501  22.595  23.847  1.00  0.00     0.117 A 
ATOM      6  C   UNL A   1      34.360  20.155  24.841  1.00  0.00     0.069 C 
ATOM      7  C   UNL A   1      33.787  21.403  24.265  1.00  0.00     0.068 A 
ATOM      8  N   UNL A   1      32.470  21.424  24.077  1.00  0.00    -0.195 NA
ATOM      9  S   UNL A   1      32.067  22.827  23.342  1.00  0.00    -0.017 S 
ATOM     10  C   UNL A   1      33.615  23.486  23.242  1.00  0.00     0.131 A 
BRANCH  10  11
ATOM     11  N   UNL A   1      33.922  24.656  22.567  1.00  0.00    -0.310 N 
ATOM     12  C   UNL A   1      33.494  25.953  22.615  1.00  0.00     0.283 C 
ATOM     13  H   UNL A   1      34.620  24.520  21.886  1.00  0.00     0.171 HD
ATOM     14  O   UNL A   1      33.780  26.644  21.624  1.00  0.00    -0.268 OA
BRANCH  12  15
ATOM     15  C   UNL A   1      32.701  26.612  23.764  1.00  0.00     0.279 C 
ATOM     16  C   UNL A   1      33.558  26.697  25.072  1.00  0.00     0.131 C 
ATOM     17  N   UNL A   1      31.972  27.822  23.255  1.00  0.00    -0.331 N 
ATOM     18  C   UNL A   1      33.377  28.031  25.695  1.00  0.00     0.050 A 
ATOM     19  C   UNL A   1      31.337  28.603  24.344  1.00  0.00     0.320 C 
ATOM     20  H   UNL A   1      31.246  27.517  22.605  1.00  0.00     0.347 HD
ATOM     21  H   UNL A   1      32.655  28.425  22.798  1.00  0.00     0.347 HD
ATOM     22  N   UNL A   1      34.219  28.714  26.522  1.00  0.00    -0.348 N 
ATOM     23  C   UNL A   1      32.380  28.917  25.358  1.00  0.00     0.116 A 
ATOM     24  C   UNL A   1      33.734  29.995  26.596  1.00  0.00     0.197 A 
ATOM     25  H   UNL A   1      35.017  28.358  26.975  1.00  0.00     0.167 HD
ATOM     26  N   UNL A   1      32.612  30.141  25.921  1.00  0.00    -0.236 NA
ENDBRANCH  12  15
ENDBRANCH  10  11
ENDBRANCH   3   5
ENDBRANCH   2   3
ENDBRANCH   1   2
BRANCH   1  27
ATOM     27  C   UNL A   1      38.663  22.522  26.083  1.00  0.00     0.275 C 
BRANCH  27  28
ATOM     28  O   UNL A   1      39.433  23.165  27.099  1.00  0.00    -0.458 OA
BRANCH  28  29
ATOM     29  C   UNL A   1      40.734  23.364  26.793  1.00  0.00     0.338 C 
ATOM     30  O   UNL A   1      41.555  22.527  26.460  1.00  0.00    -0.246 OA
BRANCH  29  31
ATOM     31  C   UNL A   1      41.087  24.755  27.063  1.00  0.00     0.060 A 
ATOM     32  C   UNL A   1      41.765  25.043  28.250  1.00  0.00     0.016 A 
ATOM     33  C   UNL A   1      40.534  25.760  26.260  1.00  0.00     0.016 A 
ATOM     34  C   UNL A   1      41.776  26.346  28.701  1.00  0.00     0.010 A 
ATOM     35  C   UNL A   1      40.557  27.060  26.708  1.00  0.00     0.010 A 
ATOM     36  C   UNL A   1      41.111  27.330  27.959  1.00  0.00    -0.014 A 
BRANCH  36  37
ATOM     37  C   UNL A   1      41.075  28.680  28.492  1.00  0.00     0.031 A 
ATOM     38  C   UNL A   1      42.266  29.498  28.157  1.00  0.00     0.074 A 
ATOM     39  C   UNL A   1      39.993  29.172  29.126  1.00  0.00     0.049 A 
ATOM     40  N   UNL A   1      43.064  30.106  28.970  1.00  0.00    -0.248 NA
ATOM     41  C   UNL A   1      42.683  29.548  26.745  1.00  0.00     0.031 C 
ATOM     42  C   UNL A   1      38.683  28.530  29.286  1.00  0.00     0.029 A 
ATOM     43  N   UNL A   1      39.796  30.414  29.649  1.00  0.00    -0.354 N 
ATOM     44  C   UNL A   1      43.995  30.755  28.165  1.00  0.00     0.074 A 
ATOM     45  C   UNL A   1      43.795  30.275  26.823  1.00  0.00     0.031 C 
ATOM     46  C   UNL A   1      37.771  29.464  29.629  1.00  0.00     0.029 A 
ATOM     47  C   UNL A   1      38.458  30.723  29.853  1.00  0.00     0.049 A 
ATOM     48  H   UNL A   1      40.531  31.034  29.860  1.00  0.00     0.167 HD
ATOM     49  C   UNL A   1      44.700  31.826  28.614  1.00  0.00     0.031 A 
ATOM     50  C   UNL A   1      37.939  31.942  30.123  1.00  0.00     0.031 A 
ATOM     51  C   UNL A   1      44.701  31.910  30.049  1.00  0.00     0.049 A 
ATOM     52  C   UNL A   1      39.026  32.794  30.648  1.00  0.00     0.074 A 
ATOM     53  C   UNL A   1      45.248  31.181  31.081  1.00  0.00     0.029 A 
ATOM     54  N   UNL A   1      43.732  32.713  30.594  1.00  0.00    -0.354 N 
ATOM     55  N   UNL A   1      39.605  32.585  31.795  1.00  0.00    -0.248 NA
ATOM     56  C   UNL A   1      39.742  33.682  29.745  1.00  0.00     0.031 C 
ATOM     57  C   UNL A   1      44.339  31.323  32.170  1.00  0.00     0.029 A 
ATOM     58  C   UNL A   1      43.292  32.153  31.763  1.00  0.00     0.049 A 
ATOM     59  H   UNL A   1      43.405  33.556  30.206  1.00  0.00     0.167 HD
ATOM     60  C   UNL A   1      40.928  32.941  31.588  1.00  0.00     0.074 A 
ATOM     61  C   UNL A   1      40.911  33.765  30.386  1.00  0.00     0.031 C 
ATOM     62  C   UNL A   1      41.933  32.291  32.244  1.00  0.00     0.031 A 
BRANCH  49  63
ATOM     63  C   UNL A   1      44.956  33.038  27.752  1.00  0.00    -0.014 A 
ATOM     64  C   UNL A   1      43.857  33.753  27.245  1.00  0.00     0.009 A 
ATOM     65  C   UNL A   1      46.211  33.305  27.168  1.00  0.00     0.009 A 
ATOM     66  C   UNL A   1      43.999  34.635  26.167  1.00  0.00     0.001 A 
ATOM     67  C   UNL A   1      46.362  34.212  26.117  1.00  0.00     0.001 A 
ATOM     68  C   UNL A   1      45.250  34.856  25.597  1.00  0.00     0.000 A 
ENDBRANCH  49  63
BRANCH  50  69
ATOM     69  C   UNL A   1      36.621  32.471  29.724  1.00  0.00    -0.014 A 
ATOM     70  C   UNL A   1      35.646  32.793  30.676  1.00  0.00     0.009 A 
ATOM     71  C   UNL A   1      36.411  32.892  28.396  1.00  0.00     0.009 A 
ATOM     72  C   UNL A   1      34.511  33.533  30.316  1.00  0.00     0.001 A 
ATOM     73  C   UNL A   1      35.279  33.628  28.037  1.00  0.00     0.001 A 
ATOM     74  C   UNL A   1      34.335  33.960  29.001  1.00  0.00     0.000 A 
ENDBRANCH  50  69
BRANCH  62  75
ATOM     75  C   UNL A   1      41.540  31.436  33.422  1.00  0.00    -0.014 A 
ATOM     76  C   UNL A   1      41.419  31.945  34.728  1.00  0.00     0.009 A 
ATOM     77  C   UNL A   1      41.173  30.104  33.188  1.00  0.00     0.009 A 
ATOM     78  C   UNL A   1      40.976  31.131  35.774  1.00  0.00     0.001 A 
ATOM     79  C   UNL A   1      40.709  29.298  34.229  1.00  0.00     0.001 A 
ATOM     80  C   UNL A   1      40.617  29.809  35.523  1.00  0.00     0.000 A 
ENDBRANCH  62  75
ENDBRANCH  36  37
ENDBRANCH  29  31
ENDBRANCH  28  29
ENDBRANCH  27  28
ENDBRANCH   1  27
TORSDOF 13
ENDMDL
