MODEL 1
REMARK VINA RESULT:     -10.8      0.000      0.000
REMARK SMILES Cc1cc(C(=O)N[C@H](CC(C)C)C(=O)OCCOC(=O)c2ccc(-c3c4nc(c(-c5ccccc5)c5ccc([nH]5)c(-c5ccccc5)c5nc(c(-c6ccccc6)c6ccc3[nH]6)C=C5)C=C4)cc2)sc1Br
REMARK SMILES IDX 16 1 15 2 13 3 14 4 8 5 7 6 5 7 6 8 4 10 1 11 2 12 3 13
REMARK SMILES IDX 70 14 69 15 71 16 9 17 10 18 11 19 12 20 17 21 18 22 19 23
REMARK SMILES IDX 20 24 21 25 22 26 68 27 23 28 67 29 24 30 25 31 26 32 61 33
REMARK SMILES IDX 27 34 66 35 60 36 62 37 28 38 65 39 59 40 58 41 29 43 51 44
REMARK SMILES IDX 36 45 50 46 37 47 40 48 49 49 63 50 38 51 39 52 48 54 64 55
REMARK SMILES IDX 41 56 30 57 31 58 35 59 32 60 34 61 33 62 52 63 53 64 57 65
REMARK SMILES IDX 54 66 56 67 55 68 42 69 43 70 47 71 44 72 46 73 45 74
REMARK H PARENT 7 9 62 42 40 53
REMARK Flexibility Score: inf
ROOT
ATOM      1  C   UNL A   1      38.012  20.106  24.932  1.00  0.00     0.274 C 
ENDROOT
BRANCH   1   2
ATOM      2  O   UNL A   1      36.933  20.861  25.510  1.00  0.00    -0.461 OA
BRANCH   2   3
ATOM      3  C   UNL A   1      35.961  21.276  24.654  1.00  0.00     0.328 C 
ATOM      4  O   UNL A   1      36.095  22.191  23.843  1.00  0.00    -0.250 OA
BRANCH   3   5
ATOM      5  C   UNL A   1      34.611  20.564  24.911  1.00  0.00     0.192 C 
BRANCH   5   6
ATOM      6  N   UNL A   1      34.392  20.987  26.316  1.00  0.00    -0.338 N 
ATOM      7  C   UNL A   1      33.615  21.947  26.937  1.00  0.00     0.262 C 
ATOM      8  O   UNL A   1      33.360  21.692  28.119  1.00  0.00    -0.268 OA
ATOM      9  H   UNL A   1      34.925  20.462  26.955  1.00  0.00     0.164 HD
BRANCH   7  10
ATOM     10  C   UNL A   1      33.235  23.217  26.318  1.00  0.00     0.093 A 
ATOM     11  C   UNL A   1      33.834  26.797  25.364  1.00  0.00     0.046 C 
ATOM     12  C   UNL A   1      33.194  25.464  25.602  1.00  0.00    -0.025 A 
ATOM     13  C   UNL A   1      33.909  24.213  25.629  1.00  0.00     0.030 A 
ATOM     14  C   UNL A   1      31.861  25.211  25.829  1.00  0.00     0.074 A 
ATOM     15  S   UNL A   1      31.558  23.632  26.359  1.00  0.00    -0.123 S 
ATOM     16  Br  UNL A   1      30.479  26.461  25.614  1.00  0.00    -0.039 Br
ENDBRANCH   7  10
ENDBRANCH   5   6
BRANCH   5  17
ATOM     17  C   UNL A   1      34.482  19.051  24.674  1.00  0.00     0.040 C 
BRANCH  17  18
ATOM     18  C   UNL A   1      33.360  18.339  23.879  1.00  0.00    -0.015 C 
ATOM     19  C   UNL A   1      33.881  17.070  23.193  1.00  0.00     0.007 C 
ATOM     20  C   UNL A   1      32.317  17.814  24.891  1.00  0.00     0.007 C 
ENDBRANCH  17  18
ENDBRANCH   5  17
ENDBRANCH   3   5
ENDBRANCH   2   3
ENDBRANCH   1   2
BRANCH   1  21
ATOM     21  C   UNL A   1      39.306  20.539  25.615  1.00  0.00     0.275 C 
BRANCH  21  22
ATOM     22  O   UNL A   1      40.142  19.463  26.087  1.00  0.00    -0.458 OA
BRANCH  22  23
ATOM     23  C   UNL A   1      41.470  19.580  25.895  1.00  0.00     0.338 C 
ATOM     24  O   UNL A   1      42.241  18.740  25.451  1.00  0.00    -0.246 OA
BRANCH  23  25
ATOM     25  C   UNL A   1      42.021  20.747  26.586  1.00  0.00     0.060 A 
ATOM     26  C   UNL A   1      41.621  20.913  27.920  1.00  0.00     0.016 A 
ATOM     27  C   UNL A   1      42.629  21.778  25.868  1.00  0.00     0.016 A 
ATOM     28  C   UNL A   1      41.631  22.176  28.464  1.00  0.00     0.010 A 
ATOM     29  C   UNL A   1      42.721  23.025  26.450  1.00  0.00     0.010 A 
ATOM     30  C   UNL A   1      42.168  23.231  27.716  1.00  0.00    -0.014 A 
BRANCH  30  31
ATOM     31  C   UNL A   1      42.449  24.463  28.436  1.00  0.00     0.031 A 
ATOM     32  C   UNL A   1      41.411  25.496  28.139  1.00  0.00     0.074 A 
ATOM     33  C   UNL A   1      43.404  24.574  29.380  1.00  0.00     0.049 A 
ATOM     34  N   UNL A   1      41.593  26.676  27.649  1.00  0.00    -0.248 NA
ATOM     35  C   UNL A   1      39.990  25.083  28.177  1.00  0.00     0.031 C 
ATOM     36  C   UNL A   1      44.299  23.533  29.890  1.00  0.00     0.029 A 
ATOM     37  N   UNL A   1      43.677  25.623  30.203  1.00  0.00    -0.354 N 
ATOM     38  C   UNL A   1      40.322  27.223  27.500  1.00  0.00     0.074 A 
ATOM     39  C   UNL A   1      39.386  26.144  27.648  1.00  0.00     0.031 C 
ATOM     40  C   UNL A   1      44.774  23.912  31.100  1.00  0.00     0.029 A 
ATOM     41  C   UNL A   1      44.311  25.259  31.388  1.00  0.00     0.049 A 
ATOM     42  H   UNL A   1      43.448  26.554  29.980  1.00  0.00     0.167 HD
ATOM     43  C   UNL A   1      40.125  28.567  27.536  1.00  0.00     0.031 A 
ATOM     44  C   UNL A   1      44.362  25.980  32.541  1.00  0.00     0.031 A 
ATOM     45  C   UNL A   1      41.355  29.281  27.320  1.00  0.00     0.049 A 
ATOM     46  C   UNL A   1      43.973  27.374  32.215  1.00  0.00     0.074 A 
ATOM     47  C   UNL A   1      42.256  29.354  26.278  1.00  0.00     0.029 A 
ATOM     48  N   UNL A   1      42.014  29.729  28.440  1.00  0.00    -0.354 N 
ATOM     49  N   UNL A   1      44.720  28.172  31.509  1.00  0.00    -0.248 NA
ATOM     50  C   UNL A   1      42.556  27.707  32.245  1.00  0.00     0.031 C 
ATOM     51  C   UNL A   1      43.534  29.386  26.905  1.00  0.00     0.029 A 
ATOM     52  C   UNL A   1      43.343  29.434  28.287  1.00  0.00     0.049 A 
ATOM     53  H   UNL A   1      41.605  30.180  29.214  1.00  0.00     0.167 HD
ATOM     54  C   UNL A   1      43.835  28.790  30.639  1.00  0.00     0.074 A 
ATOM     55  C   UNL A   1      42.507  28.533  31.196  1.00  0.00     0.031 C 
ATOM     56  C   UNL A   1      44.236  29.180  29.393  1.00  0.00     0.031 A 
BRANCH  43  57
ATOM     57  C   UNL A   1      38.943  29.198  28.225  1.00  0.00    -0.014 A 
ATOM     58  C   UNL A   1      38.785  28.985  29.605  1.00  0.00     0.009 A 
ATOM     59  C   UNL A   1      37.834  29.725  27.533  1.00  0.00     0.009 A 
ATOM     60  C   UNL A   1      37.556  29.201  30.237  1.00  0.00     0.001 A 
ATOM     61  C   UNL A   1      36.617  29.979  28.169  1.00  0.00     0.001 A 
ATOM     62  C   UNL A   1      36.469  29.686  29.516  1.00  0.00     0.000 A 
ENDBRANCH  43  57
BRANCH  44  63
ATOM     63  C   UNL A   1      44.434  25.513  33.948  1.00  0.00    -0.014 A 
ATOM     64  C   UNL A   1      43.383  24.770  34.514  1.00  0.00     0.009 A 
ATOM     65  C   UNL A   1      45.649  25.557  34.655  1.00  0.00     0.009 A 
ATOM     66  C   UNL A   1      43.556  24.068  35.717  1.00  0.00     0.001 A 
ATOM     67  C   UNL A   1      45.820  24.860  35.858  1.00  0.00     0.001 A 
ATOM     68  C   UNL A   1      44.779  24.102  36.381  1.00  0.00     0.000 A 
ENDBRANCH  44  63
BRANCH  56  69
ATOM     69  C   UNL A   1      45.710  29.135  29.071  1.00  0.00    -0.014 A 
ATOM     70  C   UNL A   1      46.377  27.990  28.600  1.00  0.00     0.009 A 
ATOM     71  C   UNL A   1      46.418  30.344  29.111  1.00  0.00     0.009 A 
ATOM     72  C   UNL A   1      47.723  28.050  28.222  1.00  0.00     0.001 A 
ATOM     73  C   UNL A   1      47.752  30.411  28.712  1.00  0.00     0.001 A 
ATOM     74  C   UNL A   1      48.408  29.263  28.277  1.00  0.00     0.000 A 
ENDBRANCH  56  69
ENDBRANCH  30  31
ENDBRANCH  23  25
ENDBRANCH  22  23
ENDBRANCH  21  22
ENDBRANCH   1  21
TORSDOF 15
ENDMDL
MODEL 2
REMARK VINA RESULT:     -10.4      3.270      7.375
REMARK SMILES Cc1cc(C(=O)N[C@H](CC(C)C)C(=O)OCCOC(=O)c2ccc(-c3c4nc(c(-c5ccccc5)c5ccc([nH]5)c(-c5ccccc5)c5nc(c(-c6ccccc6)c6ccc3[nH]6)C=C5)C=C4)cc2)sc1Br
REMARK SMILES IDX 16 1 15 2 13 3 14 4 8 5 7 6 5 7 6 8 4 10 1 11 2 12 3 13
REMARK SMILES IDX 70 14 69 15 71 16 9 17 10 18 11 19 12 20 17 21 18 22 19 23
REMARK SMILES IDX 20 24 21 25 22 26 68 27 23 28 67 29 24 30 25 31 26 32 61 33
REMARK SMILES IDX 27 34 66 35 60 36 62 37 28 38 65 39 59 40 58 41 29 43 51 44
REMARK SMILES IDX 36 45 50 46 37 47 40 48 49 49 63 50 38 51 39 52 48 54 64 55
REMARK SMILES IDX 41 56 30 57 31 58 35 59 32 60 34 61 33 62 52 63 53 64 57 65
REMARK SMILES IDX 54 66 56 67 55 68 42 69 43 70 47 71 44 72 46 73 45 74
REMARK H PARENT 7 9 62 42 40 53
REMARK Flexibility Score: inf
ROOT
ATOM      1  C   UNL A   1      32.293  30.063  25.900  1.00  0.00     0.274 C 
ENDROOT
BRANCH   1   2
ATOM      2  O   UNL A   1      32.812  28.780  25.511  1.00  0.00    -0.461 OA
BRANCH   2   3
ATOM      3  C   UNL A   1      31.921  27.908  24.966  1.00  0.00     0.328 C 
ATOM      4  O   UNL A   1      30.790  28.215  24.595  1.00  0.00    -0.250 OA
BRANCH   3   5
ATOM      5  C   UNL A   1      32.436  26.449  24.995  1.00  0.00     0.192 C 
BRANCH   5   6
ATOM      6  N   UNL A   1      33.151  26.432  23.695  1.00  0.00    -0.338 N 
ATOM      7  C   UNL A   1      33.460  25.459  22.763  1.00  0.00     0.262 C 
ATOM      8  O   UNL A   1      33.653  25.902  21.626  1.00  0.00    -0.268 OA
ATOM      9  H   UNL A   1      33.481  27.321  23.435  1.00  0.00     0.164 HD
BRANCH   7  10
ATOM     10  C   UNL A   1      33.680  24.051  23.094  1.00  0.00     0.093 A 
ATOM     11  C   UNL A   1      32.540  20.629  24.129  1.00  0.00     0.046 C 
ATOM     12  C   UNL A   1      33.387  21.813  23.781  1.00  0.00    -0.025 A 
ATOM     13  C   UNL A   1      32.976  22.875  22.896  1.00  0.00     0.030 A 
ATOM     14  C   UNL A   1      34.658  22.088  24.230  1.00  0.00     0.074 A 
ATOM     15  S   UNL A   1      35.174  23.659  23.871  1.00  0.00    -0.123 S 
ATOM     16  Br  UNL A   1      35.745  20.885  25.175  1.00  0.00    -0.039 Br
ENDBRANCH   7  10
ENDBRANCH   5   6
BRANCH   5  17
ATOM     17  C   UNL A   1      31.449  25.288  25.195  1.00  0.00     0.040 C 
BRANCH  17  18
ATOM     18  C   UNL A   1      31.343  24.379  26.443  1.00  0.00    -0.015 C 
ATOM     19  C   UNL A   1      30.563  23.094  26.133  1.00  0.00     0.007 C 
ATOM     20  C   UNL A   1      32.763  23.877  26.790  1.00  0.00     0.007 C 
ENDBRANCH  17  18
ENDBRANCH   5  17
ENDBRANCH   3   5
ENDBRANCH   2   3
ENDBRANCH   1   2
BRANCH   1  21
ATOM     21  C   UNL A   1      32.905  30.428  27.248  1.00  0.00     0.275 C 
BRANCH  21  22
ATOM     22  O   UNL A   1      34.201  31.058  27.186  1.00  0.00    -0.458 OA
BRANCH  22  23
ATOM     23  C   UNL A   1      34.824  31.311  28.352  1.00  0.00     0.338 C 
ATOM     24  O   UNL A   1      34.431  32.011  29.276  1.00  0.00    -0.246 OA
BRANCH  23  25
ATOM     25  C   UNL A   1      36.234  30.920  28.315  1.00  0.00     0.060 A 
ATOM     26  C   UNL A   1      36.488  29.575  28.007  1.00  0.00     0.016 A 
ATOM     27  C   UNL A   1      37.217  31.744  28.865  1.00  0.00     0.016 A 
ATOM     28  C   UNL A   1      37.656  29.001  28.451  1.00  0.00     0.010 A 
ATOM     29  C   UNL A   1      38.424  31.185  29.227  1.00  0.00     0.010 A 
ATOM     30  C   UNL A   1      38.613  29.810  29.076  1.00  0.00    -0.014 A 
BRANCH  30  31
ATOM     31  C   UNL A   1      39.941  29.240  29.238  1.00  0.00     0.031 A 
ATOM     32  C   UNL A   1      40.277  29.088  30.686  1.00  0.00     0.074 A 
ATOM     33  C   UNL A   1      40.672  28.748  28.218  1.00  0.00     0.049 A 
ATOM     34  N   UNL A   1      41.283  29.591  31.319  1.00  0.00    -0.248 NA
ATOM     35  C   UNL A   1      39.251  28.497  31.578  1.00  0.00     0.031 C 
ATOM     36  C   UNL A   1      40.302  28.649  26.805  1.00  0.00     0.029 A 
ATOM     37  N   UNL A   1      41.859  28.084  28.257  1.00  0.00    -0.354 N 
ATOM     38  C   UNL A   1      41.118  29.218  32.650  1.00  0.00     0.074 A 
ATOM     39  C   UNL A   1      39.773  28.728  32.780  1.00  0.00     0.031 C 
ATOM     40  C   UNL A   1      41.084  27.720  26.207  1.00  0.00     0.029 A 
ATOM     41  C   UNL A   1      42.074  27.252  27.163  1.00  0.00     0.049 A 
ATOM     42  H   UNL A   1      42.506  28.184  28.992  1.00  0.00     0.167 HD
ATOM     43  C   UNL A   1      42.184  29.086  33.481  1.00  0.00     0.031 A 
ATOM     44  C   UNL A   1      42.937  26.201  27.093  1.00  0.00     0.031 A 
ATOM     45  C   UNL A   1      43.342  29.758  32.956  1.00  0.00     0.049 A 
ATOM     46  C   UNL A   1      43.886  26.326  28.226  1.00  0.00     0.074 A 
ATOM     47  C   UNL A   1      43.636  31.071  32.647  1.00  0.00     0.029 A 
ATOM     48  N   UNL A   1      44.254  28.983  32.280  1.00  0.00    -0.354 N 
ATOM     49  N   UNL A   1      44.792  27.257  28.293  1.00  0.00    -0.248 NA
ATOM     50  C   UNL A   1      43.502  25.733  29.499  1.00  0.00     0.031 C 
ATOM     51  C   UNL A   1      44.392  30.999  31.442  1.00  0.00     0.029 A 
ATOM     52  C   UNL A   1      44.605  29.653  31.138  1.00  0.00     0.049 A 
ATOM     53  H   UNL A   1      44.593  28.104  32.565  1.00  0.00     0.167 HD
ATOM     54  C   UNL A   1      44.735  27.697  29.607  1.00  0.00     0.074 A 
ATOM     55  C   UNL A   1      43.988  26.665  30.326  1.00  0.00     0.031 C 
ATOM     56  C   UNL A   1      45.023  28.994  29.923  1.00  0.00     0.031 A 
BRANCH  43  57
ATOM     57  C   UNL A   1      42.293  27.976  34.494  1.00  0.00    -0.014 A 
ATOM     58  C   UNL A   1      42.682  26.702  34.048  1.00  0.00     0.009 A 
ATOM     59  C   UNL A   1      41.743  28.054  35.790  1.00  0.00     0.009 A 
ATOM     60  C   UNL A   1      42.448  25.559  34.820  1.00  0.00     0.001 A 
ATOM     61  C   UNL A   1      41.544  26.920  36.580  1.00  0.00     0.001 A 
ATOM     62  C   UNL A   1      41.867  25.668  36.080  1.00  0.00     0.000 A 
ENDBRANCH  43  57
BRANCH  44  63
ATOM     63  C   UNL A   1      42.838  24.945  26.309  1.00  0.00    -0.014 A 
ATOM     64  C   UNL A   1      43.832  24.597  25.377  1.00  0.00     0.009 A 
ATOM     65  C   UNL A   1      41.912  23.949  26.669  1.00  0.00     0.009 A 
ATOM     66  C   UNL A   1      43.918  23.295  24.859  1.00  0.00     0.001 A 
ATOM     67  C   UNL A   1      41.995  22.651  26.149  1.00  0.00     0.001 A 
ATOM     68  C   UNL A   1      43.008  22.320  25.256  1.00  0.00     0.000 A 
ENDBRANCH  44  63
BRANCH  56  69
ATOM     69  C   UNL A   1      45.626  29.873  28.854  1.00  0.00    -0.014 A 
ATOM     70  C   UNL A   1      47.006  29.972  28.605  1.00  0.00     0.009 A 
ATOM     71  C   UNL A   1      44.745  30.515  27.973  1.00  0.00     0.009 A 
ATOM     72  C   UNL A   1      47.487  30.726  27.529  1.00  0.00     0.001 A 
ATOM     73  C   UNL A   1      45.221  31.247  26.886  1.00  0.00     0.001 A 
ATOM     74  C   UNL A   1      46.592  31.361  26.669  1.00  0.00     0.000 A 
ENDBRANCH  56  69
ENDBRANCH  30  31
ENDBRANCH  23  25
ENDBRANCH  22  23
ENDBRANCH  21  22
ENDBRANCH   1  21
TORSDOF 15
ENDMDL
MODEL 3
REMARK VINA RESULT:     -10.3      2.627      6.136
REMARK SMILES Cc1cc(C(=O)N[C@H](CC(C)C)C(=O)OCCOC(=O)c2ccc(-c3c4nc(c(-c5ccccc5)c5ccc([nH]5)c(-c5ccccc5)c5nc(c(-c6ccccc6)c6ccc3[nH]6)C=C5)C=C4)cc2)sc1Br
REMARK SMILES IDX 16 1 15 2 13 3 14 4 8 5 7 6 5 7 6 8 4 10 1 11 2 12 3 13
REMARK SMILES IDX 70 14 69 15 71 16 9 17 10 18 11 19 12 20 17 21 18 22 19 23
REMARK SMILES IDX 20 24 21 25 22 26 68 27 23 28 67 29 24 30 25 31 26 32 61 33
REMARK SMILES IDX 27 34 66 35 60 36 62 37 28 38 65 39 59 40 58 41 29 43 51 44
REMARK SMILES IDX 36 45 50 46 37 47 40 48 49 49 63 50 38 51 39 52 48 54 64 55
REMARK SMILES IDX 41 56 30 57 31 58 35 59 32 60 34 61 33 62 52 63 53 64 57 65
REMARK SMILES IDX 54 66 56 67 55 68 42 69 43 70 47 71 44 72 46 73 45 74
REMARK H PARENT 7 9 62 42 40 53
REMARK Flexibility Score: inf
ROOT
ATOM      1  C   UNL A   1      36.131  21.123  25.294  1.00  0.00     0.274 C 
ENDROOT
BRANCH   1   2
ATOM      2  O   UNL A   1      35.672  22.223  26.098  1.00  0.00    -0.461 OA
BRANCH   2   3
ATOM      3  C   UNL A   1      34.353  22.217  26.433  1.00  0.00     0.328 C 
ATOM      4  O   UNL A   1      33.822  21.363  27.141  1.00  0.00    -0.250 OA
BRANCH   3   5
ATOM      5  C   UNL A   1      33.558  23.326  25.703  1.00  0.00     0.192 C 
BRANCH   5   6
ATOM      6  N   UNL A   1      32.379  23.392  26.601  1.00  0.00    -0.338 N 
ATOM      7  C   UNL A   1      31.161  24.045  26.568  1.00  0.00     0.262 C 
ATOM      8  O   UNL A   1      30.286  23.501  27.251  1.00  0.00    -0.268 OA
ATOM      9  H   UNL A   1      32.490  22.841  27.409  1.00  0.00     0.164 HD
BRANCH   7  10
ATOM     10  C   UNL A   1      30.943  25.333  25.909  1.00  0.00     0.093 A 
ATOM     11  C   UNL A   1      30.170  27.496  22.942  1.00  0.00     0.046 C 
ATOM     12  C   UNL A   1      30.566  27.021  24.305  1.00  0.00    -0.025 A 
ATOM     13  C   UNL A   1      30.109  25.790  24.902  1.00  0.00     0.030 A 
ATOM     14  C   UNL A   1      31.405  27.651  25.194  1.00  0.00     0.074 A 
ATOM     15  S   UNL A   1      31.860  26.674  26.499  1.00  0.00    -0.123 S 
ATOM     16  Br  UNL A   1      32.035  29.409  25.013  1.00  0.00    -0.039 Br
ENDBRANCH   7  10
ENDBRANCH   5   6
BRANCH   5  17
ATOM     17  C   UNL A   1      33.216  23.173  24.212  1.00  0.00     0.040 C 
BRANCH  17  18
ATOM     18  C   UNL A   1      33.595  24.157  23.079  1.00  0.00    -0.015 C 
ATOM     19  C   UNL A   1      32.370  24.537  22.236  1.00  0.00     0.007 C 
ATOM     20  C   UNL A   1      34.029  25.490  23.728  1.00  0.00     0.007 C 
ENDBRANCH  17  18
ENDBRANCH   5  17
ENDBRANCH   3   5
ENDBRANCH   2   3
ENDBRANCH   1   2
BRANCH   1  21
ATOM     21  C   UNL A   1      37.636  21.280  25.101  1.00  0.00     0.275 C 
BRANCH  21  22
ATOM     22  O   UNL A   1      38.216  22.455  25.704  1.00  0.00    -0.458 OA
BRANCH  22  23
ATOM     23  C   UNL A   1      39.436  22.329  26.259  1.00  0.00     0.338 C 
ATOM     24  O   UNL A   1      40.168  21.347  26.248  1.00  0.00    -0.246 OA
BRANCH  23  25
ATOM     25  C   UNL A   1      39.720  23.407  27.206  1.00  0.00     0.060 A 
ATOM     26  C   UNL A   1      38.834  24.495  27.178  1.00  0.00     0.016 A 
ATOM     27  C   UNL A   1      40.957  23.486  27.847  1.00  0.00     0.016 A 
ATOM     28  C   UNL A   1      39.279  25.726  27.601  1.00  0.00     0.010 A 
ATOM     29  C   UNL A   1      41.365  24.702  28.353  1.00  0.00     0.010 A 
ATOM     30  C   UNL A   1      40.553  25.825  28.173  1.00  0.00    -0.014 A 
BRANCH  30  31
ATOM     31  C   UNL A   1      40.853  27.056  28.885  1.00  0.00     0.031 A 
ATOM     32  C   UNL A   1      42.000  27.770  28.246  1.00  0.00     0.074 A 
ATOM     33  C   UNL A   1      40.075  27.561  29.863  1.00  0.00     0.049 A 
ATOM     34  N   UNL A   1      43.116  28.116  28.794  1.00  0.00    -0.248 NA
ATOM     35  C   UNL A   1      41.995  27.910  26.772  1.00  0.00     0.031 C 
ATOM     36  C   UNL A   1      38.808  27.034  30.375  1.00  0.00     0.029 A 
ATOM     37  N   UNL A   1      40.180  28.752  30.512  1.00  0.00    -0.354 N 
ATOM     38  C   UNL A   1      43.874  28.691  27.778  1.00  0.00     0.074 A 
ATOM     39  C   UNL A   1      43.226  28.359  26.539  1.00  0.00     0.031 C 
ATOM     40  C   UNL A   1      38.138  28.027  31.004  1.00  0.00     0.029 A 
ATOM     41  C   UNL A   1      38.976  29.215  31.037  1.00  0.00     0.049 A 
ATOM     42  H   UNL A   1      41.029  29.243  30.601  1.00  0.00     0.167 HD
ATOM     43  C   UNL A   1      44.824  29.623  28.049  1.00  0.00     0.031 A 
ATOM     44  C   UNL A   1      38.674  30.496  31.381  1.00  0.00     0.031 A 
ATOM     45  C   UNL A   1      45.201  29.596  29.436  1.00  0.00     0.049 A 
ATOM     46  C   UNL A   1      39.949  31.248  31.473  1.00  0.00     0.074 A 
ATOM     47  C   UNL A   1      45.772  28.649  30.262  1.00  0.00     0.029 A 
ATOM     48  N   UNL A   1      44.600  30.520  30.258  1.00  0.00    -0.354 N 
ATOM     49  N   UNL A   1      40.826  31.045  32.413  1.00  0.00    -0.248 NA
ATOM     50  C   UNL A   1      40.467  31.854  30.255  1.00  0.00     0.031 C 
ATOM     51  C   UNL A   1      45.086  28.788  31.502  1.00  0.00     0.029 A 
ATOM     52  C   UNL A   1      44.212  29.871  31.400  1.00  0.00     0.049 A 
ATOM     53  H   UNL A   1      44.471  31.476  30.061  1.00  0.00     0.167 HD
ATOM     54  C   UNL A   1      42.044  31.040  31.751  1.00  0.00     0.074 A 
ATOM     55  C   UNL A   1      41.772  31.631  30.441  1.00  0.00     0.031 C 
ATOM     56  C   UNL A   1      43.083  30.277  32.204  1.00  0.00     0.031 A 
BRANCH  43  57
ATOM     57  C   UNL A   1      45.045  30.835  27.182  1.00  0.00    -0.014 A 
ATOM     58  C   UNL A   1      46.365  31.263  26.958  1.00  0.00     0.009 A 
ATOM     59  C   UNL A   1      44.018  31.737  26.835  1.00  0.00     0.009 A 
ATOM     60  C   UNL A   1      46.641  32.556  26.501  1.00  0.00     0.001 A 
ATOM     61  C   UNL A   1      44.289  33.014  26.341  1.00  0.00     0.001 A 
ATOM     62  C   UNL A   1      45.603  33.434  26.204  1.00  0.00     0.000 A 
ENDBRANCH  43  57
BRANCH  44  63
ATOM     63  C   UNL A   1      37.368  31.201  31.354  1.00  0.00    -0.014 A 
ATOM     64  C   UNL A   1      36.702  31.532  32.547  1.00  0.00     0.009 A 
ATOM     65  C   UNL A   1      36.902  31.796  30.168  1.00  0.00     0.009 A 
ATOM     66  C   UNL A   1      35.641  32.450  32.557  1.00  0.00     0.001 A 
ATOM     67  C   UNL A   1      35.840  32.710  30.176  1.00  0.00     0.001 A 
ATOM     68  C   UNL A   1      35.220  33.049  31.374  1.00  0.00     0.000 A 
ENDBRANCH  44  63
BRANCH  56  69
ATOM     69  C   UNL A   1      42.953  29.627  33.560  1.00  0.00    -0.014 A 
ATOM     70  C   UNL A   1      43.389  30.217  34.759  1.00  0.00     0.009 A 
ATOM     71  C   UNL A   1      42.229  28.429  33.635  1.00  0.00     0.009 A 
ATOM     72  C   UNL A   1      43.142  29.601  35.991  1.00  0.00     0.001 A 
ATOM     73  C   UNL A   1      41.960  27.827  34.864  1.00  0.00     0.001 A 
ATOM     74  C   UNL A   1      42.425  28.407  36.042  1.00  0.00     0.000 A 
ENDBRANCH  56  69
ENDBRANCH  30  31
ENDBRANCH  23  25
ENDBRANCH  22  23
ENDBRANCH  21  22
ENDBRANCH   1  21
TORSDOF 15
ENDMDL
