MODEL 1
REMARK VINA RESULT:     -10.8      0.000      0.000
REMARK SMILES C[C@H](C(=O)OCCOC(=O)c1ccc(-c2c3nc(c(-c4ccccc4)c4ccc([nH]4)c(-c4ccccc4)c4nc(c(-c5ccccc5)c5ccc2[nH]5)C=C4)C=C3)cc1)c1ccc(-c2ccccc2)c(F)c1
REMARK SMILES IDX 6 1 5 2 3 3 4 4 2 5 1 6 59 7 60 8 71 9 61 10 69 11 62 12
REMARK SMILES IDX 70 13 63 14 64 15 68 16 65 17 67 18 66 19 7 20 8 21 9 22
REMARK SMILES IDX 10 23 11 24 12 25 58 26 13 27 57 28 14 29 15 30 16 31 51 32
REMARK SMILES IDX 17 33 56 34 50 35 52 36 18 37 55 38 49 39 48 40 19 42 41 43
REMARK SMILES IDX 26 44 40 45 27 46 30 47 39 48 53 49 28 50 29 51 38 53 54 54
REMARK SMILES IDX 31 55 20 56 21 57 25 58 22 59 24 60 23 61 42 62 43 63 47 64
REMARK SMILES IDX 44 65 46 66 45 67 32 68 33 69 37 70 34 71 36 72 35 73
REMARK H PARENT 52 41 30 52
REMARK Flexibility Score: inf
ROOT
ATOM      1  C   UNL A   1      42.240  19.076  26.227  1.00  0.00     0.274 C 
ENDROOT
BRANCH   1   2
ATOM      2  O   UNL A   1      42.584  20.340  26.831  1.00  0.00    -0.462 OA
BRANCH   2   3
ATOM      3  C   UNL A   1      41.891  21.428  26.399  1.00  0.00     0.313 C 
ATOM      4  O   UNL A   1      42.150  22.050  25.373  1.00  0.00    -0.252 OA
BRANCH   3   5
ATOM      5  C   UNL A   1      40.793  21.855  27.368  1.00  0.00     0.126 C 
ATOM      6  C   UNL A   1      41.301  22.916  28.354  1.00  0.00     0.025 C 
BRANCH   5   7
ATOM      7  C   UNL A   1      39.489  22.295  26.721  1.00  0.00    -0.031 A 
ATOM      8  C   UNL A   1      39.059  23.619  26.886  1.00  0.00     0.005 A 
ATOM      9  C   UNL A   1      38.697  21.430  25.953  1.00  0.00     0.044 A 
ATOM     10  C   UNL A   1      37.892  24.076  26.267  1.00  0.00     0.012 A 
ATOM     11  C   UNL A   1      37.534  21.897  25.334  1.00  0.00     0.131 A 
ATOM     12  C   UNL A   1      37.115  23.227  25.463  1.00  0.00     0.017 A 
ATOM     13  F   UNL A   1      36.833  21.036  24.580  1.00  0.00    -0.206 F 
BRANCH  12  14
ATOM     14  C   UNL A   1      35.917  23.744  24.785  1.00  0.00    -0.015 A 
ATOM     15  C   UNL A   1      35.568  23.283  23.503  1.00  0.00     0.009 A 
ATOM     16  C   UNL A   1      35.105  24.724  25.377  1.00  0.00     0.009 A 
ATOM     17  C   UNL A   1      34.453  23.789  22.832  1.00  0.00     0.001 A 
ATOM     18  C   UNL A   1      33.990  25.234  24.705  1.00  0.00     0.001 A 
ATOM     19  C   UNL A   1      33.668  24.770  23.432  1.00  0.00     0.000 A 
ENDBRANCH  12  14
ENDBRANCH   5   7
ENDBRANCH   3   5
ENDBRANCH   2   3
ENDBRANCH   1   2
BRANCH   1  20
ATOM     20  C   UNL A   1      43.451  18.485  25.513  1.00  0.00     0.275 C 
BRANCH  20  21
ATOM     21  O   UNL A   1      43.680  19.217  24.297  1.00  0.00    -0.458 OA
BRANCH  21  22
ATOM     22  C   UNL A   1      44.963  19.544  24.035  1.00  0.00     0.338 C 
ATOM     23  O   UNL A   1      45.828  18.829  23.553  1.00  0.00    -0.246 OA
BRANCH  22  24
ATOM     24  C   UNL A   1      45.205  20.940  24.441  1.00  0.00     0.060 A 
ATOM     25  C   UNL A   1      45.653  21.242  25.728  1.00  0.00     0.016 A 
ATOM     26  C   UNL A   1      44.903  21.969  23.548  1.00  0.00     0.016 A 
ATOM     27  C   UNL A   1      45.736  22.568  26.148  1.00  0.00     0.010 A 
ATOM     28  C   UNL A   1      45.069  23.299  23.943  1.00  0.00     0.010 A 
ATOM     29  C   UNL A   1      45.459  23.614  25.256  1.00  0.00    -0.014 A 
BRANCH  29  30
ATOM     30  C   UNL A   1      45.542  25.035  25.692  1.00  0.00     0.031 A 
ATOM     31  C   UNL A   1      46.849  25.776  25.603  1.00  0.00     0.074 A 
ATOM     32  C   UNL A   1      44.456  25.665  26.181  1.00  0.00     0.049 A 
ATOM     33  N   UNL A   1      47.175  26.941  26.106  1.00  0.00    -0.248 NA
ATOM     34  C   UNL A   1      47.936  25.116  24.863  1.00  0.00     0.031 C 
ATOM     35  C   UNL A   1      43.114  25.091  26.289  1.00  0.00     0.029 A 
ATOM     36  N   UNL A   1      44.314  26.937  26.678  1.00  0.00    -0.354 N 
ATOM     37  C   UNL A   1      48.517  27.124  25.797  1.00  0.00     0.074 A 
ATOM     38  C   UNL A   1      48.944  25.954  25.058  1.00  0.00     0.031 C 
ATOM     39  C   UNL A   1      42.279  26.016  26.787  1.00  0.00     0.029 A 
ATOM     40  C   UNL A   1      43.040  27.220  27.105  1.00  0.00     0.049 A 
ATOM     41  H   UNL A   1      45.055  27.584  26.724  1.00  0.00     0.167 HD
ATOM     42  C   UNL A   1      49.323  28.167  26.105  1.00  0.00     0.031 A 
ATOM     43  C   UNL A   1      42.543  28.308  27.722  1.00  0.00     0.031 A 
ATOM     44  C   UNL A   1      48.895  29.350  26.803  1.00  0.00     0.049 A 
ATOM     45  C   UNL A   1      43.457  29.448  28.065  1.00  0.00     0.074 A 
ATOM     46  C   UNL A   1      49.641  30.460  27.160  1.00  0.00     0.029 A 
ATOM     47  N   UNL A   1      47.599  29.584  27.232  1.00  0.00    -0.354 N 
ATOM     48  N   UNL A   1      44.739  29.575  27.828  1.00  0.00    -0.248 NA
ATOM     49  C   UNL A   1      42.856  30.583  28.780  1.00  0.00     0.031 C 
ATOM     50  C   UNL A   1      48.799  31.357  27.828  1.00  0.00     0.029 A 
ATOM     51  C   UNL A   1      47.523  30.819  27.853  1.00  0.00     0.049 A 
ATOM     52  H   UNL A   1      46.843  28.964  27.112  1.00  0.00     0.167 HD
ATOM     53  C   UNL A   1      45.100  30.804  28.365  1.00  0.00     0.074 A 
ATOM     54  C   UNL A   1      43.897  31.394  28.917  1.00  0.00     0.031 C 
ATOM     55  C   UNL A   1      46.322  31.386  28.403  1.00  0.00     0.031 A 
BRANCH  42  56
ATOM     56  C   UNL A   1      50.772  28.056  25.723  1.00  0.00    -0.014 A 
ATOM     57  C   UNL A   1      51.233  28.485  24.471  1.00  0.00     0.009 A 
ATOM     58  C   UNL A   1      51.692  27.538  26.649  1.00  0.00     0.009 A 
ATOM     59  C   UNL A   1      52.586  28.372  24.142  1.00  0.00     0.001 A 
ATOM     60  C   UNL A   1      53.046  27.447  26.326  1.00  0.00     0.001 A 
ATOM     61  C   UNL A   1      53.492  27.857  25.070  1.00  0.00     0.000 A 
ENDBRANCH  42  56
BRANCH  43  62
ATOM     62  C   UNL A   1      41.106  28.348  28.096  1.00  0.00    -0.014 A 
ATOM     63  C   UNL A   1      40.170  28.970  27.257  1.00  0.00     0.009 A 
ATOM     64  C   UNL A   1      40.664  27.748  29.285  1.00  0.00     0.009 A 
ATOM     65  C   UNL A   1      38.818  28.997  27.608  1.00  0.00     0.001 A 
ATOM     66  C   UNL A   1      39.310  27.756  29.620  1.00  0.00     0.001 A 
ATOM     67  C   UNL A   1      38.389  28.385  28.784  1.00  0.00     0.000 A 
ENDBRANCH  43  62
BRANCH  55  68
ATOM     68  C   UNL A   1      46.411  32.735  29.053  1.00  0.00    -0.014 A 
ATOM     69  C   UNL A   1      46.726  32.859  30.415  1.00  0.00     0.009 A 
ATOM     70  C   UNL A   1      46.202  33.893  28.290  1.00  0.00     0.009 A 
ATOM     71  C   UNL A   1      46.802  34.121  31.007  1.00  0.00     0.001 A 
ATOM     72  C   UNL A   1      46.297  35.154  28.881  1.00  0.00     0.001 A 
ATOM     73  C   UNL A   1      46.590  35.266  30.239  1.00  0.00     0.000 A 
ENDBRANCH  55  68
ENDBRANCH  29  30
ENDBRANCH  22  24
ENDBRANCH  21  22
ENDBRANCH  20  21
ENDBRANCH   1  20
TORSDOF 13
ENDMDL
MODEL 2
REMARK VINA RESULT:     -10.5      5.964     11.299
REMARK SMILES C[C@H](C(=O)OCCOC(=O)c1ccc(-c2c3nc(c(-c4ccccc4)c4ccc([nH]4)c(-c4ccccc4)c4nc(c(-c5ccccc5)c5ccc2[nH]5)C=C4)C=C3)cc1)c1ccc(-c2ccccc2)c(F)c1
REMARK SMILES IDX 6 1 5 2 3 3 4 4 2 5 1 6 59 7 60 8 71 9 61 10 69 11 62 12
REMARK SMILES IDX 70 13 63 14 64 15 68 16 65 17 67 18 66 19 7 20 8 21 9 22
REMARK SMILES IDX 10 23 11 24 12 25 58 26 13 27 57 28 14 29 15 30 16 31 51 32
REMARK SMILES IDX 17 33 56 34 50 35 52 36 18 37 55 38 49 39 48 40 19 42 41 43
REMARK SMILES IDX 26 44 40 45 27 46 30 47 39 48 53 49 28 50 29 51 38 53 54 54
REMARK SMILES IDX 31 55 20 56 21 57 25 58 22 59 24 60 23 61 42 62 43 63 47 64
REMARK SMILES IDX 44 65 46 66 45 67 32 68 33 69 37 70 34 71 36 72 35 73
REMARK H PARENT 52 41 30 52
REMARK Flexibility Score: inf
ROOT
ATOM      1  C   UNL A   1      33.809  34.519  29.073  1.00  0.00     0.274 C 
ENDROOT
BRANCH   1   2
ATOM      2  O   UNL A   1      33.730  33.951  30.397  1.00  0.00    -0.462 OA
BRANCH   2   3
ATOM      3  C   UNL A   1      34.419  34.596  31.376  1.00  0.00     0.313 C 
ATOM      4  O   UNL A   1      34.279  35.783  31.653  1.00  0.00    -0.252 OA
BRANCH   3   5
ATOM      5  C   UNL A   1      35.456  33.707  32.056  1.00  0.00     0.126 C 
ATOM      6  C   UNL A   1      35.001  32.241  32.086  1.00  0.00     0.025 C 
BRANCH   5   7
ATOM      7  C   UNL A   1      36.872  33.825  31.512  1.00  0.00    -0.031 A 
ATOM      8  C   UNL A   1      37.128  33.435  30.191  1.00  0.00     0.005 A 
ATOM      9  C   UNL A   1      37.937  34.319  32.279  1.00  0.00     0.044 A 
ATOM     10  C   UNL A   1      38.405  33.574  29.638  1.00  0.00     0.012 A 
ATOM     11  C   UNL A   1      39.208  34.459  31.716  1.00  0.00     0.131 A 
ATOM     12  C   UNL A   1      39.467  34.106  30.385  1.00  0.00     0.017 A 
ATOM     13  F   UNL A   1      40.183  34.972  32.482  1.00  0.00    -0.206 F 
BRANCH  12  14
ATOM     14  C   UNL A   1      40.789  34.285  29.767  1.00  0.00    -0.015 A 
ATOM     15  C   UNL A   1      41.817  33.352  29.996  1.00  0.00     0.009 A 
ATOM     16  C   UNL A   1      41.075  35.396  28.959  1.00  0.00     0.009 A 
ATOM     17  C   UNL A   1      43.088  33.528  29.444  1.00  0.00     0.001 A 
ATOM     18  C   UNL A   1      42.348  35.575  28.408  1.00  0.00     0.001 A 
ATOM     19  C   UNL A   1      43.354  34.644  28.654  1.00  0.00     0.000 A 
ENDBRANCH  12  14
ENDBRANCH   5   7
ENDBRANCH   3   5
ENDBRANCH   2   3
ENDBRANCH   1   2
BRANCH   1  20
ATOM     20  C   UNL A   1      33.589  33.437  28.021  1.00  0.00     0.275 C 
BRANCH  20  21
ATOM     21  O   UNL A   1      34.777  32.632  27.923  1.00  0.00    -0.458 OA
BRANCH  21  22
ATOM     22  C   UNL A   1      34.584  31.302  27.803  1.00  0.00     0.338 C 
ATOM     23  O   UNL A   1      33.582  30.730  27.403  1.00  0.00    -0.246 OA
BRANCH  22  24
ATOM     24  C   UNL A   1      35.792  30.589  28.256  1.00  0.00     0.060 A 
ATOM     25  C   UNL A   1      35.785  29.853  29.442  1.00  0.00     0.016 A 
ATOM     26  C   UNL A   1      36.974  30.723  27.525  1.00  0.00     0.016 A 
ATOM     27  C   UNL A   1      36.968  29.308  29.936  1.00  0.00     0.010 A 
ATOM     28  C   UNL A   1      38.141  30.103  27.978  1.00  0.00     0.010 A 
ATOM     29  C   UNL A   1      38.159  29.413  29.203  1.00  0.00    -0.014 A 
BRANCH  29  30
ATOM     30  C   UNL A   1      39.430  28.837  29.719  1.00  0.00     0.031 A 
ATOM     31  C   UNL A   1      40.180  29.532  30.824  1.00  0.00     0.074 A 
ATOM     32  C   UNL A   1      39.926  27.698  29.198  1.00  0.00     0.049 A 
ATOM     33  N   UNL A   1      41.389  29.303  31.274  1.00  0.00    -0.248 NA
ATOM     34  C   UNL A   1      39.486  30.639  31.501  1.00  0.00     0.031 C 
ATOM     35  C   UNL A   1      39.292  26.890  28.155  1.00  0.00     0.029 A 
ATOM     36  N   UNL A   1      41.087  27.020  29.481  1.00  0.00    -0.354 N 
ATOM     37  C   UNL A   1      41.621  30.272  32.241  1.00  0.00     0.074 A 
ATOM     38  C   UNL A   1      40.428  31.089  32.317  1.00  0.00     0.031 C 
ATOM     39  C   UNL A   1      40.053  25.812  27.910  1.00  0.00     0.029 A 
ATOM     40  C   UNL A   1      41.263  25.892  28.721  1.00  0.00     0.049 A 
ATOM     41  H   UNL A   1      41.731  27.317  30.165  1.00  0.00     0.167 HD
ATOM     42  C   UNL A   1      42.730  30.470  32.993  1.00  0.00     0.031 A 
ATOM     43  C   UNL A   1      42.298  25.034  28.649  1.00  0.00     0.031 A 
ATOM     44  C   UNL A   1      43.902  29.638  32.951  1.00  0.00     0.049 A 
ATOM     45  C   UNL A   1      43.522  25.279  29.483  1.00  0.00     0.074 A 
ATOM     46  C   UNL A   1      45.074  29.760  33.678  1.00  0.00     0.029 A 
ATOM     47  N   UNL A   1      44.042  28.515  32.152  1.00  0.00    -0.354 N 
ATOM     48  N   UNL A   1      43.754  26.241  30.341  1.00  0.00    -0.248 NA
ATOM     49  C   UNL A   1      44.633  24.331  29.319  1.00  0.00     0.031 C 
ATOM     50  C   UNL A   1      45.935  28.723  33.299  1.00  0.00     0.029 A 
ATOM     51  C   UNL A   1      45.281  27.937  32.364  1.00  0.00     0.049 A 
ATOM     52  H   UNL A   1      43.360  28.178  31.527  1.00  0.00     0.167 HD
ATOM     53  C   UNL A   1      45.037  26.015  30.821  1.00  0.00     0.074 A 
ATOM     54  C   UNL A   1      45.523  24.811  30.176  1.00  0.00     0.031 C 
ATOM     55  C   UNL A   1      45.752  26.746  31.710  1.00  0.00     0.031 A 
BRANCH  42  56
ATOM     56  C   UNL A   1      42.742  31.666  33.902  1.00  0.00    -0.014 A 
ATOM     57  C   UNL A   1      43.137  32.930  33.443  1.00  0.00     0.009 A 
ATOM     58  C   UNL A   1      42.321  31.524  35.234  1.00  0.00     0.009 A 
ATOM     59  C   UNL A   1      43.137  34.026  34.310  1.00  0.00     0.001 A 
ATOM     60  C   UNL A   1      42.301  32.625  36.092  1.00  0.00     0.001 A 
ATOM     61  C   UNL A   1      42.716  33.874  35.631  1.00  0.00     0.000 A 
ENDBRANCH  42  56
BRANCH  43  62
ATOM     62  C   UNL A   1      42.236  23.883  27.712  1.00  0.00    -0.014 A 
ATOM     63  C   UNL A   1      41.726  22.648  28.136  1.00  0.00     0.009 A 
ATOM     64  C   UNL A   1      42.669  24.023  26.385  1.00  0.00     0.009 A 
ATOM     65  C   UNL A   1      41.660  21.571  27.250  1.00  0.00     0.001 A 
ATOM     66  C   UNL A   1      42.580  22.951  25.495  1.00  0.00     0.001 A 
ATOM     67  C   UNL A   1      42.080  21.725  25.930  1.00  0.00     0.000 A 
ENDBRANCH  43  62
BRANCH  55  68
ATOM     68  C   UNL A   1      47.128  26.251  32.044  1.00  0.00    -0.014 A 
ATOM     69  C   UNL A   1      47.352  25.461  33.181  1.00  0.00     0.009 A 
ATOM     70  C   UNL A   1      48.204  26.559  31.199  1.00  0.00     0.009 A 
ATOM     71  C   UNL A   1      48.639  25.010  33.481  1.00  0.00     0.001 A 
ATOM     72  C   UNL A   1      49.486  26.091  31.492  1.00  0.00     0.001 A 
ATOM     73  C   UNL A   1      49.703  25.323  32.635  1.00  0.00     0.000 A 
ENDBRANCH  55  68
ENDBRANCH  29  30
ENDBRANCH  22  24
ENDBRANCH  21  22
ENDBRANCH  20  21
ENDBRANCH   1  20
TORSDOF 13
ENDMDL
MODEL 3
REMARK VINA RESULT:     -10.5      4.487      9.066
REMARK SMILES C[C@H](C(=O)OCCOC(=O)c1ccc(-c2c3nc(c(-c4ccccc4)c4ccc([nH]4)c(-c4ccccc4)c4nc(c(-c5ccccc5)c5ccc2[nH]5)C=C4)C=C3)cc1)c1ccc(-c2ccccc2)c(F)c1
REMARK SMILES IDX 6 1 5 2 3 3 4 4 2 5 1 6 59 7 60 8 71 9 61 10 69 11 62 12
REMARK SMILES IDX 70 13 63 14 64 15 68 16 65 17 67 18 66 19 7 20 8 21 9 22
REMARK SMILES IDX 10 23 11 24 12 25 58 26 13 27 57 28 14 29 15 30 16 31 51 32
REMARK SMILES IDX 17 33 56 34 50 35 52 36 18 37 55 38 49 39 48 40 19 42 41 43
REMARK SMILES IDX 26 44 40 45 27 46 30 47 39 48 53 49 28 50 29 51 38 53 54 54
REMARK SMILES IDX 31 55 20 56 21 57 25 58 22 59 24 60 23 61 42 62 43 63 47 64
REMARK SMILES IDX 44 65 46 66 45 67 32 68 33 69 37 70 34 71 36 72 35 73
REMARK H PARENT 52 41 30 52
REMARK Flexibility Score: inf
ROOT
ATOM      1  C   UNL A   1      32.055  29.844  25.822  1.00  0.00     0.274 C 
ENDROOT
BRANCH   1   2
ATOM      2  O   UNL A   1      32.532  28.807  24.940  1.00  0.00    -0.462 OA
BRANCH   2   3
ATOM      3  C   UNL A   1      31.590  28.147  24.213  1.00  0.00     0.313 C 
ATOM      4  O   UNL A   1      31.037  28.608  23.219  1.00  0.00    -0.252 OA
BRANCH   3   5
ATOM      5  C   UNL A   1      31.226  26.790  24.807  1.00  0.00     0.126 C 
ATOM      6  C   UNL A   1      30.057  26.146  24.049  1.00  0.00     0.025 C 
BRANCH   5   7
ATOM      7  C   UNL A   1      32.381  25.813  24.955  1.00  0.00    -0.031 A 
ATOM      8  C   UNL A   1      33.333  25.723  23.930  1.00  0.00     0.005 A 
ATOM      9  C   UNL A   1      32.542  24.998  26.085  1.00  0.00     0.044 A 
ATOM     10  C   UNL A   1      34.436  24.873  24.049  1.00  0.00     0.012 A 
ATOM     11  C   UNL A   1      33.651  24.156  26.197  1.00  0.00     0.131 A 
ATOM     12  C   UNL A   1      34.627  24.085  25.195  1.00  0.00     0.017 A 
ATOM     13  F   UNL A   1      33.776  23.426  27.317  1.00  0.00    -0.206 F 
BRANCH  12  14
ATOM     14  C   UNL A   1      35.819  23.234  25.317  1.00  0.00    -0.015 A 
ATOM     15  C   UNL A   1      37.028  23.763  25.805  1.00  0.00     0.009 A 
ATOM     16  C   UNL A   1      35.800  21.885  24.929  1.00  0.00     0.009 A 
ATOM     17  C   UNL A   1      38.178  22.976  25.894  1.00  0.00     0.001 A 
ATOM     18  C   UNL A   1      36.952  21.097  25.014  1.00  0.00     0.001 A 
ATOM     19  C   UNL A   1      38.140  21.644  25.493  1.00  0.00     0.000 A 
ENDBRANCH  12  14
ENDBRANCH   5   7
ENDBRANCH   3   5
ENDBRANCH   2   3
ENDBRANCH   1   2
BRANCH   1  20
ATOM     20  C   UNL A   1      32.493  29.560  27.256  1.00  0.00     0.275 C 
BRANCH  20  21
ATOM     21  O   UNL A   1      33.930  29.529  27.307  1.00  0.00    -0.458 OA
BRANCH  21  22
ATOM     22  C   UNL A   1      34.523  30.560  27.944  1.00  0.00     0.338 C 
ATOM     23  O   UNL A   1      34.042  31.655  28.193  1.00  0.00    -0.246 OA
BRANCH  22  24
ATOM     24  C   UNL A   1      35.902  30.186  28.305  1.00  0.00     0.060 A 
ATOM     25  C   UNL A   1      36.945  30.334  27.389  1.00  0.00     0.016 A 
ATOM     26  C   UNL A   1      36.144  29.603  29.550  1.00  0.00     0.016 A 
ATOM     27  C   UNL A   1      38.214  29.841  27.686  1.00  0.00     0.010 A 
ATOM     28  C   UNL A   1      37.436  29.186  29.879  1.00  0.00     0.010 A 
ATOM     29  C   UNL A   1      38.480  29.274  28.940  1.00  0.00    -0.014 A 
BRANCH  29  30
ATOM     30  C   UNL A   1      39.830  28.741  29.270  1.00  0.00     0.031 A 
ATOM     31  C   UNL A   1      40.807  29.587  30.041  1.00  0.00     0.074 A 
ATOM     32  C   UNL A   1      40.193  27.506  28.873  1.00  0.00     0.049 A 
ATOM     33  N   UNL A   1      42.084  29.388  30.256  1.00  0.00    -0.248 NA
ATOM     34  C   UNL A   1      40.285  30.828  30.635  1.00  0.00     0.031 C 
ATOM     35  C   UNL A   1      39.342  26.555  28.157  1.00  0.00     0.029 A 
ATOM     36  N   UNL A   1      41.384  26.838  29.021  1.00  0.00    -0.354 N 
ATOM     37  C   UNL A   1      42.528  30.502  30.956  1.00  0.00     0.074 A 
ATOM     38  C   UNL A   1      41.385  31.373  31.134  1.00  0.00     0.031 C 
ATOM     39  C   UNL A   1      40.025  25.417  27.958  1.00  0.00     0.029 A 
ATOM     40  C   UNL A   1      41.384  25.585  28.461  1.00  0.00     0.049 A 
ATOM     41  H   UNL A   1      42.164  27.222  29.485  1.00  0.00     0.167 HD
ATOM     42  C   UNL A   1      43.775  30.781  31.404  1.00  0.00     0.031 A 
ATOM     43  C   UNL A   1      42.373  24.682  28.329  1.00  0.00     0.031 A 
ATOM     44  C   UNL A   1      44.906  29.902  31.265  1.00  0.00     0.049 A 
ATOM     45  C   UNL A   1      43.751  25.016  28.822  1.00  0.00     0.074 A 
ATOM     46  C   UNL A   1      46.209  30.098  31.689  1.00  0.00     0.029 A 
ATOM     47  N   UNL A   1      44.861  28.649  30.676  1.00  0.00    -0.354 N 
ATOM     48  N   UNL A   1      44.171  26.104  29.418  1.00  0.00    -0.248 NA
ATOM     49  C   UNL A   1      44.794  24.004  28.602  1.00  0.00     0.031 C 
ATOM     50  C   UNL A   1      46.959  28.972  31.332  1.00  0.00     0.029 A 
ATOM     51  C   UNL A   1      46.113  28.062  30.720  1.00  0.00     0.049 A 
ATOM     52  H   UNL A   1      44.056  28.237  30.284  1.00  0.00     0.167 HD
ATOM     53  C   UNL A   1      45.527  25.909  29.645  1.00  0.00     0.074 A 
ATOM     54  C   UNL A   1      45.853  24.589  29.145  1.00  0.00     0.031 C 
ATOM     55  C   UNL A   1      46.422  26.753  30.211  1.00  0.00     0.031 A 
BRANCH  42  56
ATOM     56  C   UNL A   1      43.993  32.117  32.053  1.00  0.00    -0.014 A 
ATOM     57  C   UNL A   1      44.316  33.253  31.297  1.00  0.00     0.009 A 
ATOM     58  C   UNL A   1      43.841  32.242  33.443  1.00  0.00     0.009 A 
ATOM     59  C   UNL A   1      44.511  34.486  31.927  1.00  0.00     0.001 A 
ATOM     60  C   UNL A   1      44.014  33.478  34.066  1.00  0.00     0.001 A 
ATOM     61  C   UNL A   1      44.357  34.598  33.309  1.00  0.00     0.000 A 
ENDBRANCH  42  56
BRANCH  43  62
ATOM     62  C   UNL A   1      42.102  23.387  27.656  1.00  0.00    -0.014 A 
ATOM     63  C   UNL A   1      41.564  22.310  28.375  1.00  0.00     0.009 A 
ATOM     64  C   UNL A   1      42.361  23.229  26.286  1.00  0.00     0.009 A 
ATOM     65  C   UNL A   1      41.300  21.096  27.737  1.00  0.00     0.001 A 
ATOM     66  C   UNL A   1      42.075  22.023  25.645  1.00  0.00     0.001 A 
ATOM     67  C   UNL A   1      41.549  20.956  26.372  1.00  0.00     0.000 A 
ENDBRANCH  43  62
BRANCH  55  68
ATOM     68  C   UNL A   1      47.835  26.264  30.328  1.00  0.00    -0.014 A 
ATOM     69  C   UNL A   1      48.300  25.683  31.518  1.00  0.00     0.009 A 
ATOM     70  C   UNL A   1      48.701  26.363  29.230  1.00  0.00     0.009 A 
ATOM     71  C   UNL A   1      49.619  25.234  31.613  1.00  0.00     0.001 A 
ATOM     72  C   UNL A   1      50.014  25.897  29.322  1.00  0.00     0.001 A 
ATOM     73  C   UNL A   1      50.472  25.340  30.515  1.00  0.00     0.000 A 
ENDBRANCH  55  68
ENDBRANCH  29  30
ENDBRANCH  22  24
ENDBRANCH  21  22
ENDBRANCH  20  21
ENDBRANCH   1  20
TORSDOF 13
ENDMDL
