MODEL 1
REMARK VINA RESULT:     -10.0      0.000      0.000
REMARK SMILES C[C@@H](C(=O)OCCOC(=O)c1ccc(-c2c3nc(c(-c4ccccc4)c4ccc([nH]4)c(-c4ccccc4)c4nc(c(-c5ccccc5)c5ccc2[nH]5)C=C4)C=C3)cc1)c1ccc(C[C@H]2CCCC2=O)cc1
REMARK SMILES IDX 6 1 5 2 3 3 4 4 2 5 1 6 59 7 60 8 71 9 61 10 70 11 62 12
REMARK SMILES IDX 63 13 64 14 65 15 68 16 66 17 67 18 69 19 7 20 8 21 9 22
REMARK SMILES IDX 10 23 11 24 12 25 58 26 13 27 57 28 14 29 15 30 16 31 51 32
REMARK SMILES IDX 17 33 56 34 50 35 52 36 18 37 55 38 49 39 48 40 19 42 41 43
REMARK SMILES IDX 26 44 40 45 27 46 30 47 39 48 53 49 28 50 29 51 38 53 54 54
REMARK SMILES IDX 31 55 20 56 21 57 25 58 22 59 24 60 23 61 42 62 43 63 47 64
REMARK SMILES IDX 44 65 46 66 45 67 32 68 33 69 37 70 34 71 36 72 35 73
REMARK H PARENT 52 41 30 52
REMARK Flexibility Score: inf
ROOT
ATOM      1  C   UNL A   1      42.617  18.555  26.105  1.00  0.00     0.274 C 
ENDROOT
BRANCH   1   2
ATOM      2  O   UNL A   1      42.235  19.944  26.033  1.00  0.00    -0.462 OA
BRANCH   2   3
ATOM      3  C   UNL A   1      41.546  20.465  27.088  1.00  0.00     0.313 C 
ATOM      4  O   UNL A   1      41.067  19.774  27.980  1.00  0.00    -0.252 OA
BRANCH   3   5
ATOM      5  C   UNL A   1      41.365  21.995  26.973  1.00  0.00     0.126 C 
ATOM      6  C   UNL A   1      41.850  22.705  28.252  1.00  0.00     0.025 C 
BRANCH   5   7
ATOM      7  C   UNL A   1      39.959  22.436  26.527  1.00  0.00    -0.034 A 
ATOM      8  C   UNL A   1      39.117  21.595  25.780  1.00  0.00     0.005 A 
ATOM      9  C   UNL A   1      39.419  23.672  26.921  1.00  0.00     0.005 A 
ATOM     10  C   UNL A   1      37.838  21.998  25.382  1.00  0.00     0.004 A 
ATOM     11  C   UNL A   1      38.160  24.103  26.472  1.00  0.00     0.004 A 
ATOM     12  C   UNL A   1      37.371  23.282  25.661  1.00  0.00    -0.047 A 
BRANCH  12  13
ATOM     13  C   UNL A   1      36.046  23.763  25.111  1.00  0.00     0.047 C 
BRANCH  13  14
ATOM     14  C   UNL A   1      35.231  22.765  24.275  1.00  0.00     0.060 C 
ATOM     15  C   UNL A   1      34.354  21.805  25.071  1.00  0.00     0.012 C 
ATOM     16  C   UNL A   1      34.213  23.395  23.351  1.00  0.00     0.136 C 
ATOM     17  C   UNL A   1      32.949  22.391  25.069  1.00  0.00     0.009 C 
ATOM     18  C   UNL A   1      32.797  22.983  23.677  1.00  0.00     0.076 C 
ATOM     19  O   UNL A   1      34.502  24.140  22.423  1.00  0.00    -0.299 OA
ENDBRANCH  13  14
ENDBRANCH  12  13
ENDBRANCH   5   7
ENDBRANCH   3   5
ENDBRANCH   2   3
ENDBRANCH   1   2
BRANCH   1  20
ATOM     20  C   UNL A   1      43.975  18.344  25.443  1.00  0.00     0.275 C 
BRANCH  20  21
ATOM     21  O   UNL A   1      44.132  19.288  24.370  1.00  0.00    -0.458 OA
BRANCH  21  22
ATOM     22  C   UNL A   1      45.306  19.956  24.330  1.00  0.00     0.338 C 
ATOM     23  O   UNL A   1      46.386  19.556  23.939  1.00  0.00    -0.246 OA
BRANCH  22  24
ATOM     24  C   UNL A   1      45.084  21.326  24.819  1.00  0.00     0.060 A 
ATOM     25  C   UNL A   1      44.768  22.314  23.897  1.00  0.00     0.016 A 
ATOM     26  C   UNL A   1      45.310  21.659  26.155  1.00  0.00     0.016 A 
ATOM     27  C   UNL A   1      44.768  23.648  24.297  1.00  0.00     0.010 A 
ATOM     28  C   UNL A   1      45.245  23.003  26.562  1.00  0.00     0.010 A 
ATOM     29  C   UNL A   1      45.042  24.030  25.626  1.00  0.00    -0.014 A 
BRANCH  29  30
ATOM     30  C   UNL A   1      45.233  25.486  25.954  1.00  0.00     0.031 A 
ATOM     31  C   UNL A   1      44.081  26.327  26.482  1.00  0.00     0.074 A 
ATOM     32  C   UNL A   1      46.474  26.022  26.008  1.00  0.00     0.049 A 
ATOM     33  N   UNL A   1      44.116  27.530  27.014  1.00  0.00    -0.248 NA
ATOM     34  C   UNL A   1      42.737  25.724  26.491  1.00  0.00     0.031 C 
ATOM     35  C   UNL A   1      47.711  25.334  25.638  1.00  0.00     0.029 A 
ATOM     36  N   UNL A   1      46.905  27.249  26.462  1.00  0.00    -0.354 N 
ATOM     37  C   UNL A   1      42.829  27.784  27.479  1.00  0.00     0.074 A 
ATOM     38  C   UNL A   1      42.017  26.647  27.111  1.00  0.00     0.031 C 
ATOM     39  C   UNL A   1      48.759  26.109  25.956  1.00  0.00     0.029 A 
ATOM     40  C   UNL A   1      48.274  27.392  26.458  1.00  0.00     0.049 A 
ATOM     41  H   UNL A   1      46.291  27.959  26.760  1.00  0.00     0.167 HD
ATOM     42  C   UNL A   1      42.357  28.838  28.188  1.00  0.00     0.031 A 
ATOM     43  C   UNL A   1      49.064  28.436  26.782  1.00  0.00     0.031 A 
ATOM     44  C   UNL A   1      43.105  30.019  28.525  1.00  0.00     0.049 A 
ATOM     45  C   UNL A   1      48.449  29.727  27.243  1.00  0.00     0.074 A 
ATOM     46  C   UNL A   1      42.661  31.164  29.167  1.00  0.00     0.029 A 
ATOM     47  N   UNL A   1      44.437  30.222  28.224  1.00  0.00    -0.354 N 
ATOM     48  N   UNL A   1      47.221  29.963  27.627  1.00  0.00    -0.248 NA
ATOM     49  C   UNL A   1      49.330  30.905  27.280  1.00  0.00     0.031 C 
ATOM     50  C   UNL A   1      43.710  32.089  29.189  1.00  0.00     0.029 A 
ATOM     51  C   UNL A   1      44.817  31.498  28.606  1.00  0.00     0.049 A 
ATOM     52  H   UNL A   1      45.028  29.557  27.801  1.00  0.00     0.167 HD
ATOM     53  C   UNL A   1      47.181  31.315  27.949  1.00  0.00     0.074 A 
ATOM     54  C   UNL A   1      48.512  31.842  27.742  1.00  0.00     0.031 C 
ATOM     55  C   UNL A   1      46.125  32.048  28.373  1.00  0.00     0.031 A 
BRANCH  42  56
ATOM     56  C   UNL A   1      40.929  28.779  28.641  1.00  0.00    -0.014 A 
ATOM     57  C   UNL A   1      39.890  29.159  27.777  1.00  0.00     0.009 A 
ATOM     58  C   UNL A   1      40.615  28.275  29.912  1.00  0.00     0.009 A 
ATOM     59  C   UNL A   1      38.559  29.045  28.184  1.00  0.00     0.001 A 
ATOM     60  C   UNL A   1      39.284  28.152  30.311  1.00  0.00     0.001 A 
ATOM     61  C   UNL A   1      38.258  28.539  29.448  1.00  0.00     0.000 A 
ENDBRANCH  42  56
BRANCH  43  62
ATOM     62  C   UNL A   1      50.536  28.350  26.578  1.00  0.00    -0.014 A 
ATOM     63  C   UNL A   1      51.398  28.005  27.630  1.00  0.00     0.009 A 
ATOM     64  C   UNL A   1      51.088  28.659  25.322  1.00  0.00     0.009 A 
ATOM     65  C   UNL A   1      52.781  27.976  27.426  1.00  0.00     0.001 A 
ATOM     66  C   UNL A   1      52.466  28.595  25.114  1.00  0.00     0.001 A 
ATOM     67  C   UNL A   1      53.312  28.262  26.168  1.00  0.00     0.000 A 
ENDBRANCH  43  62
BRANCH  55  68
ATOM     68  C   UNL A   1      46.347  33.511  28.624  1.00  0.00    -0.014 A 
ATOM     69  C   UNL A   1      46.810  33.960  29.872  1.00  0.00     0.009 A 
ATOM     70  C   UNL A   1      46.130  34.448  27.603  1.00  0.00     0.009 A 
ATOM     71  C   UNL A   1      47.024  35.321  30.099  1.00  0.00     0.001 A 
ATOM     72  C   UNL A   1      46.369  35.806  27.825  1.00  0.00     0.001 A 
ATOM     73  C   UNL A   1      46.808  36.242  29.074  1.00  0.00     0.000 A 
ENDBRANCH  55  68
ENDBRANCH  29  30
ENDBRANCH  22  24
ENDBRANCH  21  22
ENDBRANCH  20  21
ENDBRANCH   1  20
TORSDOF 14
ENDMDL
MODEL 2
REMARK VINA RESULT:     -10.0      4.409      7.105
REMARK SMILES C[C@@H](C(=O)OCCOC(=O)c1ccc(-c2c3nc(c(-c4ccccc4)c4ccc([nH]4)c(-c4ccccc4)c4nc(c(-c5ccccc5)c5ccc2[nH]5)C=C4)C=C3)cc1)c1ccc(C[C@H]2CCCC2=O)cc1
REMARK SMILES IDX 6 1 5 2 3 3 4 4 2 5 1 6 59 7 60 8 71 9 61 10 70 11 62 12
REMARK SMILES IDX 63 13 64 14 65 15 68 16 66 17 67 18 69 19 7 20 8 21 9 22
REMARK SMILES IDX 10 23 11 24 12 25 58 26 13 27 57 28 14 29 15 30 16 31 51 32
REMARK SMILES IDX 17 33 56 34 50 35 52 36 18 37 55 38 49 39 48 40 19 42 41 43
REMARK SMILES IDX 26 44 40 45 27 46 30 47 39 48 53 49 28 50 29 51 38 53 54 54
REMARK SMILES IDX 31 55 20 56 21 57 25 58 22 59 24 60 23 61 42 62 43 63 47 64
REMARK SMILES IDX 44 65 46 66 45 67 32 68 33 69 37 70 34 71 36 72 35 73
REMARK H PARENT 52 41 30 52
REMARK Flexibility Score: inf
ROOT
ATOM      1  C   UNL A   1      44.519  21.961  25.228  1.00  0.00     0.274 C 
ENDROOT
BRANCH   1   2
ATOM      2  O   UNL A   1      43.149  21.565  25.014  1.00  0.00    -0.462 OA
BRANCH   2   3
ATOM      3  C   UNL A   1      42.465  21.058  26.079  1.00  0.00     0.313 C 
ATOM      4  O   UNL A   1      42.293  19.856  26.252  1.00  0.00    -0.252 OA
BRANCH   3   5
ATOM      5  C   UNL A   1      41.863  22.166  26.972  1.00  0.00     0.126 C 
ATOM      6  C   UNL A   1      42.108  21.864  28.463  1.00  0.00     0.025 C 
BRANCH   5   7
ATOM      7  C   UNL A   1      40.397  22.512  26.653  1.00  0.00    -0.034 A 
ATOM      8  C   UNL A   1      39.859  23.782  26.913  1.00  0.00     0.005 A 
ATOM      9  C   UNL A   1      39.552  21.595  26.005  1.00  0.00     0.005 A 
ATOM     10  C   UNL A   1      38.528  24.094  26.616  1.00  0.00     0.004 A 
ATOM     11  C   UNL A   1      38.200  21.884  25.761  1.00  0.00     0.004 A 
ATOM     12  C   UNL A   1      37.662  23.128  26.103  1.00  0.00    -0.047 A 
BRANCH  12  13
ATOM     13  C   UNL A   1      36.191  23.426  25.913  1.00  0.00     0.047 C 
BRANCH  13  14
ATOM     14  C   UNL A   1      35.774  24.071  24.583  1.00  0.00     0.060 C 
ATOM     15  C   UNL A   1      35.641  23.115  23.403  1.00  0.00     0.012 C 
ATOM     16  C   UNL A   1      34.407  24.718  24.593  1.00  0.00     0.136 C 
ATOM     17  C   UNL A   1      34.161  22.776  23.279  1.00  0.00     0.009 C 
ATOM     18  C   UNL A   1      33.454  24.080  23.610  1.00  0.00     0.076 C 
ATOM     19  O   UNL A   1      34.107  25.671  25.302  1.00  0.00    -0.299 OA
ENDBRANCH  13  14
ENDBRANCH  12  13
ENDBRANCH   5   7
ENDBRANCH   3   5
ENDBRANCH   2   3
ENDBRANCH   1   2
BRANCH   1  20
ATOM     20  C   UNL A   1      44.960  22.944  24.148  1.00  0.00     0.275 C 
BRANCH  20  21
ATOM     21  O   UNL A   1      44.285  24.199  24.344  1.00  0.00    -0.458 OA
BRANCH  21  22
ATOM     22  C   UNL A   1      44.979  25.152  25.004  1.00  0.00     0.338 C 
ATOM     23  O   UNL A   1      46.142  25.476  24.852  1.00  0.00    -0.246 OA
BRANCH  22  24
ATOM     24  C   UNL A   1      44.079  25.811  25.963  1.00  0.00     0.060 A 
ATOM     25  C   UNL A   1      43.923  27.188  25.885  1.00  0.00     0.016 A 
ATOM     26  C   UNL A   1      43.493  25.096  27.008  1.00  0.00     0.016 A 
ATOM     27  C   UNL A   1      43.256  27.860  26.906  1.00  0.00     0.010 A 
ATOM     28  C   UNL A   1      42.766  25.777  28.000  1.00  0.00     0.010 A 
ATOM     29  C   UNL A   1      42.694  27.179  28.005  1.00  0.00    -0.014 A 
BRANCH  29  30
ATOM     30  C   UNL A   1      42.170  27.968  29.175  1.00  0.00     0.031 A 
ATOM     31  C   UNL A   1      40.877  28.762  29.067  1.00  0.00     0.074 A 
ATOM     32  C   UNL A   1      42.704  27.807  30.407  1.00  0.00     0.049 A 
ATOM     33  N   UNL A   1      40.172  29.320  30.028  1.00  0.00    -0.248 NA
ATOM     34  C   UNL A   1      40.253  28.882  27.739  1.00  0.00     0.031 C 
ATOM     35  C   UNL A   1      43.883  26.999  30.721  1.00  0.00     0.029 A 
ATOM     36  N   UNL A   1      42.281  28.261  31.638  1.00  0.00    -0.354 N 
ATOM     37  C   UNL A   1      39.003  29.783  29.430  1.00  0.00     0.074 A 
ATOM     38  C   UNL A   1      39.116  29.505  28.016  1.00  0.00     0.031 C 
ATOM     39  C   UNL A   1      44.039  26.945  32.053  1.00  0.00     0.029 A 
ATOM     40  C   UNL A   1      43.036  27.795  32.690  1.00  0.00     0.049 A 
ATOM     41  H   UNL A   1      41.511  28.863  31.754  1.00  0.00     0.167 HD
ATOM     42  C   UNL A   1      37.907  30.347  29.993  1.00  0.00     0.031 A 
ATOM     43  C   UNL A   1      42.968  28.039  34.015  1.00  0.00     0.031 A 
ATOM     44  C   UNL A   1      37.769  30.700  31.379  1.00  0.00     0.049 A 
ATOM     45  C   UNL A   1      41.920  28.970  34.553  1.00  0.00     0.074 A 
ATOM     46  C   UNL A   1      36.717  31.354  32.000  1.00  0.00     0.029 A 
ATOM     47  N   UNL A   1      38.717  30.457  32.353  1.00  0.00    -0.354 N 
ATOM     48  N   UNL A   1      40.853  29.440  33.960  1.00  0.00    -0.248 NA
ATOM     49  C   UNL A   1      42.092  29.432  35.940  1.00  0.00     0.031 C 
ATOM     50  C   UNL A   1      37.064  31.572  33.338  1.00  0.00     0.029 A 
ATOM     51  C   UNL A   1      38.308  31.007  33.557  1.00  0.00     0.049 A 
ATOM     52  H   UNL A   1      39.559  29.965  32.212  1.00  0.00     0.167 HD
ATOM     53  C   UNL A   1      40.228  30.253  34.899  1.00  0.00     0.074 A 
ATOM     54  C   UNL A   1      41.018  30.193  36.108  1.00  0.00     0.031 C 
ATOM     55  C   UNL A   1      39.099  30.987  34.757  1.00  0.00     0.031 A 
BRANCH  42  56
ATOM     56  C   UNL A   1      36.748  30.649  29.090  1.00  0.00    -0.014 A 
ATOM     57  C   UNL A   1      35.878  29.626  28.680  1.00  0.00     0.009 A 
ATOM     58  C   UNL A   1      36.484  31.971  28.704  1.00  0.00     0.009 A 
ATOM     59  C   UNL A   1      34.767  29.925  27.888  1.00  0.00     0.001 A 
ATOM     60  C   UNL A   1      35.368  32.266  27.922  1.00  0.00     0.001 A 
ATOM     61  C   UNL A   1      34.512  31.243  27.513  1.00  0.00     0.000 A 
ENDBRANCH  42  56
BRANCH  43  62
ATOM     62  C   UNL A   1      43.998  27.475  34.931  1.00  0.00    -0.014 A 
ATOM     63  C   UNL A   1      43.781  26.271  35.617  1.00  0.00     0.009 A 
ATOM     64  C   UNL A   1      45.196  28.177  35.153  1.00  0.00     0.009 A 
ATOM     65  C   UNL A   1      44.743  25.786  36.509  1.00  0.00     0.001 A 
ATOM     66  C   UNL A   1      46.168  27.672  36.017  1.00  0.00     0.001 A 
ATOM     67  C   UNL A   1      45.937  26.481  36.700  1.00  0.00     0.000 A 
ENDBRANCH  43  62
BRANCH  55  68
ATOM     68  C   UNL A   1      38.651  31.810  35.930  1.00  0.00    -0.014 A 
ATOM     69  C   UNL A   1      39.006  33.165  36.030  1.00  0.00     0.009 A 
ATOM     70  C   UNL A   1      37.840  31.245  36.926  1.00  0.00     0.009 A 
ATOM     71  C   UNL A   1      38.580  33.929  37.119  1.00  0.00     0.001 A 
ATOM     72  C   UNL A   1      37.396  32.018  38.001  1.00  0.00     0.001 A 
ATOM     73  C   UNL A   1      37.772  33.357  38.100  1.00  0.00     0.000 A 
ENDBRANCH  55  68
ENDBRANCH  29  30
ENDBRANCH  22  24
ENDBRANCH  21  22
ENDBRANCH  20  21
ENDBRANCH   1  20
TORSDOF 14
ENDMDL
MODEL 3
REMARK VINA RESULT:      -9.8      5.822     11.418
REMARK SMILES C[C@@H](C(=O)OCCOC(=O)c1ccc(-c2c3nc(c(-c4ccccc4)c4ccc([nH]4)c(-c4ccccc4)c4nc(c(-c5ccccc5)c5ccc2[nH]5)C=C4)C=C3)cc1)c1ccc(C[C@H]2CCCC2=O)cc1
REMARK SMILES IDX 6 1 5 2 3 3 4 4 2 5 1 6 59 7 60 8 71 9 61 10 70 11 62 12
REMARK SMILES IDX 63 13 64 14 65 15 68 16 66 17 67 18 69 19 7 20 8 21 9 22
REMARK SMILES IDX 10 23 11 24 12 25 58 26 13 27 57 28 14 29 15 30 16 31 51 32
REMARK SMILES IDX 17 33 56 34 50 35 52 36 18 37 55 38 49 39 48 40 19 42 41 43
REMARK SMILES IDX 26 44 40 45 27 46 30 47 39 48 53 49 28 50 29 51 38 53 54 54
REMARK SMILES IDX 31 55 20 56 21 57 25 58 22 59 24 60 23 61 42 62 43 63 47 64
REMARK SMILES IDX 44 65 46 66 45 67 32 68 33 69 37 70 34 71 36 72 35 73
REMARK H PARENT 52 41 30 52
REMARK Flexibility Score: inf
ROOT
ATOM      1  C   UNL A   1      33.441  33.738  27.988  1.00  0.00     0.274 C 
ENDROOT
BRANCH   1   2
ATOM      2  O   UNL A   1      32.707  34.389  29.045  1.00  0.00    -0.462 OA
BRANCH   2   3
ATOM      3  C   UNL A   1      33.215  35.552  29.542  1.00  0.00     0.313 C 
ATOM      4  O   UNL A   1      33.680  36.437  28.832  1.00  0.00    -0.252 OA
BRANCH   3   5
ATOM      5  C   UNL A   1      33.220  35.578  31.088  1.00  0.00     0.126 C 
ATOM      6  C   UNL A   1      33.363  37.020  31.613  1.00  0.00     0.025 C 
BRANCH   5   7
ATOM      7  C   UNL A   1      34.208  34.592  31.736  1.00  0.00    -0.034 A 
ATOM      8  C   UNL A   1      35.410  34.224  31.111  1.00  0.00     0.005 A 
ATOM      9  C   UNL A   1      33.991  34.078  33.026  1.00  0.00     0.005 A 
ATOM     10  C   UNL A   1      36.308  33.332  31.706  1.00  0.00     0.004 A 
ATOM     11  C   UNL A   1      34.859  33.136  33.599  1.00  0.00     0.004 A 
ATOM     12  C   UNL A   1      36.011  32.721  32.924  1.00  0.00    -0.047 A 
BRANCH  12  13
ATOM     13  C   UNL A   1      36.916  31.654  33.499  1.00  0.00     0.047 C 
BRANCH  13  14
ATOM     14  C   UNL A   1      38.065  32.123  34.403  1.00  0.00     0.060 C 
ATOM     15  C   UNL A   1      37.976  33.567  34.882  1.00  0.00     0.012 C 
ATOM     16  C   UNL A   1      38.181  31.384  35.717  1.00  0.00     0.136 C 
ATOM     17  C   UNL A   1      37.380  33.528  36.283  1.00  0.00     0.009 C 
ATOM     18  C   UNL A   1      37.997  32.289  36.912  1.00  0.00     0.076 C 
ATOM     19  O   UNL A   1      38.420  30.186  35.809  1.00  0.00    -0.299 OA
ENDBRANCH  13  14
ENDBRANCH  12  13
ENDBRANCH   5   7
ENDBRANCH   3   5
ENDBRANCH   2   3
ENDBRANCH   1   2
BRANCH   1  20
ATOM     20  C   UNL A   1      33.961  32.385  28.461  1.00  0.00     0.275 C 
BRANCH  20  21
ATOM     21  O   UNL A   1      33.970  31.466  27.356  1.00  0.00    -0.458 OA
BRANCH  21  22
ATOM     22  C   UNL A   1      34.252  30.178  27.653  1.00  0.00     0.338 C 
ATOM     23  O   UNL A   1      33.557  29.196  27.475  1.00  0.00    -0.246 OA
BRANCH  22  24
ATOM     24  C   UNL A   1      35.607  30.112  28.222  1.00  0.00     0.060 A 
ATOM     25  C   UNL A   1      36.685  30.395  27.396  1.00  0.00     0.016 A 
ATOM     26  C   UNL A   1      35.820  29.653  29.523  1.00  0.00     0.016 A 
ATOM     27  C   UNL A   1      37.978  30.131  27.843  1.00  0.00     0.010 A 
ATOM     28  C   UNL A   1      37.131  29.451  29.987  1.00  0.00     0.010 A 
ATOM     29  C   UNL A   1      38.232  29.619  29.131  1.00  0.00    -0.014 A 
BRANCH  29  30
ATOM     30  C   UNL A   1      39.621  29.158  29.484  1.00  0.00     0.031 A 
ATOM     31  C   UNL A   1      40.410  29.835  30.595  1.00  0.00     0.074 A 
ATOM     32  C   UNL A   1      40.108  27.998  28.988  1.00  0.00     0.049 A 
ATOM     33  N   UNL A   1      41.524  29.437  31.172  1.00  0.00    -0.248 NA
ATOM     34  C   UNL A   1      39.851  31.061  31.188  1.00  0.00     0.031 C 
ATOM     35  C   UNL A   1      39.444  27.158  27.991  1.00  0.00     0.029 A 
ATOM     36  N   UNL A   1      41.245  27.290  29.308  1.00  0.00    -0.354 N 
ATOM     37  C   UNL A   1      41.747  30.316  32.228  1.00  0.00     0.074 A 
ATOM     38  C   UNL A   1      40.697  31.308  32.177  1.00  0.00     0.031 C 
ATOM     39  C   UNL A   1      40.136  26.018  27.843  1.00  0.00     0.029 A 
ATOM     40  C   UNL A   1      41.348  26.082  28.656  1.00  0.00     0.049 A 
ATOM     41  H   UNL A   1      41.923  27.617  29.944  1.00  0.00     0.167 HD
ATOM     42  C   UNL A   1      42.702  30.291  33.189  1.00  0.00     0.031 A 
ATOM     43  C   UNL A   1      42.313  25.139  28.670  1.00  0.00     0.031 A 
ATOM     44  C   UNL A   1      43.801  29.366  33.249  1.00  0.00     0.049 A 
ATOM     45  C   UNL A   1      43.541  25.335  29.511  1.00  0.00     0.074 A 
ATOM     46  C   UNL A   1      44.855  29.340  34.148  1.00  0.00     0.029 A 
ATOM     47  N   UNL A   1      44.006  28.327  32.364  1.00  0.00    -0.354 N 
ATOM     48  N   UNL A   1      43.755  26.203  30.466  1.00  0.00    -0.248 NA
ATOM     49  C   UNL A   1      44.677  24.437  29.245  1.00  0.00     0.031 C 
ATOM     50  C   UNL A   1      45.738  28.326  33.760  1.00  0.00     0.029 A 
ATOM     51  C   UNL A   1      45.204  27.693  32.652  1.00  0.00     0.049 A 
ATOM     52  H   UNL A   1      43.392  28.074  31.637  1.00  0.00     0.167 HD
ATOM     53  C   UNL A   1      45.049  25.957  30.914  1.00  0.00     0.074 A 
ATOM     54  C   UNL A   1      45.561  24.844  30.147  1.00  0.00     0.031 C 
ATOM     55  C   UNL A   1      45.744  26.609  31.876  1.00  0.00     0.031 A 
BRANCH  42  56
ATOM     56  C   UNL A   1      42.620  31.329  34.268  1.00  0.00    -0.014 A 
ATOM     57  C   UNL A   1      41.860  31.096  35.426  1.00  0.00     0.009 A 
ATOM     58  C   UNL A   1      43.359  32.515  34.160  1.00  0.00     0.009 A 
ATOM     59  C   UNL A   1      41.836  32.041  36.453  1.00  0.00     0.001 A 
ATOM     60  C   UNL A   1      43.341  33.453  35.193  1.00  0.00     0.001 A 
ATOM     61  C   UNL A   1      42.579  33.216  36.336  1.00  0.00     0.000 A 
ENDBRANCH  42  56
BRANCH  43  62
ATOM     62  C   UNL A   1      42.214  23.958  27.769  1.00  0.00    -0.014 A 
ATOM     63  C   UNL A   1      42.693  24.005  26.451  1.00  0.00     0.009 A 
ATOM     64  C   UNL A   1      41.591  22.781  28.222  1.00  0.00     0.009 A 
ATOM     65  C   UNL A   1      42.546  22.898  25.608  1.00  0.00     0.001 A 
ATOM     66  C   UNL A   1      41.478  21.668  27.390  1.00  0.00     0.001 A 
ATOM     67  C   UNL A   1      41.948  21.731  26.081  1.00  0.00     0.000 A 
ENDBRANCH  43  62
BRANCH  55  68
ATOM     68  C   UNL A   1      47.149  26.158  32.148  1.00  0.00    -0.014 A 
ATOM     69  C   UNL A   1      48.215  26.630  31.366  1.00  0.00     0.009 A 
ATOM     70  C   UNL A   1      47.422  25.283  33.211  1.00  0.00     0.009 A 
ATOM     71  C   UNL A   1      49.523  26.214  31.627  1.00  0.00     0.001 A 
ATOM     72  C   UNL A   1      48.732  24.889  33.485  1.00  0.00     0.001 A 
ATOM     73  C   UNL A   1      49.780  25.348  32.689  1.00  0.00     0.000 A 
ENDBRANCH  55  68
ENDBRANCH  29  30
ENDBRANCH  22  24
ENDBRANCH  21  22
ENDBRANCH  20  21
ENDBRANCH   1  20
TORSDOF 14
ENDMDL
