MODEL 1
REMARK VINA RESULT:      -8.7      0.000      0.000
REMARK SMILES Cc1cccc(Cl)c1Nc1ccccc1CC(=O)OCCOC(=O)c1ccc(-c2c3nc(c(-c4ccccc4)c4ccc([nH]4)c(-c4ccccc4)c4nc(c(-c5ccccc5)c5ccc2[nH]5)C=C4)C=C3)cc1
REMARK SMILES IDX 20 1 19 2 17 3 18 4 16 5 15 6 10 7 11 8 12 9 14 10 13 11
REMARK SMILES IDX 9 12 8 14 1 15 2 16 3 17 4 18 6 19 5 20 7 21 21 22 22 23
REMARK SMILES IDX 23 24 24 25 25 26 26 27 72 28 27 29 71 30 28 31 29 32 30 33
REMARK SMILES IDX 65 34 31 35 70 36 64 37 66 38 32 39 69 40 63 41 62 42 33 44
REMARK SMILES IDX 55 45 40 46 54 47 41 48 44 49 53 50 67 51 42 52 43 53 52 55
REMARK SMILES IDX 68 56 45 57 34 58 35 59 39 60 36 61 38 62 37 63 56 64 57 65
REMARK SMILES IDX 61 66 58 67 60 68 59 69 46 70 47 71 51 72 48 73 50 74 49 75
REMARK H PARENT 9 13 66 43 44 54
REMARK Flexibility Score: inf
ROOT
ATOM      1  C   UNL A   1      33.865  33.865  28.482  1.00  0.00     0.274 C 
ENDROOT
BRANCH   1   2
ATOM      2  O   UNL A   1      33.463  33.883  29.865  1.00  0.00    -0.462 OA
BRANCH   2   3
ATOM      3  C   UNL A   1      34.454  34.144  30.756  1.00  0.00     0.310 C 
ATOM      4  O   UNL A   1      34.505  35.143  31.468  1.00  0.00    -0.252 OA
BRANCH   3   5
ATOM      5  C   UNL A   1      35.569  33.131  30.738  1.00  0.00     0.160 C 
BRANCH   5   6
ATOM      6  C   UNL A   1      36.984  33.607  30.483  1.00  0.00    -0.013 A 
ATOM      7  C   UNL A   1      37.845  33.961  31.546  1.00  0.00     0.042 A 
ATOM      8  C   UNL A   1      39.133  34.443  31.250  1.00  0.00     0.026 A 
ATOM      9  C   UNL A   1      39.594  34.518  29.936  1.00  0.00     0.002 A 
ATOM     10  C   UNL A   1      37.481  33.654  29.166  1.00  0.00     0.006 A 
ATOM     11  C   UNL A   1      38.772  34.105  28.895  1.00  0.00     0.000 A 
BRANCH   7  12
ATOM     12  N   UNL A   1      37.529  33.752  32.905  1.00  0.00    -0.354 N 
ATOM     13  H   UNL A   1      36.715  34.209  33.216  1.00  0.00     0.167 HD
BRANCH  12  14
ATOM     14  C   UNL A   1      38.195  32.986  33.892  1.00  0.00     0.060 A 
ATOM     15  C   UNL A   1      36.899  30.950  33.068  1.00  0.00     0.046 C 
ATOM     16  C   UNL A   1      37.914  31.600  33.973  1.00  0.00    -0.026 A 
ATOM     17  C   UNL A   1      38.652  30.783  34.849  1.00  0.00     0.005 A 
ATOM     18  C   UNL A   1      39.649  31.321  35.658  1.00  0.00     0.002 A 
ATOM     19  C   UNL A   1      39.193  33.515  34.745  1.00  0.00     0.064 A 
ATOM     20  C   UNL A   1      39.912  32.685  35.614  1.00  0.00     0.023 A 
ATOM     21  Cl  UNL A   1      39.554  35.207  34.837  1.00  0.00    -0.082 Cl
ENDBRANCH  12  14
ENDBRANCH   7  12
ENDBRANCH   5   6
ENDBRANCH   3   5
ENDBRANCH   2   3
ENDBRANCH   1   2
BRANCH   1  22
ATOM     22  C   UNL A   1      33.425  32.570  27.802  1.00  0.00     0.275 C 
BRANCH  22  23
ATOM     23  O   UNL A   1      34.573  31.860  27.303  1.00  0.00    -0.458 OA
BRANCH  23  24
ATOM     24  C   UNL A   1      34.621  30.542  27.587  1.00  0.00     0.338 C 
ATOM     25  O   UNL A   1      33.730  29.719  27.473  1.00  0.00    -0.246 OA
BRANCH  24  26
ATOM     26  C   UNL A   1      35.959  30.196  28.092  1.00  0.00     0.060 A 
ATOM     27  C   UNL A   1      37.080  30.291  27.264  1.00  0.00     0.016 A 
ATOM     28  C   UNL A   1      36.070  29.664  29.376  1.00  0.00     0.016 A 
ATOM     29  C   UNL A   1      38.317  29.823  27.709  1.00  0.00     0.010 A 
ATOM     30  C   UNL A   1      37.317  29.241  29.838  1.00  0.00     0.010 A 
ATOM     31  C   UNL A   1      38.446  29.296  29.001  1.00  0.00    -0.014 A 
BRANCH  31  32
ATOM     32  C   UNL A   1      39.741  28.761  29.486  1.00  0.00     0.031 A 
ATOM     33  C   UNL A   1      40.598  29.592  30.399  1.00  0.00     0.074 A 
ATOM     34  C   UNL A   1      40.174  27.556  29.072  1.00  0.00     0.049 A 
ATOM     35  N   UNL A   1      41.834  29.395  30.780  1.00  0.00    -0.248 NA
ATOM     36  C   UNL A   1      39.984  30.813  30.946  1.00  0.00     0.031 C 
ATOM     37  C   UNL A   1      39.427  26.634  28.215  1.00  0.00     0.029 A 
ATOM     38  N   UNL A   1      41.364  26.912  29.304  1.00  0.00    -0.354 N 
ATOM     39  C   UNL A   1      42.162  30.485  31.574  1.00  0.00     0.074 A 
ATOM     40  C   UNL A   1      40.995  31.343  31.620  1.00  0.00     0.031 C 
ATOM     41  C   UNL A   1      40.178  25.544  27.992  1.00  0.00     0.029 A 
ATOM     42  C   UNL A   1      41.475  25.716  28.639  1.00  0.00     0.049 A 
ATOM     43  H   UNL A   1      42.068  27.272  29.891  1.00  0.00     0.167 HD
ATOM     44  C   UNL A   1      43.330  30.752  32.205  1.00  0.00     0.031 A 
ATOM     45  C   UNL A   1      42.518  24.873  28.528  1.00  0.00     0.031 A 
ATOM     46  C   UNL A   1      44.483  29.892  32.177  1.00  0.00     0.049 A 
ATOM     47  C   UNL A   1      43.817  25.207  29.203  1.00  0.00     0.074 A 
ATOM     48  C   UNL A   1      45.704  30.065  32.807  1.00  0.00     0.029 A 
ATOM     49  N   UNL A   1      44.555  28.694  31.485  1.00  0.00    -0.354 N 
ATOM     50  N   UNL A   1      44.120  26.250  29.937  1.00  0.00    -0.248 NA
ATOM     51  C   UNL A   1      44.919  24.252  29.024  1.00  0.00     0.031 C 
ATOM     52  C   UNL A   1      46.529  28.987  32.465  1.00  0.00     0.029 A 
ATOM     53  C   UNL A   1      45.806  28.125  31.657  1.00  0.00     0.049 A 
ATOM     54  H   UNL A   1      43.826  28.305  30.951  1.00  0.00     0.167 HD
ATOM     55  C   UNL A   1      45.442  26.070  30.320  1.00  0.00     0.074 A 
ATOM     56  C   UNL A   1      45.878  24.812  29.749  1.00  0.00     0.031 C 
ATOM     57  C   UNL A   1      46.225  26.876  31.077  1.00  0.00     0.031 A 
BRANCH  44  58
ATOM     58  C   UNL A   1      43.432  32.054  32.946  1.00  0.00    -0.014 A 
ATOM     59  C   UNL A   1      43.295  32.114  34.341  1.00  0.00     0.009 A 
ATOM     60  C   UNL A   1      43.695  33.235  32.236  1.00  0.00     0.009 A 
ATOM     61  C   UNL A   1      43.389  33.339  35.006  1.00  0.00     0.001 A 
ATOM     62  C   UNL A   1      43.810  34.454  32.905  1.00  0.00     0.001 A 
ATOM     63  C   UNL A   1      43.649  34.507  34.288  1.00  0.00     0.000 A 
ENDBRANCH  44  58
BRANCH  45  64
ATOM     64  C   UNL A   1      42.384  23.643  27.707  1.00  0.00    -0.014 A 
ATOM     65  C   UNL A   1      41.926  22.450  28.284  1.00  0.00     0.009 A 
ATOM     66  C   UNL A   1      42.700  23.663  26.341  1.00  0.00     0.009 A 
ATOM     67  C   UNL A   1      41.800  21.296  27.508  1.00  0.00     0.001 A 
ATOM     68  C   UNL A   1      42.551  22.514  25.562  1.00  0.00     0.001 A 
ATOM     69  C   UNL A   1      42.107  21.330  26.148  1.00  0.00     0.000 A 
ENDBRANCH  45  64
BRANCH  57  70
ATOM     70  C   UNL A   1      47.624  26.407  31.352  1.00  0.00    -0.014 A 
ATOM     71  C   UNL A   1      48.681  26.738  30.491  1.00  0.00     0.009 A 
ATOM     72  C   UNL A   1      47.891  25.651  32.504  1.00  0.00     0.009 A 
ATOM     73  C   UNL A   1      49.977  26.298  30.765  1.00  0.00     0.001 A 
ATOM     74  C   UNL A   1      49.192  25.232  32.787  1.00  0.00     0.001 A 
ATOM     75  C   UNL A   1      50.232  25.549  31.914  1.00  0.00     0.000 A 
ENDBRANCH  57  70
ENDBRANCH  31  32
ENDBRANCH  24  26
ENDBRANCH  23  24
ENDBRANCH  22  23
ENDBRANCH   1  22
TORSDOF 14
ENDMDL
MODEL 2
REMARK VINA RESULT:      -8.4      3.982      9.115
REMARK SMILES Cc1cccc(Cl)c1Nc1ccccc1CC(=O)OCCOC(=O)c1ccc(-c2c3nc(c(-c4ccccc4)c4ccc([nH]4)c(-c4ccccc4)c4nc(c(-c5ccccc5)c5ccc2[nH]5)C=C4)C=C3)cc1
REMARK SMILES IDX 20 1 19 2 17 3 18 4 16 5 15 6 10 7 11 8 12 9 14 10 13 11
REMARK SMILES IDX 9 12 8 14 1 15 2 16 3 17 4 18 6 19 5 20 7 21 21 22 22 23
REMARK SMILES IDX 23 24 24 25 25 26 26 27 72 28 27 29 71 30 28 31 29 32 30 33
REMARK SMILES IDX 65 34 31 35 70 36 64 37 66 38 32 39 69 40 63 41 62 42 33 44
REMARK SMILES IDX 55 45 40 46 54 47 41 48 44 49 53 50 67 51 42 52 43 53 52 55
REMARK SMILES IDX 68 56 45 57 34 58 35 59 39 60 36 61 38 62 37 63 56 64 57 65
REMARK SMILES IDX 61 66 58 67 60 68 59 69 46 70 47 71 51 72 48 73 50 74 49 75
REMARK H PARENT 9 13 66 43 44 54
REMARK Flexibility Score: inf
ROOT
ATOM      1  C   UNL A   1      32.708  31.065  27.105  1.00  0.00     0.274 C 
ENDROOT
BRANCH   1   2
ATOM      2  O   UNL A   1      31.709  30.029  27.153  1.00  0.00    -0.462 OA
BRANCH   2   3
ATOM      3  C   UNL A   1      32.190  28.761  27.233  1.00  0.00     0.310 C 
ATOM      4  O   UNL A   1      31.651  27.850  27.856  1.00  0.00    -0.252 OA
BRANCH   3   5
ATOM      5  C   UNL A   1      33.523  28.572  26.558  1.00  0.00     0.160 C 
BRANCH   5   6
ATOM      6  C   UNL A   1      33.556  28.010  25.152  1.00  0.00    -0.013 A 
ATOM      7  C   UNL A   1      33.526  26.617  24.914  1.00  0.00     0.042 A 
ATOM      8  C   UNL A   1      33.608  26.148  23.591  1.00  0.00     0.026 A 
ATOM      9  C   UNL A   1      33.655  27.029  22.512  1.00  0.00     0.002 A 
ATOM     10  C   UNL A   1      33.565  28.883  24.047  1.00  0.00     0.006 A 
ATOM     11  C   UNL A   1      33.614  28.399  22.741  1.00  0.00     0.000 A 
BRANCH   7  12
ATOM     12  N   UNL A   1      33.302  25.660  25.928  1.00  0.00    -0.354 N 
ATOM     13  H   UNL A   1      33.472  25.980  26.843  1.00  0.00     0.167 HD
BRANCH  12  14
ATOM     14  C   UNL A   1      32.871  24.315  25.838  1.00  0.00     0.060 A 
ATOM     15  C   UNL A   1      30.471  25.177  25.778  1.00  0.00     0.046 C 
ATOM     16  C   UNL A   1      31.480  24.059  25.741  1.00  0.00    -0.026 A 
ATOM     17  C   UNL A   1      31.021  22.748  25.516  1.00  0.00     0.005 A 
ATOM     18  C   UNL A   1      31.916  21.688  25.404  1.00  0.00     0.002 A 
ATOM     19  C   UNL A   1      33.758  23.217  25.750  1.00  0.00     0.064 A 
ATOM     20  C   UNL A   1      33.280  21.919  25.531  1.00  0.00     0.023 A 
ATOM     21  Cl  UNL A   1      35.470  23.369  25.971  1.00  0.00    -0.082 Cl
ENDBRANCH  12  14
ENDBRANCH   7  12
ENDBRANCH   5   6
ENDBRANCH   3   5
ENDBRANCH   2   3
ENDBRANCH   1   2
BRANCH   1  22
ATOM     22  C   UNL A   1      32.070  32.446  27.248  1.00  0.00     0.275 C 
BRANCH  22  23
ATOM     23  O   UNL A   1      33.089  33.462  27.249  1.00  0.00    -0.458 OA
BRANCH  23  24
ATOM     24  C   UNL A   1      33.265  34.120  28.414  1.00  0.00     0.338 C 
ATOM     25  O   UNL A   1      32.519  34.929  28.936  1.00  0.00    -0.246 OA
BRANCH  24  26
ATOM     26  C   UNL A   1      34.551  33.726  29.012  1.00  0.00     0.060 A 
ATOM     27  C   UNL A   1      35.754  34.229  28.509  1.00  0.00     0.016 A 
ATOM     28  C   UNL A   1      34.553  32.758  30.014  1.00  0.00     0.016 A 
ATOM     29  C   UNL A   1      36.969  33.738  28.988  1.00  0.00     0.010 A 
ATOM     30  C   UNL A   1      35.768  32.302  30.526  1.00  0.00     0.010 A 
ATOM     31  C   UNL A   1      36.985  32.771  30.002  1.00  0.00    -0.014 A 
BRANCH  31  32
ATOM     32  C   UNL A   1      38.262  32.209  30.505  1.00  0.00     0.031 A 
ATOM     33  C   UNL A   1      38.818  30.953  29.892  1.00  0.00     0.074 A 
ATOM     34  C   UNL A   1      38.898  32.790  31.537  1.00  0.00     0.049 A 
ATOM     35  N   UNL A   1      39.806  30.201  30.304  1.00  0.00    -0.248 NA
ATOM     36  C   UNL A   1      38.166  30.478  28.662  1.00  0.00     0.031 C 
ATOM     37  C   UNL A   1      38.487  34.029  32.199  1.00  0.00     0.029 A 
ATOM     38  N   UNL A   1      40.020  32.397  32.224  1.00  0.00    -0.354 N 
ATOM     39  C   UNL A   1      39.868  29.140  29.410  1.00  0.00     0.074 A 
ATOM     40  C   UNL A   1      38.817  29.345  28.434  1.00  0.00     0.031 C 
ATOM     41  C   UNL A   1      39.343  34.293  33.199  1.00  0.00     0.029 A 
ATOM     42  C   UNL A   1      40.325  33.215  33.284  1.00  0.00     0.049 A 
ATOM     43  H   UNL A   1      40.554  31.607  31.980  1.00  0.00     0.167 HD
ATOM     44  C   UNL A   1      40.720  28.087  29.404  1.00  0.00     0.031 A 
ATOM     45  C   UNL A   1      41.263  33.092  34.241  1.00  0.00     0.031 A 
ATOM     46  C   UNL A   1      41.777  27.892  30.359  1.00  0.00     0.049 A 
ATOM     47  C   UNL A   1      42.171  31.896  34.239  1.00  0.00     0.074 A 
ATOM     48  C   UNL A   1      42.709  26.869  30.419  1.00  0.00     0.029 A 
ATOM     49  N   UNL A   1      42.046  28.741  31.420  1.00  0.00    -0.354 N 
ATOM     50  N   UNL A   1      42.209  30.891  33.398  1.00  0.00    -0.248 NA
ATOM     51  C   UNL A   1      43.159  31.815  35.324  1.00  0.00     0.031 C 
ATOM     52  C   UNL A   1      43.519  27.081  31.541  1.00  0.00     0.029 A 
ATOM     53  C   UNL A   1      43.117  28.257  32.153  1.00  0.00     0.049 A 
ATOM     54  H   UNL A   1      41.550  29.567  31.624  1.00  0.00     0.167 HD
ATOM     55  C   UNL A   1      43.232  30.066  33.843  1.00  0.00     0.074 A 
ATOM     56  C   UNL A   1      43.799  30.693  35.019  1.00  0.00     0.031 C 
ATOM     57  C   UNL A   1      43.664  28.891  33.323  1.00  0.00     0.031 A 
BRANCH  44  58
ATOM     58  C   UNL A   1      40.513  27.039  28.349  1.00  0.00    -0.014 A 
ATOM     59  C   UNL A   1      41.177  27.102  27.114  1.00  0.00     0.009 A 
ATOM     60  C   UNL A   1      39.657  25.958  28.607  1.00  0.00     0.009 A 
ATOM     61  C   UNL A   1      40.963  26.117  26.147  1.00  0.00     0.001 A 
ATOM     62  C   UNL A   1      39.462  24.963  27.647  1.00  0.00     0.001 A 
ATOM     63  C   UNL A   1      40.108  25.047  26.416  1.00  0.00     0.000 A 
ENDBRANCH  44  58
BRANCH  45  64
ATOM     64  C   UNL A   1      41.361  34.117  35.310  1.00  0.00    -0.014 A 
ATOM     65  C   UNL A   1      40.581  34.010  36.471  1.00  0.00     0.009 A 
ATOM     66  C   UNL A   1      42.244  35.199  35.179  1.00  0.00     0.009 A 
ATOM     67  C   UNL A   1      40.677  34.976  37.475  1.00  0.00     0.001 A 
ATOM     68  C   UNL A   1      42.355  36.150  36.195  1.00  0.00     0.001 A 
ATOM     69  C   UNL A   1      41.567  36.041  37.339  1.00  0.00     0.000 A 
ENDBRANCH  45  64
BRANCH  57  70
ATOM     70  C   UNL A   1      44.820  28.224  34.009  1.00  0.00    -0.014 A 
ATOM     71  C   UNL A   1      46.144  28.545  33.672  1.00  0.00     0.009 A 
ATOM     72  C   UNL A   1      44.580  27.288  35.027  1.00  0.00     0.009 A 
ATOM     73  C   UNL A   1      47.208  27.918  34.325  1.00  0.00     0.001 A 
ATOM     74  C   UNL A   1      45.646  26.680  35.692  1.00  0.00     0.001 A 
ATOM     75  C   UNL A   1      46.957  26.990  35.336  1.00  0.00     0.000 A 
ENDBRANCH  57  70
ENDBRANCH  31  32
ENDBRANCH  24  26
ENDBRANCH  23  24
ENDBRANCH  22  23
ENDBRANCH   1  22
TORSDOF 14
ENDMDL
MODEL 3
REMARK VINA RESULT:      -8.4      4.105      6.958
REMARK SMILES Cc1cccc(Cl)c1Nc1ccccc1CC(=O)OCCOC(=O)c1ccc(-c2c3nc(c(-c4ccccc4)c4ccc([nH]4)c(-c4ccccc4)c4nc(c(-c5ccccc5)c5ccc2[nH]5)C=C4)C=C3)cc1
REMARK SMILES IDX 20 1 19 2 17 3 18 4 16 5 15 6 10 7 11 8 12 9 14 10 13 11
REMARK SMILES IDX 9 12 8 14 1 15 2 16 3 17 4 18 6 19 5 20 7 21 21 22 22 23
REMARK SMILES IDX 23 24 24 25 25 26 26 27 72 28 27 29 71 30 28 31 29 32 30 33
REMARK SMILES IDX 65 34 31 35 70 36 64 37 66 38 32 39 69 40 63 41 62 42 33 44
REMARK SMILES IDX 55 45 40 46 54 47 41 48 44 49 53 50 67 51 42 52 43 53 52 55
REMARK SMILES IDX 68 56 45 57 34 58 35 59 39 60 36 61 38 62 37 63 56 64 57 65
REMARK SMILES IDX 61 66 58 67 60 68 59 69 46 70 47 71 51 72 48 73 50 74 49 75
REMARK H PARENT 9 13 66 43 44 54
REMARK Flexibility Score: inf
ROOT
ATOM      1  C   UNL A   1      32.494  28.571  27.613  1.00  0.00     0.274 C 
ENDROOT
BRANCH   1   2
ATOM      2  O   UNL A   1      31.561  27.813  26.821  1.00  0.00    -0.462 OA
BRANCH   2   3
ATOM      3  C   UNL A   1      31.970  26.564  26.476  1.00  0.00     0.310 C 
ATOM      4  O   UNL A   1      31.433  25.526  26.854  1.00  0.00    -0.252 OA
BRANCH   3   5
ATOM      5  C   UNL A   1      33.226  26.544  25.646  1.00  0.00     0.160 C 
BRANCH   5   6
ATOM      6  C   UNL A   1      33.144  26.075  24.208  1.00  0.00    -0.013 A 
ATOM      7  C   UNL A   1      33.335  24.717  23.864  1.00  0.00     0.042 A 
ATOM      8  C   UNL A   1      33.295  24.345  22.508  1.00  0.00     0.026 A 
ATOM      9  C   UNL A   1      33.011  25.275  21.510  1.00  0.00     0.002 A 
ATOM     10  C   UNL A   1      32.821  26.991  23.189  1.00  0.00     0.006 A 
ATOM     11  C   UNL A   1      32.755  26.596  21.854  1.00  0.00     0.000 A 
BRANCH   7  12
ATOM     12  N   UNL A   1      33.451  23.683  24.817  1.00  0.00    -0.354 N 
ATOM     13  H   UNL A   1      32.848  23.762  25.590  1.00  0.00     0.167 HD
BRANCH  12  14
ATOM     14  C   UNL A   1      34.298  22.548  24.836  1.00  0.00     0.060 A 
ATOM     15  C   UNL A   1      36.200  24.083  25.563  1.00  0.00     0.046 C 
ATOM     16  C   UNL A   1      35.650  22.723  25.223  1.00  0.00    -0.026 A 
ATOM     17  C   UNL A   1      36.485  21.602  25.383  1.00  0.00     0.005 A 
ATOM     18  C   UNL A   1      36.008  20.316  25.148  1.00  0.00     0.002 A 
ATOM     19  C   UNL A   1      33.844  21.233  24.576  1.00  0.00     0.064 A 
ATOM     20  C   UNL A   1      34.693  20.132  24.736  1.00  0.00     0.023 A 
ATOM     21  Cl  UNL A   1      32.253  20.887  23.981  1.00  0.00    -0.082 Cl
ENDBRANCH  12  14
ENDBRANCH   7  12
ENDBRANCH   5   6
ENDBRANCH   3   5
ENDBRANCH   2   3
ENDBRANCH   1   2
BRANCH   1  22
ATOM     22  C   UNL A   1      32.718  29.958  27.015  1.00  0.00     0.275 C 
BRANCH  22  23
ATOM     23  O   UNL A   1      34.126  30.249  26.957  1.00  0.00    -0.458 OA
BRANCH  23  24
ATOM     24  C   UNL A   1      34.662  30.794  28.070  1.00  0.00     0.338 C 
ATOM     25  O   UNL A   1      34.206  31.690  28.758  1.00  0.00    -0.246 OA
BRANCH  24  26
ATOM     26  C   UNL A   1      35.949  30.143  28.365  1.00  0.00     0.060 A 
ATOM     27  C   UNL A   1      36.196  29.593  29.626  1.00  0.00     0.016 A 
ATOM     28  C   UNL A   1      36.956  30.187  27.402  1.00  0.00     0.016 A 
ATOM     29  C   UNL A   1      37.468  29.110  29.938  1.00  0.00     0.010 A 
ATOM     30  C   UNL A   1      38.213  29.661  27.699  1.00  0.00     0.010 A 
ATOM     31  C   UNL A   1      38.486  29.139  28.976  1.00  0.00    -0.014 A 
BRANCH  31  32
ATOM     32  C   UNL A   1      39.855  28.664  29.293  1.00  0.00     0.031 A 
ATOM     33  C   UNL A   1      40.825  29.585  29.979  1.00  0.00     0.074 A 
ATOM     34  C   UNL A   1      40.245  27.430  28.927  1.00  0.00     0.049 A 
ATOM     35  N   UNL A   1      42.110  29.436  30.173  1.00  0.00    -0.248 NA
ATOM     36  C   UNL A   1      40.276  30.846  30.503  1.00  0.00     0.031 C 
ATOM     37  C   UNL A   1      39.394  26.425  28.289  1.00  0.00     0.029 A 
ATOM     38  N   UNL A   1      41.472  26.821  29.024  1.00  0.00    -0.354 N 
ATOM     39  C   UNL A   1      42.534  30.599  30.802  1.00  0.00     0.074 A 
ATOM     40  C   UNL A   1      41.369  31.446  30.955  1.00  0.00     0.031 C 
ATOM     41  C   UNL A   1      40.126  25.326  28.048  1.00  0.00     0.029 A 
ATOM     42  C   UNL A   1      41.505  25.570  28.461  1.00  0.00     0.049 A 
ATOM     43  H   UNL A   1      42.251  27.241  29.455  1.00  0.00     0.167 HD
ATOM     44  C   UNL A   1      43.781  30.934  31.210  1.00  0.00     0.031 A 
ATOM     45  C   UNL A   1      42.537  24.729  28.262  1.00  0.00     0.031 A 
ATOM     46  C   UNL A   1      44.935  30.086  31.077  1.00  0.00     0.049 A 
ATOM     47  C   UNL A   1      43.918  25.137  28.686  1.00  0.00     0.074 A 
ATOM     48  C   UNL A   1      46.236  30.328  31.485  1.00  0.00     0.029 A 
ATOM     49  N   UNL A   1      44.925  28.829  30.494  1.00  0.00    -0.354 N 
ATOM     50  N   UNL A   1      44.309  26.247  29.265  1.00  0.00    -0.248 NA
ATOM     51  C   UNL A   1      45.000  24.180  28.421  1.00  0.00     0.031 C 
ATOM     52  C   UNL A   1      47.022  29.230  31.114  1.00  0.00     0.029 A 
ATOM     53  C   UNL A   1      46.201  28.289  30.514  1.00  0.00     0.049 A 
ATOM     54  H   UNL A   1      44.130  28.384  30.122  1.00  0.00     0.167 HD
ATOM     55  C   UNL A   1      45.678  26.116  29.446  1.00  0.00     0.074 A 
ATOM     56  C   UNL A   1      46.049  24.814  28.929  1.00  0.00     0.031 C 
ATOM     57  C   UNL A   1      46.552  26.996  29.991  1.00  0.00     0.031 A 
BRANCH  44  58
ATOM     58  C   UNL A   1      43.968  32.300  31.804  1.00  0.00    -0.014 A 
ATOM     59  C   UNL A   1      44.255  33.414  31.000  1.00  0.00     0.009 A 
ATOM     60  C   UNL A   1      43.828  32.478  33.188  1.00  0.00     0.009 A 
ATOM     61  C   UNL A   1      44.430  34.674  31.578  1.00  0.00     0.001 A 
ATOM     62  C   UNL A   1      43.981  33.741  33.761  1.00  0.00     0.001 A 
ATOM     63  C   UNL A   1      44.290  34.837  32.957  1.00  0.00     0.000 A 
ENDBRANCH  44  58
BRANCH  45  64
ATOM     64  C   UNL A   1      42.303  23.427  27.588  1.00  0.00    -0.014 A 
ATOM     65  C   UNL A   1      42.401  23.320  26.194  1.00  0.00     0.009 A 
ATOM     66  C   UNL A   1      41.995  22.283  28.340  1.00  0.00     0.009 A 
ATOM     67  C   UNL A   1      42.182  22.094  25.563  1.00  0.00     0.001 A 
ATOM     68  C   UNL A   1      41.800  21.053  27.709  1.00  0.00     0.001 A 
ATOM     69  C   UNL A   1      41.888  20.961  26.321  1.00  0.00     0.000 A 
ENDBRANCH  45  64
BRANCH  57  70
ATOM     70  C   UNL A   1      47.988  26.567  30.080  1.00  0.00    -0.014 A 
ATOM     71  C   UNL A   1      48.467  25.870  31.199  1.00  0.00     0.009 A 
ATOM     72  C   UNL A   1      48.862  26.839  29.016  1.00  0.00     0.009 A 
ATOM     73  C   UNL A   1      49.804  25.474  31.262  1.00  0.00     0.001 A 
ATOM     74  C   UNL A   1      50.193  26.422  29.073  1.00  0.00     0.001 A 
ATOM     75  C   UNL A   1      50.665  25.748  30.198  1.00  0.00     0.000 A 
ENDBRANCH  57  70
ENDBRANCH  31  32
ENDBRANCH  24  26
ENDBRANCH  23  24
ENDBRANCH  22  23
ENDBRANCH   1  22
TORSDOF 14
ENDMDL
