MODEL 1
REMARK VINA RESULT:     -12.0      0.000      0.000
REMARK SMILES CC(C)c1ccc(-c2cnc([C@@H]3[NH2+][C@H](C(=O)OCCOC(=O)c4ccc(-c5c6nc(c(-c7ccccc7)c7ccc([nH]7)c(-c7ccccc7)c7nc(c(-c8ccccc8)c8ccc5[nH]8)C=C7)C=C6)cc4)C(C)(C)S3)s2)cc1
REMARK SMILES IDX 18 1 17 2 15 3 16 4 14 5 12 6 13 7 74 8 71 11 72 12 73 13
REMARK SMILES IDX 11 14 8 15 9 16 75 17 10 18 7 19 4 20 5 21 77 22 6 23 76 24
REMARK SMILES IDX 2 25 1 26 3 27 19 28 20 29 21 30 22 31 23 32 24 33 70 34
REMARK SMILES IDX 25 35 69 36 26 37 27 38 28 39 63 40 29 41 68 42 62 43 64 44
REMARK SMILES IDX 30 45 67 46 61 47 60 48 31 50 53 51 38 52 52 53 39 54 42 55
REMARK SMILES IDX 51 56 65 57 40 58 41 59 50 61 66 62 43 63 32 64 33 65 37 66
REMARK SMILES IDX 34 67 36 68 35 69 54 70 55 71 59 72 56 73 58 74 57 75 44 76
REMARK SMILES IDX 45 77 49 78 46 79 48 80 47 81
REMARK H PARENT 13 9 13 10 64 49 42 60
REMARK Flexibility Score: inf
ROOT
ATOM      1  C   UNL A   1      31.803  28.609  27.493  1.00  0.00     0.274 C 
ENDROOT
BRANCH   1   2
ATOM      2  O   UNL A   1      32.307  27.493  26.734  1.00  0.00    -0.458 OA
BRANCH   2   3
ATOM      3  C   UNL A   1      31.432  27.015  25.811  1.00  0.00     0.366 C 
ATOM      4  O   UNL A   1      30.873  25.923  25.917  1.00  0.00    -0.245 OA
BRANCH   3   5
ATOM      5  C   UNL A   1      31.214  27.928  24.577  1.00  0.00     0.310 C 
ATOM      6  C   UNL A   1      32.796  27.176  22.916  1.00  0.00     0.304 C 
ATOM      7  N   UNL A   1      32.544  28.219  23.925  1.00  0.00    -0.317 N 
ATOM      8  S   UNL A   1      31.183  26.929  22.096  1.00  0.00    -0.079 SA
ATOM      9  H   UNL A   1      32.516  29.135  23.478  1.00  0.00     0.348 HD
ATOM     10  H   UNL A   1      33.287  28.222  24.625  1.00  0.00     0.348 HD
ATOM     11  C   UNL A   1      30.178  27.631  23.462  1.00  0.00     0.079 C 
ATOM     12  C   UNL A   1      29.588  28.943  22.891  1.00  0.00     0.030 C 
ATOM     13  C   UNL A   1      28.978  26.752  23.836  1.00  0.00     0.030 C 
BRANCH   6  14
ATOM     14  C   UNL A   1      33.418  25.881  23.451  1.00  0.00     0.162 A 
ATOM     15  C   UNL A   1      33.914  23.514  23.968  1.00  0.00     0.055 A 
ATOM     16  C   UNL A   1      34.474  24.464  24.796  1.00  0.00     0.132 A 
ATOM     17  S   UNL A   1      33.171  24.358  22.651  1.00  0.00    -0.112 S 
ATOM     18  N   UNL A   1      34.166  25.784  24.530  1.00  0.00    -0.242 NA
BRANCH  15  19
ATOM     19  C   UNL A   1      33.878  22.046  24.164  1.00  0.00    -0.007 A 
ATOM     20  C   UNL A   1      33.925  19.192  24.571  1.00  0.00    -0.045 A 
ATOM     21  C   UNL A   1      32.788  19.858  24.081  1.00  0.00     0.004 A 
ATOM     22  C   UNL A   1      35.034  19.992  24.873  1.00  0.00     0.004 A 
ATOM     23  C   UNL A   1      32.762  21.256  23.884  1.00  0.00     0.010 A 
ATOM     24  C   UNL A   1      35.008  21.384  24.680  1.00  0.00     0.010 A 
BRANCH  20  25
ATOM     25  C   UNL A   1      34.017  17.665  24.662  1.00  0.00     0.013 C 
ATOM     26  C   UNL A   1      32.937  17.012  25.542  1.00  0.00     0.012 C 
ATOM     27  C   UNL A   1      34.021  16.933  23.311  1.00  0.00     0.012 C 
ENDBRANCH  20  25
ENDBRANCH  15  19
ENDBRANCH   6  14
ENDBRANCH   3   5
ENDBRANCH   2   3
ENDBRANCH   1   2
BRANCH   1  28
ATOM     28  C   UNL A   1      32.622  29.874  27.212  1.00  0.00     0.275 C 
BRANCH  28  29
ATOM     29  O   UNL A   1      34.028  29.622  27.422  1.00  0.00    -0.458 OA
BRANCH  29  30
ATOM     30  C   UNL A   1      34.734  30.564  28.089  1.00  0.00     0.338 C 
ATOM     31  O   UNL A   1      34.322  31.622  28.542  1.00  0.00    -0.246 OA
BRANCH  30  32
ATOM     32  C   UNL A   1      36.088  30.039  28.352  1.00  0.00     0.060 A 
ATOM     33  C   UNL A   1      36.986  30.077  27.292  1.00  0.00     0.016 A 
ATOM     34  C   UNL A   1      36.489  29.487  29.565  1.00  0.00     0.016 A 
ATOM     35  C   UNL A   1      38.297  29.625  27.427  1.00  0.00     0.010 A 
ATOM     36  C   UNL A   1      37.807  29.011  29.704  1.00  0.00     0.010 A 
ATOM     37  C   UNL A   1      38.725  29.086  28.638  1.00  0.00    -0.014 A 
BRANCH  37  38
ATOM     38  C   UNL A   1      40.103  28.539  28.742  1.00  0.00     0.031 A 
ATOM     39  C   UNL A   1      41.216  29.426  29.186  1.00  0.00     0.074 A 
ATOM     40  C   UNL A   1      40.365  27.232  28.571  1.00  0.00     0.049 A 
ATOM     41  N   UNL A   1      42.501  29.194  29.174  1.00  0.00    -0.248 NA
ATOM     42  C   UNL A   1      40.828  30.723  29.752  1.00  0.00     0.031 C 
ATOM     43  C   UNL A   1      39.348  26.213  28.401  1.00  0.00     0.029 A 
ATOM     44  N   UNL A   1      41.543  26.527  28.525  1.00  0.00    -0.354 N 
ATOM     45  C   UNL A   1      43.084  30.328  29.713  1.00  0.00     0.074 A 
ATOM     46  C   UNL A   1      42.010  31.239  30.051  1.00  0.00     0.031 C 
ATOM     47  C   UNL A   1      39.925  25.013  28.245  1.00  0.00     0.029 A 
ATOM     48  C   UNL A   1      41.368  25.198  28.214  1.00  0.00     0.049 A 
ATOM     49  H   UNL A   1      42.423  26.933  28.696  1.00  0.00     0.167 HD
ATOM     50  C   UNL A   1      44.401  30.586  29.886  1.00  0.00     0.031 A 
ATOM     51  C   UNL A   1      42.265  24.252  27.874  1.00  0.00     0.031 A 
ATOM     52  C   UNL A   1      45.456  29.683  29.508  1.00  0.00     0.049 A 
ATOM     53  C   UNL A   1      43.715  24.640  27.814  1.00  0.00     0.074 A 
ATOM     54  C   UNL A   1      46.823  29.888  29.541  1.00  0.00     0.029 A 
ATOM     55  N   UNL A   1      45.256  28.400  29.019  1.00  0.00    -0.354 N 
ATOM     56  N   UNL A   1      44.277  25.764  28.184  1.00  0.00    -0.248 NA
ATOM     57  C   UNL A   1      44.650  23.646  27.271  1.00  0.00     0.031 C 
ATOM     58  C   UNL A   1      47.447  28.754  29.010  1.00  0.00     0.029 A 
ATOM     59  C   UNL A   1      46.473  27.815  28.707  1.00  0.00     0.049 A 
ATOM     60  H   UNL A   1      44.378  27.968  28.908  1.00  0.00     0.167 HD
ATOM     61  C   UNL A   1      45.634  25.607  27.945  1.00  0.00     0.074 A 
ATOM     62  C   UNL A   1      45.812  24.273  27.404  1.00  0.00     0.031 C 
ATOM     63  C   UNL A   1      46.639  26.491  28.162  1.00  0.00     0.031 A 
BRANCH  50  64
ATOM     64  C   UNL A   1      44.747  31.954  30.392  1.00  0.00    -0.014 A 
ATOM     65  C   UNL A   1      44.809  32.242  31.764  1.00  0.00     0.009 A 
ATOM     66  C   UNL A   1      44.955  32.988  29.467  1.00  0.00     0.009 A 
ATOM     67  C   UNL A   1      45.027  33.552  32.197  1.00  0.00     0.001 A 
ATOM     68  C   UNL A   1      45.201  34.289  29.902  1.00  0.00     0.001 A 
ATOM     69  C   UNL A   1      45.221  34.573  31.266  1.00  0.00     0.000 A 
ENDBRANCH  50  64
BRANCH  51  70
ATOM     70  C   UNL A   1      41.819  22.890  27.468  1.00  0.00    -0.014 A 
ATOM     71  C   UNL A   1      41.800  21.834  28.392  1.00  0.00     0.009 A 
ATOM     72  C   UNL A   1      41.436  22.630  26.141  1.00  0.00     0.009 A 
ATOM     73  C   UNL A   1      41.422  20.549  27.992  1.00  0.00     0.001 A 
ATOM     74  C   UNL A   1      41.032  21.351  25.751  1.00  0.00     0.001 A 
ATOM     75  C   UNL A   1      41.033  20.310  26.675  1.00  0.00     0.000 A 
ENDBRANCH  51  70
BRANCH  63  76
ATOM     76  C   UNL A   1      48.033  26.028  27.849  1.00  0.00    -0.014 A 
ATOM     77  C   UNL A   1      48.601  26.226  26.581  1.00  0.00     0.009 A 
ATOM     78  C   UNL A   1      48.804  25.424  28.854  1.00  0.00     0.009 A 
ATOM     79  C   UNL A   1      49.907  25.805  26.321  1.00  0.00     0.001 A 
ATOM     80  C   UNL A   1      50.118  25.031  28.600  1.00  0.00     0.001 A 
ATOM     81  C   UNL A   1      50.666  25.216  27.332  1.00  0.00     0.000 A 
ENDBRANCH  63  76
ENDBRANCH  37  38
ENDBRANCH  30  32
ENDBRANCH  29  30
ENDBRANCH  28  29
ENDBRANCH   1  28
TORSDOF 14
ENDMDL
MODEL 2
REMARK VINA RESULT:     -10.8      9.817     14.956
REMARK SMILES CC(C)c1ccc(-c2cnc([C@@H]3[NH2+][C@H](C(=O)OCCOC(=O)c4ccc(-c5c6nc(c(-c7ccccc7)c7ccc([nH]7)c(-c7ccccc7)c7nc(c(-c8ccccc8)c8ccc5[nH]8)C=C7)C=C6)cc4)C(C)(C)S3)s2)cc1
REMARK SMILES IDX 18 1 17 2 15 3 16 4 14 5 12 6 13 7 74 8 71 11 72 12 73 13
REMARK SMILES IDX 11 14 8 15 9 16 75 17 10 18 7 19 4 20 5 21 77 22 6 23 76 24
REMARK SMILES IDX 2 25 1 26 3 27 19 28 20 29 21 30 22 31 23 32 24 33 70 34
REMARK SMILES IDX 25 35 69 36 26 37 27 38 28 39 63 40 29 41 68 42 62 43 64 44
REMARK SMILES IDX 30 45 67 46 61 47 60 48 31 50 53 51 38 52 52 53 39 54 42 55
REMARK SMILES IDX 51 56 65 57 40 58 41 59 50 61 66 62 43 63 32 64 33 65 37 66
REMARK SMILES IDX 34 67 36 68 35 69 54 70 55 71 59 72 56 73 58 74 57 75 44 76
REMARK SMILES IDX 45 77 49 78 46 79 48 80 47 81
REMARK H PARENT 13 9 13 10 64 49 42 60
REMARK Flexibility Score: inf
ROOT
ATOM      1  C   UNL A   1      46.459  24.015  39.552  1.00  0.00     0.274 C 
ENDROOT
BRANCH   1   2
ATOM      2  O   UNL A   1      45.974  22.766  40.084  1.00  0.00    -0.458 OA
BRANCH   2   3
ATOM      3  C   UNL A   1      46.418  21.672  39.412  1.00  0.00     0.366 C 
ATOM      4  O   UNL A   1      45.705  20.699  39.165  1.00  0.00    -0.245 OA
BRANCH   3   5
ATOM      5  C   UNL A   1      47.915  21.712  39.009  1.00  0.00     0.310 C 
ATOM      6  C   UNL A   1      48.989  19.977  40.299  1.00  0.00     0.304 C 
ATOM      7  N   UNL A   1      48.770  21.432  40.221  1.00  0.00    -0.317 N 
ATOM      8  S   UNL A   1      49.298  19.463  38.573  1.00  0.00    -0.079 SA
ATOM      9  H   UNL A   1      49.665  21.912  40.130  1.00  0.00     0.348 HD
ATOM     10  H   UNL A   1      48.306  21.766  41.066  1.00  0.00     0.348 HD
ATOM     11  C   UNL A   1      48.501  20.928  37.805  1.00  0.00     0.079 C 
ATOM     12  C   UNL A   1      49.658  21.713  37.145  1.00  0.00     0.030 C 
ATOM     13  C   UNL A   1      47.535  20.559  36.673  1.00  0.00     0.030 C 
BRANCH   6  14
ATOM     14  C   UNL A   1      47.873  19.181  40.986  1.00  0.00     0.162 A 
ATOM     15  C   UNL A   1      45.982  17.661  41.470  1.00  0.00     0.055 A 
ATOM     16  C   UNL A   1      46.241  18.651  42.395  1.00  0.00     0.132 A 
ATOM     17  S   UNL A   1      47.269  17.698  40.311  1.00  0.00    -0.112 S 
ATOM     18  N   UNL A   1      47.272  19.523  42.106  1.00  0.00    -0.242 NA
BRANCH  15  19
ATOM     19  C   UNL A   1      44.807  16.762  41.406  1.00  0.00    -0.007 A 
ATOM     20  C   UNL A   1      42.540  14.982  41.398  1.00  0.00    -0.045 A 
ATOM     21  C   UNL A   1      43.011  15.596  40.225  1.00  0.00     0.004 A 
ATOM     22  C   UNL A   1      43.219  15.295  42.582  1.00  0.00     0.004 A 
ATOM     23  C   UNL A   1      44.120  16.471  40.227  1.00  0.00     0.010 A 
ATOM     24  C   UNL A   1      44.320  16.168  42.586  1.00  0.00     0.010 A 
BRANCH  20  25
ATOM     25  C   UNL A   1      41.427  13.927  41.393  1.00  0.00     0.013 C 
ATOM     26  C   UNL A   1      41.481  12.949  40.207  1.00  0.00     0.012 C 
ATOM     27  C   UNL A   1      41.319  13.092  42.679  1.00  0.00     0.012 C 
ENDBRANCH  20  25
ENDBRANCH  15  19
ENDBRANCH   6  14
ENDBRANCH   3   5
ENDBRANCH   2   3
ENDBRANCH   1   2
BRANCH   1  28
ATOM     28  C   UNL A   1      45.294  24.908  39.110  1.00  0.00     0.275 C 
BRANCH  28  29
ATOM     29  O   UNL A   1      44.584  24.305  38.007  1.00  0.00    -0.458 OA
BRANCH  29  30
ATOM     30  C   UNL A   1      45.155  24.387  36.783  1.00  0.00     0.338 C 
ATOM     31  O   UNL A   1      46.016  23.658  36.313  1.00  0.00    -0.246 OA
BRANCH  30  32
ATOM     32  C   UNL A   1      44.444  25.415  36.000  1.00  0.00     0.060 A 
ATOM     33  C   UNL A   1      43.096  25.186  35.753  1.00  0.00     0.016 A 
ATOM     34  C   UNL A   1      45.048  26.554  35.476  1.00  0.00     0.016 A 
ATOM     35  C   UNL A   1      42.317  26.095  35.039  1.00  0.00     0.010 A 
ATOM     36  C   UNL A   1      44.273  27.470  34.738  1.00  0.00     0.010 A 
ATOM     37  C   UNL A   1      42.897  27.251  34.523  1.00  0.00    -0.014 A 
BRANCH  37  38
ATOM     38  C   UNL A   1      42.072  28.172  33.699  1.00  0.00     0.031 A 
ATOM     39  C   UNL A   1      41.353  29.303  34.353  1.00  0.00     0.074 A 
ATOM     40  C   UNL A   1      42.046  28.099  32.357  1.00  0.00     0.049 A 
ATOM     41  N   UNL A   1      40.453  30.102  33.848  1.00  0.00    -0.248 NA
ATOM     42  C   UNL A   1      41.728  29.593  35.742  1.00  0.00     0.031 C 
ATOM     43  C   UNL A   1      42.899  27.228  31.573  1.00  0.00     0.029 A 
ATOM     44  N   UNL A   1      41.304  28.763  31.411  1.00  0.00    -0.354 N 
ATOM     45  C   UNL A   1      40.133  30.985  34.865  1.00  0.00     0.074 A 
ATOM     46  C   UNL A   1      40.945  30.627  36.011  1.00  0.00     0.031 C 
ATOM     47  C   UNL A   1      42.631  27.378  30.268  1.00  0.00     0.029 A 
ATOM     48  C   UNL A   1      41.514  28.301  30.132  1.00  0.00     0.049 A 
ATOM     49  H   UNL A   1      40.683  29.495  31.629  1.00  0.00     0.167 HD
ATOM     50  C   UNL A   1      39.224  31.987  34.844  1.00  0.00     0.031 A 
ATOM     51  C   UNL A   1      40.838  28.540  28.992  1.00  0.00     0.031 A 
ATOM     52  C   UNL A   1      38.399  32.303  33.708  1.00  0.00     0.049 A 
ATOM     53  C   UNL A   1      39.654  29.462  29.051  1.00  0.00     0.074 A 
ATOM     54  C   UNL A   1      37.375  33.227  33.614  1.00  0.00     0.029 A 
ATOM     55  N   UNL A   1      38.502  31.693  32.466  1.00  0.00    -0.354 N 
ATOM     56  N   UNL A   1      39.242  30.202  30.051  1.00  0.00    -0.248 NA
ATOM     57  C   UNL A   1      38.829  29.568  27.840  1.00  0.00     0.031 C 
ATOM     58  C   UNL A   1      36.815  33.129  32.335  1.00  0.00     0.029 A 
ATOM     59  C   UNL A   1      37.534  32.191  31.609  1.00  0.00     0.049 A 
ATOM     60  H   UNL A   1      39.166  31.006  32.228  1.00  0.00     0.167 HD
ATOM     61  C   UNL A   1      38.126  30.882  29.585  1.00  0.00     0.074 A 
ATOM     62  C   UNL A   1      37.930  30.472  28.208  1.00  0.00     0.031 C 
ATOM     63  C   UNL A   1      37.342  31.770  30.244  1.00  0.00     0.031 A 
BRANCH  50  64
ATOM     64  C   UNL A   1      39.007  32.712  36.138  1.00  0.00    -0.014 A 
ATOM     65  C   UNL A   1      38.091  32.254  37.098  1.00  0.00     0.009 A 
ATOM     66  C   UNL A   1      39.695  33.912  36.368  1.00  0.00     0.009 A 
ATOM     67  C   UNL A   1      37.836  33.013  38.243  1.00  0.00     0.001 A 
ATOM     68  C   UNL A   1      39.460  34.653  37.525  1.00  0.00     0.001 A 
ATOM     69  C   UNL A   1      38.519  34.211  38.454  1.00  0.00     0.000 A 
ENDBRANCH  50  64
BRANCH  51  70
ATOM     70  C   UNL A   1      41.192  27.828  27.733  1.00  0.00    -0.014 A 
ATOM     71  C   UNL A   1      42.034  28.424  26.782  1.00  0.00     0.009 A 
ATOM     72  C   UNL A   1      40.665  26.554  27.461  1.00  0.00     0.009 A 
ATOM     73  C   UNL A   1      42.327  27.766  25.583  1.00  0.00     0.001 A 
ATOM     74  C   UNL A   1      40.981  25.888  26.274  1.00  0.00     0.001 A 
ATOM     75  C   UNL A   1      41.805  26.498  25.333  1.00  0.00     0.000 A 
ENDBRANCH  51  70
BRANCH  63  76
ATOM     76  C   UNL A   1      36.216  32.392  29.468  1.00  0.00    -0.014 A 
ATOM     77  C   UNL A   1      36.319  33.689  28.944  1.00  0.00     0.009 A 
ATOM     78  C   UNL A   1      35.052  31.647  29.221  1.00  0.00     0.009 A 
ATOM     79  C   UNL A   1      35.266  34.237  28.208  1.00  0.00     0.001 A 
ATOM     80  C   UNL A   1      34.014  32.186  28.461  1.00  0.00     0.001 A 
ATOM     81  C   UNL A   1      34.119  33.483  27.960  1.00  0.00     0.000 A 
ENDBRANCH  63  76
ENDBRANCH  37  38
ENDBRANCH  30  32
ENDBRANCH  29  30
ENDBRANCH  28  29
ENDBRANCH   1  28
TORSDOF 14
ENDMDL
MODEL 3
REMARK VINA RESULT:     -10.4      6.183     12.482
REMARK SMILES CC(C)c1ccc(-c2cnc([C@@H]3[NH2+][C@H](C(=O)OCCOC(=O)c4ccc(-c5c6nc(c(-c7ccccc7)c7ccc([nH]7)c(-c7ccccc7)c7nc(c(-c8ccccc8)c8ccc5[nH]8)C=C7)C=C6)cc4)C(C)(C)S3)s2)cc1
REMARK SMILES IDX 18 1 17 2 15 3 16 4 14 5 12 6 13 7 74 8 71 11 72 12 73 13
REMARK SMILES IDX 11 14 8 15 9 16 75 17 10 18 7 19 4 20 5 21 77 22 6 23 76 24
REMARK SMILES IDX 2 25 1 26 3 27 19 28 20 29 21 30 22 31 23 32 24 33 70 34
REMARK SMILES IDX 25 35 69 36 26 37 27 38 28 39 63 40 29 41 68 42 62 43 64 44
REMARK SMILES IDX 30 45 67 46 61 47 60 48 31 50 53 51 38 52 52 53 39 54 42 55
REMARK SMILES IDX 51 56 65 57 40 58 41 59 50 61 66 62 43 63 32 64 33 65 37 66
REMARK SMILES IDX 34 67 36 68 35 69 54 70 55 71 59 72 56 73 58 74 57 75 44 76
REMARK SMILES IDX 45 77 49 78 46 79 48 80 47 81
REMARK H PARENT 13 9 13 10 64 49 42 60
REMARK Flexibility Score: inf
ROOT
ATOM      1  C   UNL A   1      46.933  24.655  24.980  1.00  0.00     0.274 C 
ENDROOT
BRANCH   1   2
ATOM      2  O   UNL A   1      46.401  25.845  25.595  1.00  0.00    -0.458 OA
BRANCH   2   3
ATOM      3  C   UNL A   1      47.072  26.235  26.710  1.00  0.00     0.366 C 
ATOM      4  O   UNL A   1      46.508  26.601  27.742  1.00  0.00    -0.245 OA
BRANCH   3   5
ATOM      5  C   UNL A   1      48.618  26.230  26.582  1.00  0.00     0.310 C 
ATOM      6  C   UNL A   1      49.276  28.551  26.491  1.00  0.00     0.304 C 
ATOM      7  N   UNL A   1      49.051  27.350  25.668  1.00  0.00    -0.317 N 
ATOM      8  S   UNL A   1      50.134  27.933  27.981  1.00  0.00    -0.079 SA
ATOM      9  H   UNL A   1      49.913  27.091  25.189  1.00  0.00     0.348 HD
ATOM     10  H   UNL A   1      48.331  27.532  24.967  1.00  0.00     0.348 HD
ATOM     11  C   UNL A   1      49.579  26.193  27.798  1.00  0.00     0.079 C 
ATOM     12  C   UNL A   1      50.863  25.397  27.464  1.00  0.00     0.030 C 
ATOM     13  C   UNL A   1      49.036  25.598  29.103  1.00  0.00     0.030 C 
BRANCH   6  14
ATOM     14  C   UNL A   1      48.025  29.379  26.803  1.00  0.00     0.162 A 
ATOM     15  C   UNL A   1      46.171  30.560  27.939  1.00  0.00     0.055 A 
ATOM     16  C   UNL A   1      46.006  30.282  26.597  1.00  0.00     0.132 A 
ATOM     17  S   UNL A   1      47.800  30.137  28.350  1.00  0.00    -0.112 S 
ATOM     18  N   UNL A   1      47.024  29.589  25.973  1.00  0.00    -0.242 NA
BRANCH  15  19
ATOM     19  C   UNL A   1      45.157  31.062  28.894  1.00  0.00    -0.007 A 
ATOM     20  C   UNL A   1      43.102  32.041  30.663  1.00  0.00    -0.045 A 
ATOM     21  C   UNL A   1      44.445  31.933  31.065  1.00  0.00     0.004 A 
ATOM     22  C   UNL A   1      42.807  31.627  29.358  1.00  0.00     0.004 A 
ATOM     23  C   UNL A   1      45.452  31.452  30.201  1.00  0.00     0.010 A 
ATOM     24  C   UNL A   1      43.809  31.143  28.499  1.00  0.00     0.010 A 
BRANCH  20  25
ATOM     25  C   UNL A   1      42.022  32.687  31.539  1.00  0.00     0.013 C 
ATOM     26  C   UNL A   1      42.567  33.577  32.670  1.00  0.00     0.012 C 
ATOM     27  C   UNL A   1      40.968  33.503  30.773  1.00  0.00     0.012 C 
ENDBRANCH  20  25
ENDBRANCH  15  19
ENDBRANCH   6  14
ENDBRANCH   3   5
ENDBRANCH   2   3
ENDBRANCH   1   2
BRANCH   1  28
ATOM     28  C   UNL A   1      45.831  23.610  24.773  1.00  0.00     0.275 C 
BRANCH  28  29
ATOM     29  O   UNL A   1      44.577  24.253  24.458  1.00  0.00    -0.458 OA
BRANCH  29  30
ATOM     30  C   UNL A   1      43.455  23.723  24.995  1.00  0.00     0.338 C 
ATOM     31  O   UNL A   1      42.969  22.624  24.771  1.00  0.00    -0.246 OA
BRANCH  30  32
ATOM     32  C   UNL A   1      42.972  24.623  26.060  1.00  0.00     0.060 A 
ATOM     33  C   UNL A   1      43.174  25.984  25.863  1.00  0.00     0.016 A 
ATOM     34  C   UNL A   1      42.375  24.187  27.240  1.00  0.00     0.016 A 
ATOM     35  C   UNL A   1      42.745  26.931  26.791  1.00  0.00     0.010 A 
ATOM     36  C   UNL A   1      41.954  25.137  28.192  1.00  0.00     0.010 A 
ATOM     37  C   UNL A   1      42.128  26.517  27.969  1.00  0.00    -0.014 A 
BRANCH  37  38
ATOM     38  C   UNL A   1      41.745  27.534  28.983  1.00  0.00     0.031 A 
ATOM     39  C   UNL A   1      42.636  27.781  30.152  1.00  0.00     0.074 A 
ATOM     40  C   UNL A   1      40.677  28.335  28.821  1.00  0.00     0.049 A 
ATOM     41  N   UNL A   1      42.402  28.487  31.225  1.00  0.00    -0.248 NA
ATOM     42  C   UNL A   1      43.978  27.189  30.083  1.00  0.00     0.031 C 
ATOM     43  C   UNL A   1      39.878  28.391  27.614  1.00  0.00     0.029 A 
ATOM     44  N   UNL A   1      40.085  29.260  29.647  1.00  0.00    -0.354 N 
ATOM     45  C   UNL A   1      43.562  28.410  31.976  1.00  0.00     0.074 A 
ATOM     46  C   UNL A   1      44.500  27.598  31.229  1.00  0.00     0.031 C 
ATOM     47  C   UNL A   1      38.883  29.277  27.765  1.00  0.00     0.029 A 
ATOM     48  C   UNL A   1      38.926  29.788  29.127  1.00  0.00     0.049 A 
ATOM     49  H   UNL A   1      40.455  29.517  30.522  1.00  0.00     0.167 HD
ATOM     50  C   UNL A   1      43.806  28.954  33.192  1.00  0.00     0.031 A 
ATOM     51  C   UNL A   1      37.971  30.541  29.705  1.00  0.00     0.031 A 
ATOM     52  C   UNL A   1      42.847  29.726  33.936  1.00  0.00     0.049 A 
ATOM     53  C   UNL A   1      38.138  30.912  31.151  1.00  0.00     0.074 A 
ATOM     54  C   UNL A   1      42.953  30.233  35.219  1.00  0.00     0.029 A 
ATOM     55  N   UNL A   1      41.597  30.098  33.462  1.00  0.00    -0.354 N 
ATOM     56  N   UNL A   1      39.175  30.720  31.929  1.00  0.00    -0.248 NA
ATOM     57  C   UNL A   1      37.005  31.578  31.805  1.00  0.00     0.031 C 
ATOM     58  C   UNL A   1      41.742  30.854  35.544  1.00  0.00     0.029 A 
ATOM     59  C   UNL A   1      40.904  30.793  34.440  1.00  0.00     0.049 A 
ATOM     60  H   UNL A   1      41.252  29.897  32.562  1.00  0.00     0.167 HD
ATOM     61  C   UNL A   1      38.832  31.264  33.158  1.00  0.00     0.074 A 
ATOM     62  C   UNL A   1      37.493  31.802  33.019  1.00  0.00     0.031 C 
ATOM     63  C   UNL A   1      39.569  31.317  34.295  1.00  0.00     0.031 A 
BRANCH  50  64
ATOM     64  C   UNL A   1      45.122  28.606  33.821  1.00  0.00    -0.014 A 
ATOM     65  C   UNL A   1      46.265  29.398  33.632  1.00  0.00     0.009 A 
ATOM     66  C   UNL A   1      45.225  27.424  34.569  1.00  0.00     0.009 A 
ATOM     67  C   UNL A   1      47.497  28.984  34.143  1.00  0.00     0.001 A 
ATOM     68  C   UNL A   1      46.450  27.029  35.103  1.00  0.00     0.001 A 
ATOM     69  C   UNL A   1      47.588  27.801  34.877  1.00  0.00     0.000 A 
ENDBRANCH  50  64
BRANCH  51  70
ATOM     70  C   UNL A   1      36.734  30.906  28.960  1.00  0.00    -0.014 A 
ATOM     71  C   UNL A   1      35.806  29.923  28.581  1.00  0.00     0.009 A 
ATOM     72  C   UNL A   1      36.486  32.241  28.596  1.00  0.00     0.009 A 
ATOM     73  C   UNL A   1      34.669  30.268  27.844  1.00  0.00     0.001 A 
ATOM     74  C   UNL A   1      35.335  32.585  27.883  1.00  0.00     0.001 A 
ATOM     75  C   UNL A   1      34.432  31.598  27.501  1.00  0.00     0.000 A 
ENDBRANCH  51  70
BRANCH  63  76
ATOM     76  C   UNL A   1      38.954  32.015  35.474  1.00  0.00    -0.014 A 
ATOM     77  C   UNL A   1      38.257  31.303  36.463  1.00  0.00     0.009 A 
ATOM     78  C   UNL A   1      39.115  33.402  35.618  1.00  0.00     0.009 A 
ATOM     79  C   UNL A   1      37.713  31.973  37.560  1.00  0.00     0.001 A 
ATOM     80  C   UNL A   1      38.595  34.064  36.730  1.00  0.00     0.001 A 
ATOM     81  C   UNL A   1      37.889  33.350  37.697  1.00  0.00     0.000 A 
ENDBRANCH  63  76
ENDBRANCH  37  38
ENDBRANCH  30  32
ENDBRANCH  29  30
ENDBRANCH  28  29
ENDBRANCH   1  28
TORSDOF 14
ENDMDL
