MODEL 1
REMARK VINA RESULT:     -10.3      0.000      0.000
REMARK SMILES CCSc1nc(CC(=O)N[C@@H](C(=O)OCCOC(=O)c2ccc(-c3c4nc(c(-c5ccccc5)c5ccc([nH]5)c(-c5ccccc5)c5nc(c(-c6ccccc6)c6ccc3[nH]6)C=C5)C=C4)cc2)C2=C(C)N=N[C@@H]2C)cs1
REMARK SMILES IDX 14 1 12 2 13 3 11 4 10 5 8 6 9 7 7 9 6 10 4 11 5 12 76 13
REMARK SMILES IDX 75 14 3 15 2 16 1 17 68 18 69 19 73 20 70 21 71 22 72 23
REMARK SMILES IDX 74 24 15 25 16 26 17 27 18 28 19 29 20 30 21 31 67 32 22 33
REMARK SMILES IDX 66 34 23 35 24 36 25 37 60 38 26 39 65 40 59 41 61 42 27 43
REMARK SMILES IDX 64 44 58 45 57 46 28 48 50 49 35 50 49 51 36 52 39 53 48 54
REMARK SMILES IDX 62 55 37 56 38 57 47 59 63 60 40 61 29 62 30 63 34 64 31 65
REMARK SMILES IDX 33 66 32 67 51 68 52 69 56 70 53 71 55 72 54 73 41 74 42 75
REMARK SMILES IDX 46 76 43 77 45 78 44 79
REMARK H PARENT 10 8 61 47 39 58
REMARK Flexibility Score: inf
ROOT
ATOM      1  O   UNL A   1      33.548  27.667  25.509  1.00  0.00    -0.460 OA
ENDROOT
BRANCH   1   2
ATOM      2  C   UNL A   1      33.049  27.132  24.355  1.00  0.00     0.333 C 
ATOM      3  O   UNL A   1      32.817  27.770  23.335  1.00  0.00    -0.249 OA
BRANCH   2   4
ATOM      4  C   UNL A   1      32.741  25.613  24.504  1.00  0.00     0.223 C 
BRANCH   4   5
ATOM      5  N   UNL A   1      32.598  24.888  23.247  1.00  0.00    -0.339 N 
ATOM      6  C   UNL A   1      33.566  24.228  22.548  1.00  0.00     0.226 C 
ATOM      7  O   UNL A   1      33.298  23.811  21.420  1.00  0.00    -0.275 OA
ATOM      8  H   UNL A   1      31.695  24.872  22.856  1.00  0.00     0.164 HD
BRANCH   6   9
ATOM      9  C   UNL A   1      34.934  24.001  23.166  1.00  0.00     0.157 C 
BRANCH   9  10
ATOM     10  C   UNL A   1      34.981  22.709  23.909  1.00  0.00     0.062 A 
ATOM     11  C   UNL A   1      34.077  20.817  24.630  1.00  0.00     0.150 A 
ATOM     12  N   UNL A   1      33.860  21.886  23.898  1.00  0.00    -0.234 NA
ATOM     13  S   UNL A   1      35.630  20.716  25.350  1.00  0.00    -0.116 S 
ATOM     14  C   UNL A   1      36.042  22.223  24.650  1.00  0.00     0.092 A 
BRANCH  11  15
ATOM     15  S   UNL A   1      32.845  19.611  24.917  1.00  0.00    -0.096 SA
BRANCH  15  16
ATOM     16  C   UNL A   1      33.753  18.070  24.614  1.00  0.00     0.074 C 
ATOM     17  C   UNL A   1      32.918  16.836  24.909  1.00  0.00     0.016 C 
ENDBRANCH  15  16
ENDBRANCH  11  15
ENDBRANCH   9  10
ENDBRANCH   6   9
ENDBRANCH   4   5
BRANCH   4  18
ATOM     18  C   UNL A   1      31.545  25.319  25.345  1.00  0.00     0.012 C 
ATOM     19  C   UNL A   1      31.352  24.349  26.247  1.00  0.00     0.064 C 
ATOM     20  C   UNL A   1      30.334  26.176  25.447  1.00  0.00     0.156 C 
ATOM     21  C   UNL A   1      32.252  23.226  26.624  1.00  0.00     0.069 C 
ATOM     22  N   UNL A   1      30.146  24.463  26.893  1.00  0.00    -0.160 NA
ATOM     23  N   UNL A   1      29.524  25.480  26.481  1.00  0.00    -0.181 NA
ATOM     24  C   UNL A   1      29.498  26.323  24.189  1.00  0.00     0.040 C 
ENDBRANCH   4  18
ENDBRANCH   2   4
ENDBRANCH   1   2
BRANCH   1  25
ATOM     25  C   UNL A   1      33.126  29.006  25.846  1.00  0.00     0.274 C 
BRANCH  25  26
ATOM     26  C   UNL A   1      33.559  29.384  27.259  1.00  0.00     0.275 C 
BRANCH  26  27
ATOM     27  O   UNL A   1      34.194  30.670  27.216  1.00  0.00    -0.458 OA
BRANCH  27  28
ATOM     28  C   UNL A   1      34.917  31.020  28.303  1.00  0.00     0.338 C 
ATOM     29  O   UNL A   1      34.620  31.844  29.150  1.00  0.00    -0.246 OA
BRANCH  28  30
ATOM     30  C   UNL A   1      36.141  30.193  28.374  1.00  0.00     0.060 A 
ATOM     31  C   UNL A   1      36.519  29.578  29.569  1.00  0.00     0.016 A 
ATOM     32  C   UNL A   1      36.999  30.150  27.276  1.00  0.00     0.016 A 
ATOM     33  C   UNL A   1      37.801  29.047  29.705  1.00  0.00     0.010 A 
ATOM     34  C   UNL A   1      38.236  29.506  27.383  1.00  0.00     0.010 A 
ATOM     35  C   UNL A   1      38.677  28.984  28.613  1.00  0.00    -0.014 A 
BRANCH  35  36
ATOM     36  C   UNL A   1      40.053  28.422  28.737  1.00  0.00     0.031 A 
ATOM     37  C   UNL A   1      41.201  29.321  29.125  1.00  0.00     0.074 A 
ATOM     38  C   UNL A   1      40.311  27.122  28.492  1.00  0.00     0.049 A 
ATOM     39  N   UNL A   1      42.484  29.155  28.930  1.00  0.00    -0.248 NA
ATOM     40  C   UNL A   1      40.854  30.583  29.799  1.00  0.00     0.031 C 
ATOM     41  C   UNL A   1      39.319  26.087  28.198  1.00  0.00     0.029 A 
ATOM     42  N   UNL A   1      41.510  26.450  28.447  1.00  0.00    -0.354 N 
ATOM     43  C   UNL A   1      43.088  30.325  29.374  1.00  0.00     0.074 A 
ATOM     44  C   UNL A   1      42.035  31.183  29.873  1.00  0.00     0.031 C 
ATOM     45  C   UNL A   1      39.942  24.909  28.046  1.00  0.00     0.029 A 
ATOM     46  C   UNL A   1      41.382  25.128  28.100  1.00  0.00     0.049 A 
ATOM     47  H   UNL A   1      42.376  26.875  28.645  1.00  0.00     0.167 HD
ATOM     48  C   UNL A   1      44.401  30.657  29.346  1.00  0.00     0.031 A 
ATOM     49  C   UNL A   1      42.305  24.203  27.776  1.00  0.00     0.031 A 
ATOM     50  C   UNL A   1      45.452  29.772  28.918  1.00  0.00     0.049 A 
ATOM     51  C   UNL A   1      43.749  24.595  27.706  1.00  0.00     0.074 A 
ATOM     52  C   UNL A   1      46.812  30.019  28.838  1.00  0.00     0.029 A 
ATOM     53  N   UNL A   1      45.261  28.454  28.535  1.00  0.00    -0.354 N 
ATOM     54  N   UNL A   1      44.300  25.756  27.967  1.00  0.00    -0.248 NA
ATOM     55  C   UNL A   1      44.693  23.564  27.254  1.00  0.00     0.031 C 
ATOM     56  C   UNL A   1      47.442  28.854  28.386  1.00  0.00     0.029 A 
ATOM     57  C   UNL A   1      46.477  27.875  28.220  1.00  0.00     0.049 A 
ATOM     58  H   UNL A   1      44.389  27.999  28.493  1.00  0.00     0.167 HD
ATOM     59  C   UNL A   1      45.654  25.596  27.708  1.00  0.00     0.074 A 
ATOM     60  C   UNL A   1      45.844  24.222  27.288  1.00  0.00     0.031 C 
ATOM     61  C   UNL A   1      46.648  26.510  27.800  1.00  0.00     0.031 A 
BRANCH  48  62
ATOM     62  C   UNL A   1      44.778  32.056  29.739  1.00  0.00    -0.014 A 
ATOM     63  C   UNL A   1      45.049  32.402  31.069  1.00  0.00     0.009 A 
ATOM     64  C   UNL A   1      44.923  33.031  28.737  1.00  0.00     0.009 A 
ATOM     65  C   UNL A   1      45.441  33.704  31.392  1.00  0.00     0.001 A 
ATOM     66  C   UNL A   1      45.336  34.324  29.060  1.00  0.00     0.001 A 
ATOM     67  C   UNL A   1      45.590  34.661  30.387  1.00  0.00     0.000 A 
ENDBRANCH  48  62
BRANCH  49  68
ATOM     68  C   UNL A   1      41.863  22.839  27.391  1.00  0.00    -0.014 A 
ATOM     69  C   UNL A   1      41.929  21.782  28.309  1.00  0.00     0.009 A 
ATOM     70  C   UNL A   1      41.325  22.603  26.115  1.00  0.00     0.009 A 
ATOM     71  C   UNL A   1      41.460  20.515  27.956  1.00  0.00     0.001 A 
ATOM     72  C   UNL A   1      40.831  21.343  25.776  1.00  0.00     0.001 A 
ATOM     73  C   UNL A   1      40.903  20.299  26.696  1.00  0.00     0.000 A 
ENDBRANCH  49  68
BRANCH  61  74
ATOM     74  C   UNL A   1      48.032  26.045  27.467  1.00  0.00    -0.014 A 
ATOM     75  C   UNL A   1      48.563  26.228  26.182  1.00  0.00     0.009 A 
ATOM     76  C   UNL A   1      48.825  25.448  28.460  1.00  0.00     0.009 A 
ATOM     77  C   UNL A   1      49.859  25.798  25.890  1.00  0.00     0.001 A 
ATOM     78  C   UNL A   1      50.124  25.035  28.169  1.00  0.00     0.001 A 
ATOM     79  C   UNL A   1      50.638  25.205  26.884  1.00  0.00     0.000 A 
ENDBRANCH  61  74
ENDBRANCH  35  36
ENDBRANCH  28  30
ENDBRANCH  27  28
ENDBRANCH  26  27
ENDBRANCH  25  26
ENDBRANCH   1  25
TORSDOF 17
ENDMDL
MODEL 2
REMARK VINA RESULT:     -10.2      3.587      7.100
REMARK SMILES CCSc1nc(CC(=O)N[C@@H](C(=O)OCCOC(=O)c2ccc(-c3c4nc(c(-c5ccccc5)c5ccc([nH]5)c(-c5ccccc5)c5nc(c(-c6ccccc6)c6ccc3[nH]6)C=C5)C=C4)cc2)C2=C(C)N=N[C@@H]2C)cs1
REMARK SMILES IDX 14 1 12 2 13 3 11 4 10 5 8 6 9 7 7 9 6 10 4 11 5 12 76 13
REMARK SMILES IDX 75 14 3 15 2 16 1 17 68 18 69 19 73 20 70 21 71 22 72 23
REMARK SMILES IDX 74 24 15 25 16 26 17 27 18 28 19 29 20 30 21 31 67 32 22 33
REMARK SMILES IDX 66 34 23 35 24 36 25 37 60 38 26 39 65 40 59 41 61 42 27 43
REMARK SMILES IDX 64 44 58 45 57 46 28 48 50 49 35 50 49 51 36 52 39 53 48 54
REMARK SMILES IDX 62 55 37 56 38 57 47 59 63 60 40 61 29 62 30 63 34 64 31 65
REMARK SMILES IDX 33 66 32 67 51 68 52 69 56 70 53 71 55 72 54 73 41 74 42 75
REMARK SMILES IDX 46 76 43 77 45 78 44 79
REMARK H PARENT 10 8 61 47 39 58
REMARK Flexibility Score: inf
ROOT
ATOM      1  O   UNL A   1      30.786  27.322  25.203  1.00  0.00    -0.460 OA
ENDROOT
BRANCH   1   2
ATOM      2  C   UNL A   1      30.218  26.292  24.507  1.00  0.00     0.333 C 
ATOM      3  O   UNL A   1      29.140  26.355  23.927  1.00  0.00    -0.249 OA
BRANCH   2   4
ATOM      4  C   UNL A   1      31.071  24.993  24.593  1.00  0.00     0.223 C 
BRANCH   4   5
ATOM      5  N   UNL A   1      31.565  24.669  25.926  1.00  0.00    -0.339 N 
ATOM      6  C   UNL A   1      31.498  23.470  26.574  1.00  0.00     0.226 C 
ATOM      7  O   UNL A   1      31.821  23.422  27.762  1.00  0.00    -0.275 OA
ATOM      8  H   UNL A   1      32.001  25.402  26.418  1.00  0.00     0.164 HD
BRANCH   6   9
ATOM      9  C   UNL A   1      31.052  22.223  25.830  1.00  0.00     0.157 C 
BRANCH   9  10
ATOM     10  C   UNL A   1      32.219  21.367  25.469  1.00  0.00     0.062 A 
ATOM     11  C   UNL A   1      34.380  21.033  25.102  1.00  0.00     0.150 A 
ATOM     12  N   UNL A   1      33.492  21.926  25.479  1.00  0.00    -0.234 NA
ATOM     13  S   UNL A   1      33.758  19.476  24.742  1.00  0.00    -0.116 S 
ATOM     14  C   UNL A   1      32.179  20.036  25.094  1.00  0.00     0.092 A 
BRANCH  11  15
ATOM     15  S   UNL A   1      36.073  21.420  24.908  1.00  0.00    -0.096 SA
BRANCH  15  16
ATOM     16  C   UNL A   1      36.021  23.216  24.664  1.00  0.00     0.074 C 
ATOM     17  C   UNL A   1      36.613  23.980  25.836  1.00  0.00     0.016 C 
ENDBRANCH  15  16
ENDBRANCH  11  15
ENDBRANCH   9  10
ENDBRANCH   6   9
ENDBRANCH   4   5
BRANCH   4  18
ATOM     18  C   UNL A   1      32.229  24.966  23.654  1.00  0.00     0.012 C 
ATOM     19  C   UNL A   1      32.564  24.051  22.736  1.00  0.00     0.064 C 
ATOM     20  C   UNL A   1      33.197  26.077  23.450  1.00  0.00     0.156 C 
ATOM     21  C   UNL A   1      31.919  22.745  22.434  1.00  0.00     0.069 C 
ATOM     22  N   UNL A   1      33.653  24.428  21.990  1.00  0.00    -0.160 NA
ATOM     23  N   UNL A   1      34.056  25.567  22.350  1.00  0.00    -0.181 NA
ATOM     24  C   UNL A   1      34.079  26.433  24.634  1.00  0.00     0.040 C 
ENDBRANCH   4  18
ENDBRANCH   2   4
ENDBRANCH   1   2
BRANCH   1  25
ATOM     25  C   UNL A   1      30.729  28.632  24.596  1.00  0.00     0.274 C 
BRANCH  25  26
ATOM     26  C   UNL A   1      31.981  29.443  24.914  1.00  0.00     0.275 C 
BRANCH  26  27
ATOM     27  O   UNL A   1      32.110  29.550  26.339  1.00  0.00    -0.458 OA
BRANCH  27  28
ATOM     28  C   UNL A   1      32.525  30.743  26.818  1.00  0.00     0.338 C 
ATOM     29  O   UNL A   1      31.864  31.761  26.928  1.00  0.00    -0.246 OA
BRANCH  28  30
ATOM     30  C   UNL A   1      33.928  30.638  27.272  1.00  0.00     0.060 A 
ATOM     31  C   UNL A   1      34.521  29.392  27.477  1.00  0.00     0.016 A 
ATOM     32  C   UNL A   1      34.614  31.796  27.637  1.00  0.00     0.016 A 
ATOM     33  C   UNL A   1      35.728  29.299  28.170  1.00  0.00     0.010 A 
ATOM     34  C   UNL A   1      35.882  31.700  28.221  1.00  0.00     0.010 A 
ATOM     35  C   UNL A   1      36.440  30.448  28.538  1.00  0.00    -0.014 A 
BRANCH  35  36
ATOM     36  C   UNL A   1      37.731  30.371  29.280  1.00  0.00     0.031 A 
ATOM     37  C   UNL A   1      38.900  29.628  28.683  1.00  0.00     0.074 A 
ATOM     38  C   UNL A   1      37.884  30.937  30.495  1.00  0.00     0.049 A 
ATOM     39  N   UNL A   1      39.948  29.120  29.278  1.00  0.00    -0.248 NA
ATOM     40  C   UNL A   1      38.870  29.409  27.227  1.00  0.00     0.031 C 
ATOM     41  C   UNL A   1      36.901  31.771  31.187  1.00  0.00     0.029 A 
ATOM     42  N   UNL A   1      38.944  30.883  31.370  1.00  0.00    -0.354 N 
ATOM     43  C   UNL A   1      40.655  28.447  28.287  1.00  0.00     0.074 A 
ATOM     44  C   UNL A   1      39.930  28.633  27.049  1.00  0.00     0.031 C 
ATOM     45  C   UNL A   1      37.416  32.183  32.355  1.00  0.00     0.029 A 
ATOM     46  C   UNL A   1      38.708  31.538  32.553  1.00  0.00     0.049 A 
ATOM     47  H   UNL A   1      39.789  30.419  31.168  1.00  0.00     0.167 HD
ATOM     48  C   UNL A   1      41.792  27.722  28.410  1.00  0.00     0.031 A 
ATOM     49  C   UNL A   1      39.401  31.561  33.707  1.00  0.00     0.031 A 
ATOM     50  C   UNL A   1      42.549  27.602  29.629  1.00  0.00     0.049 A 
ATOM     51  C   UNL A   1      40.634  30.721  33.844  1.00  0.00     0.074 A 
ATOM     52  C   UNL A   1      43.707  26.879  29.860  1.00  0.00     0.029 A 
ATOM     53  N   UNL A   1      42.241  28.254  30.812  1.00  0.00    -0.354 N 
ATOM     54  N   UNL A   1      41.207  29.951  32.952  1.00  0.00    -0.248 NA
ATOM     55  C   UNL A   1      41.288  30.718  35.159  1.00  0.00     0.031 C 
ATOM     56  C   UNL A   1      44.088  27.079  31.192  1.00  0.00     0.029 A 
ATOM     57  C   UNL A   1      43.187  27.953  31.776  1.00  0.00     0.049 A 
ATOM     58  H   UNL A   1      41.465  28.844  30.946  1.00  0.00     0.167 HD
ATOM     59  C   UNL A   1      42.289  29.368  33.598  1.00  0.00     0.074 A 
ATOM     60  C   UNL A   1      42.302  29.888  34.950  1.00  0.00     0.031 C 
ATOM     61  C   UNL A   1      43.183  28.474  33.116  1.00  0.00     0.031 A 
BRANCH  48  62
ATOM     62  C   UNL A   1      42.267  26.955  27.211  1.00  0.00    -0.014 A 
ATOM     63  C   UNL A   1      43.299  27.429  26.391  1.00  0.00     0.009 A 
ATOM     64  C   UNL A   1      41.703  25.697  26.938  1.00  0.00     0.009 A 
ATOM     65  C   UNL A   1      43.746  26.666  25.309  1.00  0.00     0.001 A 
ATOM     66  C   UNL A   1      42.165  24.928  25.869  1.00  0.00     0.001 A 
ATOM     67  C   UNL A   1      43.184  25.415  25.053  1.00  0.00     0.000 A 
ENDBRANCH  48  62
BRANCH  49  68
ATOM     68  C   UNL A   1      38.872  32.336  34.857  1.00  0.00    -0.014 A 
ATOM     69  C   UNL A   1      37.973  31.750  35.759  1.00  0.00     0.009 A 
ATOM     70  C   UNL A   1      39.307  33.652  35.085  1.00  0.00     0.009 A 
ATOM     71  C   UNL A   1      37.523  32.468  36.870  1.00  0.00     0.001 A 
ATOM     72  C   UNL A   1      38.879  34.355  36.211  1.00  0.00     0.001 A 
ATOM     73  C   UNL A   1      37.984  33.764  37.101  1.00  0.00     0.000 A 
ENDBRANCH  49  68
BRANCH  61  74
ATOM     74  C   UNL A   1      44.266  28.025  34.048  1.00  0.00    -0.014 A 
ATOM     75  C   UNL A   1      45.437  28.779  34.207  1.00  0.00     0.009 A 
ATOM     76  C   UNL A   1      44.095  26.852  34.800  1.00  0.00     0.009 A 
ATOM     77  C   UNL A   1      46.433  28.352  35.088  1.00  0.00     0.001 A 
ATOM     78  C   UNL A   1      45.084  26.438  35.692  1.00  0.00     0.001 A 
ATOM     79  C   UNL A   1      46.254  27.185  35.830  1.00  0.00     0.000 A 
ENDBRANCH  61  74
ENDBRANCH  35  36
ENDBRANCH  28  30
ENDBRANCH  27  28
ENDBRANCH  26  27
ENDBRANCH  25  26
ENDBRANCH   1  25
TORSDOF 17
ENDMDL
MODEL 3
REMARK VINA RESULT:      -9.9      4.088      8.800
REMARK SMILES CCSc1nc(CC(=O)N[C@@H](C(=O)OCCOC(=O)c2ccc(-c3c4nc(c(-c5ccccc5)c5ccc([nH]5)c(-c5ccccc5)c5nc(c(-c6ccccc6)c6ccc3[nH]6)C=C5)C=C4)cc2)C2=C(C)N=N[C@@H]2C)cs1
REMARK SMILES IDX 14 1 12 2 13 3 11 4 10 5 8 6 9 7 7 9 6 10 4 11 5 12 76 13
REMARK SMILES IDX 75 14 3 15 2 16 1 17 68 18 69 19 73 20 70 21 71 22 72 23
REMARK SMILES IDX 74 24 15 25 16 26 17 27 18 28 19 29 20 30 21 31 67 32 22 33
REMARK SMILES IDX 66 34 23 35 24 36 25 37 60 38 26 39 65 40 59 41 61 42 27 43
REMARK SMILES IDX 64 44 58 45 57 46 28 48 50 49 35 50 49 51 36 52 39 53 48 54
REMARK SMILES IDX 62 55 37 56 38 57 47 59 63 60 40 61 29 62 30 63 34 64 31 65
REMARK SMILES IDX 33 66 32 67 51 68 52 69 56 70 53 71 55 72 54 73 41 74 42 75
REMARK SMILES IDX 46 76 43 77 45 78 44 79
REMARK H PARENT 10 8 61 47 39 58
REMARK Flexibility Score: inf
ROOT
ATOM      1  O   UNL A   1      35.047  23.042  23.640  1.00  0.00    -0.460 OA
ENDROOT
BRANCH   1   2
ATOM      2  C   UNL A   1      34.353  23.925  24.419  1.00  0.00     0.333 C 
ATOM      3  O   UNL A   1      34.801  24.988  24.835  1.00  0.00    -0.249 OA
BRANCH   2   4
ATOM      4  C   UNL A   1      32.936  23.393  24.779  1.00  0.00     0.223 C 
BRANCH   4   5
ATOM      5  N   UNL A   1      32.288  24.074  25.894  1.00  0.00    -0.339 N 
ATOM      6  C   UNL A   1      31.306  25.020  25.838  1.00  0.00     0.226 C 
ATOM      7  O   UNL A   1      30.993  25.607  26.876  1.00  0.00    -0.275 OA
ATOM      8  H   UNL A   1      32.595  23.821  26.794  1.00  0.00     0.164 HD
BRANCH   6   9
ATOM      9  C   UNL A   1      30.608  25.321  24.525  1.00  0.00     0.157 C 
BRANCH   9  10
ATOM     10  C   UNL A   1      30.951  26.686  24.033  1.00  0.00     0.062 A 
ATOM     11  C   UNL A   1      30.470  28.584  22.992  1.00  0.00     0.150 A 
ATOM     12  N   UNL A   1      29.975  27.430  23.379  1.00  0.00    -0.234 NA
ATOM     13  S   UNL A   1      32.111  28.861  23.404  1.00  0.00    -0.116 S 
ATOM     14  C   UNL A   1      32.177  27.316  24.139  1.00  0.00     0.092 A 
BRANCH  11  15
ATOM     15  S   UNL A   1      29.547  29.733  22.054  1.00  0.00    -0.096 SA
BRANCH  15  16
ATOM     16  C   UNL A   1      27.979  29.786  22.965  1.00  0.00     0.074 C 
ATOM     17  C   UNL A   1      27.722  31.142  23.602  1.00  0.00     0.016 C 
ENDBRANCH  15  16
ENDBRANCH  11  15
ENDBRANCH   9  10
ENDBRANCH   6   9
ENDBRANCH   4   5
BRANCH   4  18
ATOM     18  C   UNL A   1      32.890  21.927  25.047  1.00  0.00     0.012 C 
ATOM     19  C   UNL A   1      33.485  21.215  26.012  1.00  0.00     0.064 C 
ATOM     20  C   UNL A   1      32.016  20.950  24.342  1.00  0.00     0.156 C 
ATOM     21  C   UNL A   1      34.436  21.669  27.062  1.00  0.00     0.069 C 
ATOM     22  N   UNL A   1      33.123  19.891  25.989  1.00  0.00    -0.160 NA
ATOM     23  N   UNL A   1      32.292  19.681  25.064  1.00  0.00    -0.181 NA
ATOM     24  C   UNL A   1      32.287  20.741  22.864  1.00  0.00     0.040 C 
ENDBRANCH   4  18
ENDBRANCH   2   4
ENDBRANCH   1   2
BRANCH   1  25
ATOM     25  C   UNL A   1      36.477  23.229  23.553  1.00  0.00     0.274 C 
BRANCH  25  26
ATOM     26  C   UNL A   1      37.199  22.510  24.688  1.00  0.00     0.275 C 
BRANCH  26  27
ATOM     27  O   UNL A   1      37.740  23.494  25.583  1.00  0.00    -0.458 OA
BRANCH  27  28
ATOM     28  C   UNL A   1      38.937  23.204  26.141  1.00  0.00     0.338 C 
ATOM     29  O   UNL A   1      39.605  22.200  25.969  1.00  0.00    -0.246 OA
BRANCH  28  30
ATOM     30  C   UNL A   1      39.385  24.340  26.975  1.00  0.00     0.060 A 
ATOM     31  C   UNL A   1      38.996  24.443  28.312  1.00  0.00     0.016 A 
ATOM     32  C   UNL A   1      40.082  25.391  26.378  1.00  0.00     0.016 A 
ATOM     33  C   UNL A   1      39.179  25.641  29.002  1.00  0.00     0.010 A 
ATOM     34  C   UNL A   1      40.371  26.543  27.115  1.00  0.00     0.010 A 
ATOM     35  C   UNL A   1      39.884  26.706  28.425  1.00  0.00    -0.014 A 
BRANCH  35  36
ATOM     36  C   UNL A   1      40.089  27.996  29.145  1.00  0.00     0.031 A 
ATOM     37  C   UNL A   1      41.287  28.174  30.044  1.00  0.00     0.074 A 
ATOM     38  C   UNL A   1      39.216  29.017  29.031  1.00  0.00     0.049 A 
ATOM     39  N   UNL A   1      41.466  29.019  31.027  1.00  0.00    -0.248 NA
ATOM     40  C   UNL A   1      42.422  27.263  29.823  1.00  0.00     0.031 C 
ATOM     41  C   UNL A   1      38.056  29.064  28.140  1.00  0.00     0.029 A 
ATOM     42  N   UNL A   1      39.174  30.224  29.688  1.00  0.00    -0.354 N 
ATOM     43  C   UNL A   1      42.690  28.685  31.595  1.00  0.00     0.074 A 
ATOM     44  C   UNL A   1      43.223  27.577  30.832  1.00  0.00     0.031 C 
ATOM     45  C   UNL A   1      37.444  30.249  28.273  1.00  0.00     0.029 A 
ATOM     46  C   UNL A   1      38.086  30.991  29.350  1.00  0.00     0.049 A 
ATOM     47  H   UNL A   1      39.857  30.511  30.337  1.00  0.00     0.167 HD
ATOM     48  C   UNL A   1      43.298  29.241  32.669  1.00  0.00     0.031 A 
ATOM     49  C   UNL A   1      37.599  32.124  29.890  1.00  0.00     0.031 A 
ATOM     50  C   UNL A   1      42.800  30.391  33.378  1.00  0.00     0.049 A 
ATOM     51  C   UNL A   1      38.257  32.704  31.105  1.00  0.00     0.074 A 
ATOM     52  C   UNL A   1      43.336  31.022  34.488  1.00  0.00     0.029 A 
ATOM     53  N   UNL A   1      41.669  31.105  33.018  1.00  0.00    -0.354 N 
ATOM     54  N   UNL A   1      39.322  32.286  31.743  1.00  0.00    -0.248 NA
ATOM     55  C   UNL A   1      37.618  33.886  31.700  1.00  0.00     0.031 C 
ATOM     56  C   UNL A   1      42.515  32.108  34.813  1.00  0.00     0.029 A 
ATOM     57  C   UNL A   1      41.490  32.171  33.883  1.00  0.00     0.049 A 
ATOM     58  H   UNL A   1      41.080  30.886  32.261  1.00  0.00     0.167 HD
ATOM     59  C   UNL A   1      39.481  33.151  32.817  1.00  0.00     0.074 A 
ATOM     60  C   UNL A   1      38.414  34.127  32.734  1.00  0.00     0.031 C 
ATOM     61  C   UNL A   1      40.422  33.129  33.790  1.00  0.00     0.031 A 
BRANCH  48  62
ATOM     62  C   UNL A   1      44.547  28.587  33.184  1.00  0.00    -0.014 A 
ATOM     63  C   UNL A   1      45.822  29.007  32.783  1.00  0.00     0.009 A 
ATOM     64  C   UNL A   1      44.436  27.564  34.142  1.00  0.00     0.009 A 
ATOM     65  C   UNL A   1      46.963  28.404  33.318  1.00  0.00     0.001 A 
ATOM     66  C   UNL A   1      45.578  26.977  34.690  1.00  0.00     0.001 A 
ATOM     67  C   UNL A   1      46.840  27.395  34.274  1.00  0.00     0.000 A 
ENDBRANCH  48  62
BRANCH  49  68
ATOM     68  C   UNL A   1      36.356  32.717  29.337  1.00  0.00    -0.014 A 
ATOM     69  C   UNL A   1      36.371  33.992  28.756  1.00  0.00     0.009 A 
ATOM     70  C   UNL A   1      35.157  31.983  29.342  1.00  0.00     0.009 A 
ATOM     71  C   UNL A   1      35.209  34.519  28.188  1.00  0.00     0.001 A 
ATOM     72  C   UNL A   1      34.007  32.501  28.748  1.00  0.00     0.001 A 
ATOM     73  C   UNL A   1      34.032  33.771  28.174  1.00  0.00     0.000 A 
ENDBRANCH  49  68
BRANCH  61  74
ATOM     74  C   UNL A   1      40.354  34.209  34.825  1.00  0.00    -0.014 A 
ATOM     75  C   UNL A   1      41.011  35.433  34.632  1.00  0.00     0.009 A 
ATOM     76  C   UNL A   1      39.597  34.011  35.990  1.00  0.00     0.009 A 
ATOM     77  C   UNL A   1      40.928  36.434  35.601  1.00  0.00     0.001 A 
ATOM     78  C   UNL A   1      39.504  35.019  36.948  1.00  0.00     0.001 A 
ATOM     79  C   UNL A   1      40.174  36.227  36.756  1.00  0.00     0.000 A 
ENDBRANCH  61  74
ENDBRANCH  35  36
ENDBRANCH  28  30
ENDBRANCH  27  28
ENDBRANCH  26  27
ENDBRANCH  25  26
ENDBRANCH   1  25
TORSDOF 17
ENDMDL
