MODEL 1
REMARK VINA RESULT:      -9.5      0.000      0.000
REMARK SMILES CC(C)N1C[C@@H](C(=O)N[C@@H](C)CC(=O)OCCOC(=O)c2ccc(-c3c4nc(c(-c5ccccc5)c5ccc([nH]5)c(-c5ccccc5)c5nc(c(-c6ccccc6)c6ccc3[nH]6)C=C5)C=C4)cc2)CC1=O
REMARK SMILES IDX 16 1 15 2 13 3 14 4 12 5 10 6 11 7 9 8 7 9 8 10 6 12 4 13
REMARK SMILES IDX 5 14 70 15 69 16 71 17 2 18 1 19 3 20 17 21 18 22 19 23
REMARK SMILES IDX 20 24 21 25 22 26 68 27 23 28 67 29 24 30 25 31 26 32 61 33
REMARK SMILES IDX 27 34 66 35 60 36 62 37 28 38 65 39 59 40 58 41 29 43 51 44
REMARK SMILES IDX 36 45 50 46 37 47 40 48 49 49 63 50 38 51 39 52 48 54 64 55
REMARK SMILES IDX 41 56 30 57 31 58 35 59 32 60 34 61 33 62 52 63 53 64 57 65
REMARK SMILES IDX 54 66 56 67 55 68 42 69 43 70 47 71 44 72 46 73 45 74
REMARK H PARENT 9 11 62 42 40 53
REMARK Flexibility Score: inf
ROOT
ATOM      1  C   UNL A   1      42.511  18.935  26.526  1.00  0.00     0.274 C 
ENDROOT
BRANCH   1   2
ATOM      2  O   UNL A   1      41.774  20.125  26.169  1.00  0.00    -0.462 OA
BRANCH   2   3
ATOM      3  C   UNL A   1      41.259  20.834  27.204  1.00  0.00     0.307 C 
ATOM      4  O   UNL A   1      40.788  20.335  28.221  1.00  0.00    -0.252 OA
BRANCH   3   5
ATOM      5  C   UNL A   1      41.226  22.322  26.959  1.00  0.00     0.147 C 
BRANCH   5   6
ATOM      6  C   UNL A   1      39.990  22.929  26.263  1.00  0.00     0.090 C 
ATOM      7  C   UNL A   1      39.356  23.901  27.272  1.00  0.00     0.031 C 
BRANCH   6   8
ATOM      8  N   UNL A   1      39.020  21.888  25.910  1.00  0.00    -0.353 N 
ATOM      9  C   UNL A   1      37.817  21.885  25.287  1.00  0.00     0.225 C 
ATOM     10  O   UNL A   1      37.286  20.774  25.165  1.00  0.00    -0.275 OA
ATOM     11  H   UNL A   1      39.308  20.989  26.188  1.00  0.00     0.163 HD
BRANCH   9  12
ATOM     12  C   UNL A   1      37.094  23.098  24.720  1.00  0.00     0.107 C 
ATOM     13  N   UNL A   1      34.850  23.846  24.696  1.00  0.00    -0.339 N 
ATOM     14  C   UNL A   1      35.968  23.616  25.588  1.00  0.00     0.133 C 
ATOM     15  C   UNL A   1      35.155  23.557  23.380  1.00  0.00     0.223 C 
ATOM     16  C   UNL A   1      36.539  22.977  23.313  1.00  0.00     0.115 C 
ATOM     17  O   UNL A   1      34.442  23.724  22.403  1.00  0.00    -0.275 OA
BRANCH  13  18
ATOM     18  C   UNL A   1      33.604  24.455  25.175  1.00  0.00     0.078 C 
ATOM     19  C   UNL A   1      33.164  23.859  26.510  1.00  0.00     0.031 C 
ATOM     20  C   UNL A   1      33.666  25.982  25.270  1.00  0.00     0.031 C 
ENDBRANCH  13  18
ENDBRANCH   9  12
ENDBRANCH   6   8
ENDBRANCH   5   6
ENDBRANCH   3   5
ENDBRANCH   2   3
ENDBRANCH   1   2
BRANCH   1  21
ATOM     21  C   UNL A   1      43.409  18.414  25.392  1.00  0.00     0.275 C 
BRANCH  21  22
ATOM     22  O   UNL A   1      44.687  19.082  25.303  1.00  0.00    -0.458 OA
BRANCH  22  23
ATOM     23  C   UNL A   1      44.774  19.942  24.268  1.00  0.00     0.338 C 
ATOM     24  O   UNL A   1      44.544  19.692  23.099  1.00  0.00    -0.246 OA
BRANCH  23  25
ATOM     25  C   UNL A   1      45.156  21.302  24.631  1.00  0.00     0.060 A 
ATOM     26  C   UNL A   1      45.511  21.509  25.969  1.00  0.00     0.016 A 
ATOM     27  C   UNL A   1      44.919  22.372  23.768  1.00  0.00     0.016 A 
ATOM     28  C   UNL A   1      45.608  22.801  26.463  1.00  0.00     0.010 A 
ATOM     29  C   UNL A   1      45.029  23.672  24.265  1.00  0.00     0.010 A 
ATOM     30  C   UNL A   1      45.361  23.886  25.614  1.00  0.00    -0.014 A 
BRANCH  30  31
ATOM     31  C   UNL A   1      45.523  25.251  26.145  1.00  0.00     0.031 A 
ATOM     32  C   UNL A   1      44.365  25.995  26.736  1.00  0.00     0.074 A 
ATOM     33  C   UNL A   1      46.753  25.788  26.121  1.00  0.00     0.049 A 
ATOM     34  N   UNL A   1      44.337  27.206  27.230  1.00  0.00    -0.248 NA
ATOM     35  C   UNL A   1      43.076  25.290  26.783  1.00  0.00     0.031 C 
ATOM     36  C   UNL A   1      47.950  25.119  25.603  1.00  0.00     0.029 A 
ATOM     37  N   UNL A   1      47.204  27.007  26.546  1.00  0.00    -0.354 N 
ATOM     38  C   UNL A   1      43.028  27.415  27.641  1.00  0.00     0.074 A 
ATOM     39  C   UNL A   1      42.288  26.209  27.327  1.00  0.00     0.031 C 
ATOM     40  C   UNL A   1      49.002  25.938  25.747  1.00  0.00     0.029 A 
ATOM     41  C   UNL A   1      48.544  27.194  26.331  1.00  0.00     0.049 A 
ATOM     42  H   UNL A   1      46.623  27.683  26.966  1.00  0.00     0.167 HD
ATOM     43  C   UNL A   1      42.498  28.514  28.226  1.00  0.00     0.031 A 
ATOM     44  C   UNL A   1      49.318  28.268  26.562  1.00  0.00     0.031 A 
ATOM     45  C   UNL A   1      43.242  29.712  28.519  1.00  0.00     0.049 A 
ATOM     46  C   UNL A   1      48.699  29.483  27.181  1.00  0.00     0.074 A 
ATOM     47  C   UNL A   1      42.796  30.895  29.082  1.00  0.00     0.029 A 
ATOM     48  N   UNL A   1      44.599  29.874  28.271  1.00  0.00    -0.354 N 
ATOM     49  N   UNL A   1      47.453  29.678  27.542  1.00  0.00    -0.248 NA
ATOM     50  C   UNL A   1      49.590  30.622  27.431  1.00  0.00     0.031 C 
ATOM     51  C   UNL A   1      43.878  31.783  29.150  1.00  0.00     0.029 A 
ATOM     52  C   UNL A   1      45.004  31.138  28.664  1.00  0.00     0.049 A 
ATOM     53  H   UNL A   1      45.186  29.190  27.875  1.00  0.00     0.167 HD
ATOM     54  C   UNL A   1      47.412  30.957  28.074  1.00  0.00     0.074 A 
ATOM     55  C   UNL A   1      48.760  31.484  28.003  1.00  0.00     0.031 C 
ATOM     56  C   UNL A   1      46.351  31.637  28.574  1.00  0.00     0.031 A 
BRANCH  43  57
ATOM     57  C   UNL A   1      41.034  28.484  28.558  1.00  0.00    -0.014 A 
ATOM     58  C   UNL A   1      40.576  27.961  29.777  1.00  0.00     0.009 A 
ATOM     59  C   UNL A   1      40.101  29.017  27.654  1.00  0.00     0.009 A 
ATOM     60  C   UNL A   1      39.210  27.952  30.075  1.00  0.00     0.001 A 
ATOM     61  C   UNL A   1      38.739  29.025  27.963  1.00  0.00     0.001 A 
ATOM     62  C   UNL A   1      38.295  28.487  29.169  1.00  0.00     0.000 A 
ENDBRANCH  43  57
BRANCH  44  63
ATOM     63  C   UNL A   1      50.750  28.225  26.189  1.00  0.00    -0.014 A 
ATOM     64  C   UNL A   1      51.186  28.748  24.964  1.00  0.00     0.009 A 
ATOM     65  C   UNL A   1      51.697  27.708  27.088  1.00  0.00     0.009 A 
ATOM     66  C   UNL A   1      52.545  28.742  24.641  1.00  0.00     0.001 A 
ATOM     67  C   UNL A   1      53.056  27.726  26.772  1.00  0.00     0.001 A 
ATOM     68  C   UNL A   1      53.478  28.239  25.546  1.00  0.00     0.000 A 
ENDBRANCH  44  63
BRANCH  56  69
ATOM     69  C   UNL A   1      46.628  33.015  29.097  1.00  0.00    -0.014 A 
ATOM     70  C   UNL A   1      46.997  33.220  30.435  1.00  0.00     0.009 A 
ATOM     71  C   UNL A   1      46.527  34.119  28.236  1.00  0.00     0.009 A 
ATOM     72  C   UNL A   1      47.227  34.511  30.910  1.00  0.00     0.001 A 
ATOM     73  C   UNL A   1      46.776  35.407  28.710  1.00  0.00     0.001 A 
ATOM     74  C   UNL A   1      47.117  35.602  30.049  1.00  0.00     0.000 A 
ENDBRANCH  56  69
ENDBRANCH  30  31
ENDBRANCH  23  25
ENDBRANCH  22  23
ENDBRANCH  21  22
ENDBRANCH   1  21
TORSDOF 15
ENDMDL
MODEL 2
REMARK VINA RESULT:      -9.5      0.430      6.147
REMARK SMILES CC(C)N1C[C@@H](C(=O)N[C@@H](C)CC(=O)OCCOC(=O)c2ccc(-c3c4nc(c(-c5ccccc5)c5ccc([nH]5)c(-c5ccccc5)c5nc(c(-c6ccccc6)c6ccc3[nH]6)C=C5)C=C4)cc2)CC1=O
REMARK SMILES IDX 16 1 15 2 13 3 14 4 12 5 10 6 11 7 9 8 7 9 8 10 6 12 4 13
REMARK SMILES IDX 5 14 70 15 69 16 71 17 2 18 1 19 3 20 17 21 18 22 19 23
REMARK SMILES IDX 20 24 21 25 22 26 68 27 23 28 67 29 24 30 25 31 26 32 61 33
REMARK SMILES IDX 27 34 66 35 60 36 62 37 28 38 65 39 59 40 58 41 29 43 51 44
REMARK SMILES IDX 36 45 50 46 37 47 40 48 49 49 63 50 38 51 39 52 48 54 64 55
REMARK SMILES IDX 41 56 30 57 31 58 35 59 32 60 34 61 33 62 52 63 53 64 57 65
REMARK SMILES IDX 54 66 56 67 55 68 42 69 43 70 47 71 44 72 46 73 45 74
REMARK H PARENT 9 11 62 42 40 53
REMARK Flexibility Score: inf
ROOT
ATOM      1  C   UNL A   1      42.471  19.010  26.485  1.00  0.00     0.274 C 
ENDROOT
BRANCH   1   2
ATOM      2  O   UNL A   1      41.782  20.190  26.016  1.00  0.00    -0.462 OA
BRANCH   2   3
ATOM      3  C   UNL A   1      41.236  20.977  26.976  1.00  0.00     0.307 C 
ATOM      4  O   UNL A   1      40.778  20.562  28.037  1.00  0.00    -0.252 OA
BRANCH   3   5
ATOM      5  C   UNL A   1      41.149  22.432  26.588  1.00  0.00     0.147 C 
BRANCH   5   6
ATOM      6  C   UNL A   1      39.788  22.993  26.125  1.00  0.00     0.090 C 
ATOM      7  C   UNL A   1      39.292  23.915  27.252  1.00  0.00     0.031 C 
BRANCH   6   8
ATOM      8  N   UNL A   1      38.818  21.915  25.912  1.00  0.00    -0.353 N 
ATOM      9  C   UNL A   1      37.603  21.836  25.320  1.00  0.00     0.225 C 
ATOM     10  O   UNL A   1      37.077  20.716  25.335  1.00  0.00    -0.275 OA
ATOM     11  H   UNL A   1      39.118  21.053  26.282  1.00  0.00     0.163 HD
BRANCH   9  12
ATOM     12  C   UNL A   1      36.859  22.975  24.637  1.00  0.00     0.107 C 
ATOM     13  N   UNL A   1      34.585  23.585  24.408  1.00  0.00    -0.339 N 
ATOM     14  C   UNL A   1      35.642  23.466  25.391  1.00  0.00     0.133 C 
ATOM     15  C   UNL A   1      35.006  23.251  23.135  1.00  0.00     0.223 C 
ATOM     16  C   UNL A   1      36.421  22.752  23.202  1.00  0.00     0.115 C 
ATOM     17  O   UNL A   1      34.362  23.328  22.100  1.00  0.00    -0.275 OA
BRANCH  13  18
ATOM     18  C   UNL A   1      33.274  24.141  24.760  1.00  0.00     0.078 C 
ATOM     19  C   UNL A   1      32.176  23.084  24.684  1.00  0.00     0.031 C 
ATOM     20  C   UNL A   1      33.251  24.835  26.126  1.00  0.00     0.031 C 
ENDBRANCH  13  18
ENDBRANCH   9  12
ENDBRANCH   6   8
ENDBRANCH   5   6
ENDBRANCH   3   5
ENDBRANCH   2   3
ENDBRANCH   1   2
BRANCH   1  21
ATOM     21  C   UNL A   1      43.369  18.368  25.416  1.00  0.00     0.275 C 
BRANCH  21  22
ATOM     22  O   UNL A   1      44.663  18.997  25.283  1.00  0.00    -0.458 OA
BRANCH  22  23
ATOM     23  C   UNL A   1      44.756  19.817  24.218  1.00  0.00     0.338 C 
ATOM     24  O   UNL A   1      44.537  19.522  23.057  1.00  0.00    -0.246 OA
BRANCH  23  25
ATOM     25  C   UNL A   1      45.129  21.192  24.532  1.00  0.00     0.060 A 
ATOM     26  C   UNL A   1      45.577  21.429  25.838  1.00  0.00     0.016 A 
ATOM     27  C   UNL A   1      44.802  22.242  23.675  1.00  0.00     0.016 A 
ATOM     28  C   UNL A   1      45.678  22.730  26.304  1.00  0.00     0.010 A 
ATOM     29  C   UNL A   1      44.915  23.552  24.144  1.00  0.00     0.010 A 
ATOM     30  C   UNL A   1      45.341  23.795  25.461  1.00  0.00    -0.014 A 
BRANCH  30  31
ATOM     31  C   UNL A   1      45.507  25.172  25.961  1.00  0.00     0.031 A 
ATOM     32  C   UNL A   1      46.839  25.854  25.926  1.00  0.00     0.074 A 
ATOM     33  C   UNL A   1      44.412  25.809  26.408  1.00  0.00     0.049 A 
ATOM     34  N   UNL A   1      47.156  27.053  26.340  1.00  0.00    -0.248 NA
ATOM     35  C   UNL A   1      47.958  25.096  25.347  1.00  0.00     0.031 C 
ATOM     36  C   UNL A   1      43.063  25.237  26.440  1.00  0.00     0.029 A 
ATOM     37  N   UNL A   1      44.257  27.071  26.911  1.00  0.00    -0.354 N 
ATOM     38  C   UNL A   1      48.512  27.195  26.082  1.00  0.00     0.074 A 
ATOM     39  C   UNL A   1      48.962  25.954  25.486  1.00  0.00     0.031 C 
ATOM     40  C   UNL A   1      42.216  26.152  26.933  1.00  0.00     0.029 A 
ATOM     41  C   UNL A   1      42.968  27.351  27.282  1.00  0.00     0.049 A 
ATOM     42  H   UNL A   1      44.999  27.714  26.998  1.00  0.00     0.167 HD
ATOM     43  C   UNL A   1      49.304  28.266  26.324  1.00  0.00     0.031 A 
ATOM     44  C   UNL A   1      42.452  28.450  27.858  1.00  0.00     0.031 A 
ATOM     45  C   UNL A   1      48.846  29.488  26.932  1.00  0.00     0.049 A 
ATOM     46  C   UNL A   1      43.357  29.608  28.144  1.00  0.00     0.074 A 
ATOM     47  C   UNL A   1      49.571  30.624  27.250  1.00  0.00     0.029 A 
ATOM     48  N   UNL A   1      47.533  29.734  27.312  1.00  0.00    -0.354 N 
ATOM     49  N   UNL A   1      44.644  29.721  27.918  1.00  0.00    -0.248 NA
ATOM     50  C   UNL A   1      42.740  30.791  28.755  1.00  0.00     0.031 C 
ATOM     51  C   UNL A   1      48.701  31.546  27.848  1.00  0.00     0.029 A 
ATOM     52  C   UNL A   1      47.429  30.998  27.866  1.00  0.00     0.049 A 
ATOM     53  H   UNL A   1      46.787  29.101  27.203  1.00  0.00     0.167 HD
ATOM     54  C   UNL A   1      44.991  30.993  28.348  1.00  0.00     0.074 A 
ATOM     55  C   UNL A   1      43.775  31.617  28.832  1.00  0.00     0.031 C 
ATOM     56  C   UNL A   1      46.207  31.590  28.346  1.00  0.00     0.031 A 
BRANCH  43  57
ATOM     57  C   UNL A   1      50.756  28.150  25.960  1.00  0.00    -0.014 A 
ATOM     58  C   UNL A   1      51.223  28.552  24.699  1.00  0.00     0.009 A 
ATOM     59  C   UNL A   1      51.676  27.662  26.902  1.00  0.00     0.009 A 
ATOM     60  C   UNL A   1      52.580  28.448  24.381  1.00  0.00     0.001 A 
ATOM     61  C   UNL A   1      53.034  27.578  26.588  1.00  0.00     0.001 A 
ATOM     62  C   UNL A   1      53.484  27.964  25.327  1.00  0.00     0.000 A 
ENDBRANCH  43  57
BRANCH  44  63
ATOM     63  C   UNL A   1      41.012  28.480  28.204  1.00  0.00    -0.014 A 
ATOM     64  C   UNL A   1      40.569  28.045  29.460  1.00  0.00     0.009 A 
ATOM     65  C   UNL A   1      40.079  28.999  27.291  1.00  0.00     0.009 A 
ATOM     66  C   UNL A   1      39.215  28.118  29.792  1.00  0.00     0.001 A 
ATOM     67  C   UNL A   1      38.730  29.094  27.635  1.00  0.00     0.001 A 
ATOM     68  C   UNL A   1      38.299  28.648  28.884  1.00  0.00     0.000 A 
ENDBRANCH  44  63
BRANCH  56  69
ATOM     69  C   UNL A   1      46.262  32.994  28.868  1.00  0.00    -0.014 A 
ATOM     70  C   UNL A   1      46.048  34.089  28.018  1.00  0.00     0.009 A 
ATOM     71  C   UNL A   1      46.523  33.221  30.228  1.00  0.00     0.009 A 
ATOM     72  C   UNL A   1      46.128  35.391  28.516  1.00  0.00     0.001 A 
ATOM     73  C   UNL A   1      46.583  34.522  30.726  1.00  0.00     0.001 A 
ATOM     74  C   UNL A   1      46.394  35.606  29.868  1.00  0.00     0.000 A 
ENDBRANCH  56  69
ENDBRANCH  30  31
ENDBRANCH  23  25
ENDBRANCH  22  23
ENDBRANCH  21  22
ENDBRANCH   1  21
TORSDOF 15
ENDMDL
MODEL 3
REMARK VINA RESULT:      -9.4      6.158     10.734
REMARK SMILES CC(C)N1C[C@@H](C(=O)N[C@@H](C)CC(=O)OCCOC(=O)c2ccc(-c3c4nc(c(-c5ccccc5)c5ccc([nH]5)c(-c5ccccc5)c5nc(c(-c6ccccc6)c6ccc3[nH]6)C=C5)C=C4)cc2)CC1=O
REMARK SMILES IDX 16 1 15 2 13 3 14 4 12 5 10 6 11 7 9 8 7 9 8 10 6 12 4 13
REMARK SMILES IDX 5 14 70 15 69 16 71 17 2 18 1 19 3 20 17 21 18 22 19 23
REMARK SMILES IDX 20 24 21 25 22 26 68 27 23 28 67 29 24 30 25 31 26 32 61 33
REMARK SMILES IDX 27 34 66 35 60 36 62 37 28 38 65 39 59 40 58 41 29 43 51 44
REMARK SMILES IDX 36 45 50 46 37 47 40 48 49 49 63 50 38 51 39 52 48 54 64 55
REMARK SMILES IDX 41 56 30 57 31 58 35 59 32 60 34 61 33 62 52 63 53 64 57 65
REMARK SMILES IDX 54 66 56 67 55 68 42 69 43 70 47 71 44 72 46 73 45 74
REMARK H PARENT 9 11 62 42 40 53
REMARK Flexibility Score: inf
ROOT
ATOM      1  C   UNL A   1      31.501  31.496  26.875  1.00  0.00     0.274 C 
ENDROOT
BRANCH   1   2
ATOM      2  O   UNL A   1      31.650  30.832  25.601  1.00  0.00    -0.462 OA
BRANCH   2   3
ATOM      3  C   UNL A   1      31.604  29.477  25.632  1.00  0.00     0.307 C 
ATOM      4  O   UNL A   1      31.152  28.776  24.731  1.00  0.00    -0.252 OA
BRANCH   3   5
ATOM      5  C   UNL A   1      32.080  28.886  26.935  1.00  0.00     0.147 C 
BRANCH   5   6
ATOM      6  C   UNL A   1      33.453  28.183  26.971  1.00  0.00     0.090 C 
ATOM      7  C   UNL A   1      34.500  29.285  27.202  1.00  0.00     0.031 C 
BRANCH   6   8
ATOM      8  N   UNL A   1      33.730  27.503  25.702  1.00  0.00    -0.353 N 
ATOM      9  C   UNL A   1      33.665  26.217  25.282  1.00  0.00     0.225 C 
ATOM     10  O   UNL A   1      33.982  26.029  24.100  1.00  0.00    -0.275 OA
ATOM     11  H   UNL A   1      34.029  28.120  24.996  1.00  0.00     0.163 HD
BRANCH   9  12
ATOM     12  C   UNL A   1      33.225  25.020  26.112  1.00  0.00     0.107 C 
ATOM     13  N   UNL A   1      32.405  22.856  25.620  1.00  0.00    -0.339 N 
ATOM     14  C   UNL A   1      33.592  23.678  25.516  1.00  0.00     0.133 C 
ATOM     15  C   UNL A   1      31.355  23.517  26.229  1.00  0.00     0.223 C 
ATOM     16  C   UNL A   1      31.757  24.941  26.489  1.00  0.00     0.115 C 
ATOM     17  O   UNL A   1      30.262  23.057  26.520  1.00  0.00    -0.275 OA
BRANCH  13  18
ATOM     18  C   UNL A   1      32.419  21.441  25.234  1.00  0.00     0.078 C 
ATOM     19  C   UNL A   1      32.533  21.272  23.721  1.00  0.00     0.031 C 
ATOM     20  C   UNL A   1      33.504  20.625  25.943  1.00  0.00     0.031 C 
ENDBRANCH  13  18
ENDBRANCH   9  12
ENDBRANCH   6   8
ENDBRANCH   5   6
ENDBRANCH   3   5
ENDBRANCH   2   3
ENDBRANCH   1   2
BRANCH   1  21
ATOM     21  C   UNL A   1      32.601  32.534  27.150  1.00  0.00     0.275 C 
BRANCH  21  22
ATOM     22  O   UNL A   1      32.100  33.828  27.551  1.00  0.00    -0.458 OA
BRANCH  22  23
ATOM     23  C   UNL A   1      32.930  34.495  28.378  1.00  0.00     0.338 C 
ATOM     24  O   UNL A   1      32.746  35.603  28.847  1.00  0.00    -0.246 OA
BRANCH  23  25
ATOM     25  C   UNL A   1      34.141  33.771  28.747  1.00  0.00     0.060 A 
ATOM     26  C   UNL A   1      34.021  32.867  29.810  1.00  0.00     0.016 A 
ATOM     27  C   UNL A   1      35.389  34.155  28.257  1.00  0.00     0.016 A 
ATOM     28  C   UNL A   1      35.162  32.355  30.408  1.00  0.00     0.010 A 
ATOM     29  C   UNL A   1      36.535  33.629  28.854  1.00  0.00     0.010 A 
ATOM     30  C   UNL A   1      36.423  32.740  29.937  1.00  0.00    -0.014 A 
BRANCH  30  31
ATOM     31  C   UNL A   1      37.621  32.143  30.554  1.00  0.00     0.031 A 
ATOM     32  C   UNL A   1      38.209  32.706  31.810  1.00  0.00     0.074 A 
ATOM     33  C   UNL A   1      38.141  31.049  29.973  1.00  0.00     0.049 A 
ATOM     34  N   UNL A   1      39.267  32.308  32.468  1.00  0.00    -0.248 NA
ATOM     35  C   UNL A   1      37.520  33.859  32.407  1.00  0.00     0.031 C 
ATOM     36  C   UNL A   1      37.608  30.404  28.770  1.00  0.00     0.029 A 
ATOM     37  N   UNL A   1      39.220  30.284  30.317  1.00  0.00    -0.354 N 
ATOM     38  C   UNL A   1      39.380  33.166  33.554  1.00  0.00     0.074 A 
ATOM     39  C   UNL A   1      38.288  34.114  33.460  1.00  0.00     0.031 C 
ATOM     40  C   UNL A   1      38.363  29.335  28.479  1.00  0.00     0.029 A 
ATOM     41  C   UNL A   1      39.446  29.245  29.452  1.00  0.00     0.049 A 
ATOM     42  H   UNL A   1      39.780  30.462  31.108  1.00  0.00     0.167 HD
ATOM     43  C   UNL A   1      40.311  33.157  34.536  1.00  0.00     0.031 A 
ATOM     44  C   UNL A   1      40.430  28.330  29.434  1.00  0.00     0.031 A 
ATOM     45  C   UNL A   1      41.400  32.218  34.608  1.00  0.00     0.049 A 
ATOM     46  C   UNL A   1      41.466  28.363  30.515  1.00  0.00     0.074 A 
ATOM     47  C   UNL A   1      42.417  32.139  35.544  1.00  0.00     0.029 A 
ATOM     48  N   UNL A   1      41.609  31.185  33.704  1.00  0.00    -0.354 N 
ATOM     49  N   UNL A   1      41.576  29.195  31.524  1.00  0.00    -0.248 NA
ATOM     50  C   UNL A   1      42.507  27.331  30.462  1.00  0.00     0.031 C 
ATOM     51  C   UNL A   1      43.258  31.076  35.189  1.00  0.00     0.029 A 
ATOM     52  C   UNL A   1      42.741  30.469  34.055  1.00  0.00     0.049 A 
ATOM     53  H   UNL A   1      41.036  30.992  32.927  1.00  0.00     0.167 HD
ATOM     54  C   UNL A   1      42.692  28.780  32.233  1.00  0.00     0.074 A 
ATOM     55  C   UNL A   1      43.212  27.612  31.548  1.00  0.00     0.031 C 
ATOM     56  C   UNL A   1      43.239  29.318  33.350  1.00  0.00     0.031 A 
BRANCH  43  57
ATOM     57  C   UNL A   1      40.211  34.218  35.594  1.00  0.00    -0.014 A 
ATOM     58  C   UNL A   1      40.832  35.466  35.434  1.00  0.00     0.009 A 
ATOM     59  C   UNL A   1      39.456  33.979  36.754  1.00  0.00     0.009 A 
ATOM     60  C   UNL A   1      40.717  36.446  36.423  1.00  0.00     0.001 A 
ATOM     61  C   UNL A   1      39.327  34.966  37.732  1.00  0.00     0.001 A 
ATOM     62  C   UNL A   1      39.963  36.196  37.569  1.00  0.00     0.000 A 
ENDBRANCH  43  57
BRANCH  44  63
ATOM     63  C   UNL A   1      40.469  27.327  28.345  1.00  0.00    -0.014 A 
ATOM     64  C   UNL A   1      39.752  26.128  28.451  1.00  0.00     0.009 A 
ATOM     65  C   UNL A   1      41.184  27.595  27.167  1.00  0.00     0.009 A 
ATOM     66  C   UNL A   1      39.760  25.209  27.401  1.00  0.00     0.001 A 
ATOM     67  C   UNL A   1      41.170  26.685  26.109  1.00  0.00     0.001 A 
ATOM     68  C   UNL A   1      40.462  25.490  26.229  1.00  0.00     0.000 A 
ENDBRANCH  44  63
BRANCH  56  69
ATOM     69  C   UNL A   1      44.451  28.626  33.899  1.00  0.00    -0.014 A 
ATOM     70  C   UNL A   1      45.742  29.008  33.503  1.00  0.00     0.009 A 
ATOM     71  C   UNL A   1      44.298  27.587  34.829  1.00  0.00     0.009 A 
ATOM     72  C   UNL A   1      46.858  28.336  34.004  1.00  0.00     0.001 A 
ATOM     73  C   UNL A   1      45.416  26.931  35.343  1.00  0.00     0.001 A 
ATOM     74  C   UNL A   1      46.694  27.301  34.923  1.00  0.00     0.000 A 
ENDBRANCH  56  69
ENDBRANCH  30  31
ENDBRANCH  23  25
ENDBRANCH  22  23
ENDBRANCH  21  22
ENDBRANCH   1  21
TORSDOF 15
ENDMDL
