MODEL 1
REMARK VINA RESULT:      -8.9      0.000      0.000
REMARK SMILES CCC(CC)(C[C@H](O)COC)C(=O)OCCOC(=O)c1ccc(-c2c3nc(c(-c4ccccc4)c4ccc([nH]4)c(-c4ccccc4)c4nc(c(-c5ccccc5)c5ccc2[nH]5)C=C4)C=C3)cc1
REMARK SMILES IDX 15 1 14 2 12 3 13 4 3 5 2 6 1 7 4 8 5 9 6 10 7 11 9 12 10 13
REMARK SMILES IDX 11 14 8 15 16 17 17 18 18 19 19 20 20 21 21 22 67 23 22 24
REMARK SMILES IDX 66 25 23 26 24 27 25 28 60 29 26 30 65 31 59 32 61 33 27 34
REMARK SMILES IDX 64 35 58 36 57 37 28 39 50 40 35 41 49 42 36 43 39 44 48 45
REMARK SMILES IDX 62 46 37 47 38 48 47 50 63 51 40 52 29 53 30 54 34 55 31 56
REMARK SMILES IDX 33 57 32 58 51 59 52 60 56 61 53 62 55 63 54 64 41 65 42 66
REMARK SMILES IDX 46 67 43 68 45 69 44 70
REMARK H PARENT 8 16 61 38 39 49
REMARK Flexibility Score: inf
ROOT
ATOM      1  C   UNL A   1      31.972  30.813  26.705  1.00  0.00     0.274 C 
ENDROOT
BRANCH   1   2
ATOM      2  O   UNL A   1      32.598  29.830  25.851  1.00  0.00    -0.462 OA
BRANCH   2   3
ATOM      3  C   UNL A   1      31.879  28.696  25.616  1.00  0.00     0.312 C 
ATOM      4  O   UNL A   1      31.635  27.863  26.482  1.00  0.00    -0.252 OA
BRANCH   3   5
ATOM      5  C   UNL A   1      31.530  28.494  24.120  1.00  0.00     0.070 C 
BRANCH   5   6
ATOM      6  C   UNL A   1      31.108  27.022  23.831  1.00  0.00     0.015 C 
ATOM      7  C   UNL A   1      29.702  26.593  24.255  1.00  0.00     0.005 C 
ENDBRANCH   5   6
BRANCH   5   8
ATOM      8  C   UNL A   1      32.851  28.872  23.375  1.00  0.00     0.015 C 
ATOM      9  C   UNL A   1      33.860  27.747  23.171  1.00  0.00     0.005 C 
ENDBRANCH   5   8
BRANCH   5  10
ATOM     10  C   UNL A   1      30.390  29.456  23.638  1.00  0.00     0.053 C 
BRANCH  10  11
ATOM     11  C   UNL A   1      29.853  29.350  22.191  1.00  0.00     0.141 C 
BRANCH  11  12
ATOM     12  C   UNL A   1      28.358  29.697  22.073  1.00  0.00     0.191 C 
BRANCH  12  13
ATOM     13  O   UNL A   1      27.809  30.141  23.322  1.00  0.00    -0.382 OA
ATOM     14  C   UNL A   1      27.552  31.539  23.381  1.00  0.00     0.195 C 
ENDBRANCH  12  13
ENDBRANCH  11  12
BRANCH  11  15
ATOM     15  O   UNL A   1      30.615  30.154  21.306  1.00  0.00    -0.391 OA
ATOM     16  H   UNL A   1      30.037  30.812  20.888  1.00  0.00     0.211 HD
ENDBRANCH  11  15
ENDBRANCH  10  11
ENDBRANCH   5  10
ENDBRANCH   3   5
ENDBRANCH   2   3
ENDBRANCH   1   2
BRANCH   1  17
ATOM     17  C   UNL A   1      33.009  31.755  27.321  1.00  0.00     0.275 C 
BRANCH  17  18
ATOM     18  O   UNL A   1      32.483  33.090  27.364  1.00  0.00    -0.458 OA
BRANCH  18  19
ATOM     19  C   UNL A   1      33.046  33.922  28.273  1.00  0.00     0.338 C 
ATOM     20  O   UNL A   1      32.526  34.907  28.779  1.00  0.00    -0.246 OA
BRANCH  19  21
ATOM     21  C   UNL A   1      34.391  33.429  28.652  1.00  0.00     0.060 A 
ATOM     22  C   UNL A   1      34.561  32.669  29.809  1.00  0.00     0.016 A 
ATOM     23  C   UNL A   1      35.514  33.802  27.911  1.00  0.00     0.016 A 
ATOM     24  C   UNL A   1      35.832  32.311  30.251  1.00  0.00     0.010 A 
ATOM     25  C   UNL A   1      36.787  33.367  28.304  1.00  0.00     0.010 A 
ATOM     26  C   UNL A   1      36.959  32.615  29.481  1.00  0.00    -0.014 A 
BRANCH  26  27
ATOM     27  C   UNL A   1      38.296  32.105  29.879  1.00  0.00     0.031 A 
ATOM     28  C   UNL A   1      38.802  30.786  29.364  1.00  0.00     0.074 A 
ATOM     29  C   UNL A   1      39.063  32.824  30.724  1.00  0.00     0.049 A 
ATOM     30  N   UNL A   1      39.831  30.085  29.768  1.00  0.00    -0.248 NA
ATOM     31  C   UNL A   1      38.055  30.177  28.253  1.00  0.00     0.031 C 
ATOM     32  C   UNL A   1      38.733  34.148  31.258  1.00  0.00     0.029 A 
ATOM     33  N   UNL A   1      40.283  32.537  31.288  1.00  0.00    -0.354 N 
ATOM     34  C   UNL A   1      39.827  28.929  28.998  1.00  0.00     0.074 A 
ATOM     35  C   UNL A   1      38.701  29.028  28.092  1.00  0.00     0.031 C 
ATOM     36  C   UNL A   1      39.731  34.567  32.049  1.00  0.00     0.029 A 
ATOM     37  C   UNL A   1      40.723  33.505  32.157  1.00  0.00     0.049 A 
ATOM     38  H   UNL A   1      40.791  31.719  31.088  1.00  0.00     0.167 HD
ATOM     39  C   UNL A   1      40.677  27.877  29.053  1.00  0.00     0.031 A 
ATOM     40  C   UNL A   1      41.772  33.520  33.001  1.00  0.00     0.031 A 
ATOM     41  C   UNL A   1      41.813  27.790  29.935  1.00  0.00     0.049 A 
ATOM     42  C   UNL A   1      42.652  32.311  33.098  1.00  0.00     0.074 A 
ATOM     43  C   UNL A   1      42.733  26.763  30.056  1.00  0.00     0.029 A 
ATOM     44  N   UNL A   1      42.187  28.771  30.837  1.00  0.00    -0.354 N 
ATOM     45  N   UNL A   1      42.598  31.195  32.414  1.00  0.00    -0.248 NA
ATOM     46  C   UNL A   1      43.721  32.353  34.106  1.00  0.00     0.031 C 
ATOM     47  C   UNL A   1      43.645  27.107  31.061  1.00  0.00     0.029 A 
ATOM     48  C   UNL A   1      43.312  28.365  31.536  1.00  0.00     0.049 A 
ATOM     49  H   UNL A   1      41.722  29.630  30.965  1.00  0.00     0.167 HD
ATOM     50  C   UNL A   1      43.621  30.400  32.912  1.00  0.00     0.074 A 
ATOM     51  C   UNL A   1      44.297  31.172  33.934  1.00  0.00     0.031 C 
ATOM     52  C   UNL A   1      43.962  29.139  32.559  1.00  0.00     0.031 A 
BRANCH  39  53
ATOM     53  C   UNL A   1      40.391  26.702  28.165  1.00  0.00    -0.014 A 
ATOM     54  C   UNL A   1      39.559  25.653  28.583  1.00  0.00     0.009 A 
ATOM     55  C   UNL A   1      40.910  26.683  26.860  1.00  0.00     0.009 A 
ATOM     56  C   UNL A   1      39.267  24.598  27.715  1.00  0.00     0.001 A 
ATOM     57  C   UNL A   1      40.601  25.638  25.990  1.00  0.00     0.001 A 
ATOM     58  C   UNL A   1      39.783  24.594  26.418  1.00  0.00     0.000 A 
ENDBRANCH  39  53
BRANCH  40  59
ATOM     59  C   UNL A   1      41.987  34.688  33.892  1.00  0.00    -0.014 A 
ATOM     60  C   UNL A   1      42.798  35.757  33.488  1.00  0.00     0.009 A 
ATOM     61  C   UNL A   1      41.379  34.734  35.158  1.00  0.00     0.009 A 
ATOM     62  C   UNL A   1      43.004  36.846  34.340  1.00  0.00     0.001 A 
ATOM     63  C   UNL A   1      41.563  35.836  35.994  1.00  0.00     0.001 A 
ATOM     64  C   UNL A   1      42.382  36.887  35.587  1.00  0.00     0.000 A 
ENDBRANCH  40  59
BRANCH  52  65
ATOM     65  C   UNL A   1      45.125  28.526  33.281  1.00  0.00    -0.014 A 
ATOM     66  C   UNL A   1      46.436  28.706  32.813  1.00  0.00     0.009 A 
ATOM     67  C   UNL A   1      44.909  27.775  34.445  1.00  0.00     0.009 A 
ATOM     68  C   UNL A   1      47.508  28.116  33.485  1.00  0.00     0.001 A 
ATOM     69  C   UNL A   1      45.985  27.205  35.125  1.00  0.00     0.001 A 
ATOM     70  C   UNL A   1      47.282  27.369  34.641  1.00  0.00     0.000 A 
ENDBRANCH  52  65
ENDBRANCH  26  27
ENDBRANCH  19  21
ENDBRANCH  18  19
ENDBRANCH  17  18
ENDBRANCH   1  17
TORSDOF 18
ENDMDL
MODEL 2
REMARK VINA RESULT:      -8.9      2.915      4.004
REMARK SMILES CCC(CC)(C[C@H](O)COC)C(=O)OCCOC(=O)c1ccc(-c2c3nc(c(-c4ccccc4)c4ccc([nH]4)c(-c4ccccc4)c4nc(c(-c5ccccc5)c5ccc2[nH]5)C=C4)C=C3)cc1
REMARK SMILES IDX 15 1 14 2 12 3 13 4 3 5 2 6 1 7 4 8 5 9 6 10 7 11 9 12 10 13
REMARK SMILES IDX 11 14 8 15 16 17 17 18 18 19 19 20 20 21 21 22 67 23 22 24
REMARK SMILES IDX 66 25 23 26 24 27 25 28 60 29 26 30 65 31 59 32 61 33 27 34
REMARK SMILES IDX 64 35 58 36 57 37 28 39 50 40 35 41 49 42 36 43 39 44 48 45
REMARK SMILES IDX 62 46 37 47 38 48 47 50 63 51 40 52 29 53 30 54 34 55 31 56
REMARK SMILES IDX 33 57 32 58 51 59 52 60 56 61 53 62 55 63 54 64 41 65 42 66
REMARK SMILES IDX 46 67 43 68 45 69 44 70
REMARK H PARENT 8 16 61 38 39 49
REMARK Flexibility Score: inf
ROOT
ATOM      1  C   UNL A   1      31.671  28.056  26.526  1.00  0.00     0.274 C 
ENDROOT
BRANCH   1   2
ATOM      2  O   UNL A   1      31.664  26.820  25.778  1.00  0.00    -0.462 OA
BRANCH   2   3
ATOM      3  C   UNL A   1      32.831  26.114  25.778  1.00  0.00     0.312 C 
ATOM      4  O   UNL A   1      33.937  26.642  25.756  1.00  0.00    -0.252 OA
BRANCH   3   5
ATOM      5  C   UNL A   1      32.617  24.583  25.661  1.00  0.00     0.070 C 
BRANCH   5   6
ATOM      6  C   UNL A   1      31.796  24.034  26.866  1.00  0.00     0.015 C 
ATOM      7  C   UNL A   1      30.587  23.149  26.554  1.00  0.00     0.005 C 
ENDBRANCH   5   6
BRANCH   5   8
ATOM      8  C   UNL A   1      34.069  24.005  25.642  1.00  0.00     0.015 C 
ATOM      9  C   UNL A   1      34.402  22.972  26.711  1.00  0.00     0.005 C 
ENDBRANCH   5   8
BRANCH   5  10
ATOM     10  C   UNL A   1      31.899  24.181  24.327  1.00  0.00     0.053 C 
BRANCH  10  11
ATOM     11  C   UNL A   1      32.679  23.415  23.234  1.00  0.00     0.141 C 
BRANCH  11  12
ATOM     12  C   UNL A   1      32.292  21.928  23.142  1.00  0.00     0.191 C 
BRANCH  12  13
ATOM     13  O   UNL A   1      33.181  21.094  23.899  1.00  0.00    -0.382 OA
ATOM     14  C   UNL A   1      32.529  20.254  24.844  1.00  0.00     0.195 C 
ENDBRANCH  12  13
ENDBRANCH  11  12
BRANCH  11  15
ATOM     15  O   UNL A   1      32.528  24.039  21.969  1.00  0.00    -0.391 OA
ATOM     16  H   UNL A   1      33.380  24.410  21.688  1.00  0.00     0.211 HD
ENDBRANCH  11  15
ENDBRANCH  10  11
ENDBRANCH   5  10
ENDBRANCH   3   5
ENDBRANCH   2   3
ENDBRANCH   1   2
BRANCH   1  17
ATOM     17  C   UNL A   1      31.653  29.270  25.593  1.00  0.00     0.275 C 
BRANCH  17  18
ATOM     18  O   UNL A   1      32.924  29.935  25.643  1.00  0.00    -0.458 OA
BRANCH  18  19
ATOM     19  C   UNL A   1      33.058  30.890  26.593  1.00  0.00     0.338 C 
ATOM     20  O   UNL A   1      32.244  31.761  26.871  1.00  0.00    -0.246 OA
BRANCH  19  21
ATOM     21  C   UNL A   1      34.325  30.696  27.337  1.00  0.00     0.060 A 
ATOM     22  C   UNL A   1      34.663  29.438  27.835  1.00  0.00     0.016 A 
ATOM     23  C   UNL A   1      35.143  31.788  27.633  1.00  0.00     0.016 A 
ATOM     24  C   UNL A   1      35.780  29.265  28.647  1.00  0.00     0.010 A 
ATOM     25  C   UNL A   1      36.317  31.601  28.376  1.00  0.00     0.010 A 
ATOM     26  C   UNL A   1      36.647  30.334  28.891  1.00  0.00    -0.014 A 
BRANCH  26  27
ATOM     27  C   UNL A   1      37.915  30.113  29.635  1.00  0.00     0.031 A 
ATOM     28  C   UNL A   1      39.033  29.311  29.031  1.00  0.00     0.074 A 
ATOM     29  C   UNL A   1      38.062  30.626  30.874  1.00  0.00     0.049 A 
ATOM     30  N   UNL A   1      40.107  28.834  29.606  1.00  0.00    -0.248 NA
ATOM     31  C   UNL A   1      38.931  29.006  27.596  1.00  0.00     0.031 C 
ATOM     32  C   UNL A   1      37.089  31.476  31.567  1.00  0.00     0.029 A 
ATOM     33  N   UNL A   1      39.091  30.502  31.777  1.00  0.00    -0.354 N 
ATOM     34  C   UNL A   1      40.783  28.128  28.619  1.00  0.00     0.074 A 
ATOM     35  C   UNL A   1      40.006  28.252  27.403  1.00  0.00     0.031 C 
ATOM     36  C   UNL A   1      37.575  31.814  32.770  1.00  0.00     0.029 A 
ATOM     37  C   UNL A   1      38.844  31.128  32.974  1.00  0.00     0.049 A 
ATOM     38  H   UNL A   1      39.922  30.011  31.584  1.00  0.00     0.167 HD
ATOM     39  C   UNL A   1      41.940  27.431  28.723  1.00  0.00     0.031 A 
ATOM     40  C   UNL A   1      39.525  31.107  34.135  1.00  0.00     0.031 A 
ATOM     41  C   UNL A   1      42.727  27.332  29.925  1.00  0.00     0.049 A 
ATOM     42  C   UNL A   1      40.760  30.265  34.246  1.00  0.00     0.074 A 
ATOM     43  C   UNL A   1      43.917  26.650  30.121  1.00  0.00     0.029 A 
ATOM     44  N   UNL A   1      42.410  27.937  31.129  1.00  0.00    -0.354 N 
ATOM     45  N   UNL A   1      41.353  29.546  33.325  1.00  0.00    -0.248 NA
ATOM     46  C   UNL A   1      41.403  30.208  35.567  1.00  0.00     0.031 C 
ATOM     47  C   UNL A   1      44.299  26.814  31.458  1.00  0.00     0.029 A 
ATOM     48  C   UNL A   1      43.367  27.627  32.080  1.00  0.00     0.049 A 
ATOM     49  H   UNL A   1      41.619  28.504  31.286  1.00  0.00     0.167 HD
ATOM     50  C   UNL A   1      42.435  28.948  33.955  1.00  0.00     0.074 A 
ATOM     51  C   UNL A   1      42.434  29.410  35.328  1.00  0.00     0.031 C 
ATOM     52  C   UNL A   1      43.343  28.084  33.443  1.00  0.00     0.031 A 
BRANCH  39  53
ATOM     53  C   UNL A   1      42.409  26.676  27.515  1.00  0.00    -0.014 A 
ATOM     54  C   UNL A   1      41.998  25.358  27.271  1.00  0.00     0.009 A 
ATOM     55  C   UNL A   1      43.223  27.324  26.572  1.00  0.00     0.009 A 
ATOM     56  C   UNL A   1      42.409  24.697  26.110  1.00  0.00     0.001 A 
ATOM     57  C   UNL A   1      43.615  26.668  25.405  1.00  0.00     0.001 A 
ATOM     58  C   UNL A   1      43.211  25.354  25.175  1.00  0.00     0.000 A 
ENDBRANCH  39  53
BRANCH  40  59
ATOM     59  C   UNL A   1      38.996  31.835  35.316  1.00  0.00    -0.014 A 
ATOM     60  C   UNL A   1      39.296  33.189  35.517  1.00  0.00     0.009 A 
ATOM     61  C   UNL A   1      38.184  31.171  36.251  1.00  0.00     0.009 A 
ATOM     62  C   UNL A   1      38.803  33.861  36.638  1.00  0.00     0.001 A 
ATOM     63  C   UNL A   1      37.669  31.853  37.354  1.00  0.00     0.001 A 
ATOM     64  C   UNL A   1      37.986  33.195  37.550  1.00  0.00     0.000 A 
ENDBRANCH  40  59
BRANCH  52  65
ATOM     65  C   UNL A   1      44.412  27.596  34.375  1.00  0.00    -0.014 A 
ATOM     66  C   UNL A   1      45.585  28.340  34.574  1.00  0.00     0.009 A 
ATOM     67  C   UNL A   1      44.238  26.390  35.069  1.00  0.00     0.009 A 
ATOM     68  C   UNL A   1      46.580  27.866  35.431  1.00  0.00     0.001 A 
ATOM     69  C   UNL A   1      45.226  25.931  35.940  1.00  0.00     0.001 A 
ATOM     70  C   UNL A   1      46.399  26.665  36.115  1.00  0.00     0.000 A 
ENDBRANCH  52  65
ENDBRANCH  26  27
ENDBRANCH  19  21
ENDBRANCH  18  19
ENDBRANCH  17  18
ENDBRANCH   1  17
TORSDOF 18
ENDMDL
MODEL 3
REMARK VINA RESULT:      -8.9      2.685      7.315
REMARK SMILES CCC(CC)(C[C@H](O)COC)C(=O)OCCOC(=O)c1ccc(-c2c3nc(c(-c4ccccc4)c4ccc([nH]4)c(-c4ccccc4)c4nc(c(-c5ccccc5)c5ccc2[nH]5)C=C4)C=C3)cc1
REMARK SMILES IDX 15 1 14 2 12 3 13 4 3 5 2 6 1 7 4 8 5 9 6 10 7 11 9 12 10 13
REMARK SMILES IDX 11 14 8 15 16 17 17 18 18 19 19 20 20 21 21 22 67 23 22 24
REMARK SMILES IDX 66 25 23 26 24 27 25 28 60 29 26 30 65 31 59 32 61 33 27 34
REMARK SMILES IDX 64 35 58 36 57 37 28 39 50 40 35 41 49 42 36 43 39 44 48 45
REMARK SMILES IDX 62 46 37 47 38 48 47 50 63 51 40 52 29 53 30 54 34 55 31 56
REMARK SMILES IDX 33 57 32 58 51 59 52 60 56 61 53 62 55 63 54 64 41 65 42 66
REMARK SMILES IDX 46 67 43 68 45 69 44 70
REMARK H PARENT 8 16 61 38 39 49
REMARK Flexibility Score: inf
ROOT
ATOM      1  C   UNL A   1      32.455  28.360  27.585  1.00  0.00     0.274 C 
ENDROOT
BRANCH   1   2
ATOM      2  O   UNL A   1      32.778  27.344  26.610  1.00  0.00    -0.462 OA
BRANCH   2   3
ATOM      3  C   UNL A   1      31.752  26.530  26.232  1.00  0.00     0.312 C 
ATOM      4  O   UNL A   1      30.772  26.310  26.936  1.00  0.00    -0.252 OA
BRANCH   3   5
ATOM      5  C   UNL A   1      32.018  25.797  24.892  1.00  0.00     0.070 C 
BRANCH   5   6
ATOM      6  C   UNL A   1      31.255  24.439  24.830  1.00  0.00     0.015 C 
ATOM      7  C   UNL A   1      30.933  23.871  23.447  1.00  0.00     0.005 C 
ENDBRANCH   5   6
BRANCH   5   8
ATOM      8  C   UNL A   1      33.567  25.590  24.881  1.00  0.00     0.015 C 
ATOM      9  C   UNL A   1      34.086  24.328  25.559  1.00  0.00     0.005 C 
ENDBRANCH   5   8
BRANCH   5  10
ATOM     10  C   UNL A   1      31.619  26.664  23.649  1.00  0.00     0.053 C 
BRANCH  10  11
ATOM     11  C   UNL A   1      30.579  27.800  23.803  1.00  0.00     0.141 C 
BRANCH  11  12
ATOM     12  C   UNL A   1      30.790  28.954  22.807  1.00  0.00     0.191 C 
BRANCH  12  13
ATOM     13  O   UNL A   1      29.757  29.000  21.813  1.00  0.00    -0.382 OA
ATOM     14  C   UNL A   1      29.122  30.267  21.691  1.00  0.00     0.195 C 
ENDBRANCH  12  13
ENDBRANCH  11  12
BRANCH  11  15
ATOM     15  O   UNL A   1      29.258  27.297  23.698  1.00  0.00    -0.391 OA
ATOM     16  H   UNL A   1      29.068  26.725  24.459  1.00  0.00     0.211 HD
ENDBRANCH  11  15
ENDBRANCH  10  11
ENDBRANCH   5  10
ENDBRANCH   3   5
ENDBRANCH   2   3
ENDBRANCH   1   2
BRANCH   1  17
ATOM     17  C   UNL A   1      32.744  29.762  27.043  1.00  0.00     0.275 C 
BRANCH  17  18
ATOM     18  O   UNL A   1      34.162  29.983  27.009  1.00  0.00    -0.458 OA
BRANCH  18  19
ATOM     19  C   UNL A   1      34.673  30.718  28.025  1.00  0.00     0.338 C 
ATOM     20  O   UNL A   1      34.107  31.619  28.630  1.00  0.00    -0.246 OA
BRANCH  19  21
ATOM     21  C   UNL A   1      36.026  30.227  28.381  1.00  0.00     0.060 A 
ATOM     22  C   UNL A   1      37.065  30.294  27.453  1.00  0.00     0.016 A 
ATOM     23  C   UNL A   1      36.249  29.602  29.609  1.00  0.00     0.016 A 
ATOM     24  C   UNL A   1      38.304  29.719  27.721  1.00  0.00     0.010 A 
ATOM     25  C   UNL A   1      37.521  29.100  29.917  1.00  0.00     0.010 A 
ATOM     26  C   UNL A   1      38.563  29.154  28.974  1.00  0.00    -0.014 A 
BRANCH  26  27
ATOM     27  C   UNL A   1      39.929  28.674  29.309  1.00  0.00     0.031 A 
ATOM     28  C   UNL A   1      40.897  29.555  30.047  1.00  0.00     0.074 A 
ATOM     29  C   UNL A   1      40.314  27.436  28.934  1.00  0.00     0.049 A 
ATOM     30  N   UNL A   1      42.183  29.394  30.229  1.00  0.00    -0.248 NA
ATOM     31  C   UNL A   1      40.349  30.775  30.659  1.00  0.00     0.031 C 
ATOM     32  C   UNL A   1      39.466  26.445  28.265  1.00  0.00     0.029 A 
ATOM     33  N   UNL A   1      41.526  26.800  29.059  1.00  0.00    -0.354 N 
ATOM     34  C   UNL A   1      42.609  30.514  30.931  1.00  0.00     0.074 A 
ATOM     35  C   UNL A   1      41.442  31.342  31.156  1.00  0.00     0.031 C 
ATOM     36  C   UNL A   1      40.173  25.324  28.061  1.00  0.00     0.029 A 
ATOM     37  C   UNL A   1      41.546  25.549  28.493  1.00  0.00     0.049 A 
ATOM     38  H   UNL A   1      42.302  27.203  29.510  1.00  0.00     0.167 HD
ATOM     39  C   UNL A   1      43.862  30.827  31.338  1.00  0.00     0.031 A 
ATOM     40  C   UNL A   1      42.565  24.695  28.282  1.00  0.00     0.031 A 
ATOM     41  C   UNL A   1      45.017  29.991  31.140  1.00  0.00     0.049 A 
ATOM     42  C   UNL A   1      43.955  25.100  28.672  1.00  0.00     0.074 A 
ATOM     43  C   UNL A   1      46.327  30.226  31.524  1.00  0.00     0.029 A 
ATOM     44  N   UNL A   1      45.000  28.758  30.512  1.00  0.00    -0.354 N 
ATOM     45  N   UNL A   1      44.357  26.193  29.273  1.00  0.00    -0.248 NA
ATOM     46  C   UNL A   1      45.035  24.165  28.326  1.00  0.00     0.031 C 
ATOM     47  C   UNL A   1      47.110  29.148  31.094  1.00  0.00     0.029 A 
ATOM     48  C   UNL A   1      46.279  28.228  30.477  1.00  0.00     0.049 A 
ATOM     49  H   UNL A   1      44.197  28.321  30.144  1.00  0.00     0.167 HD
ATOM     50  C   UNL A   1      45.736  26.079  29.374  1.00  0.00     0.074 A 
ATOM     51  C   UNL A   1      46.099  24.800  28.799  1.00  0.00     0.031 C 
ATOM     52  C   UNL A   1      46.624  26.962  29.889  1.00  0.00     0.031 A 
BRANCH  39  53
ATOM     53  C   UNL A   1      44.067  32.156  32.003  1.00  0.00    -0.014 A 
ATOM     54  C   UNL A   1      44.318  33.317  31.257  1.00  0.00     0.009 A 
ATOM     55  C   UNL A   1      43.936  32.256  33.398  1.00  0.00     0.009 A 
ATOM     56  C   UNL A   1      44.452  34.551  31.900  1.00  0.00     0.001 A 
ATOM     57  C   UNL A   1      44.051  33.492  34.034  1.00  0.00     0.001 A 
ATOM     58  C   UNL A   1      44.312  34.638  33.286  1.00  0.00     0.000 A 
ENDBRANCH  39  53
BRANCH  40  59
ATOM     59  C   UNL A   1      42.319  23.410  27.579  1.00  0.00    -0.014 A 
ATOM     60  C   UNL A   1      42.514  23.303  26.195  1.00  0.00     0.009 A 
ATOM     61  C   UNL A   1      41.886  22.283  28.296  1.00  0.00     0.009 A 
ATOM     62  C   UNL A   1      42.268  22.093  25.541  1.00  0.00     0.001 A 
ATOM     63  C   UNL A   1      41.668  21.068  27.644  1.00  0.00     0.001 A 
ATOM     64  C   UNL A   1      41.853  20.977  26.267  1.00  0.00     0.000 A 
ENDBRANCH  40  59
BRANCH  52  65
ATOM     65  C   UNL A   1      48.069  26.563  29.858  1.00  0.00    -0.014 A 
ATOM     66  C   UNL A   1      48.912  26.997  28.824  1.00  0.00     0.009 A 
ATOM     67  C   UNL A   1      48.594  25.756  30.879  1.00  0.00     0.009 A 
ATOM     68  C   UNL A   1      50.252  26.604  28.799  1.00  0.00     0.001 A 
ATOM     69  C   UNL A   1      49.938  25.383  30.861  1.00  0.00     0.001 A 
ATOM     70  C   UNL A   1      50.763  25.801  29.817  1.00  0.00     0.000 A 
ENDBRANCH  52  65
ENDBRANCH  26  27
ENDBRANCH  19  21
ENDBRANCH  18  19
ENDBRANCH  17  18
ENDBRANCH   1  17
TORSDOF 18
ENDMDL
