MODEL 1
REMARK VINA RESULT:     -10.3      0.000      0.000
REMARK SMILES C[C@@H]1C(=O)NC(=O)CN1C(=O)NC1(CC(=O)OCCOC(=O)c2ccc(-c3c4nc(c(-c5ccccc5)c5ccc([nH]5)c(-c5ccccc5)c5nc(c(-c6ccccc6)c6ccc3[nH]6)C=C5)C=C4)cc2)CCC1
REMARK SMILES IDX 18 1 17 2 15 3 16 4 14 5 13 6 71 7 73 8 72 9 12 10 10 11
REMARK SMILES IDX 11 12 9 14 1 15 2 16 3 17 4 18 5 19 8 20 6 21 7 23 19 24
REMARK SMILES IDX 20 25 21 26 22 27 23 28 24 29 70 30 25 31 69 32 26 33 27 34
REMARK SMILES IDX 28 35 63 36 29 37 68 38 62 39 64 40 30 41 67 42 61 43 60 44
REMARK SMILES IDX 31 46 53 47 38 48 52 49 39 50 42 51 51 52 65 53 40 54 41 55
REMARK SMILES IDX 50 57 66 58 43 59 32 60 33 61 37 62 34 63 36 64 35 65 54 66
REMARK SMILES IDX 55 67 59 68 56 69 58 70 57 71 44 72 45 73 49 74 46 75 48 76
REMARK SMILES IDX 47 77
REMARK H PARENT 12 13 5 22 64 45 42 56
REMARK Flexibility Score: inf
ROOT
ATOM      1  C   UNL A   1      31.824  31.073  26.518  1.00  0.00     0.274 C 
ENDROOT
BRANCH   1   2
ATOM      2  O   UNL A   1      32.286  29.994  27.358  1.00  0.00    -0.462 OA
BRANCH   2   3
ATOM      3  C   UNL A   1      31.745  28.769  27.152  1.00  0.00     0.308 C 
ATOM      4  O   UNL A   1      31.492  27.967  28.044  1.00  0.00    -0.252 OA
BRANCH   3   5
ATOM      5  C   UNL A   1      31.580  28.423  25.691  1.00  0.00     0.151 C 
BRANCH   5   6
ATOM      6  C   UNL A   1      32.097  27.074  25.171  1.00  0.00     0.052 C 
ATOM      7  C   UNL A   1      33.549  27.089  24.581  1.00  0.00     0.029 C 
ATOM      8  C   UNL A   1      31.676  26.676  23.695  1.00  0.00     0.029 C 
ATOM      9  C   UNL A   1      32.947  27.369  23.197  1.00  0.00     0.005 C 
BRANCH   6  10
ATOM     10  N   UNL A   1      31.786  25.958  26.093  1.00  0.00    -0.332 N 
ATOM     11  C   UNL A   1      32.059  24.657  26.310  1.00  0.00     0.318 C 
ATOM     12  O   UNL A   1      31.399  24.147  27.224  1.00  0.00    -0.249 OA
ATOM     13  H   UNL A   1      31.166  26.277  26.787  1.00  0.00     0.165 HD
BRANCH  11  14
ATOM     14  N   UNL A   1      32.997  23.916  25.658  1.00  0.00    -0.304 N 
ATOM     15  C   UNL A   1      32.590  21.779  24.472  1.00  0.00     0.042 C 
ATOM     16  C   UNL A   1      32.920  23.272  24.346  1.00  0.00     0.174 C 
ATOM     17  C   UNL A   1      34.227  23.424  23.554  1.00  0.00     0.249 C 
ATOM     18  O   UNL A   1      34.272  23.275  22.334  1.00  0.00    -0.272 OA
ATOM     19  N   UNL A   1      35.385  23.531  24.278  1.00  0.00    -0.293 N 
ATOM     20  C   UNL A   1      34.201  23.581  26.440  1.00  0.00     0.222 C 
ATOM     21  C   UNL A   1      35.496  23.527  25.641  1.00  0.00     0.246 C 
ATOM     22  H   UNL A   1      36.221  23.620  23.765  1.00  0.00     0.173 HD
ATOM     23  O   UNL A   1      36.594  23.392  26.176  1.00  0.00    -0.273 OA
ENDBRANCH  11  14
ENDBRANCH   6  10
ENDBRANCH   5   6
ENDBRANCH   3   5
ENDBRANCH   2   3
ENDBRANCH   1   2
BRANCH   1  24
ATOM     24  C   UNL A   1      31.689  32.386  27.292  1.00  0.00     0.275 C 
BRANCH  24  25
ATOM     25  O   UNL A   1      32.845  33.223  27.112  1.00  0.00    -0.458 OA
BRANCH  25  26
ATOM     26  C   UNL A   1      33.158  33.983  28.187  1.00  0.00     0.338 C 
ATOM     27  O   UNL A   1      32.461  34.837  28.707  1.00  0.00    -0.246 OA
BRANCH  26  28
ATOM     28  C   UNL A   1      34.433  33.516  28.755  1.00  0.00     0.060 A 
ATOM     29  C   UNL A   1      35.606  33.784  28.048  1.00  0.00     0.016 A 
ATOM     30  C   UNL A   1      34.470  32.757  29.925  1.00  0.00     0.016 A 
ATOM     31  C   UNL A   1      36.818  33.250  28.472  1.00  0.00     0.010 A 
ATOM     32  C   UNL A   1      35.695  32.246  30.370  1.00  0.00     0.010 A 
ATOM     33  C   UNL A   1      36.871  32.470  29.633  1.00  0.00    -0.014 A 
BRANCH  33  34
ATOM     34  C   UNL A   1      38.166  31.873  30.042  1.00  0.00     0.031 A 
ATOM     35  C   UNL A   1      39.025  32.555  31.068  1.00  0.00     0.074 A 
ATOM     36  C   UNL A   1      38.547  30.692  29.522  1.00  0.00     0.049 A 
ATOM     37  N   UNL A   1      40.197  32.198  31.530  1.00  0.00    -0.248 NA
ATOM     38  C   UNL A   1      38.503  33.804  31.644  1.00  0.00     0.031 C 
ATOM     39  C   UNL A   1      37.786  29.913  28.542  1.00  0.00     0.029 A 
ATOM     40  N   UNL A   1      39.665  29.934  29.759  1.00  0.00    -0.354 N 
ATOM     41  C   UNL A   1      40.562  33.185  32.435  1.00  0.00     0.074 A 
ATOM     42  C   UNL A   1      39.500  34.168  32.439  1.00  0.00     0.031 C 
ATOM     43  C   UNL A   1      38.451  28.776  28.278  1.00  0.00     0.029 A 
ATOM     44  C   UNL A   1      39.698  28.766  29.037  1.00  0.00     0.049 A 
ATOM     45  H   UNL A   1      40.375  30.201  30.386  1.00  0.00     0.167 HD
ATOM     46  C   UNL A   1      41.681  33.265  33.195  1.00  0.00     0.031 A 
ATOM     47  C   UNL A   1      40.631  27.799  28.986  1.00  0.00     0.031 A 
ATOM     48  C   UNL A   1      42.730  32.280  33.211  1.00  0.00     0.049 A 
ATOM     49  C   UNL A   1      41.869  27.921  29.826  1.00  0.00     0.074 A 
ATOM     50  C   UNL A   1      43.898  32.273  33.954  1.00  0.00     0.029 A 
ATOM     51  N   UNL A   1      42.732  31.119  32.454  1.00  0.00    -0.354 N 
ATOM     52  N   UNL A   1      42.208  28.868  30.665  1.00  0.00    -0.248 NA
ATOM     53  C   UNL A   1      42.851  26.832  29.716  1.00  0.00     0.031 C 
ATOM     54  C   UNL A   1      44.623  31.123  33.623  1.00  0.00     0.029 A 
ATOM     55  C   UNL A   1      43.885  30.394  32.705  1.00  0.00     0.049 A 
ATOM     56  H   UNL A   1      42.019  30.850  31.832  1.00  0.00     0.167 HD
ATOM     57  C   UNL A   1      43.430  28.482  31.198  1.00  0.00     0.074 A 
ATOM     58  C   UNL A   1      43.765  27.206  30.599  1.00  0.00     0.031 C 
ATOM     59  C   UNL A   1      44.205  29.127  32.102  1.00  0.00     0.031 A 
BRANCH  46  60
ATOM     60  C   UNL A   1      41.840  34.484  34.060  1.00  0.00    -0.014 A 
ATOM     61  C   UNL A   1      42.435  35.654  33.567  1.00  0.00     0.009 A 
ATOM     62  C   UNL A   1      41.355  34.467  35.377  1.00  0.00     0.009 A 
ATOM     63  C   UNL A   1      42.567  36.777  34.388  1.00  0.00     0.001 A 
ATOM     64  C   UNL A   1      41.468  35.598  36.187  1.00  0.00     0.001 A 
ATOM     65  C   UNL A   1      42.081  36.748  35.695  1.00  0.00     0.000 A 
ENDBRANCH  46  60
BRANCH  47  66
ATOM     66  C   UNL A   1      40.432  26.627  28.096  1.00  0.00    -0.014 A 
ATOM     67  C   UNL A   1      39.713  25.510  28.543  1.00  0.00     0.009 A 
ATOM     68  C   UNL A   1      40.963  26.624  26.798  1.00  0.00     0.009 A 
ATOM     69  C   UNL A   1      39.547  24.400  27.711  1.00  0.00     0.001 A 
ATOM     70  C   UNL A   1      40.774  25.524  25.960  1.00  0.00     0.001 A 
ATOM     71  C   UNL A   1      40.074  24.410  26.420  1.00  0.00     0.000 A 
ENDBRANCH  47  66
BRANCH  59  72
ATOM     72  C   UNL A   1      45.474  28.443  32.519  1.00  0.00    -0.014 A 
ATOM     73  C   UNL A   1      45.498  27.550  33.602  1.00  0.00     0.009 A 
ATOM     74  C   UNL A   1      46.661  28.686  31.810  1.00  0.00     0.009 A 
ATOM     75  C   UNL A   1      46.694  26.944  33.990  1.00  0.00     0.001 A 
ATOM     76  C   UNL A   1      47.850  28.062  32.186  1.00  0.00     0.001 A 
ATOM     77  C   UNL A   1      47.868  27.199  33.281  1.00  0.00     0.000 A 
ENDBRANCH  59  72
ENDBRANCH  33  34
ENDBRANCH  26  28
ENDBRANCH  25  26
ENDBRANCH  24  25
ENDBRANCH   1  24
TORSDOF 14
ENDMDL
MODEL 2
REMARK VINA RESULT:     -10.3      2.897      8.573
REMARK SMILES C[C@@H]1C(=O)NC(=O)CN1C(=O)NC1(CC(=O)OCCOC(=O)c2ccc(-c3c4nc(c(-c5ccccc5)c5ccc([nH]5)c(-c5ccccc5)c5nc(c(-c6ccccc6)c6ccc3[nH]6)C=C5)C=C4)cc2)CCC1
REMARK SMILES IDX 18 1 17 2 15 3 16 4 14 5 13 6 71 7 73 8 72 9 12 10 10 11
REMARK SMILES IDX 11 12 9 14 1 15 2 16 3 17 4 18 5 19 8 20 6 21 7 23 19 24
REMARK SMILES IDX 20 25 21 26 22 27 23 28 24 29 70 30 25 31 69 32 26 33 27 34
REMARK SMILES IDX 28 35 63 36 29 37 68 38 62 39 64 40 30 41 67 42 61 43 60 44
REMARK SMILES IDX 31 46 53 47 38 48 52 49 39 50 42 51 51 52 65 53 40 54 41 55
REMARK SMILES IDX 50 57 66 58 43 59 32 60 33 61 37 62 34 63 36 64 35 65 54 66
REMARK SMILES IDX 55 67 59 68 56 69 58 70 57 71 44 72 45 73 49 74 46 75 48 76
REMARK SMILES IDX 47 77
REMARK H PARENT 12 13 5 22 64 45 42 56
REMARK Flexibility Score: inf
ROOT
ATOM      1  C   UNL A   1      37.525  20.418  24.992  1.00  0.00     0.274 C 
ENDROOT
BRANCH   1   2
ATOM      2  O   UNL A   1      36.376  19.548  24.906  1.00  0.00    -0.462 OA
BRANCH   2   3
ATOM      3  C   UNL A   1      35.153  20.118  25.026  1.00  0.00     0.308 C 
ATOM      4  O   UNL A   1      34.124  19.653  24.549  1.00  0.00    -0.252 OA
BRANCH   3   5
ATOM      5  C   UNL A   1      35.181  21.461  25.717  1.00  0.00     0.151 C 
BRANCH   5   6
ATOM      6  C   UNL A   1      34.660  22.703  24.977  1.00  0.00     0.052 C 
ATOM      7  C   UNL A   1      35.282  22.955  23.562  1.00  0.00     0.029 C 
ATOM      8  C   UNL A   1      35.344  24.084  25.347  1.00  0.00     0.029 C 
ATOM      9  C   UNL A   1      36.357  23.827  24.228  1.00  0.00     0.005 C 
BRANCH   6  10
ATOM     10  N   UNL A   1      33.189  22.838  25.070  1.00  0.00    -0.332 N 
ATOM     11  C   UNL A   1      32.186  23.694  24.798  1.00  0.00     0.318 C 
ATOM     12  O   UNL A   1      31.078  23.321  25.205  1.00  0.00    -0.249 OA
ATOM     13  H   UNL A   1      32.814  22.018  25.466  1.00  0.00     0.165 HD
BRANCH  11  14
ATOM     14  N   UNL A   1      32.293  24.858  24.101  1.00  0.00    -0.304 N 
ATOM     15  C   UNL A   1      30.981  26.920  24.507  1.00  0.00     0.042 C 
ATOM     16  C   UNL A   1      32.351  26.233  24.598  1.00  0.00     0.174 C 
ATOM     17  C   UNL A   1      33.379  27.078  23.832  1.00  0.00     0.249 C 
ATOM     18  O   UNL A   1      33.835  28.126  24.290  1.00  0.00    -0.272 OA
ATOM     19  N   UNL A   1      33.622  26.734  22.528  1.00  0.00    -0.293 N 
ATOM     20  C   UNL A   1      32.182  24.736  22.635  1.00  0.00     0.222 C 
ATOM     21  C   UNL A   1      33.046  25.704  21.839  1.00  0.00     0.246 C 
ATOM     22  H   UNL A   1      34.276  27.285  22.040  1.00  0.00     0.173 HD
ATOM     23  O   UNL A   1      33.160  25.632  20.617  1.00  0.00    -0.273 OA
ENDBRANCH  11  14
ENDBRANCH   6  10
ENDBRANCH   5   6
ENDBRANCH   3   5
ENDBRANCH   2   3
ENDBRANCH   1   2
BRANCH   1  24
ATOM     24  C   UNL A   1      38.840  19.637  24.943  1.00  0.00     0.275 C 
BRANCH  24  25
ATOM     25  O   UNL A   1      39.533  19.695  26.204  1.00  0.00    -0.458 OA
BRANCH  25  26
ATOM     26  C   UNL A   1      40.881  19.707  26.101  1.00  0.00     0.338 C 
ATOM     27  O   UNL A   1      41.580  18.868  25.560  1.00  0.00    -0.246 OA
BRANCH  26  28
ATOM     28  C   UNL A   1      41.395  20.987  26.613  1.00  0.00     0.060 A 
ATOM     29  C   UNL A   1      41.279  21.243  27.981  1.00  0.00     0.016 A 
ATOM     30  C   UNL A   1      41.911  21.956  25.754  1.00  0.00     0.016 A 
ATOM     31  C   UNL A   1      41.626  22.488  28.493  1.00  0.00     0.010 A 
ATOM     32  C   UNL A   1      42.290  23.200  26.274  1.00  0.00     0.010 A 
ATOM     33  C   UNL A   1      42.127  23.480  27.643  1.00  0.00    -0.014 A 
BRANCH  33  34
ATOM     34  C   UNL A   1      42.448  24.815  28.203  1.00  0.00     0.031 A 
ATOM     35  C   UNL A   1      43.861  25.164  28.570  1.00  0.00     0.074 A 
ATOM     36  C   UNL A   1      41.472  25.732  28.337  1.00  0.00     0.049 A 
ATOM     37  N   UNL A   1      44.327  26.269  29.095  1.00  0.00    -0.248 NA
ATOM     38  C   UNL A   1      44.883  24.135  28.322  1.00  0.00     0.031 C 
ATOM     39  C   UNL A   1      40.065  25.527  27.986  1.00  0.00     0.029 A 
ATOM     40  N   UNL A   1      41.520  27.024  28.794  1.00  0.00    -0.354 N 
ATOM     41  C   UNL A   1      45.691  26.064  29.259  1.00  0.00     0.074 A 
ATOM     42  C   UNL A   1      45.973  24.720  28.801  1.00  0.00     0.031 C 
ATOM     43  C   UNL A   1      39.387  26.663  28.220  1.00  0.00     0.029 A 
ATOM     44  C   UNL A   1      40.302  27.657  28.773  1.00  0.00     0.049 A 
ATOM     45  H   UNL A   1      42.347  27.455  29.106  1.00  0.00     0.167 HD
ATOM     46  C   UNL A   1      46.624  26.917  29.746  1.00  0.00     0.031 A 
ATOM     47  C   UNL A   1      39.958  28.898  29.164  1.00  0.00     0.031 A 
ATOM     48  C   UNL A   1      46.352  28.261  30.183  1.00  0.00     0.049 A 
ATOM     49  C   UNL A   1      41.008  29.818  29.715  1.00  0.00     0.074 A 
ATOM     50  C   UNL A   1      47.236  29.202  30.684  1.00  0.00     0.029 A 
ATOM     51  N   UNL A   1      45.103  28.860  30.159  1.00  0.00    -0.354 N 
ATOM     52  N   UNL A   1      42.290  29.603  29.878  1.00  0.00    -0.248 NA
ATOM     53  C   UNL A   1      40.562  31.156  30.128  1.00  0.00     0.031 C 
ATOM     54  C   UNL A   1      46.515  30.360  30.996  1.00  0.00     0.029 A 
ATOM     55  C   UNL A   1      45.190  30.154  30.647  1.00  0.00     0.049 A 
ATOM     56  H   UNL A   1      44.277  28.430  29.842  1.00  0.00     0.167 HD
ATOM     57  C   UNL A   1      42.808  30.783  30.394  1.00  0.00     0.074 A 
ATOM     58  C   UNL A   1      41.704  31.715  30.501  1.00  0.00     0.031 C 
ATOM     59  C   UNL A   1      44.084  31.069  30.748  1.00  0.00     0.031 A 
BRANCH  46  60
ATOM     60  C   UNL A   1      48.033  26.407  29.856  1.00  0.00    -0.014 A 
ATOM     61  C   UNL A   1      48.490  25.778  31.024  1.00  0.00     0.009 A 
ATOM     62  C   UNL A   1      48.902  26.529  28.762  1.00  0.00     0.009 A 
ATOM     63  C   UNL A   1      49.803  25.307  31.103  1.00  0.00     0.001 A 
ATOM     64  C   UNL A   1      50.206  26.036  28.835  1.00  0.00     0.001 A 
ATOM     65  C   UNL A   1      50.658  25.433  30.008  1.00  0.00     0.000 A 
ENDBRANCH  46  60
BRANCH  47  66
ATOM     66  C   UNL A   1      38.546  29.342  29.052  1.00  0.00    -0.014 A 
ATOM     67  C   UNL A   1      38.060  29.872  27.848  1.00  0.00     0.009 A 
ATOM     68  C   UNL A   1      37.680  29.238  30.151  1.00  0.00     0.009 A 
ATOM     69  C   UNL A   1      36.737  30.310  27.753  1.00  0.00     0.001 A 
ATOM     70  C   UNL A   1      36.352  29.653  30.046  1.00  0.00     0.001 A 
ATOM     71  C   UNL A   1      35.884  30.196  28.851  1.00  0.00     0.000 A 
ENDBRANCH  47  66
BRANCH  59  72
ATOM     72  C   UNL A   1      44.354  32.456  31.252  1.00  0.00    -0.014 A 
ATOM     73  C   UNL A   1      44.692  33.497  30.373  1.00  0.00     0.009 A 
ATOM     74  C   UNL A   1      44.258  32.728  32.626  1.00  0.00     0.009 A 
ATOM     75  C   UNL A   1      44.965  34.774  30.865  1.00  0.00     0.001 A 
ATOM     76  C   UNL A   1      44.509  34.011  33.112  1.00  0.00     0.001 A 
ATOM     77  C   UNL A   1      44.872  35.031  32.233  1.00  0.00     0.000 A 
ENDBRANCH  59  72
ENDBRANCH  33  34
ENDBRANCH  26  28
ENDBRANCH  25  26
ENDBRANCH  24  25
ENDBRANCH   1  24
TORSDOF 14
ENDMDL
MODEL 3
REMARK VINA RESULT:     -10.2      2.075      3.354
REMARK SMILES C[C@@H]1C(=O)NC(=O)CN1C(=O)NC1(CC(=O)OCCOC(=O)c2ccc(-c3c4nc(c(-c5ccccc5)c5ccc([nH]5)c(-c5ccccc5)c5nc(c(-c6ccccc6)c6ccc3[nH]6)C=C5)C=C4)cc2)CCC1
REMARK SMILES IDX 18 1 17 2 15 3 16 4 14 5 13 6 71 7 73 8 72 9 12 10 10 11
REMARK SMILES IDX 11 12 9 14 1 15 2 16 3 17 4 18 5 19 8 20 6 21 7 23 19 24
REMARK SMILES IDX 20 25 21 26 22 27 23 28 24 29 70 30 25 31 69 32 26 33 27 34
REMARK SMILES IDX 28 35 63 36 29 37 68 38 62 39 64 40 30 41 67 42 61 43 60 44
REMARK SMILES IDX 31 46 53 47 38 48 52 49 39 50 42 51 51 52 65 53 40 54 41 55
REMARK SMILES IDX 50 57 66 58 43 59 32 60 33 61 37 62 34 63 36 64 35 65 54 66
REMARK SMILES IDX 55 67 59 68 56 69 58 70 57 71 44 72 45 73 49 74 46 75 48 76
REMARK SMILES IDX 47 77
REMARK H PARENT 12 13 5 22 64 45 42 56
REMARK Flexibility Score: inf
ROOT
ATOM      1  C   UNL A   1      31.923  29.778  25.976  1.00  0.00     0.274 C 
ENDROOT
BRANCH   1   2
ATOM      2  O   UNL A   1      32.791  29.694  24.826  1.00  0.00    -0.462 OA
BRANCH   2   3
ATOM      3  C   UNL A   1      33.105  28.457  24.371  1.00  0.00     0.308 C 
ATOM      4  O   UNL A   1      34.030  28.217  23.604  1.00  0.00    -0.252 OA
BRANCH   3   5
ATOM      5  C   UNL A   1      32.131  27.390  24.812  1.00  0.00     0.151 C 
BRANCH   5   6
ATOM      6  C   UNL A   1      31.476  26.484  23.759  1.00  0.00     0.052 C 
ATOM      7  C   UNL A   1      30.456  27.189  22.802  1.00  0.00     0.029 C 
ATOM      8  C   UNL A   1      30.211  25.652  24.231  1.00  0.00     0.029 C 
ATOM      9  C   UNL A   1      29.334  26.825  23.784  1.00  0.00     0.005 C 
BRANCH   6  10
ATOM     10  N   UNL A   1      32.451  25.578  23.111  1.00  0.00    -0.332 N 
ATOM     11  C   UNL A   1      33.151  24.448  23.326  1.00  0.00     0.318 C 
ATOM     12  O   UNL A   1      33.958  24.173  22.428  1.00  0.00    -0.249 OA
ATOM     13  H   UNL A   1      32.659  25.919  22.211  1.00  0.00     0.165 HD
BRANCH  11  14
ATOM     14  N   UNL A   1      33.006  23.605  24.386  1.00  0.00    -0.304 N 
ATOM     15  C   UNL A   1      34.288  23.702  26.503  1.00  0.00     0.042 C 
ATOM     16  C   UNL A   1      32.934  23.917  25.814  1.00  0.00     0.174 C 
ATOM     17  C   UNL A   1      31.873  23.071  26.533  1.00  0.00     0.249 C 
ATOM     18  O   UNL A   1      31.408  23.397  27.625  1.00  0.00    -0.272 OA
ATOM     19  N   UNL A   1      31.607  21.831  26.015  1.00  0.00    -0.293 N 
ATOM     20  C   UNL A   1      33.087  22.167  24.071  1.00  0.00     0.222 C 
ATOM     21  C   UNL A   1      32.186  21.271  24.910  1.00  0.00     0.246 C 
ATOM     22  H   UNL A   1      30.932  21.290  26.485  1.00  0.00     0.173 HD
ATOM     23  O   UNL A   1      32.047  20.073  24.675  1.00  0.00    -0.273 OA
ENDBRANCH  11  14
ENDBRANCH   6  10
ENDBRANCH   5   6
ENDBRANCH   3   5
ENDBRANCH   2   3
ENDBRANCH   1   2
BRANCH   1  24
ATOM     24  C   UNL A   1      32.592  30.499  27.149  1.00  0.00     0.275 C 
BRANCH  24  25
ATOM     25  O   UNL A   1      34.026  30.484  27.026  1.00  0.00    -0.458 OA
BRANCH  25  26
ATOM     26  C   UNL A   1      34.655  31.475  27.696  1.00  0.00     0.338 C 
ATOM     27  O   UNL A   1      34.268  32.623  27.838  1.00  0.00    -0.246 OA
BRANCH  26  28
ATOM     28  C   UNL A   1      35.834  30.924  28.383  1.00  0.00     0.060 A 
ATOM     29  C   UNL A   1      37.052  31.592  28.240  1.00  0.00     0.016 A 
ATOM     30  C   UNL A   1      35.764  29.724  29.091  1.00  0.00     0.016 A 
ATOM     31  C   UNL A   1      38.219  31.041  28.756  1.00  0.00     0.010 A 
ATOM     32  C   UNL A   1      36.935  29.184  29.638  1.00  0.00     0.010 A 
ATOM     33  C   UNL A   1      38.171  29.827  29.453  1.00  0.00    -0.014 A 
BRANCH  33  34
ATOM     34  C   UNL A   1      39.434  29.235  29.956  1.00  0.00     0.031 A 
ATOM     35  C   UNL A   1      40.070  29.756  31.212  1.00  0.00     0.074 A 
ATOM     36  C   UNL A   1      39.985  28.194  29.304  1.00  0.00     0.049 A 
ATOM     37  N   UNL A   1      41.184  29.382  31.789  1.00  0.00    -0.248 NA
ATOM     38  C   UNL A   1      39.366  30.845  31.908  1.00  0.00     0.031 C 
ATOM     39  C   UNL A   1      39.448  27.574  28.091  1.00  0.00     0.029 A 
ATOM     40  N   UNL A   1      41.114  27.466  29.582  1.00  0.00    -0.354 N 
ATOM     41  C   UNL A   1      41.327  30.200  32.902  1.00  0.00     0.074 A 
ATOM     42  C   UNL A   1      40.198  31.106  32.907  1.00  0.00     0.031 C 
ATOM     43  C   UNL A   1      40.237  26.545  27.742  1.00  0.00     0.029 A 
ATOM     44  C   UNL A   1      41.351  26.459  28.680  1.00  0.00     0.049 A 
ATOM     45  H   UNL A   1      41.697  27.648  30.354  1.00  0.00     0.167 HD
ATOM     46  C   UNL A   1      42.307  30.194  33.837  1.00  0.00     0.031 A 
ATOM     47  C   UNL A   1      42.359  25.570  28.611  1.00  0.00     0.031 A 
ATOM     48  C   UNL A   1      43.420  29.282  33.848  1.00  0.00     0.049 A 
ATOM     49  C   UNL A   1      43.442  25.597  29.651  1.00  0.00     0.074 A 
ATOM     50  C   UNL A   1      44.459  29.198  34.760  1.00  0.00     0.029 A 
ATOM     51  N   UNL A   1      43.631  28.286  32.909  1.00  0.00    -0.354 N 
ATOM     52  N   UNL A   1      43.570  26.386  30.688  1.00  0.00    -0.248 NA
ATOM     53  C   UNL A   1      44.515  24.602  29.511  1.00  0.00     0.031 C 
ATOM     54  C   UNL A   1      45.318  28.171  34.353  1.00  0.00     0.029 A 
ATOM     55  C   UNL A   1      44.790  27.589  33.212  1.00  0.00     0.049 A 
ATOM     56  H   UNL A   1      43.045  28.100  32.141  1.00  0.00     0.167 HD
ATOM     57  C   UNL A   1      44.726  25.973  31.337  1.00  0.00     0.074 A 
ATOM     58  C   UNL A   1      45.251  24.852  30.584  1.00  0.00     0.031 C 
ATOM     59  C   UNL A   1      45.300  26.477  32.454  1.00  0.00     0.031 A 
BRANCH  46  60
ATOM     60  C   UNL A   1      42.233  31.236  34.918  1.00  0.00    -0.014 A 
ATOM     61  C   UNL A   1      41.582  30.978  36.134  1.00  0.00     0.009 A 
ATOM     62  C   UNL A   1      42.852  32.480  34.726  1.00  0.00     0.009 A 
ATOM     63  C   UNL A   1      41.530  31.960  37.126  1.00  0.00     0.001 A 
ATOM     64  C   UNL A   1      42.818  33.450  35.729  1.00  0.00     0.001 A 
ATOM     65  C   UNL A   1      42.150  33.192  36.924  1.00  0.00     0.000 A 
ENDBRANCH  46  60
BRANCH  47  66
ATOM     66  C   UNL A   1      42.393  24.577  27.508  1.00  0.00    -0.014 A 
ATOM     67  C   UNL A   1      43.062  24.867  26.310  1.00  0.00     0.009 A 
ATOM     68  C   UNL A   1      41.756  23.335  27.651  1.00  0.00     0.009 A 
ATOM     69  C   UNL A   1      43.073  23.939  25.266  1.00  0.00     0.001 A 
ATOM     70  C   UNL A   1      41.790  22.400  26.617  1.00  0.00     0.001 A 
ATOM     71  C   UNL A   1      42.441  22.705  25.423  1.00  0.00     0.000 A 
ENDBRANCH  47  66
BRANCH  59  72
ATOM     72  C   UNL A   1      46.544  25.795  32.945  1.00  0.00    -0.014 A 
ATOM     73  C   UNL A   1      47.812  26.164  32.468  1.00  0.00     0.009 A 
ATOM     74  C   UNL A   1      46.447  24.779  33.907  1.00  0.00     0.009 A 
ATOM     75  C   UNL A   1      48.955  25.501  32.919  1.00  0.00     0.001 A 
ATOM     76  C   UNL A   1      47.592  24.132  34.372  1.00  0.00     0.001 A 
ATOM     77  C   UNL A   1      48.844  24.487  33.870  1.00  0.00     0.000 A 
ENDBRANCH  59  72
ENDBRANCH  33  34
ENDBRANCH  26  28
ENDBRANCH  25  26
ENDBRANCH  24  25
ENDBRANCH   1  24
TORSDOF 14
ENDMDL
