MODEL 1
REMARK VINA RESULT:     -11.6      0.000      0.000
REMARK SMILES CN(C)C(=O)c1cccc(N2CCC3(CC2)[C@H](C(=O)OCCOC(=O)c2ccc(-c4c5nc(c(-c6ccccc6)c6ccc([nH]6)c(-c6ccccc6)c6nc(c(-c7ccccc7)c7ccc4[nH]7)C=C6)C=C5)cc2)CC(=O)N3C)n1
REMARK SMILES IDX 21 1 20 2 18 3 19 4 17 5 11 6 12 7 16 8 13 9 15 10 14 11
REMARK SMILES IDX 77 12 74 13 75 14 78 15 76 16 10 17 6 18 7 19 79 20 8 21
REMARK SMILES IDX 9 22 4 23 1 24 2 25 3 26 5 27 22 28 23 29 24 30 25 31 26 32
REMARK SMILES IDX 27 33 73 34 28 35 72 36 29 37 30 38 31 39 66 40 32 41 71 42
REMARK SMILES IDX 65 43 67 44 33 45 70 46 64 47 63 48 34 50 56 51 41 52 55 53
REMARK SMILES IDX 42 54 45 55 54 56 68 57 43 58 44 59 53 61 69 62 46 63 35 64
REMARK SMILES IDX 36 65 40 66 37 67 39 68 38 69 57 70 58 71 62 72 59 73 61 74
REMARK SMILES IDX 60 75 47 76 48 77 52 78 49 79 51 80 50 81
REMARK H PARENT 67 49 45 60
REMARK Flexibility Score: inf
ROOT
ATOM      1  C   UNL A   1      31.214  32.026  26.095  1.00  0.00     0.274 C 
ENDROOT
BRANCH   1   2
ATOM      2  O   UNL A   1      31.028  30.596  26.027  1.00  0.00    -0.462 OA
BRANCH   2   3
ATOM      3  C   UNL A   1      32.015  29.905  25.421  1.00  0.00     0.311 C 
ATOM      4  O   UNL A   1      33.207  30.039  25.687  1.00  0.00    -0.252 OA
BRANCH   3   5
ATOM      5  C   UNL A   1      31.577  28.966  24.315  1.00  0.00     0.134 C 
ATOM      6  N   UNL A   1      32.227  24.990  25.601  1.00  0.00    -0.356 N 
ATOM      7  C   UNL A   1      31.046  25.516  26.265  1.00  0.00     0.120 C 
ATOM      8  C   UNL A   1      32.239  25.122  24.155  1.00  0.00     0.120 C 
ATOM      9  C   UNL A   1      31.001  27.030  26.014  1.00  0.00     0.051 C 
ATOM     10  C   UNL A   1      32.215  26.604  23.805  1.00  0.00     0.051 C 
ATOM     11  C   UNL A   1      31.142  27.471  24.537  1.00  0.00     0.060 C 
ATOM     12  N   UNL A   1      29.841  27.433  23.829  1.00  0.00    -0.339 N 
ATOM     13  C   UNL A   1      30.509  29.658  23.477  1.00  0.00     0.118 C 
ATOM     14  C   UNL A   1      29.442  28.639  23.279  1.00  0.00     0.223 C 
ATOM     15  C   UNL A   1      28.929  26.306  23.821  1.00  0.00     0.147 C 
ATOM     16  O   UNL A   1      28.389  28.862  22.702  1.00  0.00    -0.275 OA
BRANCH   6  17
ATOM     17  C   UNL A   1      32.892  23.912  26.168  1.00  0.00     0.129 A 
ATOM     18  C   UNL A   1      34.691  22.450  26.256  1.00  0.00     0.130 A 
ATOM     19  C   UNL A   1      34.196  21.787  27.373  1.00  0.00     0.034 A 
ATOM     20  N   UNL A   1      34.062  23.493  25.648  1.00  0.00    -0.226 NA
ATOM     21  C   UNL A   1      32.970  22.188  27.872  1.00  0.00     0.006 A 
ATOM     22  C   UNL A   1      32.319  23.257  27.263  1.00  0.00     0.047 A 
BRANCH  18  23
ATOM     23  C   UNL A   1      36.038  22.076  25.726  1.00  0.00     0.272 C 
ATOM     24  C   UNL A   1      37.607  20.381  24.928  1.00  0.00     0.146 C 
ATOM     25  N   UNL A   1      36.244  20.780  25.234  1.00  0.00    -0.343 N 
ATOM     26  C   UNL A   1      35.187  19.850  24.865  1.00  0.00     0.146 C 
ATOM     27  O   UNL A   1      36.948  22.904  25.790  1.00  0.00    -0.267 OA
ENDBRANCH  18  23
ENDBRANCH   6  17
ENDBRANCH   3   5
ENDBRANCH   2   3
ENDBRANCH   1   2
BRANCH   1  28
ATOM     28  C   UNL A   1      31.880  32.455  27.407  1.00  0.00     0.275 C 
BRANCH  28  29
ATOM     29  O   UNL A   1      32.435  33.783  27.308  1.00  0.00    -0.458 OA
BRANCH  29  30
ATOM     30  C   UNL A   1      33.002  34.267  28.435  1.00  0.00     0.338 C 
ATOM     31  O   UNL A   1      32.563  35.119  29.185  1.00  0.00    -0.246 OA
BRANCH  30  32
ATOM     32  C   UNL A   1      34.273  33.582  28.706  1.00  0.00     0.060 A 
ATOM     33  C   UNL A   1      34.385  32.786  29.847  1.00  0.00     0.016 A 
ATOM     34  C   UNL A   1      35.393  33.868  27.927  1.00  0.00     0.016 A 
ATOM     35  C   UNL A   1      35.629  32.298  30.239  1.00  0.00     0.010 A 
ATOM     36  C   UNL A   1      36.636  33.347  28.299  1.00  0.00     0.010 A 
ATOM     37  C   UNL A   1      36.765  32.579  29.470  1.00  0.00    -0.014 A 
BRANCH  37  38
ATOM     38  C   UNL A   1      38.096  32.089  29.902  1.00  0.00     0.031 A 
ATOM     39  C   UNL A   1      38.627  30.785  29.378  1.00  0.00     0.074 A 
ATOM     40  C   UNL A   1      38.825  32.817  30.769  1.00  0.00     0.049 A 
ATOM     41  N   UNL A   1      39.706  30.132  29.729  1.00  0.00    -0.248 NA
ATOM     42  C   UNL A   1      37.843  30.128  28.321  1.00  0.00     0.031 C 
ATOM     43  C   UNL A   1      38.438  34.120  31.314  1.00  0.00     0.029 A 
ATOM     44  N   UNL A   1      40.040  32.558  31.349  1.00  0.00    -0.354 N 
ATOM     45  C   UNL A   1      39.714  28.975  28.962  1.00  0.00     0.074 A 
ATOM     46  C   UNL A   1      38.532  29.011  28.127  1.00  0.00     0.031 C 
ATOM     47  C   UNL A   1      39.401  34.548  32.146  1.00  0.00     0.029 A 
ATOM     48  C   UNL A   1      40.439  33.527  32.236  1.00  0.00     0.049 A 
ATOM     49  H   UNL A   1      40.575  31.756  31.147  1.00  0.00     0.167 HD
ATOM     50  C   UNL A   1      40.622  27.970  28.960  1.00  0.00     0.031 A 
ATOM     51  C   UNL A   1      41.503  33.571  33.059  1.00  0.00     0.031 A 
ATOM     52  C   UNL A   1      41.801  27.940  29.785  1.00  0.00     0.049 A 
ATOM     53  C   UNL A   1      42.469  32.421  33.073  1.00  0.00     0.074 A 
ATOM     54  C   UNL A   1      42.784  26.968  29.850  1.00  0.00     0.029 A 
ATOM     55  N   UNL A   1      42.157  28.930  30.686  1.00  0.00    -0.354 N 
ATOM     56  N   UNL A   1      42.453  31.323  32.358  1.00  0.00    -0.248 NA
ATOM     57  C   UNL A   1      43.595  32.516  34.011  1.00  0.00     0.031 C 
ATOM     58  C   UNL A   1      43.718  27.354  30.819  1.00  0.00     0.029 A 
ATOM     59  C   UNL A   1      43.336  28.587  31.324  1.00  0.00     0.049 A 
ATOM     60  H   UNL A   1      41.647  29.757  30.848  1.00  0.00     0.167 HD
ATOM     61  C   UNL A   1      43.572  30.602  32.749  1.00  0.00     0.074 A 
ATOM     62  C   UNL A   1      44.254  31.395  33.752  1.00  0.00     0.031 C 
ATOM     63  C   UNL A   1      43.997  29.389  32.320  1.00  0.00     0.031 A 
BRANCH  50  64
ATOM     64  C   UNL A   1      40.356  26.796  28.062  1.00  0.00    -0.014 A 
ATOM     65  C   UNL A   1      40.881  26.735  26.763  1.00  0.00     0.009 A 
ATOM     66  C   UNL A   1      39.607  25.710  28.546  1.00  0.00     0.009 A 
ATOM     67  C   UNL A   1      40.640  25.621  25.956  1.00  0.00     0.001 A 
ATOM     68  C   UNL A   1      39.385  24.590  27.744  1.00  0.00     0.001 A 
ATOM     69  C   UNL A   1      39.897  24.548  26.448  1.00  0.00     0.000 A 
ENDBRANCH  50  64
BRANCH  51  70
ATOM     70  C   UNL A   1      41.685  34.730  33.968  1.00  0.00    -0.014 A 
ATOM     71  C   UNL A   1      42.424  35.850  33.561  1.00  0.00     0.009 A 
ATOM     72  C   UNL A   1      41.115  34.721  35.252  1.00  0.00     0.009 A 
ATOM     73  C   UNL A   1      42.599  36.932  34.426  1.00  0.00     0.001 A 
ATOM     74  C   UNL A   1      41.270  35.815  36.104  1.00  0.00     0.001 A 
ATOM     75  C   UNL A   1      42.020  36.916  35.694  1.00  0.00     0.000 A 
ENDBRANCH  51  70
BRANCH  63  76
ATOM     76  C   UNL A   1      45.271  28.867  32.914  1.00  0.00    -0.014 A 
ATOM     77  C   UNL A   1      45.256  28.046  34.052  1.00  0.00     0.009 A 
ATOM     78  C   UNL A   1      46.498  29.181  32.312  1.00  0.00     0.009 A 
ATOM     79  C   UNL A   1      46.453  27.574  34.594  1.00  0.00     0.001 A 
ATOM     80  C   UNL A   1      47.691  28.689  32.843  1.00  0.00     0.001 A 
ATOM     81  C   UNL A   1      47.669  27.893  33.988  1.00  0.00     0.000 A 
ENDBRANCH  63  76
ENDBRANCH  37  38
ENDBRANCH  30  32
ENDBRANCH  29  30
ENDBRANCH  28  29
ENDBRANCH   1  28
TORSDOF 13
ENDMDL
MODEL 2
REMARK VINA RESULT:     -11.6      2.806      8.921
REMARK SMILES CN(C)C(=O)c1cccc(N2CCC3(CC2)[C@H](C(=O)OCCOC(=O)c2ccc(-c4c5nc(c(-c6ccccc6)c6ccc([nH]6)c(-c6ccccc6)c6nc(c(-c7ccccc7)c7ccc4[nH]7)C=C6)C=C5)cc2)CC(=O)N3C)n1
REMARK SMILES IDX 21 1 20 2 18 3 19 4 17 5 11 6 12 7 16 8 13 9 15 10 14 11
REMARK SMILES IDX 77 12 74 13 75 14 78 15 76 16 10 17 6 18 7 19 79 20 8 21
REMARK SMILES IDX 9 22 4 23 1 24 2 25 3 26 5 27 22 28 23 29 24 30 25 31 26 32
REMARK SMILES IDX 27 33 73 34 28 35 72 36 29 37 30 38 31 39 66 40 32 41 71 42
REMARK SMILES IDX 65 43 67 44 33 45 70 46 64 47 63 48 34 50 56 51 41 52 55 53
REMARK SMILES IDX 42 54 45 55 54 56 68 57 43 58 44 59 53 61 69 62 46 63 35 64
REMARK SMILES IDX 36 65 40 66 37 67 39 68 38 69 57 70 58 71 62 72 59 73 61 74
REMARK SMILES IDX 60 75 47 76 48 77 52 78 49 79 51 80 50 81
REMARK H PARENT 67 49 45 60
REMARK Flexibility Score: inf
ROOT
ATOM      1  C   UNL A   1      38.759  21.425  25.573  1.00  0.00     0.274 C 
ENDROOT
BRANCH   1   2
ATOM      2  O   UNL A   1      37.464  21.731  25.013  1.00  0.00    -0.462 OA
BRANCH   2   3
ATOM      3  C   UNL A   1      36.752  22.673  25.663  1.00  0.00     0.311 C 
ATOM      4  O   UNL A   1      37.242  23.697  26.134  1.00  0.00    -0.252 OA
BRANCH   3   5
ATOM      5  C   UNL A   1      35.278  22.373  25.848  1.00  0.00     0.134 C 
ATOM      6  N   UNL A   1      33.105  25.963  25.322  1.00  0.00    -0.356 N 
ATOM      7  C   UNL A   1      33.526  25.468  24.022  1.00  0.00     0.120 C 
ATOM      8  C   UNL A   1      32.409  25.002  26.159  1.00  0.00     0.120 C 
ATOM      9  C   UNL A   1      34.547  24.345  24.254  1.00  0.00     0.051 C 
ATOM     10  C   UNL A   1      33.356  23.849  26.460  1.00  0.00     0.051 C 
ATOM     11  C   UNL A   1      34.111  23.234  25.240  1.00  0.00     0.060 C 
ATOM     12  N   UNL A   1      33.297  22.195  24.567  1.00  0.00    -0.339 N 
ATOM     13  C   UNL A   1      35.027  20.911  25.502  1.00  0.00     0.118 C 
ATOM     14  C   UNL A   1      33.806  20.911  24.651  1.00  0.00     0.223 C 
ATOM     15  C   UNL A   1      32.143  22.455  23.727  1.00  0.00     0.147 C 
ATOM     16  O   UNL A   1      33.341  19.908  24.131  1.00  0.00    -0.275 OA
BRANCH   6  17
ATOM     17  C   UNL A   1      32.785  27.306  25.458  1.00  0.00     0.129 A 
ATOM     18  C   UNL A   1      31.570  29.180  24.830  1.00  0.00     0.130 A 
ATOM     19  C   UNL A   1      32.153  29.979  25.807  1.00  0.00     0.034 A 
ATOM     20  N   UNL A   1      31.872  27.866  24.641  1.00  0.00    -0.226 NA
ATOM     21  C   UNL A   1      33.127  29.413  26.610  1.00  0.00     0.006 A 
ATOM     22  C   UNL A   1      33.440  28.069  26.431  1.00  0.00     0.047 A 
BRANCH  18  23
ATOM     23  C   UNL A   1      30.477  29.748  23.983  1.00  0.00     0.272 C 
ATOM     24  C   UNL A   1      29.261  29.829  21.866  1.00  0.00     0.146 C 
ATOM     25  N   UNL A   1      30.171  29.136  22.759  1.00  0.00    -0.343 N 
ATOM     26  C   UNL A   1      30.576  27.792  22.375  1.00  0.00     0.146 C 
ATOM     27  O   UNL A   1      29.913  30.777  24.359  1.00  0.00    -0.267 OA
ENDBRANCH  18  23
ENDBRANCH   6  17
ENDBRANCH   3   5
ENDBRANCH   2   3
ENDBRANCH   1   2
BRANCH   1  28
ATOM     28  C   UNL A   1      39.116  19.943  25.414  1.00  0.00     0.275 C 
BRANCH  28  29
ATOM     29  O   UNL A   1      40.031  19.507  26.440  1.00  0.00    -0.458 OA
BRANCH  29  30
ATOM     30  C   UNL A   1      41.344  19.621  26.141  1.00  0.00     0.338 C 
ATOM     31  O   UNL A   1      42.044  18.827  25.540  1.00  0.00    -0.246 OA
BRANCH  30  32
ATOM     32  C   UNL A   1      41.869  20.910  26.610  1.00  0.00     0.060 A 
ATOM     33  C   UNL A   1      41.686  21.273  27.945  1.00  0.00     0.016 A 
ATOM     34  C   UNL A   1      42.383  21.824  25.691  1.00  0.00     0.016 A 
ATOM     35  C   UNL A   1      41.984  22.566  28.365  1.00  0.00     0.010 A 
ATOM     36  C   UNL A   1      42.718  23.111  26.120  1.00  0.00     0.010 A 
ATOM     37  C   UNL A   1      42.498  23.498  27.454  1.00  0.00    -0.014 A 
BRANCH  37  38
ATOM     38  C   UNL A   1      42.785  24.885  27.890  1.00  0.00     0.031 A 
ATOM     39  C   UNL A   1      44.192  25.300  28.213  1.00  0.00     0.074 A 
ATOM     40  C   UNL A   1      41.777  25.771  27.999  1.00  0.00     0.049 A 
ATOM     41  N   UNL A   1      44.625  26.424  28.725  1.00  0.00    -0.248 NA
ATOM     42  C   UNL A   1      45.253  24.322  27.922  1.00  0.00     0.031 C 
ATOM     43  C   UNL A   1      40.375  25.503  27.671  1.00  0.00     0.029 A 
ATOM     44  N   UNL A   1      41.778  27.075  28.423  1.00  0.00    -0.354 N 
ATOM     45  C   UNL A   1      46.001  26.278  28.848  1.00  0.00     0.074 A 
ATOM     46  C   UNL A   1      46.333  24.956  28.359  1.00  0.00     0.031 C 
ATOM     47  C   UNL A   1      39.653  26.610  27.904  1.00  0.00     0.029 A 
ATOM     48  C   UNL A   1      40.529  27.642  28.448  1.00  0.00     0.049 A 
ATOM     49  H   UNL A   1      42.597  27.558  28.683  1.00  0.00     0.167 HD
ATOM     50  C   UNL A   1      46.903  27.164  29.331  1.00  0.00     0.031 A 
ATOM     51  C   UNL A   1      40.126  28.846  28.895  1.00  0.00     0.031 A 
ATOM     52  C   UNL A   1      46.572  28.481  29.808  1.00  0.00     0.049 A 
ATOM     53  C   UNL A   1      41.140  29.792  29.472  1.00  0.00     0.074 A 
ATOM     54  C   UNL A   1      47.417  29.455  30.312  1.00  0.00     0.029 A 
ATOM     55  N   UNL A   1      45.291  29.010  29.837  1.00  0.00    -0.354 N 
ATOM     56  N   UNL A   1      42.434  29.633  29.602  1.00  0.00    -0.248 NA
ATOM     57  C   UNL A   1      40.635  31.079  29.967  1.00  0.00     0.031 C 
ATOM     58  C   UNL A   1      46.641  30.560  30.680  1.00  0.00     0.029 A 
ATOM     59  C   UNL A   1      45.319  30.289  30.364  1.00  0.00     0.049 A 
ATOM     60  H   UNL A   1      44.481  28.544  29.527  1.00  0.00     0.167 HD
ATOM     61  C   UNL A   1      42.901  30.805  30.181  1.00  0.00     0.074 A 
ATOM     62  C   UNL A   1      41.754  31.671  30.361  1.00  0.00     0.031 C 
ATOM     63  C   UNL A   1      44.167  31.133  30.537  1.00  0.00     0.031 A 
BRANCH  50  64
ATOM     64  C   UNL A   1      48.337  26.725  29.405  1.00  0.00    -0.014 A 
ATOM     65  C   UNL A   1      49.244  27.011  28.373  1.00  0.00     0.009 A 
ATOM     66  C   UNL A   1      48.798  26.056  30.551  1.00  0.00     0.009 A 
ATOM     67  C   UNL A   1      50.579  26.612  28.476  1.00  0.00     0.001 A 
ATOM     68  C   UNL A   1      50.137  25.678  30.659  1.00  0.00     0.001 A 
ATOM     69  C   UNL A   1      51.026  25.951  29.620  1.00  0.00     0.000 A 
ENDBRANCH  50  64
BRANCH  51  70
ATOM     70  C   UNL A   1      38.686  29.206  28.852  1.00  0.00    -0.014 A 
ATOM     71  C   UNL A   1      38.107  29.701  27.675  1.00  0.00     0.009 A 
ATOM     72  C   UNL A   1      37.882  29.050  29.993  1.00  0.00     0.009 A 
ATOM     73  C   UNL A   1      36.754  30.048  27.646  1.00  0.00     0.001 A 
ATOM     74  C   UNL A   1      36.524  29.372  29.952  1.00  0.00     0.001 A 
ATOM     75  C   UNL A   1      35.964  29.879  28.782  1.00  0.00     0.000 A 
ENDBRANCH  51  70
BRANCH  63  76
ATOM     76  C   UNL A   1      44.374  32.497  31.126  1.00  0.00    -0.014 A 
ATOM     77  C   UNL A   1      44.321  32.702  32.514  1.00  0.00     0.009 A 
ATOM     78  C   UNL A   1      44.649  33.584  30.283  1.00  0.00     0.009 A 
ATOM     79  C   UNL A   1      44.511  33.979  33.043  1.00  0.00     0.001 A 
ATOM     80  C   UNL A   1      44.860  34.855  30.818  1.00  0.00     0.001 A 
ATOM     81  C   UNL A   1      44.783  35.054  32.196  1.00  0.00     0.000 A 
ENDBRANCH  63  76
ENDBRANCH  37  38
ENDBRANCH  30  32
ENDBRANCH  29  30
ENDBRANCH  28  29
ENDBRANCH   1  28
TORSDOF 13
ENDMDL
MODEL 3
REMARK VINA RESULT:     -11.5      1.015      5.872
REMARK SMILES CN(C)C(=O)c1cccc(N2CCC3(CC2)[C@H](C(=O)OCCOC(=O)c2ccc(-c4c5nc(c(-c6ccccc6)c6ccc([nH]6)c(-c6ccccc6)c6nc(c(-c7ccccc7)c7ccc4[nH]7)C=C6)C=C5)cc2)CC(=O)N3C)n1
REMARK SMILES IDX 21 1 20 2 18 3 19 4 17 5 11 6 12 7 16 8 13 9 15 10 14 11
REMARK SMILES IDX 77 12 74 13 75 14 78 15 76 16 10 17 6 18 7 19 79 20 8 21
REMARK SMILES IDX 9 22 4 23 1 24 2 25 3 26 5 27 22 28 23 29 24 30 25 31 26 32
REMARK SMILES IDX 27 33 73 34 28 35 72 36 29 37 30 38 31 39 66 40 32 41 71 42
REMARK SMILES IDX 65 43 67 44 33 45 70 46 64 47 63 48 34 50 56 51 41 52 55 53
REMARK SMILES IDX 42 54 45 55 54 56 68 57 43 58 44 59 53 61 69 62 46 63 35 64
REMARK SMILES IDX 36 65 40 66 37 67 39 68 38 69 57 70 58 71 62 72 59 73 61 74
REMARK SMILES IDX 60 75 47 76 48 77 52 78 49 79 51 80 50 81
REMARK H PARENT 67 49 45 60
REMARK Flexibility Score: inf
ROOT
ATOM      1  C   UNL A   1      32.347  31.032  26.884  1.00  0.00     0.274 C 
ENDROOT
BRANCH   1   2
ATOM      2  O   UNL A   1      31.519  30.419  25.873  1.00  0.00    -0.462 OA
BRANCH   2   3
ATOM      3  C   UNL A   1      32.153  29.587  25.022  1.00  0.00     0.311 C 
ATOM      4  O   UNL A   1      33.350  29.318  25.093  1.00  0.00    -0.252 OA
BRANCH   3   5
ATOM      5  C   UNL A   1      31.307  29.027  23.897  1.00  0.00     0.134 C 
ATOM      6  N   UNL A   1      31.675  24.814  23.916  1.00  0.00    -0.356 N 
ATOM      7  C   UNL A   1      30.801  25.218  25.005  1.00  0.00     0.120 C 
ATOM      8  C   UNL A   1      31.328  25.342  22.608  1.00  0.00     0.120 C 
ATOM      9  C   UNL A   1      30.917  26.741  25.159  1.00  0.00     0.051 C 
ATOM     10  C   UNL A   1      31.432  26.860  22.658  1.00  0.00     0.051 C 
ATOM     11  C   UNL A   1      30.729  27.564  23.861  1.00  0.00     0.060 C 
ATOM     12  N   UNL A   1      29.297  27.820  23.577  1.00  0.00    -0.339 N 
ATOM     13  C   UNL A   1      30.172  30.000  23.605  1.00  0.00     0.118 C 
ATOM     14  C   UNL A   1      28.951  29.156  23.483  1.00  0.00     0.223 C 
ATOM     15  C   UNL A   1      28.259  26.807  23.559  1.00  0.00     0.147 C 
ATOM     16  O   UNL A   1      27.829  29.607  23.311  1.00  0.00    -0.275 OA
BRANCH   6  17
ATOM     17  C   UNL A   1      32.298  23.576  23.980  1.00  0.00     0.129 A 
ATOM     18  C   UNL A   1      34.070  22.222  24.622  1.00  0.00     0.130 A 
ATOM     19  C   UNL A   1      33.470  21.071  24.123  1.00  0.00     0.034 A 
ATOM     20  N   UNL A   1      33.511  23.461  24.556  1.00  0.00    -0.226 NA
ATOM     21  C   UNL A   1      32.249  21.202  23.488  1.00  0.00     0.006 A 
ATOM     22  C   UNL A   1      31.663  22.463  23.419  1.00  0.00     0.047 A 
BRANCH  18  23
ATOM     23  C   UNL A   1      35.364  22.106  25.361  1.00  0.00     0.272 C 
ATOM     24  C   UNL A   1      37.798  21.897  25.353  1.00  0.00     0.146 C 
ATOM     25  N   UNL A   1      36.569  22.227  24.654  1.00  0.00    -0.343 N 
ATOM     26  C   UNL A   1      36.701  22.797  23.322  1.00  0.00     0.146 C 
ATOM     27  O   UNL A   1      35.335  21.848  26.565  1.00  0.00    -0.267 OA
ENDBRANCH  18  23
ENDBRANCH   6  17
ENDBRANCH   3   5
ENDBRANCH   2   3
ENDBRANCH   1   2
BRANCH   1  28
ATOM     28  C   UNL A   1      31.857  32.438  27.250  1.00  0.00     0.275 C 
BRANCH  28  29
ATOM     29  O   UNL A   1      32.925  33.405  27.178  1.00  0.00    -0.458 OA
BRANCH  29  30
ATOM     30  C   UNL A   1      33.168  34.095  28.314  1.00  0.00     0.338 C 
ATOM     31  O   UNL A   1      32.464  34.938  28.840  1.00  0.00    -0.246 OA
BRANCH  30  32
ATOM     32  C   UNL A   1      34.436  33.664  28.917  1.00  0.00     0.060 A 
ATOM     33  C   UNL A   1      35.630  33.917  28.240  1.00  0.00     0.016 A 
ATOM     34  C   UNL A   1      34.423  32.863  30.058  1.00  0.00     0.016 A 
ATOM     35  C   UNL A   1      36.818  33.341  28.680  1.00  0.00     0.010 A 
ATOM     36  C   UNL A   1      35.622  32.315  30.522  1.00  0.00     0.010 A 
ATOM     37  C   UNL A   1      36.823  32.531  29.823  1.00  0.00    -0.014 A 
BRANCH  37  38
ATOM     38  C   UNL A   1      38.080  31.889  30.275  1.00  0.00     0.031 A 
ATOM     39  C   UNL A   1      38.951  32.568  31.294  1.00  0.00     0.074 A 
ATOM     40  C   UNL A   1      38.440  30.695  29.766  1.00  0.00     0.049 A 
ATOM     41  N   UNL A   1      40.141  32.228  31.721  1.00  0.00    -0.248 NA
ATOM     42  C   UNL A   1      38.415  33.789  31.913  1.00  0.00     0.031 C 
ATOM     43  C   UNL A   1      37.657  29.915  28.805  1.00  0.00     0.029 A 
ATOM     44  N   UNL A   1      39.560  29.935  29.981  1.00  0.00    -0.354 N 
ATOM     45  C   UNL A   1      40.509  33.208  32.633  1.00  0.00     0.074 A 
ATOM     46  C   UNL A   1      39.419  34.158  32.697  1.00  0.00     0.031 C 
ATOM     47  C   UNL A   1      38.321  28.784  28.516  1.00  0.00     0.029 A 
ATOM     48  C   UNL A   1      39.596  28.789  29.226  1.00  0.00     0.049 A 
ATOM     49  H   UNL A   1      40.269  30.187  30.616  1.00  0.00     0.167 HD
ATOM     50  C   UNL A   1      41.655  33.309  33.347  1.00  0.00     0.031 A 
ATOM     51  C   UNL A   1      40.563  27.864  29.091  1.00  0.00     0.031 A 
ATOM     52  C   UNL A   1      42.734  32.358  33.287  1.00  0.00     0.049 A 
ATOM     53  C   UNL A   1      41.846  28.025  29.856  1.00  0.00     0.074 A 
ATOM     54  C   UNL A   1      43.935  32.370  33.976  1.00  0.00     0.029 A 
ATOM     55  N   UNL A   1      42.740  31.222  32.493  1.00  0.00    -0.354 N 
ATOM     56  N   UNL A   1      42.189  28.968  30.699  1.00  0.00    -0.248 NA
ATOM     57  C   UNL A   1      42.874  26.997  29.646  1.00  0.00     0.031 C 
ATOM     58  C   UNL A   1      44.683  31.259  33.571  1.00  0.00     0.029 A 
ATOM     59  C   UNL A   1      43.929  30.534  32.663  1.00  0.00     0.049 A 
ATOM     60  H   UNL A   1      42.007  30.945  31.898  1.00  0.00     0.167 HD
ATOM     61  C   UNL A   1      43.467  28.640  31.130  1.00  0.00     0.074 A 
ATOM     62  C   UNL A   1      43.830  27.403  30.470  1.00  0.00     0.031 C 
ATOM     63  C   UNL A   1      44.271  29.306  31.994  1.00  0.00     0.031 A 
BRANCH  50  64
ATOM     64  C   UNL A   1      41.821  34.513  34.228  1.00  0.00    -0.014 A 
ATOM     65  C   UNL A   1      42.338  35.718  33.729  1.00  0.00     0.009 A 
ATOM     66  C   UNL A   1      41.406  34.453  35.569  1.00  0.00     0.009 A 
ATOM     67  C   UNL A   1      42.460  36.832  34.563  1.00  0.00     0.001 A 
ATOM     68  C   UNL A   1      41.510  35.574  36.393  1.00  0.00     0.001 A 
ATOM     69  C   UNL A   1      42.041  36.761  35.892  1.00  0.00     0.000 A 
ENDBRANCH  50  64
BRANCH  51  70
ATOM     70  C   UNL A   1      40.370  26.724  28.160  1.00  0.00    -0.014 A 
ATOM     71  C   UNL A   1      40.894  26.764  26.860  1.00  0.00     0.009 A 
ATOM     72  C   UNL A   1      39.659  25.584  28.572  1.00  0.00     0.009 A 
ATOM     73  C   UNL A   1      40.699  25.692  25.987  1.00  0.00     0.001 A 
ATOM     74  C   UNL A   1      39.489  24.504  27.705  1.00  0.00     0.001 A 
ATOM     75  C   UNL A   1      40.001  24.562  26.411  1.00  0.00     0.000 A 
ENDBRANCH  51  70
BRANCH  63  76
ATOM     76  C   UNL A   1      45.605  28.689  32.292  1.00  0.00    -0.014 A 
ATOM     77  C   UNL A   1      45.770  27.800  33.365  1.00  0.00     0.009 A 
ATOM     78  C   UNL A   1      46.705  28.983  31.472  1.00  0.00     0.009 A 
ATOM     79  C   UNL A   1      47.021  27.240  33.628  1.00  0.00     0.001 A 
ATOM     80  C   UNL A   1      47.949  28.404  31.725  1.00  0.00     0.001 A 
ATOM     81  C   UNL A   1      48.108  27.540  32.808  1.00  0.00     0.000 A 
ENDBRANCH  63  76
ENDBRANCH  37  38
ENDBRANCH  30  32
ENDBRANCH  29  30
ENDBRANCH  28  29
ENDBRANCH   1  28
TORSDOF 13
ENDMDL
