MODEL 1
REMARK VINA RESULT:     -10.8      0.000      0.000
REMARK SMILES Cc1occc1-c1nnnn1C[C@@H](CC(C)C)C(=O)OCCOC(=O)c1ccc(-c2c3nc(c(-c4ccccc4)c4ccc([nH]4)c(-c4ccccc4)c4nc(c(-c5ccccc5)c5ccc2[nH]5)C=C4)C=C3)cc1
REMARK SMILES IDX 21 1 20 2 18 3 19 4 13 5 12 6 11 7 7 8 8 9 9 10 10 11 6 12
REMARK SMILES IDX 1 13 2 14 3 15 4 16 5 17 14 18 15 19 16 20 17 21 22 22 23 23
REMARK SMILES IDX 24 24 25 25 26 26 27 27 73 28 28 29 72 30 29 31 30 32 31 33
REMARK SMILES IDX 66 34 32 35 71 36 65 37 67 38 33 39 70 40 64 41 63 42 34 44
REMARK SMILES IDX 56 45 41 46 55 47 42 48 45 49 54 50 68 51 43 52 44 53 53 55
REMARK SMILES IDX 69 56 46 57 35 58 36 59 40 60 37 61 39 62 38 63 57 64 58 65
REMARK SMILES IDX 62 66 59 67 61 68 60 69 47 70 48 71 52 72 49 73 51 74 50 75
REMARK H PARENT 67 43 45 54
REMARK Flexibility Score: inf
ROOT
ATOM      1  C   UNL A   1      36.525  21.475  25.691  1.00  0.00     0.274 C 
ENDROOT
BRANCH   1   2
ATOM      2  O   UNL A   1      36.305  22.900  25.600  1.00  0.00    -0.462 OA
BRANCH   2   3
ATOM      3  C   UNL A   1      35.471  23.354  24.632  1.00  0.00     0.310 C 
ATOM      4  O   UNL A   1      35.695  23.280  23.426  1.00  0.00    -0.252 OA
BRANCH   3   5
ATOM      5  C   UNL A   1      34.255  24.056  25.200  1.00  0.00     0.121 C 
BRANCH   5   6
ATOM      6  C   UNL A   1      33.855  23.554  26.602  1.00  0.00     0.164 C 
BRANCH   6   7
ATOM      7  N   UNL A   1      32.476  23.113  26.717  1.00  0.00    -0.224 N 
ATOM      8  C   UNL A   1      31.770  22.198  25.970  1.00  0.00     0.185 A 
ATOM      9  N   UNL A   1      30.490  22.483  26.114  1.00  0.00    -0.108 NA
ATOM     10  N   UNL A   1      30.412  23.443  27.088  1.00  0.00    -0.023 NA
ATOM     11  N   UNL A   1      31.619  23.807  27.488  1.00  0.00    -0.045 NA
BRANCH   8  12
ATOM     12  C   UNL A   1      32.249  21.082  25.119  1.00  0.00     0.062 A 
ATOM     13  C   UNL A   1      32.160  22.029  22.649  1.00  0.00     0.088 C 
ATOM     14  C   UNL A   1      32.356  21.053  23.742  1.00  0.00     0.111 A 
ATOM     15  O   UNL A   1      32.861  19.847  23.346  1.00  0.00    -0.469 OA
ATOM     16  C   UNL A   1      33.138  19.135  24.467  1.00  0.00     0.196 A 
ATOM     17  C   UNL A   1      32.815  19.865  25.586  1.00  0.00     0.054 A 
ENDBRANCH   8  12
ENDBRANCH   6   7
ENDBRANCH   5   6
BRANCH   5  18
ATOM     18  C   UNL A   1      34.450  25.573  25.007  1.00  0.00     0.020 C 
BRANCH  18  19
ATOM     19  C   UNL A   1      33.205  26.457  24.757  1.00  0.00    -0.017 C 
ATOM     20  C   UNL A   1      31.975  25.702  24.248  1.00  0.00     0.007 C 
ATOM     21  C   UNL A   1      32.824  27.147  26.069  1.00  0.00     0.007 C 
ENDBRANCH  18  19
ENDBRANCH   5  18
ENDBRANCH   3   5
ENDBRANCH   2   3
ENDBRANCH   1   2
BRANCH   1  22
ATOM     22  C   UNL A   1      37.767  21.062  24.924  1.00  0.00     0.275 C 
BRANCH  22  23
ATOM     23  O   UNL A   1      38.907  21.374  25.713  1.00  0.00    -0.458 OA
BRANCH  23  24
ATOM     24  C   UNL A   1      39.814  20.374  25.785  1.00  0.00     0.338 C 
ATOM     25  O   UNL A   1      39.633  19.197  25.532  1.00  0.00    -0.246 OA
BRANCH  24  26
ATOM     26  C   UNL A   1      41.063  20.887  26.350  1.00  0.00     0.060 A 
ATOM     27  C   UNL A   1      41.186  20.767  27.736  1.00  0.00     0.016 A 
ATOM     28  C   UNL A   1      41.704  21.884  25.616  1.00  0.00     0.016 A 
ATOM     29  C   UNL A   1      41.654  21.853  28.431  1.00  0.00     0.010 A 
ATOM     30  C   UNL A   1      42.103  22.991  26.307  1.00  0.00     0.010 A 
ATOM     31  C   UNL A   1      41.983  22.991  27.697  1.00  0.00    -0.014 A 
BRANCH  31  32
ATOM     32  C   UNL A   1      42.226  24.223  28.401  1.00  0.00     0.031 A 
ATOM     33  C   UNL A   1      41.212  25.250  28.116  1.00  0.00     0.074 A 
ATOM     34  C   UNL A   1      43.163  24.314  29.358  1.00  0.00     0.049 A 
ATOM     35  N   UNL A   1      41.341  26.306  27.386  1.00  0.00    -0.248 NA
ATOM     36  C   UNL A   1      39.827  24.944  28.513  1.00  0.00     0.031 C 
ATOM     37  C   UNL A   1      43.976  23.237  29.932  1.00  0.00     0.029 A 
ATOM     38  N   UNL A   1      43.485  25.391  30.119  1.00  0.00    -0.354 N 
ATOM     39  C   UNL A   1      40.084  26.897  27.406  1.00  0.00     0.074 A 
ATOM     40  C   UNL A   1      39.165  25.881  27.841  1.00  0.00     0.031 C 
ATOM     41  C   UNL A   1      44.523  23.670  31.091  1.00  0.00     0.029 A 
ATOM     42  C   UNL A   1      44.195  25.077  31.266  1.00  0.00     0.049 A 
ATOM     43  H   UNL A   1      43.235  26.312  29.877  1.00  0.00     0.167 HD
ATOM     44  C   UNL A   1      39.935  28.248  27.426  1.00  0.00     0.031 A 
ATOM     45  C   UNL A   1      44.423  25.907  32.310  1.00  0.00     0.031 A 
ATOM     46  C   UNL A   1      41.170  28.919  27.109  1.00  0.00     0.049 A 
ATOM     47  C   UNL A   1      44.146  27.291  31.860  1.00  0.00     0.074 A 
ATOM     48  C   UNL A   1      41.990  29.013  26.006  1.00  0.00     0.029 A 
ATOM     49  N   UNL A   1      41.907  29.333  28.193  1.00  0.00    -0.354 N 
ATOM     50  N   UNL A   1      44.888  27.929  31.002  1.00  0.00    -0.248 NA
ATOM     51  C   UNL A   1      42.816  27.851  32.060  1.00  0.00     0.031 C 
ATOM     52  C   UNL A   1      43.309  29.172  26.523  1.00  0.00     0.029 A 
ATOM     53  C   UNL A   1      43.240  29.191  27.918  1.00  0.00     0.049 A 
ATOM     54  H   UNL A   1      41.534  29.679  29.035  1.00  0.00     0.167 HD
ATOM     55  C   UNL A   1      43.995  28.677  30.249  1.00  0.00     0.074 A 
ATOM     56  C   UNL A   1      42.774  28.717  31.044  1.00  0.00     0.031 C 
ATOM     57  C   UNL A   1      44.243  28.929  28.929  1.00  0.00     0.031 A 
BRANCH  44  58
ATOM     58  C   UNL A   1      38.837  28.944  28.202  1.00  0.00    -0.014 A 
ATOM     59  C   UNL A   1      38.725  28.672  29.575  1.00  0.00     0.009 A 
ATOM     60  C   UNL A   1      37.756  29.632  27.611  1.00  0.00     0.009 A 
ATOM     61  C   UNL A   1      37.566  28.998  30.291  1.00  0.00     0.001 A 
ATOM     62  C   UNL A   1      36.618  30.000  28.330  1.00  0.00     0.001 A 
ATOM     63  C   UNL A   1      36.510  29.654  29.667  1.00  0.00     0.000 A 
ENDBRANCH  44  58
BRANCH  45  64
ATOM     64  C   UNL A   1      44.634  25.574  33.731  1.00  0.00    -0.014 A 
ATOM     65  C   UNL A   1      43.673  24.844  34.445  1.00  0.00     0.009 A 
ATOM     66  C   UNL A   1      45.898  25.755  34.318  1.00  0.00     0.009 A 
ATOM     67  C   UNL A   1      43.980  24.282  35.691  1.00  0.00     0.001 A 
ATOM     68  C   UNL A   1      46.205  25.196  35.562  1.00  0.00     0.001 A 
ATOM     69  C   UNL A   1      45.250  24.447  36.242  1.00  0.00     0.000 A 
ENDBRANCH  45  64
BRANCH  57  70
ATOM     70  C   UNL A   1      45.646  28.669  28.440  1.00  0.00    -0.014 A 
ATOM     71  C   UNL A   1      46.077  27.408  27.992  1.00  0.00     0.009 A 
ATOM     72  C   UNL A   1      46.523  29.756  28.323  1.00  0.00     0.009 A 
ATOM     73  C   UNL A   1      47.364  27.235  27.475  1.00  0.00     0.001 A 
ATOM     74  C   UNL A   1      47.800  29.588  27.786  1.00  0.00     0.001 A 
ATOM     75  C   UNL A   1      48.223  28.327  27.369  1.00  0.00     0.000 A 
ENDBRANCH  57  70
ENDBRANCH  31  32
ENDBRANCH  24  26
ENDBRANCH  23  24
ENDBRANCH  22  23
ENDBRANCH   1  22
TORSDOF 16
ENDMDL
MODEL 2
REMARK VINA RESULT:     -10.6      0.849      2.618
REMARK SMILES Cc1occc1-c1nnnn1C[C@@H](CC(C)C)C(=O)OCCOC(=O)c1ccc(-c2c3nc(c(-c4ccccc4)c4ccc([nH]4)c(-c4ccccc4)c4nc(c(-c5ccccc5)c5ccc2[nH]5)C=C4)C=C3)cc1
REMARK SMILES IDX 21 1 20 2 18 3 19 4 13 5 12 6 11 7 7 8 8 9 9 10 10 11 6 12
REMARK SMILES IDX 1 13 2 14 3 15 4 16 5 17 14 18 15 19 16 20 17 21 22 22 23 23
REMARK SMILES IDX 24 24 25 25 26 26 27 27 73 28 28 29 72 30 29 31 30 32 31 33
REMARK SMILES IDX 66 34 32 35 71 36 65 37 67 38 33 39 70 40 64 41 63 42 34 44
REMARK SMILES IDX 56 45 41 46 55 47 42 48 45 49 54 50 68 51 43 52 44 53 53 55
REMARK SMILES IDX 69 56 46 57 35 58 36 59 40 60 37 61 39 62 38 63 57 64 58 65
REMARK SMILES IDX 62 66 59 67 61 68 60 69 47 70 48 71 52 72 49 73 51 74 50 75
REMARK H PARENT 67 43 45 54
REMARK Flexibility Score: inf
ROOT
ATOM      1  C   UNL A   1      36.684  22.318  25.244  1.00  0.00     0.274 C 
ENDROOT
BRANCH   1   2
ATOM      2  O   UNL A   1      35.349  21.886  24.896  1.00  0.00    -0.462 OA
BRANCH   2   3
ATOM      3  C   UNL A   1      34.464  21.685  25.904  1.00  0.00     0.310 C 
ATOM      4  O   UNL A   1      34.653  22.006  27.074  1.00  0.00    -0.252 OA
BRANCH   3   5
ATOM      5  C   UNL A   1      33.232  20.931  25.447  1.00  0.00     0.121 C 
BRANCH   5   6
ATOM      6  C   UNL A   1      32.215  21.812  24.696  1.00  0.00     0.164 C 
BRANCH   6   7
ATOM      7  N   UNL A   1      31.437  22.698  25.544  1.00  0.00    -0.224 N 
ATOM      8  C   UNL A   1      31.676  23.997  25.928  1.00  0.00     0.185 A 
ATOM      9  N   UNL A   1      30.996  24.207  27.039  1.00  0.00    -0.108 NA
ATOM     10  N   UNL A   1      30.204  23.104  27.223  1.00  0.00    -0.023 NA
ATOM     11  N   UNL A   1      30.440  22.193  26.294  1.00  0.00    -0.045 NA
BRANCH   8  12
ATOM     12  C   UNL A   1      32.526  25.041  25.304  1.00  0.00     0.062 A 
ATOM     13  C   UNL A   1      31.845  25.028  22.746  1.00  0.00     0.088 C 
ATOM     14  C   UNL A   1      32.582  25.402  23.972  1.00  0.00     0.111 A 
ATOM     15  O   UNL A   1      33.476  26.422  23.810  1.00  0.00    -0.469 OA
ATOM     16  C   UNL A   1      33.939  26.755  25.041  1.00  0.00     0.196 A 
ATOM     17  C   UNL A   1      33.357  25.960  25.999  1.00  0.00     0.054 A 
ENDBRANCH   8  12
ENDBRANCH   6   7
ENDBRANCH   5   6
BRANCH   5  18
ATOM     18  C   UNL A   1      33.699  19.629  24.766  1.00  0.00     0.020 C 
BRANCH  18  19
ATOM     19  C   UNL A   1      32.650  18.537  24.451  1.00  0.00    -0.017 C 
ATOM     20  C   UNL A   1      32.303  18.389  22.968  1.00  0.00     0.007 C 
ATOM     21  C   UNL A   1      33.183  17.190  24.946  1.00  0.00     0.007 C 
ENDBRANCH  18  19
ENDBRANCH   5  18
ENDBRANCH   3   5
ENDBRANCH   2   3
ENDBRANCH   1   2
BRANCH   1  22
ATOM     22  C   UNL A   1      37.697  21.214  25.000  1.00  0.00     0.275 C 
BRANCH  22  23
ATOM     23  O   UNL A   1      38.759  21.366  25.932  1.00  0.00    -0.458 OA
BRANCH  23  24
ATOM     24  C   UNL A   1      39.703  20.402  25.849  1.00  0.00     0.338 C 
ATOM     25  O   UNL A   1      39.546  19.247  25.497  1.00  0.00    -0.246 OA
BRANCH  24  26
ATOM     26  C   UNL A   1      40.969  20.912  26.377  1.00  0.00     0.060 A 
ATOM     27  C   UNL A   1      41.134  20.789  27.759  1.00  0.00     0.016 A 
ATOM     28  C   UNL A   1      41.590  21.909  25.627  1.00  0.00     0.016 A 
ATOM     29  C   UNL A   1      41.624  21.873  28.441  1.00  0.00     0.010 A 
ATOM     30  C   UNL A   1      42.011  23.014  26.307  1.00  0.00     0.010 A 
ATOM     31  C   UNL A   1      41.933  23.012  27.700  1.00  0.00    -0.014 A 
BRANCH  31  32
ATOM     32  C   UNL A   1      42.199  24.242  28.399  1.00  0.00     0.031 A 
ATOM     33  C   UNL A   1      41.202  25.285  28.113  1.00  0.00     0.074 A 
ATOM     34  C   UNL A   1      43.142  24.321  29.351  1.00  0.00     0.049 A 
ATOM     35  N   UNL A   1      41.346  26.336  27.379  1.00  0.00    -0.248 NA
ATOM     36  C   UNL A   1      39.814  25.004  28.516  1.00  0.00     0.031 C 
ATOM     37  C   UNL A   1      43.939  23.232  29.926  1.00  0.00     0.029 A 
ATOM     38  N   UNL A   1      43.484  25.395  30.107  1.00  0.00    -0.354 N 
ATOM     39  C   UNL A   1      40.098  26.948  27.402  1.00  0.00     0.074 A 
ATOM     40  C   UNL A   1      39.164  25.949  27.844  1.00  0.00     0.031 C 
ATOM     41  C   UNL A   1      44.497  23.661  31.082  1.00  0.00     0.029 A 
ATOM     42  C   UNL A   1      44.194  25.073  31.252  1.00  0.00     0.049 A 
ATOM     43  H   UNL A   1      43.249  26.319  29.863  1.00  0.00     0.167 HD
ATOM     44  C   UNL A   1      39.972  28.301  27.417  1.00  0.00     0.031 A 
ATOM     45  C   UNL A   1      44.439  25.903  32.293  1.00  0.00     0.031 A 
ATOM     46  C   UNL A   1      41.216  28.950  27.093  1.00  0.00     0.049 A 
ATOM     47  C   UNL A   1      44.184  27.290  31.839  1.00  0.00     0.074 A 
ATOM     48  C   UNL A   1      42.034  29.027  25.986  1.00  0.00     0.029 A 
ATOM     49  N   UNL A   1      41.965  29.356  28.173  1.00  0.00    -0.354 N 
ATOM     50  N   UNL A   1      44.933  27.912  30.975  1.00  0.00    -0.248 NA
ATOM     51  C   UNL A   1      42.864  27.872  32.042  1.00  0.00     0.031 C 
ATOM     52  C   UNL A   1      43.358  29.165  26.498  1.00  0.00     0.029 A 
ATOM     53  C   UNL A   1      43.295  29.191  27.893  1.00  0.00     0.049 A 
ATOM     54  H   UNL A   1      41.601  29.711  29.016  1.00  0.00     0.167 HD
ATOM     55  C   UNL A   1      44.050  28.672  30.223  1.00  0.00     0.074 A 
ATOM     56  C   UNL A   1      42.832  28.735  31.023  1.00  0.00     0.031 C 
ATOM     57  C   UNL A   1      44.297  28.916  28.902  1.00  0.00     0.031 A 
BRANCH  44  58
ATOM     58  C   UNL A   1      38.889  29.019  28.195  1.00  0.00    -0.014 A 
ATOM     59  C   UNL A   1      38.796  28.774  29.574  1.00  0.00     0.009 A 
ATOM     60  C   UNL A   1      37.803  29.699  27.606  1.00  0.00     0.009 A 
ATOM     61  C   UNL A   1      37.649  29.121  30.301  1.00  0.00     0.001 A 
ATOM     62  C   UNL A   1      36.677  30.088  28.334  1.00  0.00     0.001 A 
ATOM     63  C   UNL A   1      36.587  29.769  29.679  1.00  0.00     0.000 A 
ENDBRANCH  44  58
BRANCH  45  64
ATOM     64  C   UNL A   1      44.650  25.571  33.714  1.00  0.00    -0.014 A 
ATOM     65  C   UNL A   1      43.602  25.060  34.493  1.00  0.00     0.009 A 
ATOM     66  C   UNL A   1      45.953  25.518  34.240  1.00  0.00     0.009 A 
ATOM     67  C   UNL A   1      43.855  24.482  35.743  1.00  0.00     0.001 A 
ATOM     68  C   UNL A   1      46.205  24.942  35.489  1.00  0.00     0.001 A 
ATOM     69  C   UNL A   1      45.157  24.411  36.234  1.00  0.00     0.000 A 
ENDBRANCH  45  64
BRANCH  57  70
ATOM     70  C   UNL A   1      45.693  28.630  28.408  1.00  0.00    -0.014 A 
ATOM     71  C   UNL A   1      46.095  27.366  27.943  1.00  0.00     0.009 A 
ATOM     72  C   UNL A   1      46.594  29.698  28.306  1.00  0.00     0.009 A 
ATOM     73  C   UNL A   1      47.378  27.171  27.422  1.00  0.00     0.001 A 
ATOM     74  C   UNL A   1      47.867  29.509  27.765  1.00  0.00     0.001 A 
ATOM     75  C   UNL A   1      48.261  28.244  27.330  1.00  0.00     0.000 A 
ENDBRANCH  57  70
ENDBRANCH  31  32
ENDBRANCH  24  26
ENDBRANCH  23  24
ENDBRANCH  22  23
ENDBRANCH   1  22
TORSDOF 16
ENDMDL
MODEL 3
REMARK VINA RESULT:     -10.3      2.414      6.538
REMARK SMILES Cc1occc1-c1nnnn1C[C@@H](CC(C)C)C(=O)OCCOC(=O)c1ccc(-c2c3nc(c(-c4ccccc4)c4ccc([nH]4)c(-c4ccccc4)c4nc(c(-c5ccccc5)c5ccc2[nH]5)C=C4)C=C3)cc1
REMARK SMILES IDX 21 1 20 2 18 3 19 4 13 5 12 6 11 7 7 8 8 9 9 10 10 11 6 12
REMARK SMILES IDX 1 13 2 14 3 15 4 16 5 17 14 18 15 19 16 20 17 21 22 22 23 23
REMARK SMILES IDX 24 24 25 25 26 26 27 27 73 28 28 29 72 30 29 31 30 32 31 33
REMARK SMILES IDX 66 34 32 35 71 36 65 37 67 38 33 39 70 40 64 41 63 42 34 44
REMARK SMILES IDX 56 45 41 46 55 47 42 48 45 49 54 50 68 51 43 52 44 53 53 55
REMARK SMILES IDX 69 56 46 57 35 58 36 59 40 60 37 61 39 62 38 63 57 64 58 65
REMARK SMILES IDX 62 66 59 67 61 68 60 69 47 70 48 71 52 72 49 73 51 74 50 75
REMARK H PARENT 67 43 45 54
REMARK Flexibility Score: inf
ROOT
ATOM      1  C   UNL A   1      34.089  28.787  27.341  1.00  0.00     0.274 C 
ENDROOT
BRANCH   1   2
ATOM      2  O   UNL A   1      34.116  27.986  26.139  1.00  0.00    -0.462 OA
BRANCH   2   3
ATOM      3  C   UNL A   1      32.956  27.411  25.732  1.00  0.00     0.310 C 
ATOM      4  O   UNL A   1      31.908  28.019  25.532  1.00  0.00    -0.252 OA
BRANCH   3   5
ATOM      5  C   UNL A   1      33.064  25.903  25.636  1.00  0.00     0.121 C 
BRANCH   5   6
ATOM      6  C   UNL A   1      31.765  25.224  25.158  1.00  0.00     0.164 C 
BRANCH   6   7
ATOM      7  N   UNL A   1      30.998  24.576  26.207  1.00  0.00    -0.224 N 
ATOM      8  C   UNL A   1      31.146  23.331  26.775  1.00  0.00     0.185 A 
ATOM      9  N   UNL A   1      29.980  23.001  27.299  1.00  0.00    -0.108 NA
ATOM     10  N   UNL A   1      29.188  24.116  27.215  1.00  0.00    -0.023 NA
ATOM     11  N   UNL A   1      29.815  25.094  26.583  1.00  0.00    -0.045 NA
BRANCH   8  12
ATOM     12  C   UNL A   1      32.327  22.435  26.830  1.00  0.00     0.062 A 
ATOM     13  C   UNL A   1      32.181  20.985  24.621  1.00  0.00     0.088 C 
ATOM     14  C   UNL A   1      32.689  21.455  25.927  1.00  0.00     0.111 A 
ATOM     15  O   UNL A   1      33.857  20.870  26.328  1.00  0.00    -0.469 OA
ATOM     16  C   UNL A   1      34.274  21.520  27.444  1.00  0.00     0.196 A 
ATOM     17  C   UNL A   1      33.387  22.516  27.773  1.00  0.00     0.054 A 
ENDBRANCH   8  12
ENDBRANCH   6   7
ENDBRANCH   5   6
BRANCH   5  18
ATOM     18  C   UNL A   1      34.369  25.568  24.887  1.00  0.00     0.020 C 
BRANCH  18  19
ATOM     19  C   UNL A   1      34.715  24.083  24.624  1.00  0.00    -0.017 C 
ATOM     20  C   UNL A   1      34.508  23.623  23.179  1.00  0.00     0.007 C 
ATOM     21  C   UNL A   1      36.183  23.851  24.986  1.00  0.00     0.007 C 
ENDBRANCH  18  19
ENDBRANCH   5  18
ENDBRANCH   3   5
ENDBRANCH   2   3
ENDBRANCH   1   2
BRANCH   1  22
ATOM     22  C   UNL A   1      34.577  30.199  27.070  1.00  0.00     0.275 C 
BRANCH  22  23
ATOM     23  O   UNL A   1      35.941  30.284  27.458  1.00  0.00    -0.458 OA
BRANCH  23  24
ATOM     24  C   UNL A   1      36.233  31.379  28.194  1.00  0.00     0.338 C 
ATOM     25  O   UNL A   1      35.988  32.540  27.918  1.00  0.00    -0.246 OA
BRANCH  24  26
ATOM     26  C   UNL A   1      37.026  30.986  29.360  1.00  0.00     0.060 A 
ATOM     27  C   UNL A   1      38.265  31.621  29.482  1.00  0.00     0.016 A 
ATOM     28  C   UNL A   1      36.773  29.716  29.875  1.00  0.00     0.016 A 
ATOM     29  C   UNL A   1      39.351  30.844  29.797  1.00  0.00     0.010 A 
ATOM     30  C   UNL A   1      37.859  28.927  30.119  1.00  0.00     0.010 A 
ATOM     31  C   UNL A   1      39.132  29.481  29.984  1.00  0.00    -0.014 A 
BRANCH  31  32
ATOM     32  C   UNL A   1      40.269  28.600  30.057  1.00  0.00     0.031 A 
ATOM     33  C   UNL A   1      40.823  28.500  31.416  1.00  0.00     0.074 A 
ATOM     34  C   UNL A   1      40.622  27.821  29.023  1.00  0.00     0.049 A 
ATOM     35  N   UNL A   1      41.917  29.019  31.863  1.00  0.00    -0.248 NA
ATOM     36  C   UNL A   1      39.941  27.940  32.453  1.00  0.00     0.031 C 
ATOM     37  C   UNL A   1      39.908  27.618  27.758  1.00  0.00     0.029 A 
ATOM     38  N   UNL A   1      41.643  26.929  28.955  1.00  0.00    -0.354 N 
ATOM     39  C   UNL A   1      41.943  28.667  33.207  1.00  0.00     0.074 A 
ATOM     40  C   UNL A   1      40.600  28.290  33.554  1.00  0.00     0.031 C 
ATOM     41  C   UNL A   1      40.391  26.507  27.155  1.00  0.00     0.029 A 
ATOM     42  C   UNL A   1      41.515  26.006  27.930  1.00  0.00     0.049 A 
ATOM     43  H   UNL A   1      42.405  26.938  29.577  1.00  0.00     0.167 HD
ATOM     44  C   UNL A   1      43.106  28.356  33.837  1.00  0.00     0.031 A 
ATOM     45  C   UNL A   1      42.242  24.873  27.788  1.00  0.00     0.031 A 
ATOM     46  C   UNL A   1      44.251  28.742  33.051  1.00  0.00     0.049 A 
ATOM     47  C   UNL A   1      43.437  24.988  28.655  1.00  0.00     0.074 A 
ATOM     48  C   UNL A   1      44.793  29.929  32.609  1.00  0.00     0.029 A 
ATOM     49  N   UNL A   1      44.802  27.741  32.287  1.00  0.00    -0.354 N 
ATOM     50  N   UNL A   1      44.414  25.818  28.427  1.00  0.00    -0.248 NA
ATOM     51  C   UNL A   1      43.385  24.455  30.010  1.00  0.00     0.031 C 
ATOM     52  C   UNL A   1      45.411  29.625  31.360  1.00  0.00     0.029 A 
ATOM     53  C   UNL A   1      45.243  28.263  31.101  1.00  0.00     0.049 A 
ATOM     54  H   UNL A   1      44.869  26.795  32.552  1.00  0.00     0.167 HD
ATOM     55  C   UNL A   1      44.817  26.244  29.683  1.00  0.00     0.074 A 
ATOM     56  C   UNL A   1      44.269  25.259  30.608  1.00  0.00     0.031 C 
ATOM     57  C   UNL A   1      45.296  27.510  29.865  1.00  0.00     0.031 A 
BRANCH  44  58
ATOM     58  C   UNL A   1      43.207  27.282  34.899  1.00  0.00    -0.014 A 
ATOM     59  C   UNL A   1      43.021  25.947  34.505  1.00  0.00     0.009 A 
ATOM     60  C   UNL A   1      43.205  27.530  36.287  1.00  0.00     0.009 A 
ATOM     61  C   UNL A   1      42.768  24.938  35.445  1.00  0.00     0.001 A 
ATOM     62  C   UNL A   1      42.999  26.521  37.229  1.00  0.00     0.001 A 
ATOM     63  C   UNL A   1      42.749  25.227  36.805  1.00  0.00     0.000 A 
ENDBRANCH  44  58
BRANCH  45  64
ATOM     64  C   UNL A   1      41.864  23.604  27.140  1.00  0.00    -0.014 A 
ATOM     65  C   UNL A   1      42.666  23.048  26.132  1.00  0.00     0.009 A 
ATOM     66  C   UNL A   1      40.845  22.806  27.690  1.00  0.00     0.009 A 
ATOM     67  C   UNL A   1      42.477  21.725  25.715  1.00  0.00     0.001 A 
ATOM     68  C   UNL A   1      40.655  21.486  27.272  1.00  0.00     0.001 A 
ATOM     69  C   UNL A   1      41.481  20.940  26.294  1.00  0.00     0.000 A 
ENDBRANCH  45  64
BRANCH  57  70
ATOM     70  C   UNL A   1      45.682  28.274  28.623  1.00  0.00    -0.014 A 
ATOM     71  C   UNL A   1      46.968  28.212  28.057  1.00  0.00     0.009 A 
ATOM     72  C   UNL A   1      44.686  28.988  27.944  1.00  0.00     0.009 A 
ATOM     73  C   UNL A   1      47.254  28.876  26.861  1.00  0.00     0.001 A 
ATOM     74  C   UNL A   1      44.967  29.633  26.738  1.00  0.00     0.001 A 
ATOM     75  C   UNL A   1      46.252  29.583  26.201  1.00  0.00     0.000 A 
ENDBRANCH  57  70
ENDBRANCH  31  32
ENDBRANCH  24  26
ENDBRANCH  23  24
ENDBRANCH  22  23
ENDBRANCH   1  22
TORSDOF 16
ENDMDL
