MODEL 1
REMARK VINA RESULT:     -11.3      0.000      0.000
REMARK SMILES Cc1ccc(Cl)c(Nc2ccccc2C(=O)NCC(=O)OCCOC(=O)c2ccc(-c3c4nc(c(-c5ccccc5)c5ccc([nH]5)c(-c5ccccc5)c5nc(c(-c6ccccc6)c6ccc3[nH]6)C=C5)C=C4)cc2)c1Cl
REMARK SMILES IDX 22 1 21 2 19 3 20 4 18 5 17 6 15 7 16 8 14 10 9 11 10 12
REMARK SMILES IDX 11 13 13 14 12 15 8 16 7 18 1 19 2 20 3 21 75 22 4 23 76 24
REMARK SMILES IDX 5 25 6 26 23 27 24 28 25 29 26 30 27 31 28 32 74 33 29 34
REMARK SMILES IDX 73 35 30 36 31 37 32 38 67 39 33 40 72 41 66 42 68 43 34 44
REMARK SMILES IDX 71 45 65 46 64 47 35 49 57 50 42 51 56 52 43 53 46 54 55 55
REMARK SMILES IDX 69 56 44 57 45 58 54 60 70 61 47 62 36 63 37 64 41 65 38 66
REMARK SMILES IDX 40 67 39 68 58 69 59 70 63 71 60 72 62 73 61 74 48 75 49 76
REMARK SMILES IDX 53 77 50 78 52 79 51 80
REMARK H PARENT 17 9 8 17 68 48 46 59
REMARK Flexibility Score: inf
ROOT
ATOM      1  C   UNL A   1      32.305  30.046  26.637  1.00  0.00     0.274 C 
ENDROOT
BRANCH   1   2
ATOM      2  O   UNL A   1      32.568  28.664  26.331  1.00  0.00    -0.461 OA
BRANCH   2   3
ATOM      3  C   UNL A   1      31.789  27.804  27.027  1.00  0.00     0.325 C 
ATOM      4  O   UNL A   1      31.102  28.111  28.000  1.00  0.00    -0.250 OA
BRANCH   3   5
ATOM      5  C   UNL A   1      31.688  26.421  26.423  1.00  0.00     0.239 C 
BRANCH   5   6
ATOM      6  N   UNL A   1      30.645  25.469  26.720  1.00  0.00    -0.341 N 
ATOM      7  C   UNL A   1      30.632  24.108  26.508  1.00  0.00     0.253 C 
ATOM      8  O   UNL A   1      29.832  23.442  27.168  1.00  0.00    -0.269 OA
ATOM      9  H   UNL A   1      29.832  25.842  27.130  1.00  0.00     0.164 HD
BRANCH   7  10
ATOM     10  C   UNL A   1      31.377  23.439  25.394  1.00  0.00     0.063 A 
ATOM     11  C   UNL A   1      31.269  23.633  24.000  1.00  0.00     0.051 A 
ATOM     12  C   UNL A   1      32.000  22.765  23.154  1.00  0.00     0.027 A 
ATOM     13  C   UNL A   1      32.875  21.800  23.653  1.00  0.00     0.002 A 
ATOM     14  C   UNL A   1      32.298  22.480  25.878  1.00  0.00     0.016 A 
ATOM     15  C   UNL A   1      33.048  21.677  25.020  1.00  0.00     0.001 A 
BRANCH  11  16
ATOM     16  N   UNL A   1      30.598  24.676  23.323  1.00  0.00    -0.352 N 
ATOM     17  H   UNL A   1      29.773  24.376  22.876  1.00  0.00     0.167 HD
BRANCH  16  18
ATOM     18  C   UNL A   1      30.855  26.056  23.146  1.00  0.00     0.077 A 
ATOM     19  C   UNL A   1      33.652  28.581  22.388  1.00  0.00     0.046 C 
ATOM     20  C   UNL A   1      32.325  27.989  22.777  1.00  0.00    -0.030 A 
ATOM     21  C   UNL A   1      31.286  28.853  23.144  1.00  0.00     0.006 A 
ATOM     22  C   UNL A   1      32.095  26.595  22.746  1.00  0.00     0.069 A 
ATOM     23  C   UNL A   1      30.030  28.347  23.448  1.00  0.00     0.023 A 
ATOM     24  Cl  UNL A   1      33.313  25.576  22.036  1.00  0.00    -0.082 Cl
ATOM     25  C   UNL A   1      29.820  26.970  23.455  1.00  0.00     0.066 A 
ATOM     26  Cl  UNL A   1      28.235  26.407  23.887  1.00  0.00    -0.082 Cl
ENDBRANCH  16  18
ENDBRANCH  11  16
ENDBRANCH   7  10
ENDBRANCH   5   6
ENDBRANCH   3   5
ENDBRANCH   2   3
ENDBRANCH   1   2
BRANCH   1  27
ATOM     27  C   UNL A   1      33.584  30.763  27.072  1.00  0.00     0.275 C 
BRANCH  27  28
ATOM     28  O   UNL A   1      34.189  30.137  28.225  1.00  0.00    -0.458 OA
BRANCH  28  29
ATOM     29  C   UNL A   1      35.238  30.795  28.766  1.00  0.00     0.338 C 
ATOM     30  O   UNL A   1      35.231  31.922  29.248  1.00  0.00    -0.246 OA
BRANCH  29  31
ATOM     31  C   UNL A   1      36.476  29.996  28.685  1.00  0.00     0.060 A 
ATOM     32  C   UNL A   1      36.980  29.328  29.799  1.00  0.00     0.016 A 
ATOM     33  C   UNL A   1      37.226  30.036  27.507  1.00  0.00     0.016 A 
ATOM     34  C   UNL A   1      38.269  28.778  29.752  1.00  0.00     0.010 A 
ATOM     35  C   UNL A   1      38.482  29.416  27.447  1.00  0.00     0.010 A 
ATOM     36  C   UNL A   1      39.054  28.822  28.585  1.00  0.00    -0.014 A 
BRANCH  36  37
ATOM     37  C   UNL A   1      40.476  28.329  28.552  1.00  0.00     0.031 A 
ATOM     38  C   UNL A   1      41.623  29.271  28.860  1.00  0.00     0.074 A 
ATOM     39  C   UNL A   1      40.792  27.048  28.261  1.00  0.00     0.049 A 
ATOM     40  N   UNL A   1      42.905  29.129  28.617  1.00  0.00    -0.248 NA
ATOM     41  C   UNL A   1      41.281  30.545  29.512  1.00  0.00     0.031 C 
ATOM     42  C   UNL A   1      39.844  25.967  27.998  1.00  0.00     0.029 A 
ATOM     43  N   UNL A   1      42.023  26.439  28.148  1.00  0.00    -0.354 N 
ATOM     44  C   UNL A   1      43.502  30.332  28.986  1.00  0.00     0.074 A 
ATOM     45  C   UNL A   1      42.445  31.180  29.498  1.00  0.00     0.031 C 
ATOM     46  C   UNL A   1      40.520  24.822  27.819  1.00  0.00     0.029 A 
ATOM     47  C   UNL A   1      41.952  25.104  27.834  1.00  0.00     0.049 A 
ATOM     48  H   UNL A   1      42.874  26.916  28.281  1.00  0.00     0.167 HD
ATOM     49  C   UNL A   1      44.801  30.707  28.894  1.00  0.00     0.031 A 
ATOM     50  C   UNL A   1      42.909  24.205  27.528  1.00  0.00     0.031 A 
ATOM     51  C   UNL A   1      45.881  29.849  28.478  1.00  0.00     0.049 A 
ATOM     52  C   UNL A   1      44.346  24.629  27.433  1.00  0.00     0.074 A 
ATOM     53  C   UNL A   1      47.231  30.148  28.376  1.00  0.00     0.029 A 
ATOM     54  N   UNL A   1      45.744  28.516  28.131  1.00  0.00    -0.354 N 
ATOM     55  N   UNL A   1      44.874  25.807  27.655  1.00  0.00    -0.248 NA
ATOM     56  C   UNL A   1      45.313  23.606  27.006  1.00  0.00     0.031 C 
ATOM     57  C   UNL A   1      47.907  29.002  27.940  1.00  0.00     0.029 A 
ATOM     58  C   UNL A   1      46.982  27.980  27.811  1.00  0.00     0.049 A 
ATOM     59  H   UNL A   1      44.893  28.021  28.114  1.00  0.00     0.167 HD
ATOM     60  C   UNL A   1      46.230  25.669  27.382  1.00  0.00     0.074 A 
ATOM     61  C   UNL A   1      46.450  24.288  27.010  1.00  0.00     0.031 C 
ATOM     62  C   UNL A   1      47.200  26.613  27.424  1.00  0.00     0.031 A 
BRANCH  49  63
ATOM     63  C   UNL A   1      45.134  32.143  29.193  1.00  0.00    -0.014 A 
ATOM     64  C   UNL A   1      45.574  32.558  30.458  1.00  0.00     0.009 A 
ATOM     65  C   UNL A   1      45.050  33.090  28.158  1.00  0.00     0.009 A 
ATOM     66  C   UNL A   1      45.890  33.900  30.688  1.00  0.00     0.001 A 
ATOM     67  C   UNL A   1      45.394  34.423  28.382  1.00  0.00     0.001 A 
ATOM     68  C   UNL A   1      45.804  34.829  29.651  1.00  0.00     0.000 A 
ENDBRANCH  49  63
BRANCH  50  69
ATOM     69  C   UNL A   1      42.518  22.808  27.204  1.00  0.00    -0.014 A 
ATOM     70  C   UNL A   1      42.440  22.379  25.871  1.00  0.00     0.009 A 
ATOM     71  C   UNL A   1      42.251  21.890  28.233  1.00  0.00     0.009 A 
ATOM     72  C   UNL A   1      42.106  21.055  25.576  1.00  0.00     0.001 A 
ATOM     73  C   UNL A   1      41.948  20.562  27.936  1.00  0.00     0.001 A 
ATOM     74  C   UNL A   1      41.872  20.146  26.607  1.00  0.00     0.000 A 
ENDBRANCH  50  69
BRANCH  62  75
ATOM     75  C   UNL A   1      48.593  26.184  27.067  1.00  0.00    -0.014 A 
ATOM     76  C   UNL A   1      49.093  26.361  25.767  1.00  0.00     0.009 A 
ATOM     77  C   UNL A   1      49.426  25.617  28.044  1.00  0.00     0.009 A 
ATOM     78  C   UNL A   1      50.390  25.953  25.447  1.00  0.00     0.001 A 
ATOM     79  C   UNL A   1      50.728  25.227  27.727  1.00  0.00     0.001 A 
ATOM     80  C   UNL A   1      51.206  25.389  26.427  1.00  0.00     0.000 A 
ENDBRANCH  62  75
ENDBRANCH  36  37
ENDBRANCH  29  31
ENDBRANCH  28  29
ENDBRANCH  27  28
ENDBRANCH   1  27
TORSDOF 15
ENDMDL
MODEL 2
REMARK VINA RESULT:     -11.2      4.077      7.665
REMARK SMILES Cc1ccc(Cl)c(Nc2ccccc2C(=O)NCC(=O)OCCOC(=O)c2ccc(-c3c4nc(c(-c5ccccc5)c5ccc([nH]5)c(-c5ccccc5)c5nc(c(-c6ccccc6)c6ccc3[nH]6)C=C5)C=C4)cc2)c1Cl
REMARK SMILES IDX 22 1 21 2 19 3 20 4 18 5 17 6 15 7 16 8 14 10 9 11 10 12
REMARK SMILES IDX 11 13 13 14 12 15 8 16 7 18 1 19 2 20 3 21 75 22 4 23 76 24
REMARK SMILES IDX 5 25 6 26 23 27 24 28 25 29 26 30 27 31 28 32 74 33 29 34
REMARK SMILES IDX 73 35 30 36 31 37 32 38 67 39 33 40 72 41 66 42 68 43 34 44
REMARK SMILES IDX 71 45 65 46 64 47 35 49 57 50 42 51 56 52 43 53 46 54 55 55
REMARK SMILES IDX 69 56 44 57 45 58 54 60 70 61 47 62 36 63 37 64 41 65 38 66
REMARK SMILES IDX 40 67 39 68 58 69 59 70 63 71 60 72 62 73 61 74 48 75 49 76
REMARK SMILES IDX 53 77 50 78 52 79 51 80
REMARK H PARENT 17 9 8 17 68 48 46 59
REMARK Flexibility Score: inf
ROOT
ATOM      1  C   UNL A   1      31.212  29.912  24.374  1.00  0.00     0.274 C 
ENDROOT
BRANCH   1   2
ATOM      2  O   UNL A   1      29.929  29.534  23.841  1.00  0.00    -0.461 OA
BRANCH   2   3
ATOM      3  C   UNL A   1      29.996  29.052  22.578  1.00  0.00     0.325 C 
ATOM      4  O   UNL A   1      29.778  29.713  21.564  1.00  0.00    -0.250 OA
BRANCH   3   5
ATOM      5  C   UNL A   1      30.522  27.639  22.474  1.00  0.00     0.239 C 
BRANCH   5   6
ATOM      6  N   UNL A   1      31.629  27.233  21.641  1.00  0.00    -0.341 N 
ATOM      7  C   UNL A   1      32.698  26.425  21.957  1.00  0.00     0.253 C 
ATOM      8  O   UNL A   1      33.307  25.903  21.021  1.00  0.00    -0.269 OA
ATOM      9  H   UNL A   1      31.620  27.583  20.721  1.00  0.00     0.164 HD
BRANCH   7  10
ATOM     10  C   UNL A   1      33.271  26.316  23.337  1.00  0.00     0.063 A 
ATOM     11  C   UNL A   1      33.552  25.165  24.102  1.00  0.00     0.051 A 
ATOM     12  C   UNL A   1      33.968  25.349  25.443  1.00  0.00     0.027 A 
ATOM     13  C   UNL A   1      34.188  26.613  25.989  1.00  0.00     0.002 A 
ATOM     14  C   UNL A   1      33.536  27.588  23.898  1.00  0.00     0.016 A 
ATOM     15  C   UNL A   1      34.001  27.737  25.204  1.00  0.00     0.001 A 
BRANCH  11  16
ATOM     16  N   UNL A   1      33.582  23.822  23.664  1.00  0.00    -0.352 N 
ATOM     17  H   UNL A   1      33.378  23.726  22.706  1.00  0.00     0.167 HD
BRANCH  16  18
ATOM     18  C   UNL A   1      33.841  22.586  24.303  1.00  0.00     0.077 A 
ATOM     19  C   UNL A   1      36.571  19.943  24.873  1.00  0.00     0.046 C 
ATOM     20  C   UNL A   1      35.240  20.641  24.843  1.00  0.00    -0.030 A 
ATOM     21  C   UNL A   1      34.118  19.971  25.348  1.00  0.00     0.006 A 
ATOM     22  C   UNL A   1      35.103  21.959  24.354  1.00  0.00     0.069 A 
ATOM     23  C   UNL A   1      32.886  20.607  25.395  1.00  0.00     0.023 A 
ATOM     24  Cl  UNL A   1      36.548  22.854  23.984  1.00  0.00    -0.082 Cl
ATOM     25  C   UNL A   1      32.748  21.892  24.874  1.00  0.00     0.066 A 
ATOM     26  Cl  UNL A   1      31.167  22.608  24.928  1.00  0.00    -0.082 Cl
ENDBRANCH  16  18
ENDBRANCH  11  16
ENDBRANCH   7  10
ENDBRANCH   5   6
ENDBRANCH   3   5
ENDBRANCH   2   3
ENDBRANCH   1   2
BRANCH   1  27
ATOM     27  C   UNL A   1      31.053  30.692  25.681  1.00  0.00     0.275 C 
BRANCH  27  28
ATOM     28  O   UNL A   1      32.138  30.432  26.600  1.00  0.00    -0.458 OA
BRANCH  28  29
ATOM     29  C   UNL A   1      32.784  31.524  27.064  1.00  0.00     0.338 C 
ATOM     30  O   UNL A   1      32.358  32.673  27.099  1.00  0.00    -0.246 OA
BRANCH  29  31
ATOM     31  C   UNL A   1      34.146  31.191  27.524  1.00  0.00     0.060 A 
ATOM     32  C   UNL A   1      34.543  29.869  27.714  1.00  0.00     0.016 A 
ATOM     33  C   UNL A   1      34.997  32.230  27.910  1.00  0.00     0.016 A 
ATOM     34  C   UNL A   1      35.752  29.597  28.370  1.00  0.00     0.010 A 
ATOM     35  C   UNL A   1      36.239  31.945  28.495  1.00  0.00     0.010 A 
ATOM     36  C   UNL A   1      36.618  30.624  28.789  1.00  0.00    -0.014 A 
BRANCH  36  37
ATOM     37  C   UNL A   1      37.867  30.350  29.583  1.00  0.00     0.031 A 
ATOM     38  C   UNL A   1      39.016  29.576  28.966  1.00  0.00     0.074 A 
ATOM     39  C   UNL A   1      38.026  30.778  30.854  1.00  0.00     0.049 A 
ATOM     40  N   UNL A   1      40.039  28.998  29.549  1.00  0.00    -0.248 NA
ATOM     41  C   UNL A   1      39.001  29.419  27.503  1.00  0.00     0.031 C 
ATOM     42  C   UNL A   1      37.077  31.589  31.614  1.00  0.00     0.029 A 
ATOM     43  N   UNL A   1      39.071  30.588  31.734  1.00  0.00    -0.354 N 
ATOM     44  C   UNL A   1      40.725  28.324  28.543  1.00  0.00     0.074 A 
ATOM     45  C   UNL A   1      40.019  28.591  27.308  1.00  0.00     0.031 C 
ATOM     46  C   UNL A   1      37.604  31.880  32.812  1.00  0.00     0.029 A 
ATOM     47  C   UNL A   1      38.876  31.179  32.958  1.00  0.00     0.049 A 
ATOM     48  H   UNL A   1      39.880  30.076  31.506  1.00  0.00     0.167 HD
ATOM     49  C   UNL A   1      41.829  27.542  28.636  1.00  0.00     0.031 A 
ATOM     50  C   UNL A   1      39.592  31.127  34.100  1.00  0.00     0.031 A 
ATOM     51  C   UNL A   1      42.602  27.340  29.835  1.00  0.00     0.049 A 
ATOM     52  C   UNL A   1      40.814  30.261  34.190  1.00  0.00     0.074 A 
ATOM     53  C   UNL A   1      43.746  26.578  30.006  1.00  0.00     0.029 A 
ATOM     54  N   UNL A   1      42.334  27.932  31.057  1.00  0.00    -0.354 N 
ATOM     55  N   UNL A   1      41.373  29.523  33.263  1.00  0.00    -0.248 NA
ATOM     56  C   UNL A   1      41.484  30.193  35.498  1.00  0.00     0.031 C 
ATOM     57  C   UNL A   1      44.154  26.685  31.341  1.00  0.00     0.029 A 
ATOM     58  C   UNL A   1      43.287  27.549  31.987  1.00  0.00     0.049 A 
ATOM     59  H   UNL A   1      41.578  28.536  31.238  1.00  0.00     0.167 HD
ATOM     60  C   UNL A   1      42.448  28.893  33.879  1.00  0.00     0.074 A 
ATOM     61  C   UNL A   1      42.485  29.360  35.249  1.00  0.00     0.031 C 
ATOM     62  C   UNL A   1      43.316  27.996  33.353  1.00  0.00     0.031 A 
BRANCH  49  63
ATOM     63  C   UNL A   1      42.247  26.781  27.407  1.00  0.00    -0.014 A 
ATOM     64  C   UNL A   1      43.174  27.297  26.490  1.00  0.00     0.009 A 
ATOM     65  C   UNL A   1      41.731  25.490  27.199  1.00  0.00     0.009 A 
ATOM     66  C   UNL A   1      43.548  26.548  25.370  1.00  0.00     0.001 A 
ATOM     67  C   UNL A   1      42.127  24.734  26.096  1.00  0.00     0.001 A 
ATOM     68  C   UNL A   1      43.029  25.267  25.177  1.00  0.00     0.000 A 
ENDBRANCH  49  63
BRANCH  50  69
ATOM     69  C   UNL A   1      39.111  31.869  35.294  1.00  0.00    -0.014 A 
ATOM     70  C   UNL A   1      38.252  31.256  36.218  1.00  0.00     0.009 A 
ATOM     71  C   UNL A   1      39.535  33.187  35.527  1.00  0.00     0.009 A 
ATOM     72  C   UNL A   1      37.832  31.949  37.356  1.00  0.00     0.001 A 
ATOM     73  C   UNL A   1      39.139  33.866  36.679  1.00  0.00     0.001 A 
ATOM     74  C   UNL A   1      38.284  33.247  37.591  1.00  0.00     0.000 A 
ENDBRANCH  50  69
BRANCH  62  75
ATOM     75  C   UNL A   1      44.388  27.465  34.259  1.00  0.00    -0.014 A 
ATOM     76  C   UNL A   1      44.190  26.289  35.000  1.00  0.00     0.009 A 
ATOM     77  C   UNL A   1      45.619  28.132  34.357  1.00  0.00     0.009 A 
ATOM     78  C   UNL A   1      45.195  25.808  35.842  1.00  0.00     0.001 A 
ATOM     79  C   UNL A   1      46.628  27.638  35.185  1.00  0.00     0.001 A 
ATOM     80  C   UNL A   1      46.413  26.481  35.932  1.00  0.00     0.000 A 
ENDBRANCH  62  75
ENDBRANCH  36  37
ENDBRANCH  29  31
ENDBRANCH  28  29
ENDBRANCH  27  28
ENDBRANCH   1  27
TORSDOF 15
ENDMDL
MODEL 3
REMARK VINA RESULT:     -11.1      5.025      9.462
REMARK SMILES Cc1ccc(Cl)c(Nc2ccccc2C(=O)NCC(=O)OCCOC(=O)c2ccc(-c3c4nc(c(-c5ccccc5)c5ccc([nH]5)c(-c5ccccc5)c5nc(c(-c6ccccc6)c6ccc3[nH]6)C=C5)C=C4)cc2)c1Cl
REMARK SMILES IDX 22 1 21 2 19 3 20 4 18 5 17 6 15 7 16 8 14 10 9 11 10 12
REMARK SMILES IDX 11 13 13 14 12 15 8 16 7 18 1 19 2 20 3 21 75 22 4 23 76 24
REMARK SMILES IDX 5 25 6 26 23 27 24 28 25 29 26 30 27 31 28 32 74 33 29 34
REMARK SMILES IDX 73 35 30 36 31 37 32 38 67 39 33 40 72 41 66 42 68 43 34 44
REMARK SMILES IDX 71 45 65 46 64 47 35 49 57 50 42 51 56 52 43 53 46 54 55 55
REMARK SMILES IDX 69 56 44 57 45 58 54 60 70 61 47 62 36 63 37 64 41 65 38 66
REMARK SMILES IDX 40 67 39 68 58 69 59 70 63 71 60 72 62 73 61 74 48 75 49 76
REMARK SMILES IDX 53 77 50 78 52 79 51 80
REMARK H PARENT 17 9 8 17 68 48 46 59
REMARK Flexibility Score: inf
ROOT
ATOM      1  C   UNL A   1      39.690  21.234  26.386  1.00  0.00     0.274 C 
ENDROOT
BRANCH   1   2
ATOM      2  O   UNL A   1      38.667  21.371  25.383  1.00  0.00    -0.461 OA
BRANCH   2   3
ATOM      3  C   UNL A   1      37.781  22.359  25.653  1.00  0.00     0.325 C 
ATOM      4  O   UNL A   1      38.088  23.499  25.999  1.00  0.00    -0.250 OA
BRANCH   3   5
ATOM      5  C   UNL A   1      36.343  22.012  25.345  1.00  0.00     0.239 C 
BRANCH   5   6
ATOM      6  N   UNL A   1      35.716  22.174  24.055  1.00  0.00    -0.341 N 
ATOM      7  C   UNL A   1      34.884  23.181  23.619  1.00  0.00     0.253 C 
ATOM      8  O   UNL A   1      34.774  23.335  22.401  1.00  0.00    -0.269 OA
ATOM      9  H   UNL A   1      35.909  21.469  23.397  1.00  0.00     0.164 HD
BRANCH   7  10
ATOM     10  C   UNL A   1      33.968  23.946  24.525  1.00  0.00     0.063 A 
ATOM     11  C   UNL A   1      32.666  23.621  24.963  1.00  0.00     0.051 A 
ATOM     12  C   UNL A   1      31.962  24.593  25.714  1.00  0.00     0.027 A 
ATOM     13  C   UNL A   1      32.541  25.801  26.100  1.00  0.00     0.002 A 
ATOM     14  C   UNL A   1      34.549  25.161  24.959  1.00  0.00     0.016 A 
ATOM     15  C   UNL A   1      33.851  26.074  25.747  1.00  0.00     0.001 A 
BRANCH  11  16
ATOM     16  N   UNL A   1      31.998  22.382  24.844  1.00  0.00    -0.352 N 
ATOM     17  H   UNL A   1      31.019  22.466  24.899  1.00  0.00     0.167 HD
BRANCH  16  18
ATOM     18  C   UNL A   1      32.430  21.047  24.663  1.00  0.00     0.077 A 
ATOM     19  C   UNL A   1      32.290  18.084  22.220  1.00  0.00     0.046 C 
ATOM     20  C   UNL A   1      32.525  18.911  23.454  1.00  0.00    -0.030 A 
ATOM     21  C   UNL A   1      33.080  18.294  24.581  1.00  0.00     0.006 A 
ATOM     22  C   UNL A   1      32.234  20.294  23.487  1.00  0.00     0.069 A 
ATOM     23  C   UNL A   1      33.370  19.039  25.715  1.00  0.00     0.023 A 
ATOM     24  Cl  UNL A   1      31.799  21.079  21.997  1.00  0.00    -0.082 Cl
ATOM     25  C   UNL A   1      33.043  20.393  25.757  1.00  0.00     0.066 A 
ATOM     26  Cl  UNL A   1      33.396  21.252  27.225  1.00  0.00    -0.082 Cl
ENDBRANCH  16  18
ENDBRANCH  11  16
ENDBRANCH   7  10
ENDBRANCH   5   6
ENDBRANCH   3   5
ENDBRANCH   2   3
ENDBRANCH   1   2
BRANCH   1  27
ATOM     27  C   UNL A   1      41.082  21.228  25.749  1.00  0.00     0.275 C 
BRANCH  27  28
ATOM     28  O   UNL A   1      42.014  22.054  26.483  1.00  0.00    -0.458 OA
BRANCH  28  29
ATOM     29  C   UNL A   1      42.394  23.195  25.867  1.00  0.00     0.338 C 
ATOM     30  O   UNL A   1      43.040  23.292  24.830  1.00  0.00    -0.246 OA
BRANCH  29  31
ATOM     31  C   UNL A   1      41.962  24.386  26.623  1.00  0.00     0.060 A 
ATOM     32  C   UNL A   1      42.601  25.614  26.466  1.00  0.00     0.016 A 
ATOM     33  C   UNL A   1      40.990  24.236  27.616  1.00  0.00     0.016 A 
ATOM     34  C   UNL A   1      42.326  26.657  27.361  1.00  0.00     0.010 A 
ATOM     35  C   UNL A   1      40.667  25.311  28.456  1.00  0.00     0.010 A 
ATOM     36  C   UNL A   1      41.368  26.527  28.383  1.00  0.00    -0.014 A 
BRANCH  36  37
ATOM     37  C   UNL A   1      41.137  27.601  29.412  1.00  0.00     0.031 A 
ATOM     38  C   UNL A   1      42.021  27.691  30.640  1.00  0.00     0.074 A 
ATOM     39  C   UNL A   1      40.157  28.523  29.290  1.00  0.00     0.049 A 
ATOM     40  N   UNL A   1      41.825  28.344  31.762  1.00  0.00    -0.248 NA
ATOM     41  C   UNL A   1      43.283  26.935  30.607  1.00  0.00     0.031 C 
ATOM     42  C   UNL A   1      39.237  28.657  28.162  1.00  0.00     0.029 A 
ATOM     43  N   UNL A   1      39.781  29.540  30.142  1.00  0.00    -0.354 N 
ATOM     44  C   UNL A   1      42.879  27.992  32.601  1.00  0.00     0.074 A 
ATOM     45  C   UNL A   1      43.728  27.093  31.847  1.00  0.00     0.031 C 
ATOM     46  C   UNL A   1      38.451  29.726  28.358  1.00  0.00     0.029 A 
ATOM     47  C   UNL A   1      38.724  30.286  29.678  1.00  0.00     0.049 A 
ATOM     48  H   UNL A   1      40.227  29.715  31.001  1.00  0.00     0.167 HD
ATOM     49  C   UNL A   1      43.114  28.365  33.883  1.00  0.00     0.031 A 
ATOM     50  C   UNL A   1      38.003  31.269  30.254  1.00  0.00     0.031 A 
ATOM     51  C   UNL A   1      42.337  29.330  34.618  1.00  0.00     0.049 A 
ATOM     52  C   UNL A   1      38.274  31.677  31.672  1.00  0.00     0.074 A 
ATOM     53  C   UNL A   1      42.522  29.778  35.917  1.00  0.00     0.029 A 
ATOM     54  N   UNL A   1      41.252  30.024  34.111  1.00  0.00    -0.354 N 
ATOM     55  N   UNL A   1      39.191  31.236  32.497  1.00  0.00    -0.248 NA
ATOM     56  C   UNL A   1      37.382  32.694  32.252  1.00  0.00     0.031 C 
ATOM     57  C   UNL A   1      41.531  30.723  36.205  1.00  0.00     0.029 A 
ATOM     58  C   UNL A   1      40.755  30.892  35.071  1.00  0.00     0.049 A 
ATOM     59  H   UNL A   1      40.887  29.917  33.203  1.00  0.00     0.167 HD
ATOM     60  C   UNL A   1      38.978  31.910  33.693  1.00  0.00     0.074 A 
ATOM     61  C   UNL A   1      37.868  32.813  33.480  1.00  0.00     0.031 C 
ATOM     62  C   UNL A   1      39.641  31.777  34.867  1.00  0.00     0.031 A 
BRANCH  49  63
ATOM     63  C   UNL A   1      44.235  27.678  34.613  1.00  0.00    -0.014 A 
ATOM     64  C   UNL A   1      45.532  28.211  34.658  1.00  0.00     0.009 A 
ATOM     65  C   UNL A   1      43.963  26.491  35.314  1.00  0.00     0.009 A 
ATOM     66  C   UNL A   1      46.540  27.549  35.364  1.00  0.00     0.001 A 
ATOM     67  C   UNL A   1      44.965  25.847  36.041  1.00  0.00     0.001 A 
ATOM     68  C   UNL A   1      46.256  26.372  36.057  1.00  0.00     0.000 A 
ENDBRANCH  49  63
BRANCH  50  69
ATOM     69  C   UNL A   1      36.882  31.886  29.498  1.00  0.00    -0.014 A 
ATOM     70  C   UNL A   1      37.082  33.056  28.752  1.00  0.00     0.009 A 
ATOM     71  C   UNL A   1      35.612  31.285  29.498  1.00  0.00     0.009 A 
ATOM     72  C   UNL A   1      36.031  33.610  28.017  1.00  0.00     0.001 A 
ATOM     73  C   UNL A   1      34.574  31.824  28.738  1.00  0.00     0.001 A 
ATOM     74  C   UNL A   1      34.784  32.988  28.001  1.00  0.00     0.000 A 
ENDBRANCH  50  69
BRANCH  62  75
ATOM     75  C   UNL A   1      39.188  32.634  36.013  1.00  0.00    -0.014 A 
ATOM     76  C   UNL A   1      38.207  32.182  36.910  1.00  0.00     0.009 A 
ATOM     77  C   UNL A   1      39.763  33.898  36.215  1.00  0.00     0.009 A 
ATOM     78  C   UNL A   1      37.791  32.992  37.969  1.00  0.00     0.001 A 
ATOM     79  C   UNL A   1      39.360  34.697  37.285  1.00  0.00     0.001 A 
ATOM     80  C   UNL A   1      38.370  34.247  38.157  1.00  0.00     0.000 A 
ENDBRANCH  62  75
ENDBRANCH  36  37
ENDBRANCH  29  31
ENDBRANCH  28  29
ENDBRANCH  27  28
ENDBRANCH   1  27
TORSDOF 15
ENDMDL
