MODEL 1
REMARK VINA RESULT:      -9.5      0.000      0.000
REMARK SMILES Nc1ccccc1C(=O)NCc1ccc(C(=O)OCCOC(=O)c2ccc(-c3c4nc(c(-c5ccccc5)c5ccc([nH]5)c(-c5ccccc5)c5nc(c(-c6ccccc6)c6ccc3[nH]6)C=C5)C=C4)cc2)o1
REMARK SMILES IDX 19 1 18 2 16 3 17 4 15 5 12 6 13 7 72 8 14 9 11 10 10 11
REMARK SMILES IDX 8 12 9 13 7 15 2 16 3 17 4 18 6 19 5 20 1 21 20 24 21 25
REMARK SMILES IDX 22 26 23 27 24 28 25 29 71 30 26 31 70 32 27 33 28 34 29 35
REMARK SMILES IDX 64 36 30 37 69 38 63 39 65 40 31 41 68 42 62 43 61 44 32 46
REMARK SMILES IDX 54 47 39 48 53 49 40 50 43 51 52 52 66 53 41 54 42 55 51 57
REMARK SMILES IDX 67 58 44 59 33 60 34 61 38 62 35 63 37 64 36 65 55 66 56 67
REMARK SMILES IDX 60 68 57 69 59 70 58 71 45 72 46 73 50 74 47 75 49 76 48 77
REMARK H PARENT 10 14 1 22 1 23 65 45 43 56
REMARK Flexibility Score: inf
ROOT
ATOM      1  C   UNL A   1      33.107  36.844  30.699  1.00  0.00     0.275 C 
ENDROOT
BRANCH   1   2
ATOM      2  O   UNL A   1      33.308  35.870  31.740  1.00  0.00    -0.456 OA
BRANCH   2   3
ATOM      3  C   UNL A   1      34.230  36.219  32.683  1.00  0.00     0.374 C 
ATOM      4  O   UNL A   1      34.434  37.370  33.054  1.00  0.00    -0.242 OA
BRANCH   3   5
ATOM      5  C   UNL A   1      34.836  35.045  33.265  1.00  0.00     0.211 A 
ATOM      6  C   UNL A   1      36.484  34.069  34.375  1.00  0.00     0.124 A 
ATOM      7  C   UNL A   1      35.466  33.141  34.302  1.00  0.00     0.048 A 
ATOM      8  O   UNL A   1      36.128  35.184  33.683  1.00  0.00    -0.452 OA
ATOM      9  C   UNL A   1      34.400  33.775  33.596  1.00  0.00     0.058 A 
BRANCH   6  10
ATOM     10  C   UNL A   1      37.761  34.219  35.111  1.00  0.00     0.191 C 
BRANCH  10  11
ATOM     11  N   UNL A   1      37.740  33.640  36.430  1.00  0.00    -0.345 N 
ATOM     12  C   UNL A   1      38.380  32.498  36.852  1.00  0.00     0.253 C 
ATOM     13  O   UNL A   1      38.322  32.185  38.041  1.00  0.00    -0.269 OA
ATOM     14  H   UNL A   1      37.207  34.116  37.107  1.00  0.00     0.164 HD
BRANCH  12  15
ATOM     15  C   UNL A   1      39.057  31.581  35.893  1.00  0.00     0.062 A 
ATOM     16  C   UNL A   1      40.411  31.192  35.958  1.00  0.00     0.044 A 
ATOM     17  C   UNL A   1      40.934  30.445  34.889  1.00  0.00     0.026 A 
ATOM     18  C   UNL A   1      40.112  29.968  33.864  1.00  0.00     0.002 A 
ATOM     19  C   UNL A   1      38.229  31.065  34.880  1.00  0.00     0.016 A 
ATOM     20  C   UNL A   1      38.752  30.251  33.877  1.00  0.00     0.001 A 
BRANCH  16  21
ATOM     21  N   UNL A   1      41.295  31.608  36.957  1.00  0.00    -0.398 N 
ATOM     22  H   UNL A   1      41.922  30.964  37.360  1.00  0.00     0.156 HD
ATOM     23  H   UNL A   1      41.292  32.546  37.258  1.00  0.00     0.156 HD
ENDBRANCH  16  21
ENDBRANCH  12  15
ENDBRANCH  10  11
ENDBRANCH   6  10
ENDBRANCH   3   5
ENDBRANCH   2   3
ENDBRANCH   1   2
BRANCH   1  24
ATOM     24  C   UNL A   1      33.124  36.206  29.303  1.00  0.00     0.275 C 
BRANCH  24  25
ATOM     25  O   UNL A   1      32.440  34.936  29.259  1.00  0.00    -0.458 OA
BRANCH  25  26
ATOM     26  C   UNL A   1      33.028  33.995  28.483  1.00  0.00     0.338 C 
ATOM     27  O   UNL A   1      32.594  33.538  27.438  1.00  0.00    -0.246 OA
BRANCH  26  28
ATOM     28  C   UNL A   1      34.357  33.625  29.011  1.00  0.00     0.060 A 
ATOM     29  C   UNL A   1      35.468  33.916  28.217  1.00  0.00     0.016 A 
ATOM     30  C   UNL A   1      34.512  32.899  30.195  1.00  0.00     0.016 A 
ATOM     31  C   UNL A   1      36.733  33.457  28.580  1.00  0.00     0.010 A 
ATOM     32  C   UNL A   1      35.786  32.439  30.561  1.00  0.00     0.010 A 
ATOM     33  C   UNL A   1      36.901  32.691  29.741  1.00  0.00    -0.014 A 
BRANCH  33  34
ATOM     34  C   UNL A   1      38.234  32.095  30.026  1.00  0.00     0.031 A 
ATOM     35  C   UNL A   1      39.192  32.797  30.952  1.00  0.00     0.074 A 
ATOM     36  C   UNL A   1      38.562  30.892  29.518  1.00  0.00     0.049 A 
ATOM     37  N   UNL A   1      40.372  32.409  31.369  1.00  0.00    -0.248 NA
ATOM     38  C   UNL A   1      38.764  34.100  31.484  1.00  0.00     0.031 C 
ATOM     39  C   UNL A   1      37.719  30.090  28.632  1.00  0.00     0.029 A 
ATOM     40  N   UNL A   1      39.692  30.131  29.689  1.00  0.00    -0.354 N 
ATOM     41  C   UNL A   1      40.832  33.423  32.200  1.00  0.00     0.074 A 
ATOM     42  C   UNL A   1      39.815  34.453  32.210  1.00  0.00     0.031 C 
ATOM     43  C   UNL A   1      38.355  28.939  28.351  1.00  0.00     0.029 A 
ATOM     44  C   UNL A   1      39.658  28.937  29.011  1.00  0.00     0.049 A 
ATOM     45  H   UNL A   1      40.454  30.413  30.246  1.00  0.00     0.167 HD
ATOM     46  C   UNL A   1      41.991  33.491  32.900  1.00  0.00     0.031 A 
ATOM     47  C   UNL A   1      40.574  27.953  28.926  1.00  0.00     0.031 A 
ATOM     48  C   UNL A   1      43.012  32.477  32.898  1.00  0.00     0.049 A 
ATOM     49  C   UNL A   1      41.871  28.074  29.677  1.00  0.00     0.074 A 
ATOM     50  C   UNL A   1      44.213  32.460  33.587  1.00  0.00     0.029 A 
ATOM     51  N   UNL A   1      42.953  31.301  32.167  1.00  0.00    -0.354 N 
ATOM     52  N   UNL A   1      42.278  29.029  30.476  1.00  0.00    -0.248 NA
ATOM     53  C   UNL A   1      42.829  26.969  29.521  1.00  0.00     0.031 C 
ATOM     54  C   UNL A   1      44.900  31.290  33.241  1.00  0.00     0.029 A 
ATOM     55  C   UNL A   1      44.104  30.558  32.377  1.00  0.00     0.049 A 
ATOM     56  H   UNL A   1      42.205  31.033  31.586  1.00  0.00     0.167 HD
ATOM     57  C   UNL A   1      43.527  28.630  30.937  1.00  0.00     0.074 A 
ATOM     58  C   UNL A   1      43.803  27.339  30.342  1.00  0.00     0.031 C 
ATOM     59  C   UNL A   1      44.369  29.276  31.781  1.00  0.00     0.031 A 
BRANCH  46  60
ATOM     60  C   UNL A   1      42.227  34.731  33.717  1.00  0.00    -0.014 A 
ATOM     61  C   UNL A   1      41.854  34.794  35.069  1.00  0.00     0.009 A 
ATOM     62  C   UNL A   1      42.862  35.839  33.134  1.00  0.00     0.009 A 
ATOM     63  C   UNL A   1      42.081  35.957  35.811  1.00  0.00     0.001 A 
ATOM     64  C   UNL A   1      43.110  36.990  33.884  1.00  0.00     0.001 A 
ATOM     65  C   UNL A   1      42.711  37.051  35.219  1.00  0.00     0.000 A 
ENDBRANCH  46  60
BRANCH  47  66
ATOM     66  C   UNL A   1      40.300  26.757  28.091  1.00  0.00    -0.014 A 
ATOM     67  C   UNL A   1      40.794  26.669  26.781  1.00  0.00     0.009 A 
ATOM     68  C   UNL A   1      39.524  25.702  28.597  1.00  0.00     0.009 A 
ATOM     69  C   UNL A   1      40.496  25.560  25.986  1.00  0.00     0.001 A 
ATOM     70  C   UNL A   1      39.250  24.582  27.809  1.00  0.00     0.001 A 
ATOM     71  C   UNL A   1      39.729  24.517  26.502  1.00  0.00     0.000 A 
ENDBRANCH  47  66
BRANCH  59  72
ATOM     72  C   UNL A   1      45.650  28.577  32.140  1.00  0.00    -0.014 A 
ATOM     73  C   UNL A   1      45.718  27.688  33.225  1.00  0.00     0.009 A 
ATOM     74  C   UNL A   1      46.800  28.791  31.364  1.00  0.00     0.009 A 
ATOM     75  C   UNL A   1      46.923  27.059  33.547  1.00  0.00     0.001 A 
ATOM     76  C   UNL A   1      47.995  28.140  31.672  1.00  0.00     0.001 A 
ATOM     77  C   UNL A   1      48.058  27.283  32.770  1.00  0.00     0.000 A 
ENDBRANCH  59  72
ENDBRANCH  33  34
ENDBRANCH  26  28
ENDBRANCH  25  26
ENDBRANCH  24  25
ENDBRANCH   1  24
TORSDOF 15
ENDMDL
MODEL 2
REMARK VINA RESULT:      -9.5      2.186      3.913
REMARK SMILES Nc1ccccc1C(=O)NCc1ccc(C(=O)OCCOC(=O)c2ccc(-c3c4nc(c(-c5ccccc5)c5ccc([nH]5)c(-c5ccccc5)c5nc(c(-c6ccccc6)c6ccc3[nH]6)C=C5)C=C4)cc2)o1
REMARK SMILES IDX 19 1 18 2 16 3 17 4 15 5 12 6 13 7 72 8 14 9 11 10 10 11
REMARK SMILES IDX 8 12 9 13 7 15 2 16 3 17 4 18 6 19 5 20 1 21 20 24 21 25
REMARK SMILES IDX 22 26 23 27 24 28 25 29 71 30 26 31 70 32 27 33 28 34 29 35
REMARK SMILES IDX 64 36 30 37 69 38 63 39 65 40 31 41 68 42 62 43 61 44 32 46
REMARK SMILES IDX 54 47 39 48 53 49 40 50 43 51 52 52 66 53 41 54 42 55 51 57
REMARK SMILES IDX 67 58 44 59 33 60 34 61 38 62 35 63 37 64 36 65 55 66 56 67
REMARK SMILES IDX 60 68 57 69 59 70 58 71 45 72 46 73 50 74 47 75 49 76 48 77
REMARK H PARENT 10 14 1 22 1 23 65 45 43 56
REMARK Flexibility Score: inf
ROOT
ATOM      1  C   UNL A   1      33.771  34.471  28.331  1.00  0.00     0.275 C 
ENDROOT
BRANCH   1   2
ATOM      2  O   UNL A   1      33.564  34.657  29.744  1.00  0.00    -0.456 OA
BRANCH   2   3
ATOM      3  C   UNL A   1      32.991  35.847  30.088  1.00  0.00     0.374 C 
ATOM      4  O   UNL A   1      32.203  36.463  29.378  1.00  0.00    -0.242 OA
BRANCH   3   5
ATOM      5  C   UNL A   1      33.342  36.211  31.440  1.00  0.00     0.211 A 
ATOM      6  C   UNL A   1      34.263  35.730  33.394  1.00  0.00     0.124 A 
ATOM      7  C   UNL A   1      33.998  37.084  33.416  1.00  0.00     0.048 A 
ATOM      8  O   UNL A   1      33.796  35.198  32.233  1.00  0.00    -0.452 OA
ATOM      9  C   UNL A   1      33.414  37.395  32.152  1.00  0.00     0.058 A 
BRANCH   6  10
ATOM     10  C   UNL A   1      35.031  34.764  34.214  1.00  0.00     0.191 C 
BRANCH  10  11
ATOM     11  N   UNL A   1      35.009  33.420  33.697  1.00  0.00    -0.345 N 
ATOM     12  C   UNL A   1      36.034  32.747  33.073  1.00  0.00     0.253 C 
ATOM     13  O   UNL A   1      35.873  31.568  32.761  1.00  0.00    -0.269 OA
ATOM     14  H   UNL A   1      34.164  32.926  33.802  1.00  0.00     0.164 HD
BRANCH  12  15
ATOM     15  C   UNL A   1      37.295  33.436  32.679  1.00  0.00     0.062 A 
ATOM     16  C   UNL A   1      37.502  34.118  31.462  1.00  0.00     0.044 A 
ATOM     17  C   UNL A   1      38.799  34.580  31.178  1.00  0.00     0.026 A 
ATOM     18  C   UNL A   1      39.821  34.507  32.128  1.00  0.00     0.002 A 
ATOM     19  C   UNL A   1      38.318  33.401  33.645  1.00  0.00     0.016 A 
ATOM     20  C   UNL A   1      39.572  33.946  33.375  1.00  0.00     0.001 A 
BRANCH  16  21
ATOM     21  N   UNL A   1      36.530  34.253  30.468  1.00  0.00    -0.398 N 
ATOM     22  H   UNL A   1      36.566  33.686  29.664  1.00  0.00     0.156 HD
ATOM     23  H   UNL A   1      35.808  34.916  30.571  1.00  0.00     0.156 HD
ENDBRANCH  16  21
ENDBRANCH  12  15
ENDBRANCH  10  11
ENDBRANCH   6  10
ENDBRANCH   3   5
ENDBRANCH   2   3
ENDBRANCH   1   2
BRANCH   1  24
ATOM     24  C   UNL A   1      33.532  33.017  27.901  1.00  0.00     0.275 C 
BRANCH  24  25
ATOM     25  O   UNL A   1      34.452  32.092  28.520  1.00  0.00    -0.458 OA
BRANCH  25  26
ATOM     26  C   UNL A   1      34.409  30.830  28.031  1.00  0.00     0.338 C 
ATOM     27  O   UNL A   1      33.478  30.309  27.439  1.00  0.00    -0.246 OA
BRANCH  26  28
ATOM     28  C   UNL A   1      35.702  30.142  28.222  1.00  0.00     0.060 A 
ATOM     29  C   UNL A   1      35.978  29.633  29.493  1.00  0.00     0.016 A 
ATOM     30  C   UNL A   1      36.680  30.101  27.224  1.00  0.00     0.016 A 
ATOM     31  C   UNL A   1      37.237  29.112  29.785  1.00  0.00     0.010 A 
ATOM     32  C   UNL A   1      37.946  29.574  27.518  1.00  0.00     0.010 A 
ATOM     33  C   UNL A   1      38.243  29.103  28.810  1.00  0.00    -0.014 A 
BRANCH  33  34
ATOM     34  C   UNL A   1      39.615  28.674  29.192  1.00  0.00     0.031 A 
ATOM     35  C   UNL A   1      40.440  29.524  30.122  1.00  0.00     0.074 A 
ATOM     36  C   UNL A   1      40.099  27.492  28.770  1.00  0.00     0.049 A 
ATOM     37  N   UNL A   1      41.630  29.292  30.616  1.00  0.00    -0.248 NA
ATOM     38  C   UNL A   1      39.844  30.797  30.558  1.00  0.00     0.031 C 
ATOM     39  C   UNL A   1      39.397  26.556  27.891  1.00  0.00     0.029 A 
ATOM     40  N   UNL A   1      41.294  26.870  29.037  1.00  0.00    -0.354 N 
ATOM     41  C   UNL A   1      41.932  30.392  31.410  1.00  0.00     0.074 A 
ATOM     42  C   UNL A   1      40.810  31.301  31.313  1.00  0.00     0.031 C 
ATOM     43  C   UNL A   1      40.168  25.471  27.706  1.00  0.00     0.029 A 
ATOM     44  C   UNL A   1      41.426  25.647  28.427  1.00  0.00     0.049 A 
ATOM     45  H   UNL A   1      41.989  27.264  29.613  1.00  0.00     0.167 HD
ATOM     46  C   UNL A   1      43.037  30.625  32.161  1.00  0.00     0.031 A 
ATOM     47  C   UNL A   1      42.447  24.768  28.441  1.00  0.00     0.031 A 
ATOM     48  C   UNL A   1      44.161  29.731  32.264  1.00  0.00     0.049 A 
ATOM     49  C   UNL A   1      43.681  25.071  29.246  1.00  0.00     0.074 A 
ATOM     50  C   UNL A   1      45.318  29.883  33.010  1.00  0.00     0.029 A 
ATOM     51  N   UNL A   1      44.270  28.521  31.600  1.00  0.00    -0.354 N 
ATOM     52  N   UNL A   1      43.938  26.105  30.009  1.00  0.00    -0.248 NA
ATOM     53  C   UNL A   1      44.761  24.073  29.200  1.00  0.00     0.031 C 
ATOM     54  C   UNL A   1      46.146  28.782  32.765  1.00  0.00     0.029 A 
ATOM     55  C   UNL A   1      45.481  27.922  31.906  1.00  0.00     0.049 A 
ATOM     56  H   UNL A   1      43.588  28.142  30.999  1.00  0.00     0.167 HD
ATOM     57  C   UNL A   1      45.196  25.871  30.551  1.00  0.00     0.074 A 
ATOM     58  C   UNL A   1      45.642  24.591  30.044  1.00  0.00     0.031 C 
ATOM     59  C   UNL A   1      45.916  26.649  31.397  1.00  0.00     0.031 A 
BRANCH  46  60
ATOM     60  C   UNL A   1      43.093  31.923  32.917  1.00  0.00    -0.014 A 
ATOM     61  C   UNL A   1      43.534  33.105  32.301  1.00  0.00     0.009 A 
ATOM     62  C   UNL A   1      42.667  31.970  34.253  1.00  0.00     0.009 A 
ATOM     63  C   UNL A   1      43.580  34.302  33.021  1.00  0.00     0.001 A 
ATOM     64  C   UNL A   1      42.692  33.172  34.963  1.00  0.00     0.001 A 
ATOM     65  C   UNL A   1      43.156  34.334  34.349  1.00  0.00     0.000 A 
ENDBRANCH  46  60
BRANCH  47  66
ATOM     66  C   UNL A   1      42.350  23.508  27.664  1.00  0.00    -0.014 A 
ATOM     67  C   UNL A   1      41.827  22.345  28.249  1.00  0.00     0.009 A 
ATOM     68  C   UNL A   1      42.799  23.458  26.335  1.00  0.00     0.009 A 
ATOM     69  C   UNL A   1      41.779  21.150  27.526  1.00  0.00     0.001 A 
ATOM     70  C   UNL A   1      42.725  22.270  25.606  1.00  0.00     0.001 A 
ATOM     71  C   UNL A   1      42.224  21.115  26.205  1.00  0.00     0.000 A 
ENDBRANCH  47  66
BRANCH  59  72
ATOM     72  C   UNL A   1      47.244  26.116  31.856  1.00  0.00    -0.014 A 
ATOM     73  C   UNL A   1      48.413  26.320  31.106  1.00  0.00     0.009 A 
ATOM     74  C   UNL A   1      47.330  25.420  33.073  1.00  0.00     0.009 A 
ATOM     75  C   UNL A   1      49.634  25.804  31.547  1.00  0.00     0.001 A 
ATOM     76  C   UNL A   1      48.556  24.929  33.524  1.00  0.00     0.001 A 
ATOM     77  C   UNL A   1      49.704  25.113  32.756  1.00  0.00     0.000 A 
ENDBRANCH  59  72
ENDBRANCH  33  34
ENDBRANCH  26  28
ENDBRANCH  25  26
ENDBRANCH  24  25
ENDBRANCH   1  24
TORSDOF 15
ENDMDL
MODEL 3
REMARK VINA RESULT:      -9.3      2.368      7.207
REMARK SMILES Nc1ccccc1C(=O)NCc1ccc(C(=O)OCCOC(=O)c2ccc(-c3c4nc(c(-c5ccccc5)c5ccc([nH]5)c(-c5ccccc5)c5nc(c(-c6ccccc6)c6ccc3[nH]6)C=C5)C=C4)cc2)o1
REMARK SMILES IDX 19 1 18 2 16 3 17 4 15 5 12 6 13 7 72 8 14 9 11 10 10 11
REMARK SMILES IDX 8 12 9 13 7 15 2 16 3 17 4 18 6 19 5 20 1 21 20 24 21 25
REMARK SMILES IDX 22 26 23 27 24 28 25 29 71 30 26 31 70 32 27 33 28 34 29 35
REMARK SMILES IDX 64 36 30 37 69 38 63 39 65 40 31 41 68 42 62 43 61 44 32 46
REMARK SMILES IDX 54 47 39 48 53 49 40 50 43 51 52 52 66 53 41 54 42 55 51 57
REMARK SMILES IDX 67 58 44 59 33 60 34 61 38 62 35 63 37 64 36 65 55 66 56 67
REMARK SMILES IDX 60 68 57 69 59 70 58 71 45 72 46 73 50 74 47 75 49 76 48 77
REMARK H PARENT 10 14 1 22 1 23 65 45 43 56
REMARK Flexibility Score: inf
ROOT
ATOM      1  C   UNL A   1      33.666  33.700  28.134  1.00  0.00     0.275 C 
ENDROOT
BRANCH   1   2
ATOM      2  O   UNL A   1      34.194  34.733  28.987  1.00  0.00    -0.456 OA
BRANCH   2   3
ATOM      3  C   UNL A   1      33.265  35.605  29.476  1.00  0.00     0.374 C 
ATOM      4  O   UNL A   1      32.318  36.037  28.828  1.00  0.00    -0.242 OA
BRANCH   3   5
ATOM      5  C   UNL A   1      33.481  35.847  30.882  1.00  0.00     0.211 A 
ATOM      6  C   UNL A   1      34.626  35.516  32.747  1.00  0.00     0.124 A 
ATOM      7  C   UNL A   1      33.765  36.562  33.005  1.00  0.00     0.048 A 
ATOM      8  O   UNL A   1      34.397  35.041  31.494  1.00  0.00    -0.452 OA
ATOM      9  C   UNL A   1      33.034  36.782  31.799  1.00  0.00     0.058 A 
BRANCH   6  10
ATOM     10  C   UNL A   1      35.799  34.893  33.404  1.00  0.00     0.191 C 
BRANCH  10  11
ATOM     11  N   UNL A   1      35.816  33.455  33.317  1.00  0.00    -0.345 N 
ATOM     12  C   UNL A   1      36.633  32.674  32.532  1.00  0.00     0.253 C 
ATOM     13  O   UNL A   1      36.571  31.450  32.637  1.00  0.00    -0.269 OA
ATOM     14  H   UNL A   1      35.168  32.975  33.882  1.00  0.00     0.164 HD
BRANCH  12  15
ATOM     15  C   UNL A   1      37.519  33.269  31.493  1.00  0.00     0.062 A 
ATOM     16  C   UNL A   1      38.691  34.010  31.750  1.00  0.00     0.044 A 
ATOM     17  C   UNL A   1      39.328  34.634  30.664  1.00  0.00     0.026 A 
ATOM     18  C   UNL A   1      38.912  34.407  29.349  1.00  0.00     0.002 A 
ATOM     19  C   UNL A   1      37.130  33.014  30.165  1.00  0.00     0.016 A 
ATOM     20  C   UNL A   1      37.831  33.571  29.097  1.00  0.00     0.001 A 
BRANCH  16  21
ATOM     21  N   UNL A   1      39.186  34.267  33.032  1.00  0.00    -0.398 N 
ATOM     22  H   UNL A   1      40.096  34.624  33.145  1.00  0.00     0.156 HD
ATOM     23  H   UNL A   1      38.623  34.091  33.821  1.00  0.00     0.156 HD
ENDBRANCH  16  21
ENDBRANCH  12  15
ENDBRANCH  10  11
ENDBRANCH   6  10
ENDBRANCH   3   5
ENDBRANCH   2   3
ENDBRANCH   1   2
BRANCH   1  24
ATOM     24  C   UNL A   1      34.185  32.310  28.525  1.00  0.00     0.275 C 
BRANCH  24  25
ATOM     25  O   UNL A   1      34.260  31.403  27.405  1.00  0.00    -0.458 OA
BRANCH  25  26
ATOM     26  C   UNL A   1      34.507  30.112  27.729  1.00  0.00     0.338 C 
ATOM     27  O   UNL A   1      33.753  29.165  27.575  1.00  0.00    -0.246 OA
BRANCH  26  28
ATOM     28  C   UNL A   1      35.886  29.945  28.231  1.00  0.00     0.060 A 
ATOM     29  C   UNL A   1      36.928  30.103  27.315  1.00  0.00     0.016 A 
ATOM     30  C   UNL A   1      36.158  29.520  29.535  1.00  0.00     0.016 A 
ATOM     31  C   UNL A   1      38.239  29.809  27.682  1.00  0.00     0.010 A 
ATOM     32  C   UNL A   1      37.479  29.227  29.904  1.00  0.00     0.010 A 
ATOM     33  C   UNL A   1      38.526  29.341  28.971  1.00  0.00    -0.014 A 
BRANCH  33  34
ATOM     34  C   UNL A   1      39.910  28.899  29.288  1.00  0.00     0.031 A 
ATOM     35  C   UNL A   1      40.388  27.539  28.849  1.00  0.00     0.074 A 
ATOM     36  C   UNL A   1      40.766  29.737  29.901  1.00  0.00     0.049 A 
ATOM     37  N   UNL A   1      41.574  26.999  28.979  1.00  0.00    -0.248 NA
ATOM     38  C   UNL A   1      39.406  26.680  28.170  1.00  0.00     0.031 C 
ATOM     39  C   UNL A   1      40.446  31.090  30.354  1.00  0.00     0.029 A 
ATOM     40  N   UNL A   1      42.087  29.573  30.237  1.00  0.00    -0.354 N 
ATOM     41  C   UNL A   1      41.478  25.734  28.411  1.00  0.00     0.074 A 
ATOM     42  C   UNL A   1      40.113  25.580  27.956  1.00  0.00     0.031 C 
ATOM     43  C   UNL A   1      41.548  31.641  30.893  1.00  0.00     0.029 A 
ATOM     44  C   UNL A   1      42.639  30.671  30.851  1.00  0.00     0.049 A 
ATOM     45  H   UNL A   1      42.592  28.747  30.055  1.00  0.00     0.167 HD
ATOM     46  C   UNL A   1      42.438  24.788  28.270  1.00  0.00     0.031 A 
ATOM     47  C   UNL A   1      43.881  30.873  31.330  1.00  0.00     0.031 A 
ATOM     48  C   UNL A   1      43.799  24.927  28.719  1.00  0.00     0.049 A 
ATOM     49  C   UNL A   1      44.916  29.790  31.201  1.00  0.00     0.074 A 
ATOM     50  C   UNL A   1      44.841  24.022  28.608  1.00  0.00     0.029 A 
ATOM     51  N   UNL A   1      44.305  26.040  29.369  1.00  0.00    -0.354 N 
ATOM     52  N   UNL A   1      44.814  28.611  30.640  1.00  0.00    -0.248 NA
ATOM     53  C   UNL A   1      46.245  30.076  31.763  1.00  0.00     0.031 C 
ATOM     54  C   UNL A   1      45.969  24.573  29.227  1.00  0.00     0.029 A 
ATOM     55  C   UNL A   1      45.641  25.840  29.679  1.00  0.00     0.049 A 
ATOM     56  H   UNL A   1      43.792  26.854  29.581  1.00  0.00     0.167 HD
ATOM     57  C   UNL A   1      46.068  28.025  30.759  1.00  0.00     0.074 A 
ATOM     58  C   UNL A   1      46.920  28.984  31.431  1.00  0.00     0.031 C 
ATOM     59  C   UNL A   1      46.478  26.800  30.347  1.00  0.00     0.031 A 
BRANCH  46  60
ATOM     60  C   UNL A   1      42.038  23.494  27.616  1.00  0.00    -0.014 A 
ATOM     61  C   UNL A   1      42.245  23.277  26.245  1.00  0.00     0.009 A 
ATOM     62  C   UNL A   1      41.476  22.468  28.391  1.00  0.00     0.009 A 
ATOM     63  C   UNL A   1      41.864  22.068  25.656  1.00  0.00     0.001 A 
ATOM     64  C   UNL A   1      41.119  21.252  27.804  1.00  0.00     0.001 A 
ATOM     65  C   UNL A   1      41.304  21.058  26.437  1.00  0.00     0.000 A 
ENDBRANCH  46  60
BRANCH  47  66
ATOM     66  C   UNL A   1      44.223  32.162  31.983  1.00  0.00    -0.014 A 
ATOM     67  C   UNL A   1      44.746  33.227  31.234  1.00  0.00     0.009 A 
ATOM     68  C   UNL A   1      44.043  32.326  33.365  1.00  0.00     0.009 A 
ATOM     69  C   UNL A   1      45.106  34.422  31.861  1.00  0.00     0.001 A 
ATOM     70  C   UNL A   1      44.379  33.531  33.985  1.00  0.00     0.001 A 
ATOM     71  C   UNL A   1      44.919  34.574  33.234  1.00  0.00     0.000 A 
ENDBRANCH  47  66
BRANCH  59  72
ATOM     72  C   UNL A   1      47.921  26.446  30.575  1.00  0.00    -0.014 A 
ATOM     73  C   UNL A   1      48.906  26.740  29.619  1.00  0.00     0.009 A 
ATOM     74  C   UNL A   1      48.303  25.832  31.779  1.00  0.00     0.009 A 
ATOM     75  C   UNL A   1      50.239  26.391  29.849  1.00  0.00     0.001 A 
ATOM     76  C   UNL A   1      49.640  25.509  32.017  1.00  0.00     0.001 A 
ATOM     77  C   UNL A   1      50.604  25.779  31.048  1.00  0.00     0.000 A 
ENDBRANCH  59  72
ENDBRANCH  33  34
ENDBRANCH  26  28
ENDBRANCH  25  26
ENDBRANCH  24  25
ENDBRANCH   1  24
TORSDOF 15
ENDMDL
