MODEL 1
REMARK VINA RESULT:     -11.9      0.000      0.000
REMARK SMILES COC(=O)c1ccc(C)c2c1[C@H]1C=CC[C@H]1[C@@H](c1ccc(C(=O)OCCOC(=O)c3ccc(-c4c5nc(c(-c6ccccc6)c6ccc([nH]6)c(-c6ccccc6)c6nc(c(-c7ccccc7)c7ccc4[nH]7)C=C6)C=C5)cc3)cc1)N2
REMARK SMILES IDX 25 1 24 2 22 3 23 4 21 5 18 6 19 7 79 8 20 9 78 10 17 11
REMARK SMILES IDX 5 12 6 13 11 14 7 15 10 16 12 17 8 18 80 19 13 20 16 21 9 22
REMARK SMILES IDX 14 24 15 25 3 26 4 27 2 28 1 29 26 30 27 31 28 32 29 33
REMARK SMILES IDX 30 34 31 35 77 36 32 37 76 38 33 39 34 40 35 41 70 42 36 43
REMARK SMILES IDX 75 44 69 45 71 46 37 47 74 48 68 49 67 50 38 52 60 53 45 54
REMARK SMILES IDX 59 55 46 56 49 57 58 58 72 59 47 60 48 61 57 63 73 64 50 65
REMARK SMILES IDX 39 66 40 67 44 68 41 69 43 70 42 71 61 72 62 73 66 74 63 75
REMARK SMILES IDX 65 76 64 77 51 78 52 79 56 80 53 81 55 82 54 83
REMARK H PARENT 80 23 71 51 49 62
REMARK Flexibility Score: inf
ROOT
ATOM      1  C   UNL A   1      38.280  19.784  25.004  1.00  0.00     0.275 C 
ENDROOT
BRANCH   1   2
ATOM      2  O   UNL A   1      37.425  20.899  25.316  1.00  0.00    -0.458 OA
BRANCH   2   3
ATOM      3  C   UNL A   1      36.093  20.713  25.120  1.00  0.00     0.338 C 
ATOM      4  O   UNL A   1      35.560  19.734  24.637  1.00  0.00    -0.246 OA
BRANCH   3   5
ATOM      5  C   UNL A   1      35.344  21.825  25.759  1.00  0.00     0.060 A 
ATOM      6  C   UNL A   1      33.521  23.866  26.440  1.00  0.00    -0.025 A 
ATOM      7  C   UNL A   1      34.581  24.103  25.546  1.00  0.00     0.007 A 
ATOM      8  C   UNL A   1      33.560  22.660  27.161  1.00  0.00     0.007 A 
ATOM      9  C   UNL A   1      35.492  23.098  25.214  1.00  0.00     0.016 A 
ATOM     10  C   UNL A   1      34.431  21.627  26.794  1.00  0.00     0.016 A 
BRANCH   6  11
ATOM     11  C   UNL A   1      32.312  24.814  26.572  1.00  0.00     0.114 C 
ATOM     12  C   UNL A   1      32.815  26.814  22.832  1.00  0.00     0.065 A 
ATOM     13  C   UNL A   1      33.635  27.938  22.756  1.00  0.00     0.016 A 
ATOM     14  C   UNL A   1      32.494  26.232  24.079  1.00  0.00    -0.003 A 
ATOM     15  C   UNL A   1      34.127  28.508  23.926  1.00  0.00     0.006 A 
ATOM     16  C   UNL A   1      32.990  26.817  25.271  1.00  0.00     0.042 A 
ATOM     17  C   UNL A   1      31.529  25.073  24.154  1.00  0.00     0.050 C 
ATOM     18  C   UNL A   1      33.791  27.980  25.187  1.00  0.00    -0.028 A 
ATOM     19  N   UNL A   1      32.727  26.216  26.502  1.00  0.00    -0.377 N 
ATOM     20  C   UNL A   1      31.967  23.742  23.609  1.00  0.00    -0.023 C 
ATOM     21  C   UNL A   1      31.116  24.664  25.579  1.00  0.00     0.031 C 
ATOM     22  C   UNL A   1      34.366  28.691  26.385  1.00  0.00     0.046 C 
ATOM     23  H   UNL A   1      32.820  26.739  27.331  1.00  0.00     0.161 HD
ATOM     24  C   UNL A   1      31.370  22.733  24.255  1.00  0.00    -0.030 C 
ATOM     25  C   UNL A   1      30.541  23.252  25.385  1.00  0.00     0.034 C 
BRANCH  12  26
ATOM     26  C   UNL A   1      32.195  26.327  21.582  1.00  0.00     0.338 C 
ATOM     27  O   UNL A   1      31.028  26.518  21.291  1.00  0.00    -0.246 OA
BRANCH  26  28
ATOM     28  O   UNL A   1      33.118  25.638  20.875  1.00  0.00    -0.465 OA
ATOM     29  C   UNL A   1      32.734  25.203  19.565  1.00  0.00     0.282 C 
ENDBRANCH  26  28
ENDBRANCH  12  26
ENDBRANCH   6  11
ENDBRANCH   3   5
ENDBRANCH   2   3
ENDBRANCH   1   2
BRANCH   1  30
ATOM     30  C   UNL A   1      39.425  19.674  26.012  1.00  0.00     0.275 C 
BRANCH  30  31
ATOM     31  O   UNL A   1      40.581  19.037  25.432  1.00  0.00    -0.458 OA
BRANCH  31  32
ATOM     32  C   UNL A   1      41.729  19.173  26.134  1.00  0.00     0.338 C 
ATOM     33  O   UNL A   1      42.556  18.310  26.374  1.00  0.00    -0.246 OA
BRANCH  32  34
ATOM     34  C   UNL A   1      41.903  20.572  26.562  1.00  0.00     0.060 A 
ATOM     35  C   UNL A   1      42.239  21.519  25.595  1.00  0.00     0.016 A 
ATOM     36  C   UNL A   1      41.883  20.925  27.914  1.00  0.00     0.016 A 
ATOM     37  C   UNL A   1      42.570  22.820  25.971  1.00  0.00     0.010 A 
ATOM     38  C   UNL A   1      42.233  22.230  28.294  1.00  0.00     0.010 A 
ATOM     39  C   UNL A   1      42.604  23.178  27.326  1.00  0.00    -0.014 A 
BRANCH  39  40
ATOM     40  C   UNL A   1      43.026  24.549  27.701  1.00  0.00     0.031 A 
ATOM     41  C   UNL A   1      44.478  24.930  27.751  1.00  0.00     0.074 A 
ATOM     42  C   UNL A   1      42.094  25.490  27.919  1.00  0.00     0.049 A 
ATOM     43  N   UNL A   1      45.017  26.123  27.792  1.00  0.00    -0.248 NA
ATOM     44  C   UNL A   1      45.453  23.839  27.693  1.00  0.00     0.031 C 
ATOM     45  C   UNL A   1      40.650  25.277  27.860  1.00  0.00     0.029 A 
ATOM     46  N   UNL A   1      42.232  26.816  28.238  1.00  0.00    -0.354 N 
ATOM     47  C   UNL A   1      46.385  25.922  27.655  1.00  0.00     0.074 A 
ATOM     48  C   UNL A   1      46.600  24.495  27.571  1.00  0.00     0.031 C 
ATOM     49  C   UNL A   1      40.031  26.430  28.159  1.00  0.00     0.029 A 
ATOM     50  C   UNL A   1      41.037  27.452  28.444  1.00  0.00     0.049 A 
ATOM     51  H   UNL A   1      43.104  27.266  28.311  1.00  0.00     0.167 HD
ATOM     52  C   UNL A   1      47.372  26.845  27.609  1.00  0.00     0.031 A 
ATOM     53  C   UNL A   1      40.781  28.712  28.842  1.00  0.00     0.031 A 
ATOM     54  C   UNL A   1      47.184  28.241  27.893  1.00  0.00     0.049 A 
ATOM     55  C   UNL A   1      41.918  29.667  29.061  1.00  0.00     0.074 A 
ATOM     56  C   UNL A   1      48.135  29.244  27.951  1.00  0.00     0.029 A 
ATOM     57  N   UNL A   1      45.973  28.810  28.248  1.00  0.00    -0.354 N 
ATOM     58  N   UNL A   1      43.195  29.491  28.822  1.00  0.00    -0.248 NA
ATOM     59  C   UNL A   1      41.584  30.991  29.607  1.00  0.00     0.031 C 
ATOM     60  C   UNL A   1      47.513  30.400  28.433  1.00  0.00     0.029 A 
ATOM     61  C   UNL A   1      46.165  30.131  28.609  1.00  0.00     0.049 A 
ATOM     62  H   UNL A   1      45.106  28.343  28.244  1.00  0.00     0.167 HD
ATOM     63  C   UNL A   1      43.815  30.683  29.171  1.00  0.00     0.074 A 
ATOM     64  C   UNL A   1      42.775  31.576  29.640  1.00  0.00     0.031 C 
ATOM     65  C   UNL A   1      45.130  31.005  29.097  1.00  0.00     0.031 A 
BRANCH  52  66
ATOM     66  C   UNL A   1      48.759  26.371  27.294  1.00  0.00    -0.014 A 
ATOM     67  C   UNL A   1      49.219  26.360  25.968  1.00  0.00     0.009 A 
ATOM     68  C   UNL A   1      49.638  26.014  28.327  1.00  0.00     0.009 A 
ATOM     69  C   UNL A   1      50.537  25.998  25.683  1.00  0.00     0.001 A 
ATOM     70  C   UNL A   1      50.957  25.659  28.038  1.00  0.00     0.001 A 
ATOM     71  C   UNL A   1      51.406  25.652  26.718  1.00  0.00     0.000 A 
ENDBRANCH  52  66
BRANCH  53  72
ATOM     72  C   UNL A   1      39.375  29.106  29.093  1.00  0.00    -0.014 A 
ATOM     73  C   UNL A   1      38.604  29.704  28.088  1.00  0.00     0.009 A 
ATOM     74  C   UNL A   1      38.777  28.812  30.330  1.00  0.00     0.009 A 
ATOM     75  C   UNL A   1      37.256  29.992  28.314  1.00  0.00     0.001 A 
ATOM     76  C   UNL A   1      37.425  29.084  30.547  1.00  0.00     0.001 A 
ATOM     77  C   UNL A   1      36.666  29.673  29.539  1.00  0.00     0.000 A 
ENDBRANCH  53  72
BRANCH  65  78
ATOM     78  C   UNL A   1      45.546  32.376  29.539  1.00  0.00    -0.014 A 
ATOM     79  C   UNL A   1      45.496  33.461  28.652  1.00  0.00     0.009 A 
ATOM     80  C   UNL A   1      45.868  32.607  30.886  1.00  0.00     0.009 A 
ATOM     81  C   UNL A   1      45.761  34.754  29.108  1.00  0.00     0.001 A 
ATOM     82  C   UNL A   1      46.112  33.903  31.341  1.00  0.00     0.001 A 
ATOM     83  C   UNL A   1      46.059  34.975  30.453  1.00  0.00     0.000 A 
ENDBRANCH  65  78
ENDBRANCH  39  40
ENDBRANCH  32  34
ENDBRANCH  31  32
ENDBRANCH  30  31
ENDBRANCH   1  30
TORSDOF 14
ENDMDL
MODEL 2
REMARK VINA RESULT:     -11.9      4.714      9.602
REMARK SMILES COC(=O)c1ccc(C)c2c1[C@H]1C=CC[C@H]1[C@@H](c1ccc(C(=O)OCCOC(=O)c3ccc(-c4c5nc(c(-c6ccccc6)c6ccc([nH]6)c(-c6ccccc6)c6nc(c(-c7ccccc7)c7ccc4[nH]7)C=C6)C=C5)cc3)cc1)N2
REMARK SMILES IDX 25 1 24 2 22 3 23 4 21 5 18 6 19 7 79 8 20 9 78 10 17 11
REMARK SMILES IDX 5 12 6 13 11 14 7 15 10 16 12 17 8 18 80 19 13 20 16 21 9 22
REMARK SMILES IDX 14 24 15 25 3 26 4 27 2 28 1 29 26 30 27 31 28 32 29 33
REMARK SMILES IDX 30 34 31 35 77 36 32 37 76 38 33 39 34 40 35 41 70 42 36 43
REMARK SMILES IDX 75 44 69 45 71 46 37 47 74 48 68 49 67 50 38 52 60 53 45 54
REMARK SMILES IDX 59 55 46 56 49 57 58 58 72 59 47 60 48 61 57 63 73 64 50 65
REMARK SMILES IDX 39 66 40 67 44 68 41 69 43 70 42 71 61 72 62 73 66 74 63 75
REMARK SMILES IDX 65 76 64 77 51 78 52 79 56 80 53 81 55 82 54 83
REMARK H PARENT 80 23 71 51 49 62
REMARK Flexibility Score: inf
ROOT
ATOM      1  C   UNL A   1      31.779  32.075  26.835  1.00  0.00     0.275 C 
ENDROOT
BRANCH   1   2
ATOM      2  O   UNL A   1      32.565  31.158  27.617  1.00  0.00    -0.458 OA
BRANCH   2   3
ATOM      3  C   UNL A   1      33.690  30.673  27.029  1.00  0.00     0.338 C 
ATOM      4  O   UNL A   1      34.823  31.083  27.182  1.00  0.00    -0.246 OA
BRANCH   3   5
ATOM      5  C   UNL A   1      33.360  29.425  26.294  1.00  0.00     0.060 A 
ATOM      6  C   UNL A   1      33.308  27.185  24.582  1.00  0.00    -0.025 A 
ATOM      7  C   UNL A   1      32.850  28.443  24.151  1.00  0.00     0.007 A 
ATOM      8  C   UNL A   1      33.552  27.039  25.958  1.00  0.00     0.007 A 
ATOM      9  C   UNL A   1      32.863  29.552  24.999  1.00  0.00     0.016 A 
ATOM     10  C   UNL A   1      33.625  28.154  26.802  1.00  0.00     0.016 A 
BRANCH   6  11
ATOM     11  C   UNL A   1      33.632  26.035  23.607  1.00  0.00     0.114 C 
ATOM     12  C   UNL A   1      32.594  22.829  26.231  1.00  0.00     0.065 A 
ATOM     13  C   UNL A   1      33.553  22.309  27.098  1.00  0.00     0.016 A 
ATOM     14  C   UNL A   1      32.946  23.770  25.237  1.00  0.00    -0.003 A 
ATOM     15  C   UNL A   1      34.880  22.706  26.969  1.00  0.00     0.006 A 
ATOM     16  C   UNL A   1      34.300  24.168  25.102  1.00  0.00     0.042 A 
ATOM     17  C   UNL A   1      31.916  24.253  24.244  1.00  0.00     0.050 C 
ATOM     18  C   UNL A   1      35.273  23.607  25.962  1.00  0.00    -0.028 A 
ATOM     19  N   UNL A   1      34.648  25.139  24.163  1.00  0.00    -0.377 N 
ATOM     20  C   UNL A   1      30.809  25.142  24.739  1.00  0.00    -0.023 C 
ATOM     21  C   UNL A   1      32.474  25.119  23.101  1.00  0.00     0.031 C 
ATOM     22  C   UNL A   1      36.740  23.949  25.905  1.00  0.00     0.046 C 
ATOM     23  H   UNL A   1      35.585  25.222  23.871  1.00  0.00     0.161 HD
ATOM     24  C   UNL A   1      30.383  25.967  23.776  1.00  0.00    -0.030 C 
ATOM     25  C   UNL A   1      31.221  25.816  22.547  1.00  0.00     0.034 C 
BRANCH  12  26
ATOM     26  C   UNL A   1      31.226  22.275  26.305  1.00  0.00     0.338 C 
ATOM     27  O   UNL A   1      30.799  21.432  25.536  1.00  0.00    -0.246 OA
BRANCH  26  28
ATOM     28  O   UNL A   1      30.563  22.876  27.318  1.00  0.00    -0.465 OA
ATOM     29  C   UNL A   1      29.151  22.646  27.391  1.00  0.00     0.282 C 
ENDBRANCH  26  28
ENDBRANCH  12  26
ENDBRANCH   6  11
ENDBRANCH   3   5
ENDBRANCH   2   3
ENDBRANCH   1   2
BRANCH   1  30
ATOM     30  C   UNL A   1      32.271  33.512  27.021  1.00  0.00     0.275 C 
BRANCH  30  31
ATOM     31  O   UNL A   1      32.251  33.902  28.409  1.00  0.00    -0.458 OA
BRANCH  31  32
ATOM     32  C   UNL A   1      33.274  34.697  28.800  1.00  0.00     0.338 C 
ATOM     33  O   UNL A   1      33.261  35.909  28.925  1.00  0.00    -0.246 OA
BRANCH  32  34
ATOM     34  C   UNL A   1      34.459  33.883  29.119  1.00  0.00     0.060 A 
ATOM     35  C   UNL A   1      34.326  32.871  30.068  1.00  0.00     0.016 A 
ATOM     36  C   UNL A   1      35.719  34.204  28.606  1.00  0.00     0.016 A 
ATOM     37  C   UNL A   1      35.449  32.179  30.521  1.00  0.00     0.010 A 
ATOM     38  C   UNL A   1      36.852  33.520  29.075  1.00  0.00     0.010 A 
ATOM     39  C   UNL A   1      36.726  32.522  30.055  1.00  0.00    -0.014 A 
BRANCH  39  40
ATOM     40  C   UNL A   1      37.909  31.818  30.606  1.00  0.00     0.031 A 
ATOM     41  C   UNL A   1      38.464  32.167  31.956  1.00  0.00     0.074 A 
ATOM     42  C   UNL A   1      38.443  30.793  29.923  1.00  0.00     0.049 A 
ATOM     43  N   UNL A   1      39.305  31.494  32.703  1.00  0.00    -0.248 NA
ATOM     44  C   UNL A   1      37.976  33.401  32.576  1.00  0.00     0.031 C 
ATOM     45  C   UNL A   1      37.981  30.312  28.623  1.00  0.00     0.029 A 
ATOM     46  N   UNL A   1      39.498  29.976  30.235  1.00  0.00    -0.354 N 
ATOM     47  C   UNL A   1      39.355  32.171  33.915  1.00  0.00     0.074 A 
ATOM     48  C   UNL A   1      38.496  33.327  33.795  1.00  0.00     0.031 C 
ATOM     49  C   UNL A   1      38.767  29.296  28.235  1.00  0.00     0.029 A 
ATOM     50  C   UNL A   1      39.792  29.069  29.252  1.00  0.00     0.049 A 
ATOM     51  H   UNL A   1      39.996  30.035  31.082  1.00  0.00     0.167 HD
ATOM     52  C   UNL A   1      40.059  31.858  35.027  1.00  0.00     0.031 A 
ATOM     53  C   UNL A   1      40.792  28.171  29.168  1.00  0.00     0.031 A 
ATOM     54  C   UNL A   1      41.061  30.831  35.082  1.00  0.00     0.049 A 
ATOM     55  C   UNL A   1      41.753  28.022  30.312  1.00  0.00     0.074 A 
ATOM     56  C   UNL A   1      41.887  30.489  36.139  1.00  0.00     0.029 A 
ATOM     57  N   UNL A   1      41.430  30.039  34.008  1.00  0.00    -0.354 N 
ATOM     58  N   UNL A   1      41.720  28.592  31.491  1.00  0.00    -0.248 NA
ATOM     59  C   UNL A   1      42.890  27.110  30.115  1.00  0.00     0.031 C 
ATOM     60  C   UNL A   1      42.818  29.554  35.673  1.00  0.00     0.029 A 
ATOM     61  C   UNL A   1      42.526  29.268  34.349  1.00  0.00     0.049 A 
ATOM     62  H   UNL A   1      40.979  30.027  33.133  1.00  0.00     0.167 HD
ATOM     63  C   UNL A   1      42.817  28.099  32.184  1.00  0.00     0.074 A 
ATOM     64  C   UNL A   1      43.499  27.182  31.292  1.00  0.00     0.031 C 
ATOM     65  C   UNL A   1      43.213  28.377  33.450  1.00  0.00     0.031 A 
BRANCH  52  66
ATOM     66  C   UNL A   1      39.814  32.670  36.262  1.00  0.00    -0.014 A 
ATOM     67  C   UNL A   1      40.583  33.816  36.519  1.00  0.00     0.009 A 
ATOM     68  C   UNL A   1      38.762  32.343  37.130  1.00  0.00     0.009 A 
ATOM     69  C   UNL A   1      40.302  34.619  37.625  1.00  0.00     0.001 A 
ATOM     70  C   UNL A   1      38.480  33.153  38.232  1.00  0.00     0.001 A 
ATOM     71  C   UNL A   1      39.249  34.290  38.478  1.00  0.00     0.000 A 
ENDBRANCH  52  66
BRANCH  53  72
ATOM     72  C   UNL A   1      40.936  27.382  27.922  1.00  0.00    -0.014 A 
ATOM     73  C   UNL A   1      41.716  27.853  26.858  1.00  0.00     0.009 A 
ATOM     74  C   UNL A   1      40.348  26.110  27.828  1.00  0.00     0.009 A 
ATOM     75  C   UNL A   1      41.911  27.059  25.725  1.00  0.00     0.001 A 
ATOM     76  C   UNL A   1      40.559  25.312  26.703  1.00  0.00     0.001 A 
ATOM     77  C   UNL A   1      41.340  25.787  25.653  1.00  0.00     0.000 A 
ENDBRANCH  53  72
BRANCH  65  78
ATOM     78  C   UNL A   1      44.447  27.702  33.968  1.00  0.00    -0.014 A 
ATOM     79  C   UNL A   1      44.377  26.425  34.544  1.00  0.00     0.009 A 
ATOM     80  C   UNL A   1      45.704  28.293  33.762  1.00  0.00     0.009 A 
ATOM     81  C   UNL A   1      45.547  25.752  34.904  1.00  0.00     0.001 A 
ATOM     82  C   UNL A   1      46.870  27.608  34.104  1.00  0.00     0.001 A 
ATOM     83  C   UNL A   1      46.791  26.340  34.675  1.00  0.00     0.000 A 
ENDBRANCH  65  78
ENDBRANCH  39  40
ENDBRANCH  32  34
ENDBRANCH  31  32
ENDBRANCH  30  31
ENDBRANCH   1  30
TORSDOF 14
ENDMDL
MODEL 3
REMARK VINA RESULT:     -11.7      0.960      5.822
REMARK SMILES COC(=O)c1ccc(C)c2c1[C@H]1C=CC[C@H]1[C@@H](c1ccc(C(=O)OCCOC(=O)c3ccc(-c4c5nc(c(-c6ccccc6)c6ccc([nH]6)c(-c6ccccc6)c6nc(c(-c7ccccc7)c7ccc4[nH]7)C=C6)C=C5)cc3)cc1)N2
REMARK SMILES IDX 25 1 24 2 22 3 23 4 21 5 18 6 19 7 79 8 20 9 78 10 17 11
REMARK SMILES IDX 5 12 6 13 11 14 7 15 10 16 12 17 8 18 80 19 13 20 16 21 9 22
REMARK SMILES IDX 14 24 15 25 3 26 4 27 2 28 1 29 26 30 27 31 28 32 29 33
REMARK SMILES IDX 30 34 31 35 77 36 32 37 76 38 33 39 34 40 35 41 70 42 36 43
REMARK SMILES IDX 75 44 69 45 71 46 37 47 74 48 68 49 67 50 38 52 60 53 45 54
REMARK SMILES IDX 59 55 46 56 49 57 58 58 72 59 47 60 48 61 57 63 73 64 50 65
REMARK SMILES IDX 39 66 40 67 44 68 41 69 43 70 42 71 61 72 62 73 66 74 63 75
REMARK SMILES IDX 65 76 64 77 51 78 52 79 56 80 53 81 55 82 54 83
REMARK H PARENT 80 23 71 51 49 62
REMARK Flexibility Score: inf
ROOT
ATOM      1  C   UNL A   1      38.834  21.027  25.691  1.00  0.00     0.275 C 
ENDROOT
BRANCH   1   2
ATOM      2  O   UNL A   1      37.463  20.872  25.280  1.00  0.00    -0.458 OA
BRANCH   2   3
ATOM      3  C   UNL A   1      36.931  21.890  24.553  1.00  0.00     0.338 C 
ATOM      4  O   UNL A   1      37.109  22.109  23.372  1.00  0.00    -0.246 OA
BRANCH   3   5
ATOM      5  C   UNL A   1      35.934  22.614  25.382  1.00  0.00     0.060 A 
ATOM      6  C   UNL A   1      33.701  24.018  26.380  1.00  0.00    -0.025 A 
ATOM      7  C   UNL A   1      34.757  24.689  25.735  1.00  0.00     0.007 A 
ATOM      8  C   UNL A   1      33.923  22.674  26.723  1.00  0.00     0.007 A 
ATOM      9  C   UNL A   1      35.869  23.999  25.250  1.00  0.00     0.016 A 
ATOM     10  C   UNL A   1      35.005  21.961  26.191  1.00  0.00     0.016 A 
BRANCH   6  11
ATOM     11  C   UNL A   1      32.323  24.667  26.621  1.00  0.00     0.114 C 
ATOM     12  C   UNL A   1      32.424  27.344  23.295  1.00  0.00     0.065 A 
ATOM     13  C   UNL A   1      32.997  28.605  23.442  1.00  0.00     0.016 A 
ATOM     14  C   UNL A   1      32.223  26.502  24.412  1.00  0.00    -0.003 A 
ATOM     15  C   UNL A   1      33.356  29.051  24.710  1.00  0.00     0.006 A 
ATOM     16  C   UNL A   1      32.583  26.960  25.704  1.00  0.00     0.042 A 
ATOM     17  C   UNL A   1      31.515  25.178  24.252  1.00  0.00     0.050 C 
ATOM     18  C   UNL A   1      33.130  28.257  25.849  1.00  0.00    -0.028 A 
ATOM     19  N   UNL A   1      32.443  26.115  26.805  1.00  0.00    -0.377 N 
ATOM     20  C   UNL A   1      32.219  24.077  23.508  1.00  0.00    -0.023 C 
ATOM     21  C   UNL A   1      31.188  24.454  25.570  1.00  0.00     0.031 C 
ATOM     22  C   UNL A   1      33.541  28.850  27.172  1.00  0.00     0.046 C 
ATOM     23  H   UNL A   1      32.423  26.494  27.713  1.00  0.00     0.161 HD
ATOM     24  C   UNL A   1      31.837  22.873  23.950  1.00  0.00    -0.030 C 
ATOM     25  C   UNL A   1      30.915  23.011  25.118  1.00  0.00     0.034 C 
BRANCH  12  26
ATOM     26  C   UNL A   1      31.923  26.967  21.957  1.00  0.00     0.338 C 
ATOM     27  O   UNL A   1      30.767  27.120  21.603  1.00  0.00    -0.246 OA
BRANCH  26  28
ATOM     28  O   UNL A   1      32.935  26.418  21.248  1.00  0.00    -0.465 OA
ATOM     29  C   UNL A   1      32.570  25.526  20.188  1.00  0.00     0.282 C 
ENDBRANCH  26  28
ENDBRANCH  12  26
ENDBRANCH   6  11
ENDBRANCH   3   5
ENDBRANCH   2   3
ENDBRANCH   1   2
BRANCH   1  30
ATOM     30  C   UNL A   1      39.573  19.688  25.646  1.00  0.00     0.275 C 
BRANCH  30  31
ATOM     31  O   UNL A   1      40.663  19.655  26.589  1.00  0.00    -0.458 OA
BRANCH  31  32
ATOM     32  C   UNL A   1      41.895  19.814  26.053  1.00  0.00     0.338 C 
ATOM     33  O   UNL A   1      42.487  19.040  25.320  1.00  0.00    -0.246 OA
BRANCH  32  34
ATOM     34  C   UNL A   1      42.455  21.121  26.438  1.00  0.00     0.060 A 
ATOM     35  C   UNL A   1      42.348  21.515  27.771  1.00  0.00     0.016 A 
ATOM     36  C   UNL A   1      42.946  22.011  25.479  1.00  0.00     0.016 A 
ATOM     37  C   UNL A   1      42.717  22.804  28.154  1.00  0.00     0.010 A 
ATOM     38  C   UNL A   1      43.301  23.314  25.861  1.00  0.00     0.010 A 
ATOM     39  C   UNL A   1      43.163  23.726  27.197  1.00  0.00    -0.014 A 
BRANCH  39  40
ATOM     40  C   UNL A   1      43.483  25.111  27.622  1.00  0.00     0.031 A 
ATOM     41  C   UNL A   1      42.403  26.140  27.796  1.00  0.00     0.074 A 
ATOM     42  C   UNL A   1      44.748  25.428  27.936  1.00  0.00     0.049 A 
ATOM     43  N   UNL A   1      42.458  27.297  28.407  1.00  0.00    -0.248 NA
ATOM     44  C   UNL A   1      41.078  25.810  27.267  1.00  0.00     0.031 C 
ATOM     45  C   UNL A   1      45.890  24.521  27.860  1.00  0.00     0.029 A 
ATOM     46  N   UNL A   1      45.280  26.611  28.381  1.00  0.00    -0.354 N 
ATOM     47  C   UNL A   1      41.153  27.773  28.426  1.00  0.00     0.074 A 
ATOM     48  C   UNL A   1      40.335  26.805  27.732  1.00  0.00     0.031 C 
ATOM     49  C   UNL A   1      46.997  25.188  28.222  1.00  0.00     0.029 A 
ATOM     50  C   UNL A   1      46.639  26.570  28.540  1.00  0.00     0.049 A 
ATOM     51  H   UNL A   1      44.737  27.411  28.569  1.00  0.00     0.167 HD
ATOM     52  C   UNL A   1      40.681  28.919  28.970  1.00  0.00     0.031 A 
ATOM     53  C   UNL A   1      47.504  27.544  28.879  1.00  0.00     0.031 A 
ATOM     54  C   UNL A   1      41.515  29.972  29.479  1.00  0.00     0.049 A 
ATOM     55  C   UNL A   1      46.986  28.912  29.217  1.00  0.00     0.074 A 
ATOM     56  C   UNL A   1      41.136  31.206  29.977  1.00  0.00     0.029 A 
ATOM     57  N   UNL A   1      42.899  29.944  29.475  1.00  0.00    -0.354 N 
ATOM     58  N   UNL A   1      45.744  29.313  29.335  1.00  0.00    -0.248 NA
ATOM     59  C   UNL A   1      47.985  29.962  29.466  1.00  0.00     0.031 C 
ATOM     60  C   UNL A   1      42.296  31.960  30.187  1.00  0.00     0.029 A 
ATOM     61  C   UNL A   1      43.393  31.169  29.883  1.00  0.00     0.049 A 
ATOM     62  H   UNL A   1      43.449  29.168  29.220  1.00  0.00     0.167 HD
ATOM     63  C   UNL A   1      45.809  30.654  29.686  1.00  0.00     0.074 A 
ATOM     64  C   UNL A   1      47.214  31.001  29.762  1.00  0.00     0.031 C 
ATOM     65  C   UNL A   1      44.791  31.514  29.932  1.00  0.00     0.031 A 
BRANCH  52  66
ATOM     66  C   UNL A   1      39.196  29.124  28.992  1.00  0.00    -0.014 A 
ATOM     67  C   UNL A   1      38.466  28.877  30.164  1.00  0.00     0.009 A 
ATOM     68  C   UNL A   1      38.535  29.642  27.869  1.00  0.00     0.009 A 
ATOM     69  C   UNL A   1      37.097  29.146  30.211  1.00  0.00     0.001 A 
ATOM     70  C   UNL A   1      37.167  29.916  27.922  1.00  0.00     0.001 A 
ATOM     71  C   UNL A   1      36.449  29.669  29.091  1.00  0.00     0.000 A 
ENDBRANCH  52  66
BRANCH  53  72
ATOM     72  C   UNL A   1      48.955  27.242  28.867  1.00  0.00    -0.014 A 
ATOM     73  C   UNL A   1      49.602  26.773  30.018  1.00  0.00     0.009 A 
ATOM     74  C   UNL A   1      49.682  27.353  27.671  1.00  0.00     0.009 A 
ATOM     75  C   UNL A   1      50.951  26.413  29.967  1.00  0.00     0.001 A 
ATOM     76  C   UNL A   1      51.025  26.976  27.619  1.00  0.00     0.001 A 
ATOM     77  C   UNL A   1      51.657  26.506  28.767  1.00  0.00     0.000 A 
ENDBRANCH  53  72
BRANCH  65  78
ATOM     78  C   UNL A   1      45.133  32.927  30.300  1.00  0.00    -0.014 A 
ATOM     79  C   UNL A   1      45.395  33.277  31.633  1.00  0.00     0.009 A 
ATOM     80  C   UNL A   1      45.319  33.885  29.291  1.00  0.00     0.009 A 
ATOM     81  C   UNL A   1      45.838  34.563  31.947  1.00  0.00     0.001 A 
ATOM     82  C   UNL A   1      45.783  35.162  29.607  1.00  0.00     0.001 A 
ATOM     83  C   UNL A   1      46.041  35.501  30.933  1.00  0.00     0.000 A 
ENDBRANCH  65  78
ENDBRANCH  39  40
ENDBRANCH  32  34
ENDBRANCH  31  32
ENDBRANCH  30  31
ENDBRANCH   1  30
TORSDOF 14
ENDMDL
