MODEL 1
REMARK VINA RESULT:     -11.2      0.000      0.000
REMARK SMILES CC(C)(C)OC(=O)N1CCC[C@H]1C(=O)N1CCC[C@H]1C(=O)N1CCC[C@@H]1C(=O)OCCOC(=O)c1ccc(-c2c3nc(c(-c4ccccc4)c4ccc([nH]4)c(-c4ccccc4)c4nc(c(-c5ccccc5)c5ccc2[nH]5)C=C4)C=C3)cc1
REMARK SMILES IDX 27 1 28 2 26 3 22 4 23 5 24 6 25 7 20 8 21 9 19 10 15 11
REMARK SMILES IDX 16 12 17 13 18 14 13 15 14 16 12 17 8 18 9 19 10 20 11 21
REMARK SMILES IDX 6 22 7 23 5 24 2 25 1 26 3 27 4 28 29 29 30 30 31 31 32 32
REMARK SMILES IDX 33 33 34 34 35 35 36 36 82 37 37 38 81 39 38 40 39 41 40 42
REMARK SMILES IDX 75 43 41 44 80 45 74 46 76 47 42 48 79 49 73 50 72 51 43 53
REMARK SMILES IDX 65 54 50 55 64 56 51 57 54 58 63 59 77 60 52 61 53 62 62 64
REMARK SMILES IDX 78 65 55 66 44 67 45 68 49 69 46 70 48 71 47 72 66 73 67 74
REMARK SMILES IDX 71 75 68 76 70 77 69 78 56 79 57 80 61 81 58 82 60 83 59 84
REMARK H PARENT 76 52 54 63
REMARK Flexibility Score: inf
ROOT
ATOM      1  C   UNL A   1      35.313  21.450  25.778  1.00  0.00     0.328 C 
ATOM      2  O   UNL A   1      34.715  21.299  26.838  1.00  0.00    -0.250 OA
ENDROOT
BRANCH   1   3
ATOM      3  C   UNL A   1      34.629  21.289  24.416  1.00  0.00     0.195 C 
ATOM      4  N   UNL A   1      33.979  22.528  24.042  1.00  0.00    -0.327 N 
ATOM      5  C   UNL A   1      32.700  22.273  23.423  1.00  0.00     0.120 C 
ATOM      6  C   UNL A   1      32.229  21.002  24.100  1.00  0.00     0.024 C 
ATOM      7  C   UNL A   1      33.523  20.225  24.365  1.00  0.00     0.039 C 
BRANCH   4   8
ATOM      8  C   UNL A   1      34.705  23.695  23.921  1.00  0.00     0.246 C 
ATOM      9  O   UNL A   1      35.726  23.781  23.242  1.00  0.00    -0.272 OA
BRANCH   8  10
ATOM     10  C   UNL A   1      34.162  24.844  24.785  1.00  0.00     0.174 C 
ATOM     11  N   UNL A   1      33.100  25.636  24.155  1.00  0.00    -0.329 N 
ATOM     12  C   UNL A   1      31.821  25.358  24.756  1.00  0.00     0.120 C 
ATOM     13  C   UNL A   1      32.182  24.986  26.180  1.00  0.00     0.024 C 
ATOM     14  C   UNL A   1      33.523  24.267  26.052  1.00  0.00     0.037 C 
BRANCH  11  15
ATOM     15  C   UNL A   1      33.343  26.408  23.041  1.00  0.00     0.246 C 
ATOM     16  O   UNL A   1      33.696  25.887  21.987  1.00  0.00    -0.272 OA
BRANCH  15  17
ATOM     17  C   UNL A   1      33.255  27.946  23.179  1.00  0.00     0.178 C 
ATOM     18  N   UNL A   1      31.867  28.396  23.409  1.00  0.00    -0.296 N 
ATOM     19  C   UNL A   1      31.701  28.926  24.743  1.00  0.00     0.124 C 
ATOM     20  C   UNL A   1      33.077  29.480  25.052  1.00  0.00     0.024 C 
ATOM     21  C   UNL A   1      34.024  28.478  24.393  1.00  0.00     0.037 C 
BRANCH  18  22
ATOM     22  C   UNL A   1      30.907  28.387  22.422  1.00  0.00     0.410 C 
ATOM     23  O   UNL A   1      30.656  27.388  21.756  1.00  0.00    -0.224 OA
BRANCH  22  24
ATOM     24  O   UNL A   1      30.317  29.601  22.264  1.00  0.00    -0.444 OA
BRANCH  24  25
ATOM     25  C   UNL A   1      28.917  29.917  22.549  1.00  0.00     0.106 C 
ATOM     26  C   UNL A   1      28.335  30.457  21.232  1.00  0.00     0.056 C 
ATOM     27  C   UNL A   1      28.874  31.054  23.578  1.00  0.00     0.056 C 
ATOM     28  C   UNL A   1      28.045  28.751  23.025  1.00  0.00     0.056 C 
ENDBRANCH  24  25
ENDBRANCH  22  24
ENDBRANCH  18  22
ENDBRANCH  15  17
ENDBRANCH  11  15
ENDBRANCH   8  10
ENDBRANCH   4   8
ENDBRANCH   1   3
BRANCH   1  29
ATOM     29  O   UNL A   1      36.635  21.749  25.665  1.00  0.00    -0.461 OA
BRANCH  29  30
ATOM     30  C   UNL A   1      37.454  20.682  25.164  1.00  0.00     0.274 C 
BRANCH  30  31
ATOM     31  C   UNL A   1      38.950  20.923  25.373  1.00  0.00     0.275 C 
BRANCH  31  32
ATOM     32  O   UNL A   1      39.570  19.877  26.141  1.00  0.00    -0.458 OA
BRANCH  32  33
ATOM     33  C   UNL A   1      40.921  19.859  26.085  1.00  0.00     0.338 C 
ATOM     34  O   UNL A   1      41.632  19.007  25.576  1.00  0.00    -0.246 OA
BRANCH  33  35
ATOM     35  C   UNL A   1      41.460  21.129  26.590  1.00  0.00     0.060 A 
ATOM     36  C   UNL A   1      41.253  21.436  27.940  1.00  0.00     0.016 A 
ATOM     37  C   UNL A   1      42.088  22.039  25.745  1.00  0.00     0.016 A 
ATOM     38  C   UNL A   1      41.679  22.644  28.463  1.00  0.00     0.010 A 
ATOM     39  C   UNL A   1      42.494  23.270  26.262  1.00  0.00     0.010 A 
ATOM     40  C   UNL A   1      42.277  23.578  27.618  1.00  0.00    -0.014 A 
BRANCH  40  41
ATOM     41  C   UNL A   1      42.563  24.925  28.144  1.00  0.00     0.031 A 
ATOM     42  C   UNL A   1      43.967  25.263  28.539  1.00  0.00     0.074 A 
ATOM     43  C   UNL A   1      41.580  25.840  28.208  1.00  0.00     0.049 A 
ATOM     44  N   UNL A   1      44.430  26.348  29.102  1.00  0.00    -0.248 NA
ATOM     45  C   UNL A   1      44.990  24.239  28.265  1.00  0.00     0.031 C 
ATOM     46  C   UNL A   1      40.201  25.635  27.762  1.00  0.00     0.029 A 
ATOM     47  N   UNL A   1      41.597  27.128  28.674  1.00  0.00    -0.354 N 
ATOM     48  C   UNL A   1      45.789  26.125  29.278  1.00  0.00     0.074 A 
ATOM     49  C   UNL A   1      46.076  24.798  28.780  1.00  0.00     0.031 C 
ATOM     50  C   UNL A   1      39.502  26.760  27.980  1.00  0.00     0.029 A 
ATOM     51  C   UNL A   1      40.369  27.737  28.630  1.00  0.00     0.049 A 
ATOM     52  H   UNL A   1      42.411  27.572  29.006  1.00  0.00     0.167 HD
ATOM     53  C   UNL A   1      46.711  26.958  29.814  1.00  0.00     0.031 A 
ATOM     54  C   UNL A   1      39.985  28.938  29.100  1.00  0.00     0.031 A 
ATOM     55  C   UNL A   1      46.402  28.274  30.307  1.00  0.00     0.049 A 
ATOM     56  C   UNL A   1      41.010  29.808  29.774  1.00  0.00     0.074 A 
ATOM     57  C   UNL A   1      47.254  29.206  30.871  1.00  0.00     0.029 A 
ATOM     58  N   UNL A   1      45.135  28.841  30.296  1.00  0.00    -0.354 N 
ATOM     59  N   UNL A   1      42.291  29.589  29.953  1.00  0.00    -0.248 NA
ATOM     60  C   UNL A   1      40.536  31.089  30.312  1.00  0.00     0.031 C 
ATOM     61  C   UNL A   1      46.490  30.312  31.258  1.00  0.00     0.029 A 
ATOM     62  C   UNL A   1      45.175  30.098  30.872  1.00  0.00     0.049 A 
ATOM     63  H   UNL A   1      44.327  28.411  29.932  1.00  0.00     0.167 HD
ATOM     64  C   UNL A   1      42.782  30.715  30.601  1.00  0.00     0.074 A 
ATOM     65  C   UNL A   1      41.663  31.621  30.764  1.00  0.00     0.031 C 
ATOM     66  C   UNL A   1      44.044  30.977  31.024  1.00  0.00     0.031 A 
BRANCH  53  67
ATOM     67  C   UNL A   1      48.118  26.444  29.943  1.00  0.00    -0.014 A 
ATOM     68  C   UNL A   1      48.565  25.805  31.111  1.00  0.00     0.009 A 
ATOM     69  C   UNL A   1      49.008  26.594  28.869  1.00  0.00     0.009 A 
ATOM     70  C   UNL A   1      49.886  25.359  31.210  1.00  0.00     0.001 A 
ATOM     71  C   UNL A   1      50.317  26.120  28.959  1.00  0.00     0.001 A 
ATOM     72  C   UNL A   1      50.759  25.512  30.133  1.00  0.00     0.000 A 
ENDBRANCH  53  67
BRANCH  54  73
ATOM     73  C   UNL A   1      38.566  29.365  28.989  1.00  0.00    -0.014 A 
ATOM     74  C   UNL A   1      37.690  29.238  30.078  1.00  0.00     0.009 A 
ATOM     75  C   UNL A   1      38.076  29.900  27.786  1.00  0.00     0.009 A 
ATOM     76  C   UNL A   1      36.350  29.613  29.956  1.00  0.00     0.001 A 
ATOM     77  C   UNL A   1      36.744  30.305  27.678  1.00  0.00     0.001 A 
ATOM     78  C   UNL A   1      35.879  30.151  28.759  1.00  0.00     0.000 A 
ENDBRANCH  54  73
BRANCH  66  79
ATOM     79  C   UNL A   1      44.280  32.313  31.669  1.00  0.00    -0.014 A 
ATOM     80  C   UNL A   1      44.605  33.447  30.908  1.00  0.00     0.009 A 
ATOM     81  C   UNL A   1      44.136  32.445  33.060  1.00  0.00     0.009 A 
ATOM     82  C   UNL A   1      44.816  34.677  31.531  1.00  0.00     0.001 A 
ATOM     83  C   UNL A   1      44.314  33.682  33.676  1.00  0.00     0.001 A 
ATOM     84  C   UNL A   1      44.665  34.795  32.912  1.00  0.00     0.000 A 
ENDBRANCH  66  79
ENDBRANCH  40  41
ENDBRANCH  33  35
ENDBRANCH  32  33
ENDBRANCH  31  32
ENDBRANCH  30  31
ENDBRANCH  29  30
ENDBRANCH   1  29
TORSDOF 18
ENDMDL
MODEL 2
REMARK VINA RESULT:     -11.1      1.139      5.887
REMARK SMILES CC(C)(C)OC(=O)N1CCC[C@H]1C(=O)N1CCC[C@H]1C(=O)N1CCC[C@@H]1C(=O)OCCOC(=O)c1ccc(-c2c3nc(c(-c4ccccc4)c4ccc([nH]4)c(-c4ccccc4)c4nc(c(-c5ccccc5)c5ccc2[nH]5)C=C4)C=C3)cc1
REMARK SMILES IDX 27 1 28 2 26 3 22 4 23 5 24 6 25 7 20 8 21 9 19 10 15 11
REMARK SMILES IDX 16 12 17 13 18 14 13 15 14 16 12 17 8 18 9 19 10 20 11 21
REMARK SMILES IDX 6 22 7 23 5 24 2 25 1 26 3 27 4 28 29 29 30 30 31 31 32 32
REMARK SMILES IDX 33 33 34 34 35 35 36 36 82 37 37 38 81 39 38 40 39 41 40 42
REMARK SMILES IDX 75 43 41 44 80 45 74 46 76 47 42 48 79 49 73 50 72 51 43 53
REMARK SMILES IDX 65 54 50 55 64 56 51 57 54 58 63 59 77 60 52 61 53 62 62 64
REMARK SMILES IDX 78 65 55 66 44 67 45 68 49 69 46 70 48 71 47 72 66 73 67 74
REMARK SMILES IDX 71 75 68 76 70 77 69 78 56 79 57 80 61 81 58 82 60 83 59 84
REMARK H PARENT 76 52 54 63
REMARK Flexibility Score: inf
ROOT
ATOM      1  C   UNL A   1      35.467  22.348  25.779  1.00  0.00     0.328 C 
ATOM      2  O   UNL A   1      34.820  22.834  26.700  1.00  0.00    -0.250 OA
ENDROOT
BRANCH   1   3
ATOM      3  C   UNL A   1      34.829  21.477  24.693  1.00  0.00     0.195 C 
ATOM      4  N   UNL A   1      33.877  22.259  23.931  1.00  0.00    -0.327 N 
ATOM      5  C   UNL A   1      32.698  21.482  23.628  1.00  0.00     0.120 C 
ATOM      6  C   UNL A   1      32.579  20.546  24.813  1.00  0.00     0.024 C 
ATOM      7  C   UNL A   1      34.033  20.270  25.211  1.00  0.00     0.039 C 
BRANCH   4   8
ATOM      8  C   UNL A   1      34.276  23.397  23.260  1.00  0.00     0.246 C 
ATOM      9  O   UNL A   1      35.448  23.624  22.966  1.00  0.00    -0.272 OA
BRANCH   8  10
ATOM     10  C   UNL A   1      33.129  24.385  23.000  1.00  0.00     0.174 C 
ATOM     11  N   UNL A   1      33.455  25.789  23.274  1.00  0.00    -0.329 N 
ATOM     12  C   UNL A   1      33.595  26.535  22.050  1.00  0.00     0.120 C 
ATOM     13  C   UNL A   1      32.662  25.815  21.098  1.00  0.00     0.024 C 
ATOM     14  C   UNL A   1      32.756  24.350  21.515  1.00  0.00     0.037 C 
BRANCH  11  15
ATOM     15  C   UNL A   1      33.727  26.230  24.550  1.00  0.00     0.246 C 
ATOM     16  O   UNL A   1      34.404  25.546  25.313  1.00  0.00    -0.272 OA
BRANCH  15  17
ATOM     17  C   UNL A   1      33.081  27.552  25.025  1.00  0.00     0.178 C 
ATOM     18  N   UNL A   1      31.735  27.330  25.591  1.00  0.00    -0.296 N 
ATOM     19  C   UNL A   1      31.717  27.576  27.015  1.00  0.00     0.124 C 
ATOM     20  C   UNL A   1      32.796  28.628  27.182  1.00  0.00     0.024 C 
ATOM     21  C   UNL A   1      33.860  28.216  26.166  1.00  0.00     0.037 C 
BRANCH  18  22
ATOM     22  C   UNL A   1      30.640  27.025  24.814  1.00  0.00     0.410 C 
ATOM     23  O   UNL A   1      29.757  26.262  25.191  1.00  0.00    -0.224 OA
BRANCH  22  24
ATOM     24  O   UNL A   1      30.683  27.633  23.598  1.00  0.00    -0.444 OA
BRANCH  24  25
ATOM     25  C   UNL A   1      30.135  28.952  23.281  1.00  0.00     0.106 C 
ATOM     26  C   UNL A   1      28.624  28.741  23.090  1.00  0.00     0.056 C 
ATOM     27  C   UNL A   1      30.715  29.410  21.938  1.00  0.00     0.056 C 
ATOM     28  C   UNL A   1      30.344  30.041  24.338  1.00  0.00     0.056 C 
ENDBRANCH  24  25
ENDBRANCH  22  24
ENDBRANCH  18  22
ENDBRANCH  15  17
ENDBRANCH  11  15
ENDBRANCH   8  10
ENDBRANCH   4   8
ENDBRANCH   1   3
BRANCH   1  29
ATOM     29  O   UNL A   1      36.810  22.492  25.610  1.00  0.00    -0.461 OA
BRANCH  29  30
ATOM     30  C   UNL A   1      37.508  21.281  25.285  1.00  0.00     0.274 C 
BRANCH  30  31
ATOM     31  C   UNL A   1      39.008  21.353  25.580  1.00  0.00     0.275 C 
BRANCH  31  32
ATOM     32  O   UNL A   1      39.514  20.132  26.146  1.00  0.00    -0.458 OA
BRANCH  32  33
ATOM     33  C   UNL A   1      40.860  20.007  26.110  1.00  0.00     0.338 C 
ATOM     34  O   UNL A   1      41.509  19.097  25.620  1.00  0.00    -0.246 OA
BRANCH  33  35
ATOM     35  C   UNL A   1      41.489  21.236  26.612  1.00  0.00     0.060 A 
ATOM     36  C   UNL A   1      41.401  21.503  27.983  1.00  0.00     0.016 A 
ATOM     37  C   UNL A   1      42.089  22.150  25.750  1.00  0.00     0.016 A 
ATOM     38  C   UNL A   1      41.917  22.673  28.509  1.00  0.00     0.010 A 
ATOM     39  C   UNL A   1      42.586  23.344  26.273  1.00  0.00     0.010 A 
ATOM     40  C   UNL A   1      42.487  23.612  27.651  1.00  0.00    -0.014 A 
BRANCH  40  41
ATOM     41  C   UNL A   1      42.870  24.927  28.196  1.00  0.00     0.031 A 
ATOM     42  C   UNL A   1      41.802  25.953  28.423  1.00  0.00     0.074 A 
ATOM     43  C   UNL A   1      44.150  25.166  28.531  1.00  0.00     0.049 A 
ATOM     44  N   UNL A   1      41.918  27.196  28.808  1.00  0.00    -0.248 NA
ATOM     45  C   UNL A   1      40.415  25.520  28.180  1.00  0.00     0.031 C 
ATOM     46  C   UNL A   1      45.245  24.200  28.432  1.00  0.00     0.029 A 
ATOM     47  N   UNL A   1      44.740  26.299  29.024  1.00  0.00    -0.354 N 
ATOM     48  C   UNL A   1      40.626  27.703  28.824  1.00  0.00     0.074 A 
ATOM     49  C   UNL A   1      39.742  26.642  28.394  1.00  0.00     0.031 C 
ATOM     50  C   UNL A   1      46.379  24.786  28.850  1.00  0.00     0.029 A 
ATOM     51  C   UNL A   1      46.097  26.177  29.188  1.00  0.00     0.049 A 
ATOM     52  H   UNL A   1      44.241  27.119  29.239  1.00  0.00     0.167 HD
ATOM     53  C   UNL A   1      40.219  28.948  29.164  1.00  0.00     0.031 A 
ATOM     54  C   UNL A   1      47.010  27.101  29.536  1.00  0.00     0.031 A 
ATOM     55  C   UNL A   1      41.117  29.990  29.586  1.00  0.00     0.049 A 
ATOM     56  C   UNL A   1      46.543  28.502  29.821  1.00  0.00     0.074 A 
ATOM     57  C   UNL A   1      40.819  31.289  29.955  1.00  0.00     0.029 A 
ATOM     58  N   UNL A   1      42.493  29.847  29.691  1.00  0.00    -0.354 N 
ATOM     59  N   UNL A   1      45.322  28.982  29.821  1.00  0.00    -0.248 NA
ATOM     60  C   UNL A   1      47.579  29.487  30.152  1.00  0.00     0.031 C 
ATOM     61  C   UNL A   1      42.022  31.950  30.222  1.00  0.00     0.029 A 
ATOM     62  C   UNL A   1      43.063  31.043  30.088  1.00  0.00     0.049 A 
ATOM     63  H   UNL A   1      42.991  29.017  29.508  1.00  0.00     0.167 HD
ATOM     64  C   UNL A   1      45.440  30.320  30.176  1.00  0.00     0.074 A 
ATOM     65  C   UNL A   1      46.851  30.566  30.403  1.00  0.00     0.031 C 
ATOM     66  C   UNL A   1      44.472  31.261  30.303  1.00  0.00     0.031 A 
BRANCH  53  67
ATOM     67  C   UNL A   1      38.754  29.258  29.037  1.00  0.00    -0.014 A 
ATOM     68  C   UNL A   1      38.194  29.690  27.824  1.00  0.00     0.009 A 
ATOM     69  C   UNL A   1      37.916  29.102  30.152  1.00  0.00     0.009 A 
ATOM     70  C   UNL A   1      36.832  29.993  27.743  1.00  0.00     0.001 A 
ATOM     71  C   UNL A   1      36.551  29.376  30.060  1.00  0.00     0.001 A 
ATOM     72  C   UNL A   1      36.012  29.831  28.858  1.00  0.00     0.000 A 
ENDBRANCH  53  67
BRANCH  54  73
ATOM     73  C   UNL A   1      48.452  26.744  29.591  1.00  0.00    -0.014 A 
ATOM     74  C   UNL A   1      49.284  26.938  28.478  1.00  0.00     0.009 A 
ATOM     75  C   UNL A   1      49.005  26.200  30.762  1.00  0.00     0.009 A 
ATOM     76  C   UNL A   1      50.630  26.571  28.528  1.00  0.00     0.001 A 
ATOM     77  C   UNL A   1      50.360  25.864  30.820  1.00  0.00     0.001 A 
ATOM     78  C   UNL A   1      51.169  26.040  29.700  1.00  0.00     0.000 A 
ENDBRANCH  54  73
BRANCH  66  79
ATOM     79  C   UNL A   1      44.907  32.630  30.742  1.00  0.00    -0.014 A 
ATOM     80  C   UNL A   1      45.242  33.625  29.811  1.00  0.00     0.009 A 
ATOM     81  C   UNL A   1      44.943  32.938  32.112  1.00  0.00     0.009 A 
ATOM     82  C   UNL A   1      45.640  34.890  30.245  1.00  0.00     0.001 A 
ATOM     83  C   UNL A   1      45.308  34.213  32.541  1.00  0.00     0.001 A 
ATOM     84  C   UNL A   1      45.666  35.185  31.608  1.00  0.00     0.000 A 
ENDBRANCH  66  79
ENDBRANCH  40  41
ENDBRANCH  33  35
ENDBRANCH  32  33
ENDBRANCH  31  32
ENDBRANCH  30  31
ENDBRANCH  29  30
ENDBRANCH   1  29
TORSDOF 18
ENDMDL
MODEL 3
REMARK VINA RESULT:     -11.0      2.945      8.557
REMARK SMILES CC(C)(C)OC(=O)N1CCC[C@H]1C(=O)N1CCC[C@H]1C(=O)N1CCC[C@@H]1C(=O)OCCOC(=O)c1ccc(-c2c3nc(c(-c4ccccc4)c4ccc([nH]4)c(-c4ccccc4)c4nc(c(-c5ccccc5)c5ccc2[nH]5)C=C4)C=C3)cc1
REMARK SMILES IDX 27 1 28 2 26 3 22 4 23 5 24 6 25 7 20 8 21 9 19 10 15 11
REMARK SMILES IDX 16 12 17 13 18 14 13 15 14 16 12 17 8 18 9 19 10 20 11 21
REMARK SMILES IDX 6 22 7 23 5 24 2 25 1 26 3 27 4 28 29 29 30 30 31 31 32 32
REMARK SMILES IDX 33 33 34 34 35 35 36 36 82 37 37 38 81 39 38 40 39 41 40 42
REMARK SMILES IDX 75 43 41 44 80 45 74 46 76 47 42 48 79 49 73 50 72 51 43 53
REMARK SMILES IDX 65 54 50 55 64 56 51 57 54 58 63 59 77 60 52 61 53 62 62 64
REMARK SMILES IDX 78 65 55 66 44 67 45 68 49 69 46 70 48 71 47 72 66 73 67 74
REMARK SMILES IDX 71 75 68 76 70 77 69 78 56 79 57 80 61 81 58 82 60 83 59 84
REMARK H PARENT 76 52 54 63
REMARK Flexibility Score: inf
ROOT
ATOM      1  C   UNL A   1      32.578  29.012  25.140  1.00  0.00     0.328 C 
ATOM      2  O   UNL A   1      33.443  28.779  24.303  1.00  0.00    -0.250 OA
ENDROOT
BRANCH   1   3
ATOM      3  C   UNL A   1      31.083  28.843  24.848  1.00  0.00     0.195 C 
ATOM      4  N   UNL A   1      30.754  27.435  24.764  1.00  0.00    -0.327 N 
ATOM      5  C   UNL A   1      29.814  27.189  23.697  1.00  0.00     0.120 C 
ATOM      6  C   UNL A   1      30.158  28.251  22.672  1.00  0.00     0.024 C 
ATOM      7  C   UNL A   1      30.607  29.447  23.519  1.00  0.00     0.039 C 
BRANCH   4   8
ATOM      8  C   UNL A   1      30.988  26.592  25.831  1.00  0.00     0.246 C 
ATOM      9  O   UNL A   1      31.039  26.983  26.995  1.00  0.00    -0.272 OA
BRANCH   8  10
ATOM     10  C   UNL A   1      31.267  25.140  25.410  1.00  0.00     0.174 C 
ATOM     11  N   UNL A   1      32.598  24.642  25.773  1.00  0.00    -0.329 N 
ATOM     12  C   UNL A   1      32.518  23.696  26.856  1.00  0.00     0.120 C 
ATOM     13  C   UNL A   1      31.151  23.070  26.669  1.00  0.00     0.024 C 
ATOM     14  C   UNL A   1      30.288  24.208  26.130  1.00  0.00     0.037 C 
BRANCH  11  15
ATOM     15  C   UNL A   1      33.741  25.166  25.212  1.00  0.00     0.246 C 
ATOM     16  O   UNL A   1      34.429  25.968  25.838  1.00  0.00    -0.272 OA
BRANCH  15  17
ATOM     17  C   UNL A   1      34.079  24.797  23.749  1.00  0.00     0.178 C 
ATOM     18  N   UNL A   1      33.575  23.456  23.394  1.00  0.00    -0.296 N 
ATOM     19  C   UNL A   1      32.498  23.537  22.432  1.00  0.00     0.124 C 
ATOM     20  C   UNL A   1      32.837  24.798  21.663  1.00  0.00     0.024 C 
ATOM     21  C   UNL A   1      33.408  25.729  22.733  1.00  0.00     0.037 C 
BRANCH  18  22
ATOM     22  C   UNL A   1      34.147  22.295  23.863  1.00  0.00     0.410 C 
ATOM     23  O   UNL A   1      33.481  21.360  24.294  1.00  0.00    -0.224 OA
BRANCH  22  24
ATOM     24  O   UNL A   1      35.505  22.334  23.821  1.00  0.00    -0.444 OA
BRANCH  24  25
ATOM     25  C   UNL A   1      36.404  22.107  24.953  1.00  0.00     0.106 C 
ATOM     26  C   UNL A   1      35.492  21.820  26.157  1.00  0.00     0.056 C 
ATOM     27  C   UNL A   1      37.162  23.408  25.242  1.00  0.00     0.056 C 
ATOM     28  C   UNL A   1      37.395  20.948  24.806  1.00  0.00     0.056 C 
ENDBRANCH  24  25
ENDBRANCH  22  24
ENDBRANCH  18  22
ENDBRANCH  15  17
ENDBRANCH  11  15
ENDBRANCH   8  10
ENDBRANCH   4   8
ENDBRANCH   1   3
BRANCH   1  29
ATOM     29  O   UNL A   1      32.815  29.464  26.401  1.00  0.00    -0.461 OA
BRANCH  29  30
ATOM     30  C   UNL A   1      32.230  30.739  26.704  1.00  0.00     0.274 C 
BRANCH  30  31
ATOM     31  C   UNL A   1      33.106  31.602  27.614  1.00  0.00     0.275 C 
BRANCH  31  32
ATOM     32  O   UNL A   1      33.081  32.991  27.241  1.00  0.00    -0.458 OA
BRANCH  32  33
ATOM     33  C   UNL A   1      33.314  33.854  28.256  1.00  0.00     0.338 C 
ATOM     34  O   UNL A   1      32.569  34.725  28.677  1.00  0.00    -0.246 OA
BRANCH  33  35
ATOM     35  C   UNL A   1      34.567  33.498  28.935  1.00  0.00     0.060 A 
ATOM     36  C   UNL A   1      35.771  33.815  28.296  1.00  0.00     0.016 A 
ATOM     37  C   UNL A   1      34.567  32.800  30.140  1.00  0.00     0.016 A 
ATOM     38  C   UNL A   1      36.984  33.450  28.852  1.00  0.00     0.010 A 
ATOM     39  C   UNL A   1      35.787  32.407  30.691  1.00  0.00     0.010 A 
ATOM     40  C   UNL A   1      36.996  32.720  30.040  1.00  0.00    -0.014 A 
BRANCH  40  41
ATOM     41  C   UNL A   1      38.279  32.185  30.528  1.00  0.00     0.031 A 
ATOM     42  C   UNL A   1      38.826  30.938  29.902  1.00  0.00     0.074 A 
ATOM     43  C   UNL A   1      38.962  32.846  31.478  1.00  0.00     0.049 A 
ATOM     44  N   UNL A   1      39.885  30.245  30.227  1.00  0.00    -0.248 NA
ATOM     45  C   UNL A   1      38.077  30.397  28.754  1.00  0.00     0.031 C 
ATOM     46  C   UNL A   1      38.556  34.115  32.084  1.00  0.00     0.029 A 
ATOM     47  N   UNL A   1      40.144  32.537  32.097  1.00  0.00    -0.354 N 
ATOM     48  C   UNL A   1      39.912  29.172  29.348  1.00  0.00     0.074 A 
ATOM     49  C   UNL A   1      38.758  29.292  28.486  1.00  0.00     0.031 C 
ATOM     50  C   UNL A   1      39.476  34.475  32.994  1.00  0.00     0.029 A 
ATOM     51  C   UNL A   1      40.498  33.437  33.071  1.00  0.00     0.049 A 
ATOM     52  H   UNL A   1      40.685  31.748  31.866  1.00  0.00     0.167 HD
ATOM     53  C   UNL A   1      40.822  28.173  29.274  1.00  0.00     0.031 A 
ATOM     54  C   UNL A   1      41.515  33.400  33.951  1.00  0.00     0.031 A 
ATOM     55  C   UNL A   1      41.963  28.071  30.145  1.00  0.00     0.049 A 
ATOM     56  C   UNL A   1      42.460  32.231  33.908  1.00  0.00     0.074 A 
ATOM     57  C   UNL A   1      42.951  27.104  30.164  1.00  0.00     0.029 A 
ATOM     58  N   UNL A   1      42.263  28.972  31.157  1.00  0.00    -0.354 N 
ATOM     59  N   UNL A   1      42.475  31.210  33.085  1.00  0.00    -0.248 NA
ATOM     60  C   UNL A   1      43.528  32.210  34.915  1.00  0.00     0.031 C 
ATOM     61  C   UNL A   1      43.813  27.386  31.228  1.00  0.00     0.029 A 
ATOM     62  C   UNL A   1      43.403  28.568  31.827  1.00  0.00     0.049 A 
ATOM     63  H   UNL A   1      41.740  29.780  31.367  1.00  0.00     0.167 HD
ATOM     64  C   UNL A   1      43.567  30.437  33.459  1.00  0.00     0.074 A 
ATOM     65  C   UNL A   1      44.199  31.121  34.569  1.00  0.00     0.031 C 
ATOM     66  C   UNL A   1      44.008  29.267  32.933  1.00  0.00     0.031 A 
BRANCH  53  67
ATOM     67  C   UNL A   1      40.584  27.091  28.258  1.00  0.00    -0.014 A 
ATOM     68  C   UNL A   1      41.121  27.164  26.963  1.00  0.00     0.009 A 
ATOM     69  C   UNL A   1      39.816  25.970  28.611  1.00  0.00     0.009 A 
ATOM     70  C   UNL A   1      40.862  26.153  26.033  1.00  0.00     0.001 A 
ATOM     71  C   UNL A   1      39.585  24.948  27.690  1.00  0.00     0.001 A 
ATOM     72  C   UNL A   1      40.100  25.045  26.399  1.00  0.00     0.000 A 
ENDBRANCH  53  67
BRANCH  54  73
ATOM     73  C   UNL A   1      41.664  34.474  34.966  1.00  0.00    -0.014 A 
ATOM     74  C   UNL A   1      41.111  34.333  36.248  1.00  0.00     0.009 A 
ATOM     75  C   UNL A   1      42.360  35.655  34.656  1.00  0.00     0.009 A 
ATOM     76  C   UNL A   1      41.230  35.360  37.187  1.00  0.00     0.001 A 
ATOM     77  C   UNL A   1      42.505  36.666  35.608  1.00  0.00     0.001 A 
ATOM     78  C   UNL A   1      41.930  36.523  36.869  1.00  0.00     0.000 A 
ENDBRANCH  54  73
BRANCH  66  79
ATOM     79  C   UNL A   1      45.254  28.679  33.532  1.00  0.00    -0.014 A 
ATOM     80  C   UNL A   1      45.194  27.782  34.611  1.00  0.00     0.009 A 
ATOM     81  C   UNL A   1      46.505  28.997  32.980  1.00  0.00     0.009 A 
ATOM     82  C   UNL A   1      46.366  27.247  35.147  1.00  0.00     0.001 A 
ATOM     83  C   UNL A   1      47.671  28.435  33.496  1.00  0.00     0.001 A 
ATOM     84  C   UNL A   1      47.601  27.568  34.586  1.00  0.00     0.000 A 
ENDBRANCH  66  79
ENDBRANCH  40  41
ENDBRANCH  33  35
ENDBRANCH  32  33
ENDBRANCH  31  32
ENDBRANCH  30  31
ENDBRANCH  29  30
ENDBRANCH   1  29
TORSDOF 18
ENDMDL
