MODEL 1
REMARK VINA RESULT:     -10.3      0.000      0.000
REMARK SMILES C[C@@H](C(=O)OCCOC(=O)c1ccc(-c2c3nc(c(-c4ccccc4)c4ccc([nH]4)c(-c4ccccc4)c4nc(c(-c5ccccc5)c5ccc2[nH]5)C=C4)C=C3)cc1)N1C(=O)c2nccnc2C1=O
REMARK SMILES IDX 7 1 6 2 5 3 3 4 4 5 2 6 1 7 59 8 60 9 68 10 61 11 62 12
REMARK SMILES IDX 67 13 69 14 63 15 66 16 64 17 65 18 8 19 9 20 10 21 11 22
REMARK SMILES IDX 12 23 58 24 13 25 57 26 14 27 15 28 16 29 51 30 17 31 56 32
REMARK SMILES IDX 50 33 52 34 18 35 55 36 49 37 48 38 19 40 41 41 26 42 40 43
REMARK SMILES IDX 27 44 30 45 39 46 53 47 28 48 29 49 38 51 54 52 31 53 20 54
REMARK SMILES IDX 21 55 25 56 22 57 24 58 23 59 42 60 43 61 47 62 44 63 46 64
REMARK SMILES IDX 45 65 32 66 33 67 37 68 34 69 36 70 35 71
REMARK H PARENT 52 39 30 50
REMARK Flexibility Score: inf
ROOT
ATOM      1  C   UNL A   1      31.555  30.493  25.659  1.00  0.00     0.275 C 
ENDROOT
BRANCH   1   2
ATOM      2  C   UNL A   1      31.937  29.248  24.861  1.00  0.00     0.274 C 
BRANCH   2   3
ATOM      3  O   UNL A   1      32.441  28.213  25.736  1.00  0.00    -0.461 OA
BRANCH   3   4
ATOM      4  C   UNL A   1      31.536  27.310  26.208  1.00  0.00     0.329 C 
ATOM      5  O   UNL A   1      31.051  27.353  27.333  1.00  0.00    -0.250 OA
BRANCH   4   6
ATOM      6  C   UNL A   1      31.248  26.174  25.206  1.00  0.00     0.201 C 
ATOM      7  C   UNL A   1      29.757  25.879  25.049  1.00  0.00     0.044 C 
BRANCH   6   8
ATOM      8  N   UNL A   1      32.043  24.981  25.551  1.00  0.00    -0.257 N 
ATOM      9  C   UNL A   1      31.785  24.081  26.552  1.00  0.00     0.282 C 
ATOM     10  C   UNL A   1      33.238  24.687  24.923  1.00  0.00     0.282 C 
ATOM     11  O   UNL A   1      30.853  24.066  27.337  1.00  0.00    -0.267 OA
ATOM     12  C   UNL A   1      32.883  23.112  26.551  1.00  0.00     0.160 A 
ATOM     13  C   UNL A   1      33.783  23.504  25.598  1.00  0.00     0.160 A 
ATOM     14  O   UNL A   1      33.751  25.272  23.994  1.00  0.00    -0.267 OA
ATOM     15  N   UNL A   1      33.087  22.102  27.421  1.00  0.00    -0.247 NA
ATOM     16  N   UNL A   1      34.991  22.934  25.421  1.00  0.00    -0.247 NA
ATOM     17  C   UNL A   1      34.297  21.500  27.257  1.00  0.00     0.132 A 
ATOM     18  C   UNL A   1      35.226  21.910  26.291  1.00  0.00     0.132 A 
ENDBRANCH   6   8
ENDBRANCH   4   6
ENDBRANCH   3   4
ENDBRANCH   2   3
ENDBRANCH   1   2
BRANCH   1  19
ATOM     19  O   UNL A   1      32.280  30.495  26.899  1.00  0.00    -0.458 OA
BRANCH  19  20
ATOM     20  C   UNL A   1      32.942  31.637  27.200  1.00  0.00     0.338 C 
ATOM     21  O   UNL A   1      32.518  32.777  27.141  1.00  0.00    -0.246 OA
BRANCH  20  22
ATOM     22  C   UNL A   1      34.301  31.296  27.658  1.00  0.00     0.060 A 
ATOM     23  C   UNL A   1      34.631  29.966  27.896  1.00  0.00     0.016 A 
ATOM     24  C   UNL A   1      35.213  32.302  27.968  1.00  0.00     0.016 A 
ATOM     25  C   UNL A   1      35.816  29.651  28.552  1.00  0.00     0.010 A 
ATOM     26  C   UNL A   1      36.451  31.967  28.536  1.00  0.00     0.010 A 
ATOM     27  C   UNL A   1      36.747  30.640  28.893  1.00  0.00    -0.014 A 
BRANCH  27  28
ATOM     28  C   UNL A   1      37.966  30.288  29.689  1.00  0.00     0.031 A 
ATOM     29  C   UNL A   1      39.093  29.510  29.050  1.00  0.00     0.074 A 
ATOM     30  C   UNL A   1      38.124  30.711  30.961  1.00  0.00     0.049 A 
ATOM     31  N   UNL A   1      40.118  28.922  29.620  1.00  0.00    -0.248 NA
ATOM     32  C   UNL A   1      39.059  29.359  27.587  1.00  0.00     0.031 C 
ATOM     33  C   UNL A   1      37.180  31.542  31.711  1.00  0.00     0.029 A 
ATOM     34  N   UNL A   1      39.160  30.517  31.846  1.00  0.00    -0.354 N 
ATOM     35  C   UNL A   1      40.786  28.251  28.599  1.00  0.00     0.074 A 
ATOM     36  C   UNL A   1      40.065  28.522  27.375  1.00  0.00     0.031 C 
ATOM     37  C   UNL A   1      37.708  31.847  32.905  1.00  0.00     0.029 A 
ATOM     38  C   UNL A   1      38.960  31.119  33.067  1.00  0.00     0.049 A 
ATOM     39  H   UNL A   1      39.967  29.998  31.626  1.00  0.00     0.167 HD
ATOM     40  C   UNL A   1      41.893  27.473  28.677  1.00  0.00     0.031 A 
ATOM     41  C   UNL A   1      39.655  31.047  34.217  1.00  0.00     0.031 A 
ATOM     42  C   UNL A   1      42.659  27.265  29.878  1.00  0.00     0.049 A 
ATOM     43  C   UNL A   1      40.858  30.154  34.294  1.00  0.00     0.074 A 
ATOM     44  C   UNL A   1      43.802  26.501  30.054  1.00  0.00     0.029 A 
ATOM     45  N   UNL A   1      42.379  27.848  31.104  1.00  0.00    -0.354 N 
ATOM     46  N   UNL A   1      41.414  29.437  33.349  1.00  0.00    -0.248 NA
ATOM     47  C   UNL A   1      41.509  30.037  35.606  1.00  0.00     0.031 C 
ATOM     48  C   UNL A   1      44.191  26.593  31.394  1.00  0.00     0.029 A 
ATOM     49  C   UNL A   1      43.322  27.457  32.040  1.00  0.00     0.049 A 
ATOM     50  H   UNL A   1      41.621  28.450  31.283  1.00  0.00     0.167 HD
ATOM     51  C   UNL A   1      42.479  28.782  33.953  1.00  0.00     0.074 A 
ATOM     52  C   UNL A   1      42.512  29.214  35.335  1.00  0.00     0.031 C 
ATOM     53  C   UNL A   1      43.344  27.890  33.411  1.00  0.00     0.031 A 
BRANCH  40  54
ATOM     54  C   UNL A   1      42.323  26.740  27.435  1.00  0.00    -0.014 A 
ATOM     55  C   UNL A   1      41.827  25.468  27.112  1.00  0.00     0.009 A 
ATOM     56  C   UNL A   1      43.214  27.364  26.545  1.00  0.00     0.009 A 
ATOM     57  C   UNL A   1      42.239  24.825  25.941  1.00  0.00     0.001 A 
ATOM     58  C   UNL A   1      43.601  26.732  25.362  1.00  0.00     0.001 A 
ATOM     59  C   UNL A   1      43.121  25.459  25.066  1.00  0.00     0.000 A 
ENDBRANCH  40  54
BRANCH  41  60
ATOM     60  C   UNL A   1      39.176  31.780  35.419  1.00  0.00    -0.014 A 
ATOM     61  C   UNL A   1      39.599  33.092  35.676  1.00  0.00     0.009 A 
ATOM     62  C   UNL A   1      38.278  31.171  36.312  1.00  0.00     0.009 A 
ATOM     63  C   UNL A   1      39.138  33.776  36.803  1.00  0.00     0.001 A 
ATOM     64  C   UNL A   1      37.791  31.868  37.418  1.00  0.00     0.001 A 
ATOM     65  C   UNL A   1      38.228  33.168  37.667  1.00  0.00     0.000 A 
ENDBRANCH  41  60
BRANCH  53  66
ATOM     66  C   UNL A   1      44.421  27.354  34.310  1.00  0.00    -0.014 A 
ATOM     67  C   UNL A   1      44.269  26.125  34.972  1.00  0.00     0.009 A 
ATOM     68  C   UNL A   1      45.611  28.077  34.478  1.00  0.00     0.009 A 
ATOM     69  C   UNL A   1      45.277  25.649  35.813  1.00  0.00     0.001 A 
ATOM     70  C   UNL A   1      46.627  27.586  35.299  1.00  0.00     0.001 A 
ATOM     71  C   UNL A   1      46.456  26.379  35.974  1.00  0.00     0.000 A 
ENDBRANCH  53  66
ENDBRANCH  27  28
ENDBRANCH  20  22
ENDBRANCH  19  20
ENDBRANCH   1  19
TORSDOF 12
ENDMDL
MODEL 2
REMARK VINA RESULT:     -10.3      4.241      8.897
REMARK SMILES C[C@@H](C(=O)OCCOC(=O)c1ccc(-c2c3nc(c(-c4ccccc4)c4ccc([nH]4)c(-c4ccccc4)c4nc(c(-c5ccccc5)c5ccc2[nH]5)C=C4)C=C3)cc1)N1C(=O)c2nccnc2C1=O
REMARK SMILES IDX 7 1 6 2 5 3 3 4 4 5 2 6 1 7 59 8 60 9 68 10 61 11 62 12
REMARK SMILES IDX 67 13 69 14 63 15 66 16 64 17 65 18 8 19 9 20 10 21 11 22
REMARK SMILES IDX 12 23 58 24 13 25 57 26 14 27 15 28 16 29 51 30 17 31 56 32
REMARK SMILES IDX 50 33 52 34 18 35 55 36 49 37 48 38 19 40 41 41 26 42 40 43
REMARK SMILES IDX 27 44 30 45 39 46 53 47 28 48 29 49 38 51 54 52 31 53 20 54
REMARK SMILES IDX 21 55 25 56 22 57 24 58 23 59 42 60 43 61 47 62 44 63 46 64
REMARK SMILES IDX 45 65 32 66 33 67 37 68 34 69 36 70 35 71
REMARK H PARENT 52 39 30 50
REMARK Flexibility Score: inf
ROOT
ATOM      1  C   UNL A   1      44.737  22.530  24.217  1.00  0.00     0.275 C 
ENDROOT
BRANCH   1   2
ATOM      2  C   UNL A   1      44.493  21.425  25.242  1.00  0.00     0.274 C 
BRANCH   2   3
ATOM      3  O   UNL A   1      43.407  20.569  24.823  1.00  0.00    -0.461 OA
BRANCH   3   4
ATOM      4  C   UNL A   1      43.228  19.412  25.521  1.00  0.00     0.329 C 
ATOM      5  O   UNL A   1      43.478  18.298  25.073  1.00  0.00    -0.250 OA
BRANCH   4   6
ATOM      6  C   UNL A   1      42.598  19.643  26.909  1.00  0.00     0.201 C 
ATOM      7  C   UNL A   1      42.359  18.346  27.681  1.00  0.00     0.044 C 
BRANCH   6   8
ATOM      8  N   UNL A   1      41.388  20.476  26.784  1.00  0.00    -0.257 N 
ATOM      9  C   UNL A   1      40.266  20.192  26.049  1.00  0.00     0.282 C 
ATOM     10  C   UNL A   1      41.298  21.732  27.351  1.00  0.00     0.282 C 
ATOM     11  O   UNL A   1      40.028  19.203  25.378  1.00  0.00    -0.267 OA
ATOM     12  C   UNL A   1      39.367  21.342  26.178  1.00  0.00     0.160 A 
ATOM     13  C   UNL A   1      40.010  22.290  26.926  1.00  0.00     0.160 A 
ATOM     14  O   UNL A   1      42.107  22.283  28.066  1.00  0.00    -0.267 OA
ATOM     15  N   UNL A   1      38.187  21.534  25.555  1.00  0.00    -0.247 NA
ATOM     16  N   UNL A   1      39.545  23.540  27.121  1.00  0.00    -0.247 NA
ATOM     17  C   UNL A   1      37.688  22.786  25.745  1.00  0.00     0.132 A 
ATOM     18  C   UNL A   1      38.352  23.764  26.498  1.00  0.00     0.132 A 
ENDBRANCH   6   8
ENDBRANCH   4   6
ENDBRANCH   3   4
ENDBRANCH   2   3
ENDBRANCH   1   2
BRANCH   1  19
ATOM     19  O   UNL A   1      43.969  23.687  24.584  1.00  0.00    -0.458 OA
BRANCH  19  20
ATOM     20  C   UNL A   1      44.676  24.774  24.972  1.00  0.00     0.338 C 
ATOM     21  O   UNL A   1      45.804  25.082  24.634  1.00  0.00    -0.246 OA
BRANCH  20  22
ATOM     22  C   UNL A   1      43.846  25.587  25.879  1.00  0.00     0.060 A 
ATOM     23  C   UNL A   1      43.928  26.974  25.824  1.00  0.00     0.016 A 
ATOM     24  C   UNL A   1      43.077  24.977  26.867  1.00  0.00     0.016 A 
ATOM     25  C   UNL A   1      43.343  27.745  26.822  1.00  0.00     0.010 A 
ATOM     26  C   UNL A   1      42.405  25.767  27.811  1.00  0.00     0.010 A 
ATOM     27  C   UNL A   1      42.578  27.162  27.841  1.00  0.00    -0.014 A 
BRANCH  27  28
ATOM     28  C   UNL A   1      42.044  28.001  28.960  1.00  0.00     0.031 A 
ATOM     29  C   UNL A   1      42.845  28.176  30.230  1.00  0.00     0.074 A 
ATOM     30  C   UNL A   1      40.880  28.675  28.842  1.00  0.00     0.049 A 
ATOM     31  N   UNL A   1      42.466  28.670  31.384  1.00  0.00    -0.248 NA
ATOM     32  C   UNL A   1      44.245  27.726  30.206  1.00  0.00     0.031 C 
ATOM     33  C   UNL A   1      40.015  28.694  27.660  1.00  0.00     0.029 A 
ATOM     34  N   UNL A   1      40.232  29.504  29.731  1.00  0.00    -0.354 N 
ATOM     35  C   UNL A   1      43.546  28.493  32.245  1.00  0.00     0.074 A 
ATOM     36  C   UNL A   1      44.599  27.869  31.476  1.00  0.00     0.031 C 
ATOM     37  C   UNL A   1      39.000  29.544  27.866  1.00  0.00     0.029 A 
ATOM     38  C   UNL A   1      39.055  30.021  29.241  1.00  0.00     0.049 A 
ATOM     39  H   UNL A   1      40.578  29.706  30.630  1.00  0.00     0.167 HD
ATOM     40  C   UNL A   1      43.647  28.815  33.558  1.00  0.00     0.031 A 
ATOM     41  C   UNL A   1      38.085  30.739  29.838  1.00  0.00     0.031 A 
ATOM     42  C   UNL A   1      42.631  29.508  34.307  1.00  0.00     0.049 A 
ATOM     43  C   UNL A   1      38.197  31.055  31.300  1.00  0.00     0.074 A 
ATOM     44  C   UNL A   1      42.645  29.885  35.640  1.00  0.00     0.029 A 
ATOM     45  N   UNL A   1      41.429  29.955  33.781  1.00  0.00    -0.354 N 
ATOM     46  N   UNL A   1      39.175  30.784  32.129  1.00  0.00    -0.248 NA
ATOM     47  C   UNL A   1      37.056  31.748  31.914  1.00  0.00     0.031 C 
ATOM     48  C   UNL A   1      41.437  30.528  35.928  1.00  0.00     0.029 A 
ATOM     49  C   UNL A   1      40.694  30.600  34.762  1.00  0.00     0.049 A 
ATOM     50  H   UNL A   1      41.141  29.833  32.847  1.00  0.00     0.167 HD
ATOM     51  C   UNL A   1      38.766  31.271  33.363  1.00  0.00     0.074 A 
ATOM     52  C   UNL A   1      37.470  31.885  33.166  1.00  0.00     0.031 C 
ATOM     53  C   UNL A   1      39.405  31.204  34.556  1.00  0.00     0.031 A 
BRANCH  40  54
ATOM     54  C   UNL A   1      44.883  28.375  34.294  1.00  0.00    -0.014 A 
ATOM     55  C   UNL A   1      44.938  27.164  35.002  1.00  0.00     0.009 A 
ATOM     56  C   UNL A   1      46.036  29.176  34.235  1.00  0.00     0.009 A 
ATOM     57  C   UNL A   1      46.110  26.783  35.661  1.00  0.00     0.001 A 
ATOM     58  C   UNL A   1      47.215  28.779  34.869  1.00  0.00     0.001 A 
ATOM     59  C   UNL A   1      47.248  27.587  35.590  1.00  0.00     0.000 A 
ENDBRANCH  40  54
BRANCH  41  60
ATOM     60  C   UNL A   1      36.876  31.134  29.067  1.00  0.00    -0.014 A 
ATOM     61  C   UNL A   1      35.909  30.182  28.712  1.00  0.00     0.009 A 
ATOM     62  C   UNL A   1      36.677  32.473  28.692  1.00  0.00     0.009 A 
ATOM     63  C   UNL A   1      34.773  30.563  27.994  1.00  0.00     0.001 A 
ATOM     64  C   UNL A   1      35.524  32.858  28.007  1.00  0.00     0.001 A 
ATOM     65  C   UNL A   1      34.576  31.900  27.651  1.00  0.00     0.000 A 
ENDBRANCH  41  60
BRANCH  53  66
ATOM     66  C   UNL A   1      38.723  31.842  35.731  1.00  0.00    -0.014 A 
ATOM     67  C   UNL A   1      38.045  31.069  36.687  1.00  0.00     0.009 A 
ATOM     68  C   UNL A   1      38.779  33.235  35.896  1.00  0.00     0.009 A 
ATOM     69  C   UNL A   1      37.406  31.683  37.766  1.00  0.00     0.001 A 
ATOM     70  C   UNL A   1      38.161  33.843  36.990  1.00  0.00     0.001 A 
ATOM     71  C   UNL A   1      37.467  33.069  37.918  1.00  0.00     0.000 A 
ENDBRANCH  53  66
ENDBRANCH  27  28
ENDBRANCH  20  22
ENDBRANCH  19  20
ENDBRANCH   1  19
TORSDOF 12
ENDMDL
MODEL 3
REMARK VINA RESULT:     -10.2      4.049      8.590
REMARK SMILES C[C@@H](C(=O)OCCOC(=O)c1ccc(-c2c3nc(c(-c4ccccc4)c4ccc([nH]4)c(-c4ccccc4)c4nc(c(-c5ccccc5)c5ccc2[nH]5)C=C4)C=C3)cc1)N1C(=O)c2nccnc2C1=O
REMARK SMILES IDX 7 1 6 2 5 3 3 4 4 5 2 6 1 7 59 8 60 9 68 10 61 11 62 12
REMARK SMILES IDX 67 13 69 14 63 15 66 16 64 17 65 18 8 19 9 20 10 21 11 22
REMARK SMILES IDX 12 23 58 24 13 25 57 26 14 27 15 28 16 29 51 30 17 31 56 32
REMARK SMILES IDX 50 33 52 34 18 35 55 36 49 37 48 38 19 40 41 41 26 42 40 43
REMARK SMILES IDX 27 44 30 45 39 46 53 47 28 48 29 49 38 51 54 52 31 53 20 54
REMARK SMILES IDX 21 55 25 56 22 57 24 58 23 59 42 60 43 61 47 62 44 63 46 64
REMARK SMILES IDX 45 65 32 66 33 67 37 68 34 69 36 70 35 71
REMARK H PARENT 52 39 30 50
REMARK Flexibility Score: inf
ROOT
ATOM      1  C   UNL A   1      36.205  21.825  24.289  1.00  0.00     0.275 C 
ENDROOT
BRANCH   1   2
ATOM      2  C   UNL A   1      35.723  23.231  23.940  1.00  0.00     0.274 C 
BRANCH   2   3
ATOM      3  O   UNL A   1      34.562  23.177  23.080  1.00  0.00    -0.461 OA
BRANCH   3   4
ATOM      4  C   UNL A   1      33.440  23.814  23.518  1.00  0.00     0.329 C 
ATOM      5  O   UNL A   1      33.454  24.815  24.225  1.00  0.00    -0.250 OA
BRANCH   4   6
ATOM      6  C   UNL A   1      32.142  23.094  23.098  1.00  0.00     0.201 C 
ATOM      7  C   UNL A   1      30.879  23.828  23.546  1.00  0.00     0.044 C 
BRANCH   6   8
ATOM      8  N   UNL A   1      32.181  21.686  23.531  1.00  0.00    -0.257 N 
ATOM      9  C   UNL A   1      32.370  21.223  24.808  1.00  0.00     0.282 C 
ATOM     10  C   UNL A   1      32.119  20.638  22.634  1.00  0.00     0.282 C 
ATOM     11  O   UNL A   1      32.520  21.864  25.833  1.00  0.00    -0.267 OA
ATOM     12  C   UNL A   1      32.400  19.760  24.732  1.00  0.00     0.160 A 
ATOM     13  C   UNL A   1      32.294  19.408  23.415  1.00  0.00     0.160 A 
ATOM     14  O   UNL A   1      31.948  20.697  21.436  1.00  0.00    -0.267 OA
ATOM     15  N   UNL A   1      32.649  18.892  25.735  1.00  0.00    -0.247 NA
ATOM     16  N   UNL A   1      32.439  18.150  22.956  1.00  0.00    -0.247 NA
ATOM     17  C   UNL A   1      32.787  17.610  25.300  1.00  0.00     0.132 A 
ATOM     18  C   UNL A   1      32.694  17.251  23.949  1.00  0.00     0.132 A 
ENDBRANCH   6   8
ENDBRANCH   4   6
ENDBRANCH   3   4
ENDBRANCH   2   3
ENDBRANCH   1   2
BRANCH   1  19
ATOM     19  O   UNL A   1      36.760  21.836  25.614  1.00  0.00    -0.458 OA
BRANCH  19  20
ATOM     20  C   UNL A   1      38.079  21.548  25.709  1.00  0.00     0.338 C 
ATOM     21  O   UNL A   1      38.652  20.555  25.298  1.00  0.00    -0.246 OA
BRANCH  20  22
ATOM     22  C   UNL A   1      38.765  22.664  26.383  1.00  0.00     0.060 A 
ATOM     23  C   UNL A   1      38.207  23.937  26.344  1.00  0.00     0.016 A 
ATOM     24  C   UNL A   1      40.024  22.478  26.951  1.00  0.00     0.016 A 
ATOM     25  C   UNL A   1      38.949  25.036  26.759  1.00  0.00     0.010 A 
ATOM     26  C   UNL A   1      40.725  23.579  27.462  1.00  0.00     0.010 A 
ATOM     27  C   UNL A   1      40.225  24.885  27.319  1.00  0.00    -0.014 A 
BRANCH  27  28
ATOM     28  C   UNL A   1      41.046  26.089  27.665  1.00  0.00     0.031 A 
ATOM     29  C   UNL A   1      40.532  27.099  28.665  1.00  0.00     0.074 A 
ATOM     30  C   UNL A   1      42.282  26.269  27.154  1.00  0.00     0.049 A 
ATOM     31  N   UNL A   1      40.982  28.303  28.929  1.00  0.00    -0.248 NA
ATOM     32  C   UNL A   1      39.356  26.716  29.461  1.00  0.00     0.031 C 
ATOM     33  C   UNL A   1      42.974  25.357  26.241  1.00  0.00     0.029 A 
ATOM     34  N   UNL A   1      43.195  27.281  27.354  1.00  0.00    -0.354 N 
ATOM     35  C   UNL A   1      40.084  28.852  29.840  1.00  0.00     0.074 A 
ATOM     36  C   UNL A   1      39.080  27.844  30.100  1.00  0.00     0.031 C 
ATOM     37  C   UNL A   1      44.217  25.806  26.021  1.00  0.00     0.029 A 
ATOM     38  C   UNL A   1      44.367  27.108  26.657  1.00  0.00     0.049 A 
ATOM     39  H   UNL A   1      43.024  28.052  27.941  1.00  0.00     0.167 HD
ATOM     40  C   UNL A   1      40.092  30.085  30.403  1.00  0.00     0.031 A 
ATOM     41  C   UNL A   1      45.423  27.925  26.479  1.00  0.00     0.031 A 
ATOM     42  C   UNL A   1      41.133  31.061  30.209  1.00  0.00     0.049 A 
ATOM     43  C   UNL A   1      45.398  29.299  27.080  1.00  0.00     0.074 A 
ATOM     44  C   UNL A   1      41.233  32.336  30.743  1.00  0.00     0.029 A 
ATOM     45  N   UNL A   1      42.270  30.862  29.442  1.00  0.00    -0.354 N 
ATOM     46  N   UNL A   1      44.490  29.846  27.850  1.00  0.00    -0.248 NA
ATOM     47  C   UNL A   1      46.531  30.179  26.760  1.00  0.00     0.031 C 
ATOM     48  C   UNL A   1      42.413  32.920  30.270  1.00  0.00     0.029 A 
ATOM     49  C   UNL A   1      43.073  31.989  29.485  1.00  0.00     0.049 A 
ATOM     50  H   UNL A   1      42.476  30.040  28.941  1.00  0.00     0.167 HD
ATOM     51  C   UNL A   1      44.941  31.135  28.104  1.00  0.00     0.074 A 
ATOM     52  C   UNL A   1      46.218  31.275  27.438  1.00  0.00     0.031 C 
ATOM     53  C   UNL A   1      44.340  32.118  28.817  1.00  0.00     0.031 A 
BRANCH  40  54
ATOM     54  C   UNL A   1      38.911  30.477  31.248  1.00  0.00    -0.014 A 
ATOM     55  C   UNL A   1      38.908  30.324  32.643  1.00  0.00     0.009 A 
ATOM     56  C   UNL A   1      37.790  31.059  30.630  1.00  0.00     0.009 A 
ATOM     57  C   UNL A   1      37.796  30.714  33.395  1.00  0.00     0.001 A 
ATOM     58  C   UNL A   1      36.694  31.475  31.387  1.00  0.00     0.001 A 
ATOM     59  C   UNL A   1      36.694  31.294  32.768  1.00  0.00     0.000 A 
ENDBRANCH  40  54
BRANCH  41  60
ATOM     60  C   UNL A   1      46.558  27.492  25.620  1.00  0.00    -0.014 A 
ATOM     61  C   UNL A   1      46.613  27.856  24.267  1.00  0.00     0.009 A 
ATOM     62  C   UNL A   1      47.602  26.721  26.157  1.00  0.00     0.009 A 
ATOM     63  C   UNL A   1      47.686  27.452  23.470  1.00  0.00     0.001 A 
ATOM     64  C   UNL A   1      48.691  26.348  25.367  1.00  0.00     0.001 A 
ATOM     65  C   UNL A   1      48.727  26.708  24.022  1.00  0.00     0.000 A 
ENDBRANCH  41  60
BRANCH  53  66
ATOM     66  C   UNL A   1      45.080  33.419  28.941  1.00  0.00    -0.014 A 
ATOM     67  C   UNL A   1      44.876  34.462  28.023  1.00  0.00     0.009 A 
ATOM     68  C   UNL A   1      45.977  33.611  30.003  1.00  0.00     0.009 A 
ATOM     69  C   UNL A   1      45.583  35.659  28.148  1.00  0.00     0.001 A 
ATOM     70  C   UNL A   1      46.663  34.819  30.140  1.00  0.00     0.001 A 
ATOM     71  C   UNL A   1      46.474  35.838  29.207  1.00  0.00     0.000 A 
ENDBRANCH  53  66
ENDBRANCH  27  28
ENDBRANCH  20  22
ENDBRANCH  19  20
ENDBRANCH   1  19
TORSDOF 12
ENDMDL
