MODEL 1
REMARK VINA RESULT:      -9.9      0.000      0.000
REMARK SMILES O=C(OCCOC(=O)c1ccc(N2CC3(CC3)C2)cc1)c1ccc(-c2c3nc(c(-c4ccccc4)c4ccc([nH]4)c(-c4ccccc4)c4nc(c(-c5ccccc5)c5ccc2[nH]5)C=C4)C=C3)cc1
REMARK SMILES IDX 4 1 3 2 2 3 1 4 21 5 22 6 68 7 23 8 67 9 24 10 25 11 26 12
REMARK SMILES IDX 61 13 27 14 66 15 60 16 62 17 28 18 65 19 59 20 58 21 29 23
REMARK SMILES IDX 51 24 36 25 50 26 37 27 40 28 49 29 63 30 38 31 39 32 48 34
REMARK SMILES IDX 64 35 41 36 30 37 31 38 35 39 32 40 34 41 33 42 52 43 53 44
REMARK SMILES IDX 57 45 54 46 56 47 55 48 42 49 43 50 47 51 44 52 46 53 45 54
REMARK SMILES IDX 5 55 6 56 7 57 8 58 9 59 10 60 20 61 11 62 19 63 12 64 13 65
REMARK SMILES IDX 14 66 18 67 15 68 16 69 17 70
REMARK H PARENT 62 22 40 33
REMARK Flexibility Score: inf
ROOT
ATOM      1  C   UNL A   1      42.602  18.238  26.460  1.00  0.00     0.275 C 
ENDROOT
BRANCH   1   2
ATOM      2  O   UNL A   1      41.499  18.836  25.758  1.00  0.00    -0.458 OA
BRANCH   2   3
ATOM      3  C   UNL A   1      40.742  19.908  26.087  1.00  0.00     0.338 C 
ATOM      4  O   UNL A   1      39.531  19.864  25.872  1.00  0.00    -0.246 OA
BRANCH   3   5
ATOM      5  C   UNL A   1      41.316  21.210  26.554  1.00  0.00     0.060 A 
ATOM      6  C   UNL A   1      41.904  22.191  25.754  1.00  0.00     0.016 A 
ATOM      7  C   UNL A   1      41.210  21.467  27.932  1.00  0.00     0.016 A 
ATOM      8  C   UNL A   1      42.235  23.445  26.272  1.00  0.00     0.010 A 
ATOM      9  C   UNL A   1      41.539  22.719  28.457  1.00  0.00     0.010 A 
ATOM     10  C   UNL A   1      42.026  23.728  27.619  1.00  0.00    -0.014 A 
BRANCH  10  11
ATOM     11  C   UNL A   1      42.453  25.023  28.183  1.00  0.00     0.031 A 
ATOM     12  C   UNL A   1      41.434  26.115  28.270  1.00  0.00     0.074 A 
ATOM     13  C   UNL A   1      43.711  25.215  28.627  1.00  0.00     0.049 A 
ATOM     14  N   UNL A   1      41.584  27.347  28.674  1.00  0.00    -0.248 NA
ATOM     15  C   UNL A   1      40.054  25.762  27.892  1.00  0.00     0.031 C 
ATOM     16  C   UNL A   1      44.742  24.184  28.724  1.00  0.00     0.029 A 
ATOM     17  N   UNL A   1      44.350  26.353  29.052  1.00  0.00    -0.354 N 
ATOM     18  C   UNL A   1      40.312  27.899  28.640  1.00  0.00     0.074 A 
ATOM     19  C   UNL A   1      39.415  26.900  28.110  1.00  0.00     0.031 C 
ATOM     20  C   UNL A   1      45.911  24.752  29.068  1.00  0.00     0.029 A 
ATOM     21  C   UNL A   1      45.707  26.185  29.225  1.00  0.00     0.049 A 
ATOM     22  H   UNL A   1      43.885  27.205  29.218  1.00  0.00     0.167 HD
ATOM     23  C   UNL A   1      39.929  29.125  29.056  1.00  0.00     0.031 A 
ATOM     24  C   UNL A   1      46.672  27.098  29.447  1.00  0.00     0.031 A 
ATOM     25  C   UNL A   1      40.842  30.110  29.560  1.00  0.00     0.049 A 
ATOM     26  C   UNL A   1      46.248  28.524  29.669  1.00  0.00     0.074 A 
ATOM     27  C   UNL A   1      40.567  31.377  30.036  1.00  0.00     0.029 A 
ATOM     28  N   UNL A   1      42.217  29.939  29.630  1.00  0.00    -0.354 N 
ATOM     29  N   UNL A   1      45.036  29.024  29.692  1.00  0.00    -0.248 NA
ATOM     30  C   UNL A   1      47.311  29.502  29.931  1.00  0.00     0.031 C 
ATOM     31  C   UNL A   1      41.784  32.003  30.320  1.00  0.00     0.029 A 
ATOM     32  C   UNL A   1      42.812  31.101  30.082  1.00  0.00     0.049 A 
ATOM     33  H   UNL A   1      42.696  29.112  29.395  1.00  0.00     0.167 HD
ATOM     34  C   UNL A   1      45.184  30.358  30.041  1.00  0.00     0.074 A 
ATOM     35  C   UNL A   1      46.605  30.591  30.201  1.00  0.00     0.031 C 
ATOM     36  C   UNL A   1      44.229  31.301  30.234  1.00  0.00     0.031 A 
BRANCH  23  37
ATOM     37  C   UNL A   1      38.473  29.463  28.952  1.00  0.00    -0.014 A 
ATOM     38  C   UNL A   1      37.620  29.360  30.062  1.00  0.00     0.009 A 
ATOM     39  C   UNL A   1      37.952  29.906  27.728  1.00  0.00     0.009 A 
ATOM     40  C   UNL A   1      36.266  29.674  29.940  1.00  0.00     0.001 A 
ATOM     41  C   UNL A   1      36.603  30.242  27.617  1.00  0.00     0.001 A 
ATOM     42  C   UNL A   1      35.759  30.120  28.720  1.00  0.00     0.000 A 
ENDBRANCH  23  37
BRANCH  24  43
ATOM     43  C   UNL A   1      48.115  26.729  29.410  1.00  0.00    -0.014 A 
ATOM     44  C   UNL A   1      48.893  26.890  28.255  1.00  0.00     0.009 A 
ATOM     45  C   UNL A   1      48.705  26.120  30.528  1.00  0.00     0.009 A 
ATOM     46  C   UNL A   1      50.208  26.412  28.212  1.00  0.00     0.001 A 
ATOM     47  C   UNL A   1      50.027  25.668  30.496  1.00  0.00     0.001 A 
ATOM     48  C   UNL A   1      50.773  25.800  29.330  1.00  0.00     0.000 A 
ENDBRANCH  24  43
BRANCH  36  49
ATOM     49  C   UNL A   1      44.691  32.654  30.685  1.00  0.00    -0.014 A 
ATOM     50  C   UNL A   1      44.956  33.676  29.763  1.00  0.00     0.009 A 
ATOM     51  C   UNL A   1      44.803  32.922  32.058  1.00  0.00     0.009 A 
ATOM     52  C   UNL A   1      45.350  34.938  30.210  1.00  0.00     0.001 A 
ATOM     53  C   UNL A   1      45.161  34.193  32.503  1.00  0.00     0.001 A 
ATOM     54  C   UNL A   1      45.443  35.196  31.577  1.00  0.00     0.000 A 
ENDBRANCH  36  49
ENDBRANCH  10  11
ENDBRANCH   3   5
ENDBRANCH   2   3
ENDBRANCH   1   2
BRANCH   1  55
ATOM     55  C   UNL A   1      43.962  18.339  25.757  1.00  0.00     0.275 C 
BRANCH  55  56
ATOM     56  O   UNL A   1      43.926  18.964  24.462  1.00  0.00    -0.458 OA
BRANCH  56  57
ATOM     57  C   UNL A   1      45.120  19.451  24.019  1.00  0.00     0.338 C 
ATOM     58  O   UNL A   1      45.932  18.869  23.331  1.00  0.00    -0.246 OA
BRANCH  57  59
ATOM     59  C   UNL A   1      45.249  20.874  24.408  1.00  0.00     0.060 A 
ATOM     60  C   UNL A   1      45.767  21.183  25.667  1.00  0.00     0.018 A 
ATOM     61  C   UNL A   1      44.869  21.902  23.549  1.00  0.00     0.018 A 
ATOM     62  C   UNL A   1      46.019  22.518  26.013  1.00  0.00     0.027 A 
ATOM     63  C   UNL A   1      45.057  23.238  23.939  1.00  0.00     0.027 A 
ATOM     64  C   UNL A   1      45.687  23.565  25.147  1.00  0.00     0.037 A 
BRANCH  64  65
ATOM     65  N   UNL A   1      45.987  24.893  25.502  1.00  0.00    -0.370 N 
ATOM     66  C   UNL A   1      47.248  25.568  25.343  1.00  0.00     0.125 C 
ATOM     67  C   UNL A   1      45.222  26.089  25.352  1.00  0.00     0.125 C 
ATOM     68  C   UNL A   1      46.482  26.806  25.103  1.00  0.00     0.005 C 
ATOM     69  C   UNL A   1      46.731  27.832  24.037  1.00  0.00     0.011 C 
ATOM     70  C   UNL A   1      46.837  28.205  25.491  1.00  0.00     0.011 C 
ENDBRANCH  64  65
ENDBRANCH  57  59
ENDBRANCH  56  57
ENDBRANCH  55  56
ENDBRANCH   1  55
TORSDOF 12
ENDMDL
MODEL 2
REMARK VINA RESULT:      -9.3      4.386      8.762
REMARK SMILES O=C(OCCOC(=O)c1ccc(N2CC3(CC3)C2)cc1)c1ccc(-c2c3nc(c(-c4ccccc4)c4ccc([nH]4)c(-c4ccccc4)c4nc(c(-c5ccccc5)c5ccc2[nH]5)C=C4)C=C3)cc1
REMARK SMILES IDX 4 1 3 2 2 3 1 4 21 5 22 6 68 7 23 8 67 9 24 10 25 11 26 12
REMARK SMILES IDX 61 13 27 14 66 15 60 16 62 17 28 18 65 19 59 20 58 21 29 23
REMARK SMILES IDX 51 24 36 25 50 26 37 27 40 28 49 29 63 30 38 31 39 32 48 34
REMARK SMILES IDX 64 35 41 36 30 37 31 38 35 39 32 40 34 41 33 42 52 43 53 44
REMARK SMILES IDX 57 45 54 46 56 47 55 48 42 49 43 50 47 51 44 52 46 53 45 54
REMARK SMILES IDX 5 55 6 56 7 57 8 58 9 59 10 60 20 61 11 62 19 63 12 64 13 65
REMARK SMILES IDX 14 66 18 67 15 68 16 69 17 70
REMARK H PARENT 62 22 40 33
REMARK Flexibility Score: inf
ROOT
ATOM      1  C   UNL A   1      43.776  21.346  25.348  1.00  0.00     0.275 C 
ENDROOT
BRANCH   1   2
ATOM      2  O   UNL A   1      43.429  22.541  24.627  1.00  0.00    -0.458 OA
BRANCH   2   3
ATOM      3  C   UNL A   1      43.805  23.823  24.842  1.00  0.00     0.338 C 
ATOM      4  O   UNL A   1      44.795  24.255  24.253  1.00  0.00    -0.246 OA
BRANCH   3   5
ATOM      5  C   UNL A   1      43.175  24.703  25.877  1.00  0.00     0.060 A 
ATOM      6  C   UNL A   1      42.128  24.356  26.733  1.00  0.00     0.016 A 
ATOM      7  C   UNL A   1      43.730  25.987  26.010  1.00  0.00     0.016 A 
ATOM      8  C   UNL A   1      41.747  25.191  27.786  1.00  0.00     0.010 A 
ATOM      9  C   UNL A   1      43.354  26.827  27.060  1.00  0.00     0.010 A 
ATOM     10  C   UNL A   1      42.378  26.418  27.975  1.00  0.00    -0.014 A 
BRANCH  10  11
ATOM     11  C   UNL A   1      41.918  27.336  29.036  1.00  0.00     0.031 A 
ATOM     12  C   UNL A   1      42.601  27.262  30.365  1.00  0.00     0.074 A 
ATOM     13  C   UNL A   1      40.933  28.228  28.813  1.00  0.00     0.049 A 
ATOM     14  N   UNL A   1      42.338  27.923  31.459  1.00  0.00    -0.248 NA
ATOM     15  C   UNL A   1      43.758  26.355  30.463  1.00  0.00     0.031 C 
ATOM     16  C   UNL A   1      40.299  28.486  27.522  1.00  0.00     0.029 A 
ATOM     17  N   UNL A   1      40.267  29.064  29.674  1.00  0.00    -0.354 N 
ATOM     18  C   UNL A   1      43.324  27.544  32.359  1.00  0.00     0.074 A 
ATOM     19  C   UNL A   1      44.145  26.546  31.715  1.00  0.00     0.031 C 
ATOM     20  C   UNL A   1      39.264  29.328  27.693  1.00  0.00     0.029 A 
ATOM     21  C   UNL A   1      39.171  29.675  29.104  1.00  0.00     0.049 A 
ATOM     22  H   UNL A   1      40.545  29.214  30.607  1.00  0.00     0.167 HD
ATOM     23  C   UNL A   1      43.541  28.024  33.602  1.00  0.00     0.031 A 
ATOM     24  C   UNL A   1      38.188  30.398  29.674  1.00  0.00     0.031 A 
ATOM     25  C   UNL A   1      42.699  29.001  34.230  1.00  0.00     0.049 A 
ATOM     26  C   UNL A   1      38.317  30.725  31.137  1.00  0.00     0.074 A 
ATOM     27  C   UNL A   1      42.835  29.582  35.476  1.00  0.00     0.029 A 
ATOM     28  N   UNL A   1      41.547  29.523  33.661  1.00  0.00    -0.354 N 
ATOM     29  N   UNL A   1      39.284  30.410  31.964  1.00  0.00    -0.248 NA
ATOM     30  C   UNL A   1      37.248  31.533  31.736  1.00  0.00     0.031 C 
ATOM     31  C   UNL A   1      41.720  30.397  35.693  1.00  0.00     0.029 A 
ATOM     32  C   UNL A   1      40.925  30.373  34.555  1.00  0.00     0.049 A 
ATOM     33  H   UNL A   1      41.222  29.319  32.754  1.00  0.00     0.167 HD
ATOM     34  C   UNL A   1      38.978  31.038  33.161  1.00  0.00     0.074 A 
ATOM     35  C   UNL A   1      37.725  31.738  32.955  1.00  0.00     0.031 C 
ATOM     36  C   UNL A   1      39.681  31.056  34.320  1.00  0.00     0.031 A 
BRANCH  23  37
ATOM     37  C   UNL A   1      44.712  27.474  34.357  1.00  0.00    -0.014 A 
ATOM     38  C   UNL A   1      45.981  28.070  34.269  1.00  0.00     0.009 A 
ATOM     39  C   UNL A   1      44.540  26.352  35.181  1.00  0.00     0.009 A 
ATOM     40  C   UNL A   1      47.059  27.536  34.976  1.00  0.00     0.001 A 
ATOM     41  C   UNL A   1      45.615  25.837  35.904  1.00  0.00     0.001 A 
ATOM     42  C   UNL A   1      46.875  26.424  35.797  1.00  0.00     0.000 A 
ENDBRANCH  23  37
BRANCH  24  43
ATOM     43  C   UNL A   1      36.979  30.808  28.906  1.00  0.00    -0.014 A 
ATOM     44  C   UNL A   1      36.715  32.150  28.598  1.00  0.00     0.009 A 
ATOM     45  C   UNL A   1      36.022  29.845  28.549  1.00  0.00     0.009 A 
ATOM     46  C   UNL A   1      35.507  32.515  27.992  1.00  0.00     0.001 A 
ATOM     47  C   UNL A   1      34.828  30.205  27.919  1.00  0.00     0.001 A 
ATOM     48  C   UNL A   1      34.564  31.545  27.655  1.00  0.00     0.000 A 
ENDBRANCH  24  43
BRANCH  36  49
ATOM     49  C   UNL A   1      39.131  31.894  35.435  1.00  0.00    -0.014 A 
ATOM     50  C   UNL A   1      39.403  33.267  35.515  1.00  0.00     0.009 A 
ATOM     51  C   UNL A   1      38.279  31.306  36.383  1.00  0.00     0.009 A 
ATOM     52  C   UNL A   1      38.849  34.032  36.542  1.00  0.00     0.001 A 
ATOM     53  C   UNL A   1      37.699  32.080  37.388  1.00  0.00     0.001 A 
ATOM     54  C   UNL A   1      37.993  33.440  37.470  1.00  0.00     0.000 A 
ENDBRANCH  36  49
ENDBRANCH  10  11
ENDBRANCH   3   5
ENDBRANCH   2   3
ENDBRANCH   1   2
BRANCH   1  55
ATOM     55  C   UNL A   1      42.653  20.745  26.202  1.00  0.00     0.275 C 
BRANCH  55  56
ATOM     56  O   UNL A   1      41.322  21.042  25.746  1.00  0.00    -0.458 OA
BRANCH  56  57
ATOM     57  C   UNL A   1      40.416  21.308  26.729  1.00  0.00     0.338 C 
ATOM     58  O   UNL A   1      40.599  21.228  27.926  1.00  0.00    -0.246 OA
BRANCH  57  59
ATOM     59  C   UNL A   1      39.171  21.835  26.127  1.00  0.00     0.060 A 
ATOM     60  C   UNL A   1      38.428  21.005  25.284  1.00  0.00     0.018 A 
ATOM     61  C   UNL A   1      38.729  23.130  26.382  1.00  0.00     0.018 A 
ATOM     62  C   UNL A   1      37.183  21.431  24.801  1.00  0.00     0.027 A 
ATOM     63  C   UNL A   1      37.515  23.572  25.829  1.00  0.00     0.027 A 
ATOM     64  C   UNL A   1      36.698  22.713  25.082  1.00  0.00     0.037 A 
BRANCH  64  65
ATOM     65  N   UNL A   1      35.427  23.100  24.619  1.00  0.00    -0.370 N 
ATOM     66  C   UNL A   1      34.908  22.951  23.285  1.00  0.00     0.125 C 
ATOM     67  C   UNL A   1      34.142  22.985  25.231  1.00  0.00     0.125 C 
ATOM     68  C   UNL A   1      33.579  22.747  23.892  1.00  0.00     0.005 C 
ATOM     69  C   UNL A   1      32.565  21.706  23.522  1.00  0.00     0.011 C 
ATOM     70  C   UNL A   1      32.245  23.169  23.366  1.00  0.00     0.011 C 
ENDBRANCH  64  65
ENDBRANCH  57  59
ENDBRANCH  56  57
ENDBRANCH  55  56
ENDBRANCH   1  55
TORSDOF 12
ENDMDL
MODEL 3
REMARK VINA RESULT:      -9.2      1.194      6.468
REMARK SMILES O=C(OCCOC(=O)c1ccc(N2CC3(CC3)C2)cc1)c1ccc(-c2c3nc(c(-c4ccccc4)c4ccc([nH]4)c(-c4ccccc4)c4nc(c(-c5ccccc5)c5ccc2[nH]5)C=C4)C=C3)cc1
REMARK SMILES IDX 4 1 3 2 2 3 1 4 21 5 22 6 68 7 23 8 67 9 24 10 25 11 26 12
REMARK SMILES IDX 61 13 27 14 66 15 60 16 62 17 28 18 65 19 59 20 58 21 29 23
REMARK SMILES IDX 51 24 36 25 50 26 37 27 40 28 49 29 63 30 38 31 39 32 48 34
REMARK SMILES IDX 64 35 41 36 30 37 31 38 35 39 32 40 34 41 33 42 52 43 53 44
REMARK SMILES IDX 57 45 54 46 56 47 55 48 42 49 43 50 47 51 44 52 46 53 45 54
REMARK SMILES IDX 5 55 6 56 7 57 8 58 9 59 10 60 20 61 11 62 19 63 12 64 13 65
REMARK SMILES IDX 14 66 18 67 15 68 16 69 17 70
REMARK H PARENT 62 22 40 33
REMARK Flexibility Score: inf
ROOT
ATOM      1  C   UNL A   1      43.800  19.104  25.583  1.00  0.00     0.275 C 
ENDROOT
BRANCH   1   2
ATOM      2  O   UNL A   1      42.383  19.000  25.365  1.00  0.00    -0.458 OA
BRANCH   2   3
ATOM      3  C   UNL A   1      41.362  19.640  25.980  1.00  0.00     0.338 C 
ATOM      4  O   UNL A   1      40.224  19.186  25.866  1.00  0.00    -0.246 OA
BRANCH   3   5
ATOM      5  C   UNL A   1      41.513  20.962  26.667  1.00  0.00     0.060 A 
ATOM      6  C   UNL A   1      41.522  21.184  28.045  1.00  0.00     0.016 A 
ATOM      7  C   UNL A   1      41.701  22.072  25.826  1.00  0.00     0.016 A 
ATOM      8  C   UNL A   1      41.859  22.431  28.576  1.00  0.00     0.010 A 
ATOM      9  C   UNL A   1      42.038  23.322  26.349  1.00  0.00     0.010 A 
ATOM     10  C   UNL A   1      42.149  23.500  27.733  1.00  0.00    -0.014 A 
BRANCH  10  11
ATOM     11  C   UNL A   1      42.423  24.838  28.293  1.00  0.00     0.031 A 
ATOM     12  C   UNL A   1      43.759  25.069  28.924  1.00  0.00     0.074 A 
ATOM     13  C   UNL A   1      41.512  25.829  28.221  1.00  0.00     0.049 A 
ATOM     14  N   UNL A   1      44.207  26.135  29.529  1.00  0.00    -0.248 NA
ATOM     15  C   UNL A   1      44.735  23.969  28.826  1.00  0.00     0.031 C 
ATOM     16  C   UNL A   1      40.240  25.760  27.504  1.00  0.00     0.029 A 
ATOM     17  N   UNL A   1      41.500  27.080  28.783  1.00  0.00    -0.354 N 
ATOM     18  C   UNL A   1      45.528  25.849  29.842  1.00  0.00     0.074 A 
ATOM     19  C   UNL A   1      45.791  24.491  29.430  1.00  0.00     0.031 C 
ATOM     20  C   UNL A   1      39.522  26.867  27.762  1.00  0.00     0.029 A 
ATOM     21  C   UNL A   1      40.288  27.726  28.653  1.00  0.00     0.049 A 
ATOM     22  H   UNL A   1      42.278  27.479  29.235  1.00  0.00     0.167 HD
ATOM     23  C   UNL A   1      46.447  26.672  30.390  1.00  0.00     0.031 A 
ATOM     24  C   UNL A   1      39.846  28.862  29.225  1.00  0.00     0.031 A 
ATOM     25  C   UNL A   1      46.157  28.012  30.811  1.00  0.00     0.049 A 
ATOM     26  C   UNL A   1      40.822  29.657  30.049  1.00  0.00     0.074 A 
ATOM     27  C   UNL A   1      47.014  28.949  31.356  1.00  0.00     0.029 A 
ATOM     28  N   UNL A   1      44.901  28.596  30.752  1.00  0.00    -0.354 N 
ATOM     29  N   UNL A   1      42.087  29.405  30.289  1.00  0.00    -0.248 NA
ATOM     30  C   UNL A   1      40.330  30.904  30.646  1.00  0.00     0.031 C 
ATOM     31  C   UNL A   1      46.258  30.073  31.701  1.00  0.00     0.029 A 
ATOM     32  C   UNL A   1      44.943  29.860  31.310  1.00  0.00     0.049 A 
ATOM     33  H   UNL A   1      44.098  28.174  30.369  1.00  0.00     0.167 HD
ATOM     34  C   UNL A   1      42.560  30.495  31.004  1.00  0.00     0.074 A 
ATOM     35  C   UNL A   1      41.440  31.400  31.173  1.00  0.00     0.031 C 
ATOM     36  C   UNL A   1      43.813  30.737  31.461  1.00  0.00     0.031 A 
BRANCH  23  37
ATOM     37  C   UNL A   1      47.829  26.127  30.585  1.00  0.00    -0.014 A 
ATOM     38  C   UNL A   1      48.254  25.647  31.834  1.00  0.00     0.009 A 
ATOM     39  C   UNL A   1      48.712  26.078  29.497  1.00  0.00     0.009 A 
ATOM     40  C   UNL A   1      49.548  25.149  31.993  1.00  0.00     0.001 A 
ATOM     41  C   UNL A   1      49.997  25.558  29.654  1.00  0.00     0.001 A 
ATOM     42  C   UNL A   1      50.417  25.100  30.902  1.00  0.00     0.000 A 
ENDBRANCH  23  37
BRANCH  24  43
ATOM     43  C   UNL A   1      38.424  29.290  29.107  1.00  0.00    -0.014 A 
ATOM     44  C   UNL A   1      37.929  29.910  27.951  1.00  0.00     0.009 A 
ATOM     45  C   UNL A   1      37.564  29.155  30.208  1.00  0.00     0.009 A 
ATOM     46  C   UNL A   1      36.625  30.419  27.921  1.00  0.00     0.001 A 
ATOM     47  C   UNL A   1      36.253  29.637  30.170  1.00  0.00     0.001 A 
ATOM     48  C   UNL A   1      35.789  30.285  29.029  1.00  0.00     0.000 A 
ENDBRANCH  24  43
BRANCH  36  49
ATOM     49  C   UNL A   1      44.045  32.051  32.144  1.00  0.00    -0.014 A 
ATOM     50  C   UNL A   1      43.935  32.176  33.536  1.00  0.00     0.009 A 
ATOM     51  C   UNL A   1      44.440  33.163  31.384  1.00  0.00     0.009 A 
ATOM     52  C   UNL A   1      44.192  33.402  34.151  1.00  0.00     0.001 A 
ATOM     53  C   UNL A   1      44.730  34.376  32.005  1.00  0.00     0.001 A 
ATOM     54  C   UNL A   1      44.597  34.496  33.387  1.00  0.00     0.000 A 
ENDBRANCH  36  49
ENDBRANCH  10  11
ENDBRANCH   3   5
ENDBRANCH   2   3
ENDBRANCH   1   2
BRANCH   1  55
ATOM     55  C   UNL A   1      44.563  19.953  24.558  1.00  0.00     0.275 C 
BRANCH  55  56
ATOM     56  O   UNL A   1      44.956  21.255  25.026  1.00  0.00    -0.458 OA
BRANCH  56  57
ATOM     57  C   UNL A   1      44.838  22.260  24.113  1.00  0.00     0.338 C 
ATOM     58  O   UNL A   1      44.366  22.178  22.998  1.00  0.00    -0.246 OA
BRANCH  57  59
ATOM     59  C   UNL A   1      45.273  23.537  24.724  1.00  0.00     0.060 A 
ATOM     60  C   UNL A   1      44.383  24.613  24.737  1.00  0.00     0.018 A 
ATOM     61  C   UNL A   1      46.540  23.685  25.281  1.00  0.00     0.018 A 
ATOM     62  C   UNL A   1      44.718  25.791  25.419  1.00  0.00     0.027 A 
ATOM     63  C   UNL A   1      46.892  24.898  25.895  1.00  0.00     0.027 A 
ATOM     64  C   UNL A   1      45.970  25.945  26.026  1.00  0.00     0.037 A 
BRANCH  64  65
ATOM     65  N   UNL A   1      46.265  27.122  26.738  1.00  0.00    -0.370 N 
ATOM     66  C   UNL A   1      47.422  27.963  26.581  1.00  0.00     0.125 C 
ATOM     67  C   UNL A   1      45.419  28.202  27.136  1.00  0.00     0.125 C 
ATOM     68  C   UNL A   1      46.555  29.110  26.910  1.00  0.00     0.005 C 
ATOM     69  C   UNL A   1      46.511  30.439  26.217  1.00  0.00     0.011 C 
ATOM     70  C   UNL A   1      46.906  30.351  27.666  1.00  0.00     0.011 C 
ENDBRANCH  64  65
ENDBRANCH  57  59
ENDBRANCH  56  57
ENDBRANCH  55  56
ENDBRANCH   1  55
TORSDOF 12
ENDMDL
