MODEL 1
REMARK VINA RESULT:     -11.0      0.000      0.000
REMARK SMILES O=C(OCCOC(=O)[C@@H]1Cc2ccccc2CN1C(=O)COc1ccccc1)c1ccc(-c2c3nc(c(-c4ccccc4)c4ccc([nH]4)c(-c4ccccc4)c4nc(c(-c5ccccc5)c5ccc2[nH]5)C=C4)C=C3)cc1
REMARK SMILES IDX 5 1 4 2 3 3 2 4 1 5 29 6 30 7 76 8 31 9 75 10 32 11 33 12
REMARK SMILES IDX 34 13 69 14 35 15 74 16 68 17 70 18 36 19 73 20 67 21 66 22
REMARK SMILES IDX 37 24 59 25 44 26 58 27 45 28 48 29 57 30 71 31 46 32 47 33
REMARK SMILES IDX 56 35 72 36 49 37 38 38 39 39 43 40 40 41 42 42 41 43 60 44
REMARK SMILES IDX 61 45 65 46 62 47 64 48 63 49 50 50 51 51 55 52 52 53 54 54
REMARK SMILES IDX 53 55 6 56 7 57 8 58 9 59 10 60 18 61 11 62 17 63 12 64
REMARK SMILES IDX 16 65 13 66 15 67 14 68 19 69 20 70 21 71 22 72 23 73 24 74
REMARK SMILES IDX 28 75 25 76 27 77 26 78
REMARK H PARENT 70 23 48 34
REMARK Flexibility Score: inf
ROOT
ATOM      1  C   UNL A   1      37.594  21.091  25.402  1.00  0.00     0.274 C 
ENDROOT
BRANCH   1   2
ATOM      2  C   UNL A   1      38.475  19.961  24.844  1.00  0.00     0.275 C 
BRANCH   2   3
ATOM      3  O   UNL A   1      39.378  19.432  25.828  1.00  0.00    -0.458 OA
BRANCH   3   4
ATOM      4  C   UNL A   1      40.706  19.656  25.959  1.00  0.00     0.338 C 
ATOM      5  O   UNL A   1      41.463  18.704  25.753  1.00  0.00    -0.246 OA
BRANCH   4   6
ATOM      6  C   UNL A   1      41.322  20.942  26.446  1.00  0.00     0.060 A 
ATOM      7  C   UNL A   1      42.013  21.897  25.685  1.00  0.00     0.016 A 
ATOM      8  C   UNL A   1      41.070  21.267  27.787  1.00  0.00     0.016 A 
ATOM      9  C   UNL A   1      42.334  23.162  26.187  1.00  0.00     0.010 A 
ATOM     10  C   UNL A   1      41.374  22.534  28.289  1.00  0.00     0.010 A 
ATOM     11  C   UNL A   1      41.976  23.508  27.481  1.00  0.00    -0.014 A 
BRANCH  11  12
ATOM     12  C   UNL A   1      42.278  24.851  28.020  1.00  0.00     0.031 A 
ATOM     13  C   UNL A   1      43.671  25.110  28.506  1.00  0.00     0.074 A 
ATOM     14  C   UNL A   1      41.324  25.801  28.115  1.00  0.00     0.049 A 
ATOM     15  N   UNL A   1      44.170  26.186  29.050  1.00  0.00    -0.248 NA
ATOM     16  C   UNL A   1      44.631  23.998  28.373  1.00  0.00     0.031 C 
ATOM     17  C   UNL A   1      39.931  25.675  27.676  1.00  0.00     0.029 A 
ATOM     18  N   UNL A   1      41.379  27.065  28.648  1.00  0.00    -0.354 N 
ATOM     19  C   UNL A   1      45.497  25.880  29.304  1.00  0.00     0.074 A 
ATOM     20  C   UNL A   1      45.689  24.484  28.995  1.00  0.00     0.031 C 
ATOM     21  C   UNL A   1      39.253  26.785  28.014  1.00  0.00     0.029 A 
ATOM     22  C   UNL A   1      40.166  27.716  28.661  1.00  0.00     0.049 A 
ATOM     23  H   UNL A   1      42.209  27.468  28.990  1.00  0.00     0.167 HD
ATOM     24  C   UNL A   1      46.498  26.710  29.672  1.00  0.00     0.031 A 
ATOM     25  C   UNL A   1      39.840  28.935  29.130  1.00  0.00     0.031 A 
ATOM     26  C   UNL A   1      46.303  28.099  29.961  1.00  0.00     0.049 A 
ATOM     27  C   UNL A   1      40.945  29.816  29.649  1.00  0.00     0.074 A 
ATOM     28  C   UNL A   1      47.241  29.056  30.290  1.00  0.00     0.029 A 
ATOM     29  N   UNL A   1      45.064  28.724  29.958  1.00  0.00    -0.354 N 
ATOM     30  N   UNL A   1      42.226  29.555  29.761  1.00  0.00    -0.248 NA
ATOM     31  C   UNL A   1      40.571  31.180  30.047  1.00  0.00     0.031 C 
ATOM     32  C   UNL A   1      46.562  30.255  30.535  1.00  0.00     0.029 A 
ATOM     33  C   UNL A   1      45.208  30.055  30.303  1.00  0.00     0.049 A 
ATOM     34  H   UNL A   1      44.209  28.286  29.744  1.00  0.00     0.167 HD
ATOM     35  C   UNL A   1      42.820  30.740  30.170  1.00  0.00     0.074 A 
ATOM     36  C   UNL A   1      41.757  31.717  30.297  1.00  0.00     0.031 C 
ATOM     37  C   UNL A   1      44.131  31.006  30.398  1.00  0.00     0.031 A 
BRANCH  24  38
ATOM     38  C   UNL A   1      47.869  26.104  29.734  1.00  0.00    -0.014 A 
ATOM     39  C   UNL A   1      48.421  25.702  30.966  1.00  0.00     0.009 A 
ATOM     40  C   UNL A   1      48.655  26.014  28.577  1.00  0.00     0.009 A 
ATOM     41  C   UNL A   1      49.754  25.300  31.049  1.00  0.00     0.001 A 
ATOM     42  C   UNL A   1      49.977  25.572  28.659  1.00  0.00     0.001 A 
ATOM     43  C   UNL A   1      50.531  25.236  29.895  1.00  0.00     0.000 A 
ENDBRANCH  24  38
BRANCH  25  44
ATOM     44  C   UNL A   1      38.439  29.436  29.062  1.00  0.00    -0.014 A 
ATOM     45  C   UNL A   1      37.583  29.310  30.168  1.00  0.00     0.009 A 
ATOM     46  C   UNL A   1      37.935  30.001  27.881  1.00  0.00     0.009 A 
ATOM     47  C   UNL A   1      36.241  29.693  30.077  1.00  0.00     0.001 A 
ATOM     48  C   UNL A   1      36.598  30.404  27.800  1.00  0.00     0.001 A 
ATOM     49  C   UNL A   1      35.749  30.237  28.892  1.00  0.00     0.000 A 
ENDBRANCH  25  44
BRANCH  37  50
ATOM     50  C   UNL A   1      44.494  32.423  30.734  1.00  0.00    -0.014 A 
ATOM     51  C   UNL A   1      44.750  33.373  29.735  1.00  0.00     0.009 A 
ATOM     52  C   UNL A   1      44.515  32.823  32.080  1.00  0.00     0.009 A 
ATOM     53  C   UNL A   1      45.047  34.692  30.081  1.00  0.00     0.001 A 
ATOM     54  C   UNL A   1      44.777  34.148  32.421  1.00  0.00     0.001 A 
ATOM     55  C   UNL A   1      45.052  35.080  31.422  1.00  0.00     0.000 A 
ENDBRANCH  37  50
ENDBRANCH  11  12
ENDBRANCH   4   6
ENDBRANCH   3   4
ENDBRANCH   2   3
ENDBRANCH   1   2
BRANCH   1  56
ATOM     56  O   UNL A   1      36.548  21.438  24.460  1.00  0.00    -0.461 OA
BRANCH  56  57
ATOM     57  C   UNL A   1      35.314  20.932  24.742  1.00  0.00     0.329 C 
ATOM     58  O   UNL A   1      35.120  19.740  24.964  1.00  0.00    -0.250 OA
BRANCH  57  59
ATOM     59  C   UNL A   1      34.223  22.037  24.824  1.00  0.00     0.200 C 
ATOM     60  C   UNL A   1      34.526  22.968  23.612  1.00  0.00     0.073 C 
ATOM     61  N   UNL A   1      34.139  22.774  26.125  1.00  0.00    -0.321 N 
ATOM     62  C   UNL A   1      34.180  24.411  23.834  1.00  0.00    -0.040 A 
ATOM     63  C   UNL A   1      34.862  24.032  26.205  1.00  0.00     0.156 C 
ATOM     64  C   UNL A   1      33.833  25.238  22.764  1.00  0.00     0.004 A 
ATOM     65  C   UNL A   1      34.334  24.945  25.124  1.00  0.00    -0.025 A 
ATOM     66  C   UNL A   1      33.578  26.587  22.990  1.00  0.00     0.000 A 
ATOM     67  C   UNL A   1      34.033  26.290  25.351  1.00  0.00     0.006 A 
ATOM     68  C   UNL A   1      33.653  27.106  24.283  1.00  0.00     0.000 A 
BRANCH  61  69
ATOM     69  C   UNL A   1      33.225  22.562  27.151  1.00  0.00     0.261 C 
ATOM     70  O   UNL A   1      33.588  22.285  28.300  1.00  0.00    -0.271 OA
BRANCH  69  71
ATOM     71  C   UNL A   1      31.738  22.708  26.863  1.00  0.00     0.329 C 
BRANCH  71  72
ATOM     72  O   UNL A   1      31.185  24.001  27.095  1.00  0.00    -0.484 OA
BRANCH  72  73
ATOM     73  C   UNL A   1      30.766  24.618  25.943  1.00  0.00     0.120 A 
ATOM     74  C   UNL A   1      30.795  23.889  24.752  1.00  0.00     0.046 A 
ATOM     75  C   UNL A   1      30.400  25.962  25.920  1.00  0.00     0.046 A 
ATOM     76  C   UNL A   1      30.399  24.479  23.550  1.00  0.00     0.004 A 
ATOM     77  C   UNL A   1      30.036  26.563  24.711  1.00  0.00     0.004 A 
ATOM     78  C   UNL A   1      30.025  25.821  23.529  1.00  0.00     0.000 A 
ENDBRANCH  72  73
ENDBRANCH  71  72
ENDBRANCH  69  71
ENDBRANCH  61  69
ENDBRANCH  57  59
ENDBRANCH  56  57
ENDBRANCH   1  56
TORSDOF 15
ENDMDL
MODEL 2
REMARK VINA RESULT:     -11.0      4.167      8.791
REMARK SMILES O=C(OCCOC(=O)[C@@H]1Cc2ccccc2CN1C(=O)COc1ccccc1)c1ccc(-c2c3nc(c(-c4ccccc4)c4ccc([nH]4)c(-c4ccccc4)c4nc(c(-c5ccccc5)c5ccc2[nH]5)C=C4)C=C3)cc1
REMARK SMILES IDX 5 1 4 2 3 3 2 4 1 5 29 6 30 7 76 8 31 9 75 10 32 11 33 12
REMARK SMILES IDX 34 13 69 14 35 15 74 16 68 17 70 18 36 19 73 20 67 21 66 22
REMARK SMILES IDX 37 24 59 25 44 26 58 27 45 28 48 29 57 30 71 31 46 32 47 33
REMARK SMILES IDX 56 35 72 36 49 37 38 38 39 39 43 40 40 41 42 42 41 43 60 44
REMARK SMILES IDX 61 45 65 46 62 47 64 48 63 49 50 50 51 51 55 52 52 53 54 54
REMARK SMILES IDX 53 55 6 56 7 57 8 58 9 59 10 60 18 61 11 62 17 63 12 64
REMARK SMILES IDX 16 65 13 66 15 67 14 68 19 69 20 70 21 71 22 72 23 73 24 74
REMARK SMILES IDX 28 75 25 76 27 77 26 78
REMARK H PARENT 70 23 48 34
REMARK Flexibility Score: inf
ROOT
ATOM      1  C   UNL A   1      31.761  30.556  26.599  1.00  0.00     0.274 C 
ENDROOT
BRANCH   1   2
ATOM      2  C   UNL A   1      31.250  32.000  26.741  1.00  0.00     0.275 C 
BRANCH   2   3
ATOM      3  O   UNL A   1      32.313  32.965  26.699  1.00  0.00    -0.458 OA
BRANCH   3   4
ATOM      4  C   UNL A   1      33.099  33.396  27.712  1.00  0.00     0.338 C 
ATOM      5  O   UNL A   1      32.736  34.407  28.318  1.00  0.00    -0.246 OA
BRANCH   4   6
ATOM      6  C   UNL A   1      34.434  32.805  28.083  1.00  0.00     0.060 A 
ATOM      7  C   UNL A   1      35.666  33.471  28.171  1.00  0.00     0.016 A 
ATOM      8  C   UNL A   1      34.411  31.465  28.497  1.00  0.00     0.016 A 
ATOM      9  C   UNL A   1      36.793  32.883  28.752  1.00  0.00     0.010 A 
ATOM     10  C   UNL A   1      35.530  30.878  29.093  1.00  0.00     0.010 A 
ATOM     11  C   UNL A   1      36.722  31.596  29.260  1.00  0.00    -0.014 A 
BRANCH  11  12
ATOM     12  C   UNL A   1      37.893  30.967  29.908  1.00  0.00     0.031 A 
ATOM     13  C   UNL A   1      38.206  31.362  31.318  1.00  0.00     0.074 A 
ATOM     14  C   UNL A   1      38.684  30.101  29.241  1.00  0.00     0.049 A 
ATOM     15  N   UNL A   1      39.192  30.982  32.084  1.00  0.00    -0.248 NA
ATOM     16  C   UNL A   1      37.289  32.330  31.948  1.00  0.00     0.031 C 
ATOM     17  C   UNL A   1      38.487  29.633  27.865  1.00  0.00     0.029 A 
ATOM     18  N   UNL A   1      39.844  29.477  29.628  1.00  0.00    -0.354 N 
ATOM     19  C   UNL A   1      38.997  31.651  33.282  1.00  0.00     0.074 A 
ATOM     20  C   UNL A   1      37.896  32.565  33.096  1.00  0.00     0.031 C 
ATOM     21  C   UNL A   1      39.520  28.853  27.506  1.00  0.00     0.029 A 
ATOM     22  C   UNL A   1      40.435  28.733  28.632  1.00  0.00     0.049 A 
ATOM     23  H   UNL A   1      40.219  29.555  30.535  1.00  0.00     0.167 HD
ATOM     24  C   UNL A   1      39.617  31.456  34.467  1.00  0.00     0.031 A 
ATOM     25  C   UNL A   1      41.579  28.023  28.641  1.00  0.00     0.031 A 
ATOM     26  C   UNL A   1      40.698  30.535  34.647  1.00  0.00     0.049 A 
ATOM     27  C   UNL A   1      42.332  27.905  29.939  1.00  0.00     0.074 A 
ATOM     28  C   UNL A   1      41.373  30.206  35.806  1.00  0.00     0.029 A 
ATOM     29  N   UNL A   1      41.266  29.795  33.619  1.00  0.00    -0.354 N 
ATOM     30  N   UNL A   1      42.059  28.443  31.104  1.00  0.00    -0.248 NA
ATOM     31  C   UNL A   1      43.513  27.031  29.940  1.00  0.00     0.031 C 
ATOM     32  C   UNL A   1      42.384  29.300  35.469  1.00  0.00     0.029 A 
ATOM     33  C   UNL A   1      42.302  29.024  34.111  1.00  0.00     0.049 A 
ATOM     34  H   UNL A   1      40.975  29.817  32.679  1.00  0.00     0.167 HD
ATOM     35  C   UNL A   1      42.988  27.917  31.991  1.00  0.00     0.074 A 
ATOM     36  C   UNL A   1      43.837  27.026  31.226  1.00  0.00     0.031 C 
ATOM     37  C   UNL A   1      43.113  28.131  33.325  1.00  0.00     0.031 A 
BRANCH  24  38
ATOM     38  C   UNL A   1      39.086  32.246  35.627  1.00  0.00    -0.014 A 
ATOM     39  C   UNL A   1      39.631  33.503  35.948  1.00  0.00     0.009 A 
ATOM     40  C   UNL A   1      38.102  31.699  36.462  1.00  0.00     0.009 A 
ATOM     41  C   UNL A   1      39.259  34.159  37.122  1.00  0.00     0.001 A 
ATOM     42  C   UNL A   1      37.704  32.378  37.616  1.00  0.00     0.001 A 
ATOM     43  C   UNL A   1      38.297  33.595  37.955  1.00  0.00     0.000 A 
ENDBRANCH  24  38
BRANCH  25  44
ATOM     44  C   UNL A   1      42.048  27.304  27.424  1.00  0.00    -0.014 A 
ATOM     45  C   UNL A   1      42.893  27.942  26.501  1.00  0.00     0.009 A 
ATOM     46  C   UNL A   1      41.619  25.996  27.153  1.00  0.00     0.009 A 
ATOM     47  C   UNL A   1      43.259  27.304  25.311  1.00  0.00     0.001 A 
ATOM     48  C   UNL A   1      42.005  25.352  25.972  1.00  0.00     0.001 A 
ATOM     49  C   UNL A   1      42.812  26.011  25.046  1.00  0.00     0.000 A 
ENDBRANCH  25  44
BRANCH  37  50
ATOM     50  C   UNL A   1      44.158  27.335  34.051  1.00  0.00    -0.014 A 
ATOM     51  C   UNL A   1      45.472  27.803  34.193  1.00  0.00     0.009 A 
ATOM     52  C   UNL A   1      43.794  26.122  34.659  1.00  0.00     0.009 A 
ATOM     53  C   UNL A   1      46.410  27.056  34.907  1.00  0.00     0.001 A 
ATOM     54  C   UNL A   1      44.722  25.396  35.402  1.00  0.00     0.001 A 
ATOM     55  C   UNL A   1      46.032  25.859  35.518  1.00  0.00     0.000 A 
ENDBRANCH  37  50
ENDBRANCH  11  12
ENDBRANCH   4   6
ENDBRANCH   3   4
ENDBRANCH   2   3
ENDBRANCH   1   2
BRANCH   1  56
ATOM     56  O   UNL A   1      32.074  30.256  25.216  1.00  0.00    -0.461 OA
BRANCH  56  57
ATOM     57  C   UNL A   1      31.114  29.568  24.535  1.00  0.00     0.329 C 
ATOM     58  O   UNL A   1      30.058  30.082  24.174  1.00  0.00    -0.250 OA
BRANCH  57  59
ATOM     59  C   UNL A   1      31.545  28.109  24.211  1.00  0.00     0.200 C 
ATOM     60  C   UNL A   1      31.097  27.289  25.458  1.00  0.00     0.073 C 
ATOM     61  N   UNL A   1      32.989  27.918  23.869  1.00  0.00    -0.321 N 
ATOM     62  C   UNL A   1      31.972  26.112  25.776  1.00  0.00    -0.040 A 
ATOM     63  C   UNL A   1      33.866  27.518  24.958  1.00  0.00     0.156 C 
ATOM     64  C   UNL A   1      31.456  24.990  26.425  1.00  0.00     0.004 A 
ATOM     65  C   UNL A   1      33.349  26.214  25.520  1.00  0.00    -0.025 A 
ATOM     66  C   UNL A   1      32.302  23.939  26.764  1.00  0.00     0.000 A 
ATOM     67  C   UNL A   1      34.185  25.137  25.822  1.00  0.00     0.006 A 
ATOM     68  C   UNL A   1      33.658  24.002  26.441  1.00  0.00     0.000 A 
BRANCH  61  69
ATOM     69  C   UNL A   1      33.540  27.782  22.599  1.00  0.00     0.261 C 
ATOM     70  O   UNL A   1      34.423  28.543  22.187  1.00  0.00    -0.271 OA
BRANCH  69  71
ATOM     71  C   UNL A   1      33.071  26.645  21.705  1.00  0.00     0.329 C 
BRANCH  71  72
ATOM     72  O   UNL A   1      33.840  25.446  21.770  1.00  0.00    -0.484 OA
BRANCH  72  73
ATOM     73  C   UNL A   1      33.176  24.418  22.390  1.00  0.00     0.120 A 
ATOM     74  C   UNL A   1      33.886  23.250  22.680  1.00  0.00     0.046 A 
ATOM     75  C   UNL A   1      31.809  24.477  22.653  1.00  0.00     0.046 A 
ATOM     76  C   UNL A   1      33.249  22.168  23.290  1.00  0.00     0.004 A 
ATOM     77  C   UNL A   1      31.165  23.380  23.232  1.00  0.00     0.004 A 
ATOM     78  C   UNL A   1      31.884  22.231  23.561  1.00  0.00     0.000 A 
ENDBRANCH  72  73
ENDBRANCH  71  72
ENDBRANCH  69  71
ENDBRANCH  61  69
ENDBRANCH  57  59
ENDBRANCH  56  57
ENDBRANCH   1  56
TORSDOF 15
ENDMDL
MODEL 3
REMARK VINA RESULT:     -11.0      4.159      8.761
REMARK SMILES O=C(OCCOC(=O)[C@@H]1Cc2ccccc2CN1C(=O)COc1ccccc1)c1ccc(-c2c3nc(c(-c4ccccc4)c4ccc([nH]4)c(-c4ccccc4)c4nc(c(-c5ccccc5)c5ccc2[nH]5)C=C4)C=C3)cc1
REMARK SMILES IDX 5 1 4 2 3 3 2 4 1 5 29 6 30 7 76 8 31 9 75 10 32 11 33 12
REMARK SMILES IDX 34 13 69 14 35 15 74 16 68 17 70 18 36 19 73 20 67 21 66 22
REMARK SMILES IDX 37 24 59 25 44 26 58 27 45 28 48 29 57 30 71 31 46 32 47 33
REMARK SMILES IDX 56 35 72 36 49 37 38 38 39 39 43 40 40 41 42 42 41 43 60 44
REMARK SMILES IDX 61 45 65 46 62 47 64 48 63 49 50 50 51 51 55 52 52 53 54 54
REMARK SMILES IDX 53 55 6 56 7 57 8 58 9 59 10 60 18 61 11 62 17 63 12 64
REMARK SMILES IDX 16 65 13 66 15 67 14 68 19 69 20 70 21 71 22 72 23 73 24 74
REMARK SMILES IDX 28 75 25 76 27 77 26 78
REMARK H PARENT 70 23 48 34
REMARK Flexibility Score: inf
ROOT
ATOM      1  C   UNL A   1      31.754  31.288  26.161  1.00  0.00     0.274 C 
ENDROOT
BRANCH   1   2
ATOM      2  C   UNL A   1      31.338  32.324  27.220  1.00  0.00     0.275 C 
BRANCH   2   3
ATOM      3  O   UNL A   1      32.136  33.517  27.163  1.00  0.00    -0.458 OA
BRANCH   3   4
ATOM      4  C   UNL A   1      33.071  33.947  28.041  1.00  0.00     0.338 C 
ATOM      5  O   UNL A   1      32.893  35.052  28.560  1.00  0.00    -0.246 OA
BRANCH   4   6
ATOM      6  C   UNL A   1      34.363  33.234  28.348  1.00  0.00     0.060 A 
ATOM      7  C   UNL A   1      35.666  33.733  28.203  1.00  0.00     0.016 A 
ATOM      8  C   UNL A   1      34.233  31.976  28.954  1.00  0.00     0.016 A 
ATOM      9  C   UNL A   1      36.779  33.079  28.739  1.00  0.00     0.010 A 
ATOM     10  C   UNL A   1      35.340  31.326  29.505  1.00  0.00     0.010 A 
ATOM     11  C   UNL A   1      36.620  31.891  29.435  1.00  0.00    -0.014 A 
BRANCH  11  12
ATOM     12  C   UNL A   1      37.781  31.201  30.037  1.00  0.00     0.031 A 
ATOM     13  C   UNL A   1      38.136  31.537  31.452  1.00  0.00     0.074 A 
ATOM     14  C   UNL A   1      38.527  30.329  29.325  1.00  0.00     0.049 A 
ATOM     15  N   UNL A   1      39.122  31.097  32.184  1.00  0.00    -0.248 NA
ATOM     16  C   UNL A   1      37.267  32.515  32.133  1.00  0.00     0.031 C 
ATOM     17  C   UNL A   1      38.285  29.915  27.940  1.00  0.00     0.029 A 
ATOM     18  N   UNL A   1      39.671  29.652  29.668  1.00  0.00    -0.354 N 
ATOM     19  C   UNL A   1      38.976  31.732  33.407  1.00  0.00     0.074 A 
ATOM     20  C   UNL A   1      37.906  32.690  33.275  1.00  0.00     0.031 C 
ATOM     21  C   UNL A   1      39.282  29.111  27.533  1.00  0.00     0.029 A 
ATOM     22  C   UNL A   1      40.214  28.921  28.635  1.00  0.00     0.049 A 
ATOM     23  H   UNL A   1      40.066  29.687  30.568  1.00  0.00     0.167 HD
ATOM     24  C   UNL A   1      39.612  31.476  34.571  1.00  0.00     0.031 A 
ATOM     25  C   UNL A   1      41.332  28.171  28.597  1.00  0.00     0.031 A 
ATOM     26  C   UNL A   1      40.662  30.511  34.699  1.00  0.00     0.049 A 
ATOM     27  C   UNL A   1      42.106  27.983  29.874  1.00  0.00     0.074 A 
ATOM     28  C   UNL A   1      41.348  30.120  35.831  1.00  0.00     0.029 A 
ATOM     29  N   UNL A   1      41.183  29.787  33.635  1.00  0.00    -0.354 N 
ATOM     30  N   UNL A   1      41.876  28.492  31.062  1.00  0.00    -0.248 NA
ATOM     31  C   UNL A   1      43.255  27.069  29.822  1.00  0.00     0.031 C 
ATOM     32  C   UNL A   1      42.319  29.191  35.444  1.00  0.00     0.029 A 
ATOM     33  C   UNL A   1      42.199  28.963  34.080  1.00  0.00     0.049 A 
ATOM     34  H   UNL A   1      40.874  29.851  32.703  1.00  0.00     0.167 HD
ATOM     35  C   UNL A   1      42.802  27.904  31.912  1.00  0.00     0.074 A 
ATOM     36  C   UNL A   1      43.604  27.009  31.099  1.00  0.00     0.031 C 
ATOM     37  C   UNL A   1      42.962  28.069  33.248  1.00  0.00     0.031 A 
BRANCH  24  38
ATOM     38  C   UNL A   1      39.133  32.245  35.768  1.00  0.00    -0.014 A 
ATOM     39  C   UNL A   1      39.737  33.465  36.125  1.00  0.00     0.009 A 
ATOM     40  C   UNL A   1      38.139  31.711  36.599  1.00  0.00     0.009 A 
ATOM     41  C   UNL A   1      39.412  34.093  37.327  1.00  0.00     0.001 A 
ATOM     42  C   UNL A   1      37.789  32.364  37.783  1.00  0.00     0.001 A 
ATOM     43  C   UNL A   1      38.439  33.541  38.155  1.00  0.00     0.000 A 
ENDBRANCH  24  38
BRANCH  25  44
ATOM     44  C   UNL A   1      41.750  27.477  27.347  1.00  0.00    -0.014 A 
ATOM     45  C   UNL A   1      41.318  26.168  27.080  1.00  0.00     0.009 A 
ATOM     46  C   UNL A   1      42.618  28.099  26.437  1.00  0.00     0.009 A 
ATOM     47  C   UNL A   1      41.784  25.479  25.956  1.00  0.00     0.001 A 
ATOM     48  C   UNL A   1      43.064  27.415  25.301  1.00  0.00     0.001 A 
ATOM     49  C   UNL A   1      42.659  26.102  25.069  1.00  0.00     0.000 A 
ENDBRANCH  25  44
BRANCH  37  50
ATOM     50  C   UNL A   1      43.992  27.212  33.926  1.00  0.00    -0.014 A 
ATOM     51  C   UNL A   1      45.296  27.673  34.155  1.00  0.00     0.009 A 
ATOM     52  C   UNL A   1      43.621  25.943  34.400  1.00  0.00     0.009 A 
ATOM     53  C   UNL A   1      46.219  26.866  34.822  1.00  0.00     0.001 A 
ATOM     54  C   UNL A   1      44.533  25.154  35.098  1.00  0.00     0.001 A 
ATOM     55  C   UNL A   1      45.834  25.612  35.300  1.00  0.00     0.000 A 
ENDBRANCH  37  50
ENDBRANCH  11  12
ENDBRANCH   4   6
ENDBRANCH   3   4
ENDBRANCH   2   3
ENDBRANCH   1   2
BRANCH   1  56
ATOM     56  O   UNL A   1      31.826  29.962  26.742  1.00  0.00    -0.461 OA
BRANCH  56  57
ATOM     57  C   UNL A   1      32.930  29.236  26.407  1.00  0.00     0.329 C 
ATOM     58  O   UNL A   1      34.073  29.661  26.545  1.00  0.00    -0.250 OA
BRANCH  57  59
ATOM     59  C   UNL A   1      32.571  27.805  25.913  1.00  0.00     0.200 C 
ATOM     60  C   UNL A   1      33.877  26.983  26.133  1.00  0.00     0.073 C 
ATOM     61  N   UNL A   1      32.046  27.712  24.514  1.00  0.00    -0.321 N 
ATOM     62  C   UNL A   1      34.093  25.881  25.138  1.00  0.00    -0.040 A 
ATOM     63  C   UNL A   1      33.017  27.402  23.477  1.00  0.00     0.156 C 
ATOM     64  C   UNL A   1      34.819  24.739  25.479  1.00  0.00     0.004 A 
ATOM     65  C   UNL A   1      33.658  26.077  23.817  1.00  0.00    -0.025 A 
ATOM     66  C   UNL A   1      35.058  23.760  24.519  1.00  0.00     0.000 A 
ATOM     67  C   UNL A   1      33.862  25.071  22.870  1.00  0.00     0.006 A 
ATOM     68  C   UNL A   1      34.560  23.914  23.225  1.00  0.00     0.000 A 
BRANCH  61  69
ATOM     69  C   UNL A   1      30.717  27.587  24.123  1.00  0.00     0.261 C 
ATOM     70  O   UNL A   1      30.067  28.553  23.708  1.00  0.00    -0.271 OA
BRANCH  69  71
ATOM     71  C   UNL A   1      30.053  26.220  24.175  1.00  0.00     0.329 C 
BRANCH  71  72
ATOM     72  O   UNL A   1      29.988  25.610  25.461  1.00  0.00    -0.484 OA
BRANCH  72  73
ATOM     73  C   UNL A   1      30.719  24.452  25.543  1.00  0.00     0.120 A 
ATOM     74  C   UNL A   1      30.838  23.661  24.397  1.00  0.00     0.046 A 
ATOM     75  C   UNL A   1      31.264  24.009  26.746  1.00  0.00     0.046 A 
ATOM     76  C   UNL A   1      31.554  22.462  24.436  1.00  0.00     0.004 A 
ATOM     77  C   UNL A   1      31.951  22.793  26.793  1.00  0.00     0.004 A 
ATOM     78  C   UNL A   1      32.106  22.025  25.638  1.00  0.00     0.000 A 
ENDBRANCH  72  73
ENDBRANCH  71  72
ENDBRANCH  69  71
ENDBRANCH  61  69
ENDBRANCH  57  59
ENDBRANCH  56  57
ENDBRANCH   1  56
TORSDOF 15
ENDMDL
