MODEL 1
REMARK VINA RESULT:      -9.7      0.000      0.000
REMARK SMILES Cc1cc(Cl)cc2c1O[C@H](C(F)(F)F)C(C(=O)OCCOC(=O)c1ccc(-c3c4nc(c(-c5ccccc5)c5ccc([nH]5)c(-c5ccccc5)c5nc(c(-c6ccccc6)c6ccc3[nH]6)C=C5)C=C4)cc1)=C2
REMARK SMILES IDX 20 1 19 2 18 3 16 4 17 5 15 6 1 7 2 8 3 9 8 10 4 11 7 12
REMARK SMILES IDX 9 13 5 14 6 15 72 16 10 17 11 18 12 19 13 20 14 21 21 22
REMARK SMILES IDX 22 23 23 24 24 25 25 26 71 27 26 28 70 29 27 30 28 31 29 32
REMARK SMILES IDX 64 33 30 34 69 35 63 36 65 37 31 38 68 39 62 40 61 41 32 43
REMARK SMILES IDX 54 44 39 45 53 46 40 47 43 48 52 49 66 50 41 51 42 52 51 54
REMARK SMILES IDX 67 55 44 56 33 57 34 58 38 59 35 60 37 61 36 62 55 63 56 64
REMARK SMILES IDX 60 65 57 66 59 67 58 68 45 69 46 70 50 71 47 72 49 73 48 74
REMARK H PARENT 65 42 43 53
REMARK Flexibility Score: inf
ROOT
ATOM      1  C   UNL A   1      33.790  33.519  28.284  1.00  0.00     0.275 C 
ENDROOT
BRANCH   1   2
ATOM      2  C   UNL A   1      34.462  34.686  29.006  1.00  0.00     0.275 C 
BRANCH   2   3
ATOM      3  O   UNL A   1      34.212  34.634  30.428  1.00  0.00    -0.459 OA
BRANCH   3   4
ATOM      4  C   UNL A   1      34.790  33.602  31.084  1.00  0.00     0.338 C 
ATOM      5  O   UNL A   1      34.354  32.465  31.187  1.00  0.00    -0.246 OA
BRANCH   4   6
ATOM      6  C   UNL A   1      36.082  34.015  31.661  1.00  0.00     0.087 C 
ATOM      7  C   UNL A   1      39.953  35.292  34.831  1.00  0.00     0.048 C 
ATOM      8  C   UNL A   1      39.803  34.784  33.425  1.00  0.00    -0.007 A 
ATOM      9  C   UNL A   1      40.967  34.524  32.680  1.00  0.00     0.027 A 
ATOM     10  C   UNL A   1      38.549  34.581  32.828  1.00  0.00     0.131 A 
ATOM     11  C   UNL A   1      40.881  34.066  31.368  1.00  0.00     0.042 A 
ATOM     12  C   UNL A   1      38.473  34.104  31.517  1.00  0.00     0.019 A 
ATOM     13  O   UNL A   1      37.436  34.888  33.564  1.00  0.00    -0.475 OA
ATOM     14  Cl  UNL A   1      42.312  33.751  30.469  1.00  0.00    -0.084 Cl
ATOM     15  C   UNL A   1      39.639  33.854  30.782  1.00  0.00     0.032 A 
ATOM     16  C   UNL A   1      37.181  33.838  30.920  1.00  0.00     0.027 C 
ATOM     17  C   UNL A   1      36.126  34.468  33.091  1.00  0.00     0.316 C 
BRANCH  17  18
ATOM     18  C   UNL A   1      35.578  33.383  34.030  1.00  0.00     0.430 C 
ATOM     19  F   UNL A   1      35.929  33.617  35.317  1.00  0.00    -0.167 F 
ATOM     20  F   UNL A   1      34.223  33.341  34.001  1.00  0.00    -0.167 F 
ATOM     21  F   UNL A   1      36.028  32.149  33.703  1.00  0.00    -0.167 F 
ENDBRANCH  17  18
ENDBRANCH   4   6
ENDBRANCH   3   4
ENDBRANCH   2   3
ENDBRANCH   1   2
BRANCH   1  22
ATOM     22  O   UNL A   1      34.773  32.739  27.578  1.00  0.00    -0.458 OA
BRANCH  22  23
ATOM     23  C   UNL A   1      34.717  31.405  27.786  1.00  0.00     0.338 C 
ATOM     24  O   UNL A   1      33.892  30.618  27.352  1.00  0.00    -0.246 OA
BRANCH  23  25
ATOM     25  C   UNL A   1      35.877  30.970  28.579  1.00  0.00     0.060 A 
ATOM     26  C   UNL A   1      37.103  31.581  28.355  1.00  0.00     0.016 A 
ATOM     27  C   UNL A   1      35.801  29.841  29.390  1.00  0.00     0.016 A 
ATOM     28  C   UNL A   1      38.274  30.975  28.794  1.00  0.00     0.010 A 
ATOM     29  C   UNL A   1      36.969  29.325  29.966  1.00  0.00     0.010 A 
ATOM     30  C   UNL A   1      38.231  29.851  29.630  1.00  0.00    -0.014 A 
BRANCH  30  31
ATOM     31  C   UNL A   1      39.498  29.227  30.119  1.00  0.00     0.031 A 
ATOM     32  C   UNL A   1      40.152  29.709  31.392  1.00  0.00     0.074 A 
ATOM     33  C   UNL A   1      40.055  28.196  29.447  1.00  0.00     0.049 A 
ATOM     34  N   UNL A   1      41.326  29.399  31.888  1.00  0.00    -0.248 NA
ATOM     35  C   UNL A   1      39.400  30.675  32.211  1.00  0.00     0.031 C 
ATOM     36  C   UNL A   1      39.512  27.577  28.235  1.00  0.00     0.029 A 
ATOM     37  N   UNL A   1      41.187  27.462  29.705  1.00  0.00    -0.354 N 
ATOM     38  C   UNL A   1      41.473  30.171  33.034  1.00  0.00     0.074 A 
ATOM     39  C   UNL A   1      40.277  30.973  33.159  1.00  0.00     0.031 C 
ATOM     40  C   UNL A   1      40.259  26.516  27.904  1.00  0.00     0.029 A 
ATOM     41  C   UNL A   1      41.404  26.448  28.803  1.00  0.00     0.049 A 
ATOM     42  H   UNL A   1      41.787  27.646  30.463  1.00  0.00     0.167 HD
ATOM     43  C   UNL A   1      42.509  30.205  33.906  1.00  0.00     0.031 A 
ATOM     44  C   UNL A   1      42.427  25.581  28.673  1.00  0.00     0.031 A 
ATOM     45  C   UNL A   1      43.678  29.371  33.811  1.00  0.00     0.049 A 
ATOM     46  C   UNL A   1      43.594  25.684  29.611  1.00  0.00     0.074 A 
ATOM     47  C   UNL A   1      44.781  29.334  34.648  1.00  0.00     0.029 A 
ATOM     48  N   UNL A   1      43.886  28.412  32.833  1.00  0.00    -0.354 N 
ATOM     49  N   UNL A   1      43.751  26.474  30.644  1.00  0.00    -0.248 NA
ATOM     50  C   UNL A   1      44.736  24.798  29.346  1.00  0.00     0.031 C 
ATOM     51  C   UNL A   1      45.677  28.385  34.148  1.00  0.00     0.029 A 
ATOM     52  C   UNL A   1      45.108  27.792  33.033  1.00  0.00     0.049 A 
ATOM     53  H   UNL A   1      43.258  28.202  32.105  1.00  0.00     0.167 HD
ATOM     54  C   UNL A   1      45.006  26.179  31.156  1.00  0.00     0.074 A 
ATOM     55  C   UNL A   1      45.557  25.120  30.336  1.00  0.00     0.031 C 
ATOM     56  C   UNL A   1      45.646  26.743  32.207  1.00  0.00     0.031 A 
BRANCH  43  57
ATOM     57  C   UNL A   1      42.448  31.203  35.033  1.00  0.00    -0.014 A 
ATOM     58  C   UNL A   1      41.886  30.875  36.276  1.00  0.00     0.009 A 
ATOM     59  C   UNL A   1      43.024  32.473  34.863  1.00  0.00     0.009 A 
ATOM     60  C   UNL A   1      41.878  31.808  37.316  1.00  0.00     0.001 A 
ATOM     61  C   UNL A   1      43.040  33.394  35.912  1.00  0.00     0.001 A 
ATOM     62  C   UNL A   1      42.461  33.063  37.135  1.00  0.00     0.000 A 
ENDBRANCH  43  57
BRANCH  44  63
ATOM     63  C   UNL A   1      42.410  24.576  27.577  1.00  0.00    -0.014 A 
ATOM     64  C   UNL A   1      43.006  24.860  26.340  1.00  0.00     0.009 A 
ATOM     65  C   UNL A   1      41.827  23.312  27.773  1.00  0.00     0.009 A 
ATOM     66  C   UNL A   1      43.014  23.903  25.322  1.00  0.00     0.001 A 
ATOM     67  C   UNL A   1      41.867  22.346  26.766  1.00  0.00     0.001 A 
ATOM     68  C   UNL A   1      42.455  22.645  25.539  1.00  0.00     0.000 A 
ENDBRANCH  44  63
BRANCH  56  69
ATOM     69  C   UNL A   1      47.012  26.219  32.546  1.00  0.00    -0.014 A 
ATOM     70  C   UNL A   1      47.176  25.181  33.476  1.00  0.00     0.009 A 
ATOM     71  C   UNL A   1      48.137  26.722  31.876  1.00  0.00     0.009 A 
ATOM     72  C   UNL A   1      48.446  24.670  33.742  1.00  0.00     0.001 A 
ATOM     73  C   UNL A   1      49.404  26.191  32.125  1.00  0.00     0.001 A 
ATOM     74  C   UNL A   1      49.557  25.169  33.061  1.00  0.00     0.000 A 
ENDBRANCH  56  69
ENDBRANCH  30  31
ENDBRANCH  23  25
ENDBRANCH  22  23
ENDBRANCH   1  22
TORSDOF 12
ENDMDL
MODEL 2
REMARK VINA RESULT:      -9.7      5.930      9.437
REMARK SMILES Cc1cc(Cl)cc2c1O[C@H](C(F)(F)F)C(C(=O)OCCOC(=O)c1ccc(-c3c4nc(c(-c5ccccc5)c5ccc([nH]5)c(-c5ccccc5)c5nc(c(-c6ccccc6)c6ccc3[nH]6)C=C5)C=C4)cc1)=C2
REMARK SMILES IDX 20 1 19 2 18 3 16 4 17 5 15 6 1 7 2 8 3 9 8 10 4 11 7 12
REMARK SMILES IDX 9 13 5 14 6 15 72 16 10 17 11 18 12 19 13 20 14 21 21 22
REMARK SMILES IDX 22 23 23 24 24 25 25 26 71 27 26 28 70 29 27 30 28 31 29 32
REMARK SMILES IDX 64 33 30 34 69 35 63 36 65 37 31 38 68 39 62 40 61 41 32 43
REMARK SMILES IDX 54 44 39 45 53 46 40 47 43 48 52 49 66 50 41 51 42 52 51 54
REMARK SMILES IDX 67 55 44 56 33 57 34 58 38 59 35 60 37 61 36 62 55 63 56 64
REMARK SMILES IDX 60 65 57 66 59 67 58 68 45 69 46 70 50 71 47 72 49 73 48 74
REMARK H PARENT 65 42 43 53
REMARK Flexibility Score: inf
ROOT
ATOM      1  C   UNL A   1      35.885  20.701  25.335  1.00  0.00     0.275 C 
ENDROOT
BRANCH   1   2
ATOM      2  C   UNL A   1      34.643  21.461  24.873  1.00  0.00     0.275 C 
BRANCH   2   3
ATOM      3  O   UNL A   1      34.856  22.889  24.918  1.00  0.00    -0.459 OA
BRANCH   3   4
ATOM      4  C   UNL A   1      34.809  23.523  23.724  1.00  0.00     0.338 C 
ATOM      5  O   UNL A   1      35.391  23.198  22.701  1.00  0.00    -0.246 OA
BRANCH   4   6
ATOM      6  C   UNL A   1      33.908  24.688  23.792  1.00  0.00     0.087 C 
ATOM      7  C   UNL A   1      29.879  27.904  23.509  1.00  0.00     0.048 C 
ATOM      8  C   UNL A   1      31.148  27.796  24.306  1.00  0.00    -0.007 A 
ATOM      9  C   UNL A   1      31.403  28.766  25.293  1.00  0.00     0.027 A 
ATOM     10  C   UNL A   1      32.089  26.779  24.087  1.00  0.00     0.131 A 
ATOM     11  C   UNL A   1      32.572  28.718  26.048  1.00  0.00     0.042 A 
ATOM     12  C   UNL A   1      33.251  26.730  24.863  1.00  0.00     0.019 A 
ATOM     13  O   UNL A   1      31.834  25.878  23.088  1.00  0.00    -0.475 OA
ATOM     14  Cl  UNL A   1      32.869  29.909  27.251  1.00  0.00    -0.084 Cl
ATOM     15  C   UNL A   1      33.498  27.704  25.838  1.00  0.00     0.032 A 
ATOM     16  C   UNL A   1      34.195  25.647  24.679  1.00  0.00     0.027 C 
ATOM     17  C   UNL A   1      32.644  24.674  22.985  1.00  0.00     0.316 C 
BRANCH  17  18
ATOM     18  C   UNL A   1      31.777  23.455  23.337  1.00  0.00     0.430 C 
ATOM     19  F   UNL A   1      30.483  23.649  22.989  1.00  0.00    -0.167 F 
ATOM     20  F   UNL A   1      32.192  22.346  22.677  1.00  0.00    -0.167 F 
ATOM     21  F   UNL A   1      31.806  23.173  24.660  1.00  0.00    -0.167 F 
ENDBRANCH  17  18
ENDBRANCH   4   6
ENDBRANCH   3   4
ENDBRANCH   2   3
ENDBRANCH   1   2
BRANCH   1  22
ATOM     22  O   UNL A   1      37.073  21.336  24.827  1.00  0.00    -0.458 OA
BRANCH  22  23
ATOM     23  C   UNL A   1      38.230  20.963  25.416  1.00  0.00     0.338 C 
ATOM     24  O   UNL A   1      38.766  19.868  25.377  1.00  0.00    -0.246 OA
BRANCH  23  25
ATOM     25  C   UNL A   1      38.849  22.117  26.087  1.00  0.00     0.060 A 
ATOM     26  C   UNL A   1      38.282  23.372  25.910  1.00  0.00     0.016 A 
ATOM     27  C   UNL A   1      40.083  21.995  26.720  1.00  0.00     0.016 A 
ATOM     28  C   UNL A   1      39.016  24.515  26.206  1.00  0.00     0.010 A 
ATOM     29  C   UNL A   1      40.747  23.145  27.164  1.00  0.00     0.010 A 
ATOM     30  C   UNL A   1      40.250  24.427  26.862  1.00  0.00    -0.014 A 
BRANCH  30  31
ATOM     31  C   UNL A   1      41.014  25.666  27.200  1.00  0.00     0.031 A 
ATOM     32  C   UNL A   1      40.464  26.661  28.195  1.00  0.00     0.074 A 
ATOM     33  C   UNL A   1      42.225  25.893  26.648  1.00  0.00     0.049 A 
ATOM     34  N   UNL A   1      40.906  27.858  28.497  1.00  0.00    -0.248 NA
ATOM     35  C   UNL A   1      39.256  26.270  28.941  1.00  0.00     0.031 C 
ATOM     36  C   UNL A   1      42.917  24.999  25.716  1.00  0.00     0.029 A 
ATOM     37  N   UNL A   1      43.107  26.934  26.813  1.00  0.00    -0.354 N 
ATOM     38  C   UNL A   1      40.001  28.379  29.415  1.00  0.00     0.074 A 
ATOM     39  C   UNL A   1      38.979  27.377  29.616  1.00  0.00     0.031 C 
ATOM     40  C   UNL A   1      44.139  25.485  25.459  1.00  0.00     0.029 A 
ATOM     41  C   UNL A   1      44.276  26.783  26.105  1.00  0.00     0.049 A 
ATOM     42  H   UNL A   1      42.920  27.714  27.384  1.00  0.00     0.167 HD
ATOM     43  C   UNL A   1      40.022  29.583  30.037  1.00  0.00     0.031 A 
ATOM     44  C   UNL A   1      45.328  27.609  25.946  1.00  0.00     0.031 A 
ATOM     45  C   UNL A   1      41.065  30.561  29.876  1.00  0.00     0.049 A 
ATOM     46  C   UNL A   1      45.296  28.963  26.592  1.00  0.00     0.074 A 
ATOM     47  C   UNL A   1      41.173  31.810  30.465  1.00  0.00     0.029 A 
ATOM     48  N   UNL A   1      42.191  30.394  29.085  1.00  0.00    -0.354 N 
ATOM     49  N   UNL A   1      44.394  29.470  27.395  1.00  0.00    -0.248 NA
ATOM     50  C   UNL A   1      46.411  29.869  26.283  1.00  0.00     0.031 C 
ATOM     51  C   UNL A   1      42.341  32.416  29.993  1.00  0.00     0.029 A 
ATOM     52  C   UNL A   1      42.988  31.523  29.155  1.00  0.00     0.049 A 
ATOM     53  H   UNL A   1      42.393  29.589  28.554  1.00  0.00     0.167 HD
ATOM     54  C   UNL A   1      44.834  30.752  27.693  1.00  0.00     0.074 A 
ATOM     55  C   UNL A   1      46.095  30.936  27.005  1.00  0.00     0.031 C 
ATOM     56  C   UNL A   1      44.238  31.695  28.461  1.00  0.00     0.031 A 
BRANCH  43  57
ATOM     57  C   UNL A   1      38.863  29.933  30.932  1.00  0.00    -0.014 A 
ATOM     58  C   UNL A   1      37.702  30.539  30.431  1.00  0.00     0.009 A 
ATOM     59  C   UNL A   1      38.914  29.588  32.293  1.00  0.00     0.009 A 
ATOM     60  C   UNL A   1      36.627  30.816  31.278  1.00  0.00     0.001 A 
ATOM     61  C   UNL A   1      37.828  29.840  33.133  1.00  0.00     0.001 A 
ATOM     62  C   UNL A   1      36.688  30.461  32.626  1.00  0.00     0.000 A 
ENDBRANCH  43  57
BRANCH  44  63
ATOM     63  C   UNL A   1      46.475  27.191  25.097  1.00  0.00    -0.014 A 
ATOM     64  C   UNL A   1      46.726  27.828  23.874  1.00  0.00     0.009 A 
ATOM     65  C   UNL A   1      47.346  26.172  25.520  1.00  0.00     0.009 A 
ATOM     66  C   UNL A   1      47.822  27.453  23.092  1.00  0.00     0.001 A 
ATOM     67  C   UNL A   1      48.459  25.822  24.754  1.00  0.00     0.001 A 
ATOM     68  C   UNL A   1      48.692  26.460  23.537  1.00  0.00     0.000 A 
ENDBRANCH  44  63
BRANCH  56  69
ATOM     69  C   UNL A   1      44.947  33.009  28.616  1.00  0.00    -0.014 A 
ATOM     70  C   UNL A   1      44.657  34.089  27.768  1.00  0.00     0.009 A 
ATOM     71  C   UNL A   1      45.863  33.188  29.664  1.00  0.00     0.009 A 
ATOM     72  C   UNL A   1      45.287  35.320  27.957  1.00  0.00     0.001 A 
ATOM     73  C   UNL A   1      46.471  34.428  29.866  1.00  0.00     0.001 A 
ATOM     74  C   UNL A   1      46.186  35.491  29.010  1.00  0.00     0.000 A 
ENDBRANCH  56  69
ENDBRANCH  30  31
ENDBRANCH  23  25
ENDBRANCH  22  23
ENDBRANCH   1  22
TORSDOF 12
ENDMDL
MODEL 3
REMARK VINA RESULT:      -9.5      6.005     11.087
REMARK SMILES Cc1cc(Cl)cc2c1O[C@H](C(F)(F)F)C(C(=O)OCCOC(=O)c1ccc(-c3c4nc(c(-c5ccccc5)c5ccc([nH]5)c(-c5ccccc5)c5nc(c(-c6ccccc6)c6ccc3[nH]6)C=C5)C=C4)cc1)=C2
REMARK SMILES IDX 20 1 19 2 18 3 16 4 17 5 15 6 1 7 2 8 3 9 8 10 4 11 7 12
REMARK SMILES IDX 9 13 5 14 6 15 72 16 10 17 11 18 12 19 13 20 14 21 21 22
REMARK SMILES IDX 22 23 23 24 24 25 25 26 71 27 26 28 70 29 27 30 28 31 29 32
REMARK SMILES IDX 64 33 30 34 69 35 63 36 65 37 31 38 68 39 62 40 61 41 32 43
REMARK SMILES IDX 54 44 39 45 53 46 40 47 43 48 52 49 66 50 41 51 42 52 51 54
REMARK SMILES IDX 67 55 44 56 33 57 34 58 38 59 35 60 37 61 36 62 55 63 56 64
REMARK SMILES IDX 60 65 57 66 59 67 58 68 45 69 46 70 50 71 47 72 49 73 48 74
REMARK H PARENT 65 42 43 53
REMARK Flexibility Score: inf
ROOT
ATOM      1  C   UNL A   1      40.524  19.994  25.804  1.00  0.00     0.275 C 
ENDROOT
BRANCH   1   2
ATOM      2  C   UNL A   1      42.023  20.057  26.095  1.00  0.00     0.275 C 
BRANCH   2   3
ATOM      3  O   UNL A   1      42.569  21.349  25.750  1.00  0.00    -0.459 OA
BRANCH   3   4
ATOM      4  C   UNL A   1      43.876  21.354  25.399  1.00  0.00     0.338 C 
ATOM      5  O   UNL A   1      44.385  20.748  24.468  1.00  0.00    -0.246 OA
BRANCH   4   6
ATOM      6  C   UNL A   1      44.646  22.242  26.289  1.00  0.00     0.087 C 
ATOM      7  C   UNL A   1      48.092  25.511  28.312  1.00  0.00     0.048 C 
ATOM      8  C   UNL A   1      46.677  25.090  28.592  1.00  0.00    -0.007 A 
ATOM      9  C   UNL A   1      45.994  25.705  29.657  1.00  0.00     0.027 A 
ATOM     10  C   UNL A   1      46.027  24.096  27.845  1.00  0.00     0.131 A 
ATOM     11  C   UNL A   1      44.686  25.339  29.966  1.00  0.00     0.042 A 
ATOM     12  C   UNL A   1      44.709  23.748  28.152  1.00  0.00     0.019 A 
ATOM     13  O   UNL A   1      46.735  23.484  26.846  1.00  0.00    -0.475 OA
ATOM     14  Cl  UNL A   1      43.864  26.100  31.269  1.00  0.00    -0.084 Cl
ATOM     15  C   UNL A   1      44.039  24.363  29.218  1.00  0.00     0.032 A 
ATOM     16  C   UNL A   1      44.016  22.766  27.345  1.00  0.00     0.027 C 
ATOM     17  C   UNL A   1      46.039  22.634  25.892  1.00  0.00     0.316 C 
BRANCH  17  18
ATOM     18  C   UNL A   1      46.050  23.314  24.514  1.00  0.00     0.430 C 
ATOM     19  F   UNL A   1      44.803  23.676  24.130  1.00  0.00    -0.167 F 
ATOM     20  F   UNL A   1      46.795  24.446  24.526  1.00  0.00    -0.167 F 
ATOM     21  F   UNL A   1      46.554  22.508  23.551  1.00  0.00    -0.167 F 
ENDBRANCH  17  18
ENDBRANCH   4   6
ENDBRANCH   3   4
ENDBRANCH   2   3
ENDBRANCH   1   2
BRANCH   1  22
ATOM     22  O   UNL A   1      39.796  20.753  26.787  1.00  0.00    -0.458 OA
BRANCH  22  23
ATOM     23  C   UNL A   1      39.017  21.743  26.297  1.00  0.00     0.338 C 
ATOM     24  O   UNL A   1      38.026  21.632  25.595  1.00  0.00    -0.246 OA
BRANCH  23  25
ATOM     25  C   UNL A   1      39.480  23.046  26.801  1.00  0.00     0.060 A 
ATOM     26  C   UNL A   1      39.104  24.195  26.119  1.00  0.00     0.016 A 
ATOM     27  C   UNL A   1      40.433  23.119  27.814  1.00  0.00     0.016 A 
ATOM     28  C   UNL A   1      39.795  25.384  26.323  1.00  0.00     0.010 A 
ATOM     29  C   UNL A   1      41.012  24.355  28.127  1.00  0.00     0.010 A 
ATOM     30  C   UNL A   1      40.743  25.496  27.348  1.00  0.00    -0.014 A 
BRANCH  30  31
ATOM     31  C   UNL A   1      41.457  26.790  27.575  1.00  0.00     0.031 A 
ATOM     32  C   UNL A   1      42.775  27.070  26.894  1.00  0.00     0.074 A 
ATOM     33  C   UNL A   1      40.911  27.741  28.362  1.00  0.00     0.049 A 
ATOM     34  N   UNL A   1      43.611  28.062  27.087  1.00  0.00    -0.248 NA
ATOM     35  C   UNL A   1      43.224  26.109  25.872  1.00  0.00     0.031 C 
ATOM     36  C   UNL A   1      39.616  27.645  29.042  1.00  0.00     0.029 A 
ATOM     37  N   UNL A   1      41.362  28.994  28.702  1.00  0.00    -0.354 N 
ATOM     38  C   UNL A   1      44.700  27.811  26.260  1.00  0.00     0.074 A 
ATOM     39  C   UNL A   1      44.429  26.570  25.570  1.00  0.00     0.031 C 
ATOM     40  C   UNL A   1      39.343  28.809  29.644  1.00  0.00     0.029 A 
ATOM     41  C   UNL A   1      40.491  29.695  29.501  1.00  0.00     0.049 A 
ATOM     42  H   UNL A   1      42.227  29.355  28.403  1.00  0.00     0.167 HD
ATOM     43  C   UNL A   1      45.823  28.550  26.089  1.00  0.00     0.031 A 
ATOM     44  C   UNL A   1      40.608  30.897  30.098  1.00  0.00     0.031 A 
ATOM     45  C   UNL A   1      46.072  29.810  26.738  1.00  0.00     0.049 A 
ATOM     46  C   UNL A   1      41.888  31.665  29.947  1.00  0.00     0.074 A 
ATOM     47  C   UNL A   1      47.181  30.633  26.626  1.00  0.00     0.029 A 
ATOM     48  N   UNL A   1      45.190  30.443  27.600  1.00  0.00    -0.354 N 
ATOM     49  N   UNL A   1      42.940  31.375  29.222  1.00  0.00    -0.248 NA
ATOM     50  C   UNL A   1      42.008  32.909  30.719  1.00  0.00     0.031 C 
ATOM     51  C   UNL A   1      46.990  31.739  27.459  1.00  0.00     0.029 A 
ATOM     52  C   UNL A   1      45.739  31.633  28.045  1.00  0.00     0.049 A 
ATOM     53  H   UNL A   1      44.305  30.096  27.857  1.00  0.00     0.167 HD
ATOM     54  C   UNL A   1      43.846  32.401  29.447  1.00  0.00     0.074 A 
ATOM     55  C   UNL A   1      43.210  33.333  30.354  1.00  0.00     0.031 C 
ATOM     56  C   UNL A   1      45.097  32.550  28.951  1.00  0.00     0.031 A 
BRANCH  43  57
ATOM     57  C   UNL A   1      46.895  28.002  25.184  1.00  0.00    -0.014 A 
ATOM     58  C   UNL A   1      46.828  28.152  23.791  1.00  0.00     0.009 A 
ATOM     59  C   UNL A   1      48.023  27.382  25.746  1.00  0.00     0.009 A 
ATOM     60  C   UNL A   1      47.856  27.667  22.978  1.00  0.00     0.001 A 
ATOM     61  C   UNL A   1      49.063  26.925  24.935  1.00  0.00     0.001 A 
ATOM     62  C   UNL A   1      48.974  27.061  23.551  1.00  0.00     0.000 A 
ENDBRANCH  43  57
BRANCH  44  63
ATOM     63  C   UNL A   1      39.494  31.419  30.935  1.00  0.00    -0.014 A 
ATOM     64  C   UNL A   1      39.440  31.135  32.307  1.00  0.00     0.009 A 
ATOM     65  C   UNL A   1      38.495  32.232  30.373  1.00  0.00     0.009 A 
ATOM     66  C   UNL A   1      38.409  31.650  33.097  1.00  0.00     0.001 A 
ATOM     67  C   UNL A   1      37.486  32.774  31.170  1.00  0.00     0.001 A 
ATOM     68  C   UNL A   1      37.441  32.477  32.531  1.00  0.00     0.000 A 
ENDBRANCH  44  63
BRANCH  56  69
ATOM     69  C   UNL A   1      45.862  33.774  29.364  1.00  0.00    -0.014 A 
ATOM     70  C   UNL A   1      45.742  34.975  28.648  1.00  0.00     0.009 A 
ATOM     71  C   UNL A   1      46.656  33.743  30.520  1.00  0.00     0.009 A 
ATOM     72  C   UNL A   1      46.419  36.118  29.075  1.00  0.00     0.001 A 
ATOM     73  C   UNL A   1      47.311  34.895  30.959  1.00  0.00     0.001 A 
ATOM     74  C   UNL A   1      47.195  36.079  30.233  1.00  0.00     0.000 A 
ENDBRANCH  56  69
ENDBRANCH  30  31
ENDBRANCH  23  25
ENDBRANCH  22  23
ENDBRANCH   1  22
TORSDOF 12
ENDMDL
