MODEL 1
REMARK VINA RESULT:     -10.8      0.000      0.000
REMARK SMILES C[C@@H](C(=O)OCCOC(=O)c1ccc(-c2c3nc(c(-c4ccccc4)c4ccc([nH]4)c(-c4ccccc4)c4nc(c(-c5ccccc5)c5ccc2[nH]5)C=C4)C=C3)cc1)c1ccc(C[C@H]2CCC[C@@H]2O)cc1
REMARK SMILES IDX 6 1 5 2 3 3 4 4 2 5 1 6 59 7 60 8 71 9 61 10 70 11 62 12
REMARK SMILES IDX 63 13 64 14 65 15 68 16 66 17 67 18 69 19 7 21 8 22 9 23
REMARK SMILES IDX 10 24 11 25 12 26 58 27 13 28 57 29 14 30 15 31 16 32 51 33
REMARK SMILES IDX 17 34 56 35 50 36 52 37 18 38 55 39 49 40 48 41 19 43 41 44
REMARK SMILES IDX 26 45 40 46 27 47 30 48 39 49 53 50 28 51 29 52 38 54 54 55
REMARK SMILES IDX 31 56 20 57 21 58 25 59 22 60 24 61 23 62 42 63 43 64 47 65
REMARK SMILES IDX 44 66 46 67 45 68 32 69 33 70 37 71 34 72 36 73 35 74
REMARK H PARENT 69 20 52 42 30 53
REMARK Flexibility Score: inf
ROOT
ATOM      1  C   UNL A   1      43.852  21.608  25.288  1.00  0.00     0.274 C 
ENDROOT
BRANCH   1   2
ATOM      2  O   UNL A   1      42.429  21.720  25.494  1.00  0.00    -0.462 OA
BRANCH   2   3
ATOM      3  C   UNL A   1      41.960  21.584  26.769  1.00  0.00     0.313 C 
ATOM      4  O   UNL A   1      42.641  21.855  27.751  1.00  0.00    -0.252 OA
BRANCH   3   5
ATOM      5  C   UNL A   1      40.540  20.954  26.807  1.00  0.00     0.126 C 
ATOM      6  C   UNL A   1      40.547  19.616  26.034  1.00  0.00     0.025 C 
BRANCH   5   7
ATOM      7  C   UNL A   1      39.398  21.880  26.333  1.00  0.00    -0.034 A 
ATOM      8  C   UNL A   1      39.340  23.228  26.727  1.00  0.00     0.005 A 
ATOM      9  C   UNL A   1      38.376  21.448  25.474  1.00  0.00     0.005 A 
ATOM     10  C   UNL A   1      38.227  24.032  26.455  1.00  0.00     0.004 A 
ATOM     11  C   UNL A   1      37.246  22.243  25.225  1.00  0.00     0.004 A 
ATOM     12  C   UNL A   1      37.117  23.513  25.796  1.00  0.00    -0.048 A 
BRANCH  12  13
ATOM     13  C   UNL A   1      35.810  24.269  25.696  1.00  0.00     0.041 C 
BRANCH  13  14
ATOM     14  C   UNL A   1      34.497  23.505  25.996  1.00  0.00     0.022 C 
ATOM     15  C   UNL A   1      34.443  22.659  27.273  1.00  0.00     0.007 C 
ATOM     16  C   UNL A   1      33.223  24.346  26.078  1.00  0.00     0.117 C 
ATOM     17  C   UNL A   1      32.976  22.598  27.701  1.00  0.00     0.003 C 
ATOM     18  C   UNL A   1      32.203  23.363  26.639  1.00  0.00     0.032 C 
BRANCH  16  19
ATOM     19  O   UNL A   1      32.827  24.841  24.812  1.00  0.00    -0.393 OA
ATOM     20  H   UNL A   1      33.030  24.183  24.130  1.00  0.00     0.210 HD
ENDBRANCH  16  19
ENDBRANCH  13  14
ENDBRANCH  12  13
ENDBRANCH   5   7
ENDBRANCH   3   5
ENDBRANCH   2   3
ENDBRANCH   1   2
BRANCH   1  21
ATOM     21  C   UNL A   1      44.344  22.648  24.282  1.00  0.00     0.275 C 
BRANCH  21  22
ATOM     22  O   UNL A   1      43.717  23.921  24.524  1.00  0.00    -0.458 OA
BRANCH  22  23
ATOM     23  C   UNL A   1      44.510  24.872  25.059  1.00  0.00     0.338 C 
ATOM     24  O   UNL A   1      45.627  25.211  24.692  1.00  0.00    -0.246 OA
BRANCH  23  25
ATOM     25  C   UNL A   1      43.750  25.604  26.080  1.00  0.00     0.060 A 
ATOM     26  C   UNL A   1      44.194  26.882  26.390  1.00  0.00     0.016 A 
ATOM     27  C   UNL A   1      42.671  25.046  26.772  1.00  0.00     0.016 A 
ATOM     28  C   UNL A   1      43.558  27.610  27.388  1.00  0.00     0.010 A 
ATOM     29  C   UNL A   1      42.048  25.781  27.798  1.00  0.00     0.010 A 
ATOM     30  C   UNL A   1      42.502  27.068  28.127  1.00  0.00    -0.014 A 
BRANCH  30  31
ATOM     31  C   UNL A   1      41.991  27.856  29.283  1.00  0.00     0.031 A 
ATOM     32  C   UNL A   1      40.700  28.624  29.163  1.00  0.00     0.074 A 
ATOM     33  C   UNL A   1      42.551  27.715  30.500  1.00  0.00     0.049 A 
ATOM     34  N   UNL A   1      40.007  29.224  30.100  1.00  0.00    -0.248 NA
ATOM     35  C   UNL A   1      40.074  28.671  27.831  1.00  0.00     0.031 C 
ATOM     36  C   UNL A   1      43.717  26.886  30.806  1.00  0.00     0.029 A 
ATOM     37  N   UNL A   1      42.183  28.235  31.719  1.00  0.00    -0.354 N 
ATOM     38  C   UNL A   1      38.846  29.674  29.486  1.00  0.00     0.074 A 
ATOM     39  C   UNL A   1      38.945  29.318  28.086  1.00  0.00     0.031 C 
ATOM     40  C   UNL A   1      43.955  26.935  32.127  1.00  0.00     0.029 A 
ATOM     41  C   UNL A   1      42.995  27.840  32.754  1.00  0.00     0.049 A 
ATOM     42  H   UNL A   1      41.411  28.835  31.838  1.00  0.00     0.167 HD
ATOM     43  C   UNL A   1      37.780  30.304  30.033  1.00  0.00     0.031 A 
ATOM     44  C   UNL A   1      42.987  28.187  34.056  1.00  0.00     0.031 A 
ATOM     45  C   UNL A   1      37.683  30.723  31.405  1.00  0.00     0.049 A 
ATOM     46  C   UNL A   1      41.947  29.145  34.567  1.00  0.00     0.074 A 
ATOM     47  C   UNL A   1      36.658  31.422  32.023  1.00  0.00     0.029 A 
ATOM     48  N   UNL A   1      38.656  30.511  32.365  1.00  0.00    -0.354 N 
ATOM     49  N   UNL A   1      40.867  29.586  33.971  1.00  0.00    -0.248 NA
ATOM     50  C   UNL A   1      42.139  29.670  35.928  1.00  0.00     0.031 C 
ATOM     51  C   UNL A   1      37.043  31.691  33.341  1.00  0.00     0.029 A 
ATOM     52  C   UNL A   1      38.284  31.114  33.555  1.00  0.00     0.049 A 
ATOM     53  H   UNL A   1      39.488  30.006  32.222  1.00  0.00     0.167 HD
ATOM     54  C   UNL A   1      40.244  30.424  34.887  1.00  0.00     0.074 A 
ATOM     55  C   UNL A   1      41.057  30.421  36.085  1.00  0.00     0.031 C 
ATOM     56  C   UNL A   1      39.098  31.132  34.742  1.00  0.00     0.031 A 
BRANCH  43  57
ATOM     57  C   UNL A   1      36.630  30.614  29.122  1.00  0.00    -0.014 A 
ATOM     58  C   UNL A   1      36.363  31.935  28.732  1.00  0.00     0.009 A 
ATOM     59  C   UNL A   1      35.833  29.575  28.621  1.00  0.00     0.009 A 
ATOM     60  C   UNL A   1      35.302  32.211  27.868  1.00  0.00     0.001 A 
ATOM     61  C   UNL A   1      34.781  29.853  27.748  1.00  0.00     0.001 A 
ATOM     62  C   UNL A   1      34.514  31.170  27.376  1.00  0.00     0.000 A 
ENDBRANCH  43  57
BRANCH  44  63
ATOM     63  C   UNL A   1      44.051  27.695  34.971  1.00  0.00    -0.014 A 
ATOM     64  C   UNL A   1      45.250  28.404  35.133  1.00  0.00     0.009 A 
ATOM     65  C   UNL A   1      43.889  26.473  35.644  1.00  0.00     0.009 A 
ATOM     66  C   UNL A   1      46.271  27.889  35.937  1.00  0.00     0.001 A 
ATOM     67  C   UNL A   1      44.898  25.975  36.468  1.00  0.00     0.001 A 
ATOM     68  C   UNL A   1      46.093  26.679  36.606  1.00  0.00     0.000 A 
ENDBRANCH  44  63
BRANCH  56  69
ATOM     69  C   UNL A   1      38.645  31.964  35.909  1.00  0.00    -0.014 A 
ATOM     70  C   UNL A   1      37.952  31.383  36.983  1.00  0.00     0.009 A 
ATOM     71  C   UNL A   1      38.944  33.334  35.954  1.00  0.00     0.009 A 
ATOM     72  C   UNL A   1      37.548  32.164  38.068  1.00  0.00     0.001 A 
ATOM     73  C   UNL A   1      38.561  34.107  37.053  1.00  0.00     0.001 A 
ATOM     74  C   UNL A   1      37.858  33.523  38.104  1.00  0.00     0.000 A 
ENDBRANCH  56  69
ENDBRANCH  30  31
ENDBRANCH  23  25
ENDBRANCH  22  23
ENDBRANCH  21  22
ENDBRANCH   1  21
TORSDOF 15
ENDMDL
MODEL 2
REMARK VINA RESULT:     -10.4      4.180      6.652
REMARK SMILES C[C@@H](C(=O)OCCOC(=O)c1ccc(-c2c3nc(c(-c4ccccc4)c4ccc([nH]4)c(-c4ccccc4)c4nc(c(-c5ccccc5)c5ccc2[nH]5)C=C4)C=C3)cc1)c1ccc(C[C@H]2CCC[C@@H]2O)cc1
REMARK SMILES IDX 6 1 5 2 3 3 4 4 2 5 1 6 59 7 60 8 71 9 61 10 70 11 62 12
REMARK SMILES IDX 63 13 64 14 65 15 68 16 66 17 67 18 69 19 7 21 8 22 9 23
REMARK SMILES IDX 10 24 11 25 12 26 58 27 13 28 57 29 14 30 15 31 16 32 51 33
REMARK SMILES IDX 17 34 56 35 50 36 52 37 18 38 55 39 49 40 48 41 19 43 41 44
REMARK SMILES IDX 26 45 40 46 27 47 30 48 39 49 53 50 28 51 29 52 38 54 54 55
REMARK SMILES IDX 31 56 20 57 21 58 25 59 22 60 24 61 23 62 42 63 43 64 47 65
REMARK SMILES IDX 44 66 46 67 45 68 32 69 33 70 37 71 34 72 36 73 35 74
REMARK H PARENT 69 20 52 42 30 53
REMARK Flexibility Score: inf
ROOT
ATOM      1  C   UNL A   1      43.761  17.933  26.826  1.00  0.00     0.274 C 
ENDROOT
BRANCH   1   2
ATOM      2  O   UNL A   1      44.770  17.629  25.841  1.00  0.00    -0.462 OA
BRANCH   2   3
ATOM      3  C   UNL A   1      45.534  18.660  25.377  1.00  0.00     0.313 C 
ATOM      4  O   UNL A   1      46.712  18.795  25.686  1.00  0.00    -0.252 OA
BRANCH   3   5
ATOM      5  C   UNL A   1      44.709  19.665  24.527  1.00  0.00     0.126 C 
ATOM      6  C   UNL A   1      44.782  19.262  23.036  1.00  0.00     0.025 C 
BRANCH   5   7
ATOM      7  C   UNL A   1      45.069  21.153  24.733  1.00  0.00    -0.034 A 
ATOM      8  C   UNL A   1      44.968  22.081  23.682  1.00  0.00     0.005 A 
ATOM      9  C   UNL A   1      45.491  21.670  25.967  1.00  0.00     0.005 A 
ATOM     10  C   UNL A   1      45.454  23.388  23.798  1.00  0.00     0.004 A 
ATOM     11  C   UNL A   1      46.006  22.970  26.078  1.00  0.00     0.004 A 
ATOM     12  C   UNL A   1      46.082  23.814  24.964  1.00  0.00    -0.048 A 
BRANCH  12  13
ATOM     13  C   UNL A   1      46.830  25.127  25.046  1.00  0.00     0.041 C 
BRANCH  13  14
ATOM     14  C   UNL A   1      46.237  26.254  25.926  1.00  0.00     0.022 C 
ATOM     15  C   UNL A   1      47.217  27.235  26.580  1.00  0.00     0.007 C 
ATOM     16  C   UNL A   1      45.215  27.173  25.256  1.00  0.00     0.117 C 
ATOM     17  C   UNL A   1      46.463  28.552  26.771  1.00  0.00     0.003 C 
ATOM     18  C   UNL A   1      45.049  28.295  26.275  1.00  0.00     0.032 C 
BRANCH  16  19
ATOM     19  O   UNL A   1      43.988  26.515  25.005  1.00  0.00    -0.393 OA
ATOM     20  H   UNL A   1      44.004  25.635  25.412  1.00  0.00     0.210 HD
ENDBRANCH  16  19
ENDBRANCH  13  14
ENDBRANCH  12  13
ENDBRANCH   5   7
ENDBRANCH   3   5
ENDBRANCH   2   3
ENDBRANCH   1   2
BRANCH   1  21
ATOM     21  C   UNL A   1      42.440  18.314  26.159  1.00  0.00     0.275 C 
BRANCH  21  22
ATOM     22  O   UNL A   1      41.641  19.122  27.045  1.00  0.00    -0.458 OA
BRANCH  22  23
ATOM     23  C   UNL A   1      40.916  20.095  26.456  1.00  0.00     0.338 C 
ATOM     24  O   UNL A   1      39.858  19.979  25.852  1.00  0.00    -0.246 OA
BRANCH  23  25
ATOM     25  C   UNL A   1      41.498  21.397  26.802  1.00  0.00     0.060 A 
ATOM     26  C   UNL A   1      41.597  21.696  28.154  1.00  0.00     0.016 A 
ATOM     27  C   UNL A   1      41.881  22.339  25.842  1.00  0.00     0.016 A 
ATOM     28  C   UNL A   1      42.085  22.934  28.553  1.00  0.00     0.010 A 
ATOM     29  C   UNL A   1      42.352  23.599  26.254  1.00  0.00     0.010 A 
ATOM     30  C   UNL A   1      42.439  23.914  27.620  1.00  0.00    -0.014 A 
BRANCH  30  31
ATOM     31  C   UNL A   1      42.796  25.264  28.137  1.00  0.00     0.031 A 
ATOM     32  C   UNL A   1      41.736  26.326  28.273  1.00  0.00     0.074 A 
ATOM     33  C   UNL A   1      44.005  25.481  28.690  1.00  0.00     0.049 A 
ATOM     34  N   UNL A   1      41.811  27.497  28.859  1.00  0.00    -0.248 NA
ATOM     35  C   UNL A   1      40.402  26.008  27.739  1.00  0.00     0.031 C 
ATOM     36  C   UNL A   1      45.089  24.500  28.769  1.00  0.00     0.029 A 
ATOM     37  N   UNL A   1      44.510  26.587  29.331  1.00  0.00    -0.354 N 
ATOM     38  C   UNL A   1      40.530  28.030  28.809  1.00  0.00     0.074 A 
ATOM     39  C   UNL A   1      39.705  27.078  28.095  1.00  0.00     0.031 C 
ATOM     40  C   UNL A   1      46.119  25.040  29.441  1.00  0.00     0.029 A 
ATOM     41  C   UNL A   1      45.794  26.421  29.791  1.00  0.00     0.049 A 
ATOM     42  H   UNL A   1      44.000  27.422  29.448  1.00  0.00     0.167 HD
ATOM     43  C   UNL A   1      40.070  29.194  29.326  1.00  0.00     0.031 A 
ATOM     44  C   UNL A   1      46.626  27.287  30.401  1.00  0.00     0.031 A 
ATOM     45  C   UNL A   1      40.879  30.184  29.983  1.00  0.00     0.049 A 
ATOM     46  C   UNL A   1      46.164  28.689  30.689  1.00  0.00     0.074 A 
ATOM     47  C   UNL A   1      40.495  31.419  30.482  1.00  0.00     0.029 A 
ATOM     48  N   UNL A   1      42.240  30.069  30.205  1.00  0.00    -0.354 N 
ATOM     49  N   UNL A   1      44.958  29.192  30.613  1.00  0.00    -0.248 NA
ATOM     50  C   UNL A   1      47.190  29.649  31.127  1.00  0.00     0.031 C 
ATOM     51  C   UNL A   1      41.640  32.078  30.946  1.00  0.00     0.029 A 
ATOM     52  C   UNL A   1      42.724  31.232  30.781  1.00  0.00     0.049 A 
ATOM     53  H   UNL A   1      42.782  29.278  29.986  1.00  0.00     0.167 HD
ATOM     54  C   UNL A   1      45.076  30.519  31.009  1.00  0.00     0.074 A 
ATOM     55  C   UNL A   1      46.467  30.741  31.339  1.00  0.00     0.031 C 
ATOM     56  C   UNL A   1      44.110  31.465  31.091  1.00  0.00     0.031 A 
BRANCH  43  57
ATOM     57  C   UNL A   1      38.606  29.477  29.167  1.00  0.00    -0.014 A 
ATOM     58  C   UNL A   1      37.704  29.184  30.201  1.00  0.00     0.009 A 
ATOM     59  C   UNL A   1      38.133  30.075  27.990  1.00  0.00     0.009 A 
ATOM     60  C   UNL A   1      36.346  29.470  30.050  1.00  0.00     0.001 A 
ATOM     61  C   UNL A   1      36.777  30.370  27.847  1.00  0.00     0.001 A 
ATOM     62  C   UNL A   1      35.885  30.064  28.875  1.00  0.00     0.000 A 
ENDBRANCH  43  57
BRANCH  44  63
ATOM     63  C   UNL A   1      48.025  26.891  30.713  1.00  0.00    -0.014 A 
ATOM     64  C   UNL A   1      48.369  26.382  31.973  1.00  0.00     0.009 A 
ATOM     65  C   UNL A   1      49.038  27.077  29.757  1.00  0.00     0.009 A 
ATOM     66  C   UNL A   1      49.701  26.086  32.276  1.00  0.00     0.001 A 
ATOM     67  C   UNL A   1      50.363  26.755  30.052  1.00  0.00     0.001 A 
ATOM     68  C   UNL A   1      50.694  26.269  31.315  1.00  0.00     0.000 A 
ENDBRANCH  44  63
BRANCH  56  69
ATOM     69  C   UNL A   1      44.518  32.834  31.560  1.00  0.00    -0.014 A 
ATOM     70  C   UNL A   1      44.541  33.150  32.927  1.00  0.00     0.009 A 
ATOM     71  C   UNL A   1      44.920  33.805  30.630  1.00  0.00     0.009 A 
ATOM     72  C   UNL A   1      44.936  34.421  33.351  1.00  0.00     0.001 A 
ATOM     73  C   UNL A   1      45.338  35.067  31.059  1.00  0.00     0.001 A 
ATOM     74  C   UNL A   1      45.339  35.375  32.418  1.00  0.00     0.000 A 
ENDBRANCH  56  69
ENDBRANCH  30  31
ENDBRANCH  23  25
ENDBRANCH  22  23
ENDBRANCH  21  22
ENDBRANCH   1  21
TORSDOF 15
ENDMDL
MODEL 3
REMARK VINA RESULT:     -10.3      0.975      6.090
REMARK SMILES C[C@@H](C(=O)OCCOC(=O)c1ccc(-c2c3nc(c(-c4ccccc4)c4ccc([nH]4)c(-c4ccccc4)c4nc(c(-c5ccccc5)c5ccc2[nH]5)C=C4)C=C3)cc1)c1ccc(C[C@H]2CCC[C@@H]2O)cc1
REMARK SMILES IDX 6 1 5 2 3 3 4 4 2 5 1 6 59 7 60 8 71 9 61 10 70 11 62 12
REMARK SMILES IDX 63 13 64 14 65 15 68 16 66 17 67 18 69 19 7 21 8 22 9 23
REMARK SMILES IDX 10 24 11 25 12 26 58 27 13 28 57 29 14 30 15 31 16 32 51 33
REMARK SMILES IDX 17 34 56 35 50 36 52 37 18 38 55 39 49 40 48 41 19 43 41 44
REMARK SMILES IDX 26 45 40 46 27 47 30 48 39 49 53 50 28 51 29 52 38 54 54 55
REMARK SMILES IDX 31 56 20 57 21 58 25 59 22 60 24 61 23 62 42 63 43 64 47 65
REMARK SMILES IDX 44 66 46 67 45 68 32 69 33 70 37 71 34 72 36 73 35 74
REMARK H PARENT 69 20 52 42 30 53
REMARK Flexibility Score: inf
ROOT
ATOM      1  C   UNL A   1      44.064  21.858  25.315  1.00  0.00     0.274 C 
ENDROOT
BRANCH   1   2
ATOM      2  O   UNL A   1      42.655  21.601  25.488  1.00  0.00    -0.462 OA
BRANCH   2   3
ATOM      3  C   UNL A   1      42.162  21.605  26.761  1.00  0.00     0.313 C 
ATOM      4  O   UNL A   1      42.813  22.010  27.717  1.00  0.00    -0.252 OA
BRANCH   3   5
ATOM      5  C   UNL A   1      40.757  20.946  26.847  1.00  0.00     0.126 C 
ATOM      6  C   UNL A   1      40.789  19.568  26.148  1.00  0.00     0.025 C 
BRANCH   5   7
ATOM      7  C   UNL A   1      39.590  21.818  26.334  1.00  0.00    -0.034 A 
ATOM      8  C   UNL A   1      39.465  23.166  26.711  1.00  0.00     0.005 A 
ATOM      9  C   UNL A   1      38.609  21.335  25.454  1.00  0.00     0.005 A 
ATOM     10  C   UNL A   1      38.327  23.920  26.402  1.00  0.00     0.004 A 
ATOM     11  C   UNL A   1      37.454  22.078  25.168  1.00  0.00     0.004 A 
ATOM     12  C   UNL A   1      37.257  23.348  25.721  1.00  0.00    -0.048 A 
BRANCH  12  13
ATOM     13  C   UNL A   1      35.922  24.047  25.580  1.00  0.00     0.041 C 
BRANCH  13  14
ATOM     14  C   UNL A   1      34.779  23.303  24.847  1.00  0.00     0.022 C 
ATOM     15  C   UNL A   1      33.376  23.377  25.459  1.00  0.00     0.007 C 
ATOM     16  C   UNL A   1      34.546  23.685  23.385  1.00  0.00     0.117 C 
ATOM     17  C   UNL A   1      32.382  23.215  24.308  1.00  0.00     0.003 C 
ATOM     18  C   UNL A   1      33.225  22.996  23.061  1.00  0.00     0.032 C 
BRANCH  16  19
ATOM     19  O   UNL A   1      35.587  23.233  22.541  1.00  0.00    -0.393 OA
ATOM     20  H   UNL A   1      35.574  23.736  21.713  1.00  0.00     0.210 HD
ENDBRANCH  16  19
ENDBRANCH  13  14
ENDBRANCH  12  13
ENDBRANCH   5   7
ENDBRANCH   3   5
ENDBRANCH   2   3
ENDBRANCH   1   2
BRANCH   1  21
ATOM     21  C   UNL A   1      44.300  22.912  24.235  1.00  0.00     0.275 C 
BRANCH  21  22
ATOM     22  O   UNL A   1      43.606  24.132  24.559  1.00  0.00    -0.458 OA
BRANCH  22  23
ATOM     23  C   UNL A   1      44.354  25.097  25.133  1.00  0.00     0.338 C 
ATOM     24  O   UNL A   1      45.461  25.490  24.792  1.00  0.00    -0.246 OA
BRANCH  23  25
ATOM     25  C   UNL A   1      43.552  25.768  26.164  1.00  0.00     0.060 A 
ATOM     26  C   UNL A   1      43.971  27.033  26.553  1.00  0.00     0.016 A 
ATOM     27  C   UNL A   1      42.458  25.164  26.790  1.00  0.00     0.016 A 
ATOM     28  C   UNL A   1      43.295  27.702  27.565  1.00  0.00     0.010 A 
ATOM     29  C   UNL A   1      41.793  25.840  27.831  1.00  0.00     0.010 A 
ATOM     30  C   UNL A   1      42.221  27.112  28.240  1.00  0.00    -0.014 A 
BRANCH  30  31
ATOM     31  C   UNL A   1      41.663  27.835  29.417  1.00  0.00     0.031 A 
ATOM     32  C   UNL A   1      42.399  27.822  30.731  1.00  0.00     0.074 A 
ATOM     33  C   UNL A   1      40.624  28.679  29.263  1.00  0.00     0.049 A 
ATOM     34  N   UNL A   1      42.168  28.526  31.813  1.00  0.00    -0.248 NA
ATOM     35  C   UNL A   1      43.586  26.956  30.822  1.00  0.00     0.031 C 
ATOM     36  C   UNL A   1      39.901  28.914  28.013  1.00  0.00     0.029 A 
ATOM     37  N   UNL A   1      40.026  29.532  30.160  1.00  0.00    -0.354 N 
ATOM     38  C   UNL A   1      43.202  28.227  32.690  1.00  0.00     0.074 A 
ATOM     39  C   UNL A   1      44.039  27.244  32.034  1.00  0.00     0.031 C 
ATOM     40  C   UNL A   1      38.972  29.863  28.217  1.00  0.00     0.029 A 
ATOM     41  C   UNL A   1      38.996  30.265  29.622  1.00  0.00     0.049 A 
ATOM     42  H   UNL A   1      40.307  29.609  31.101  1.00  0.00     0.167 HD
ATOM     43  C   UNL A   1      43.453  28.736  33.919  1.00  0.00     0.031 A 
ATOM     44  C   UNL A   1      38.149  31.141  30.196  1.00  0.00     0.031 A 
ATOM     45  C   UNL A   1      42.606  29.664  34.617  1.00  0.00     0.049 A 
ATOM     46  C   UNL A   1      38.278  31.453  31.661  1.00  0.00     0.074 A 
ATOM     47  C   UNL A   1      42.762  30.182  35.894  1.00  0.00     0.029 A 
ATOM     48  N   UNL A   1      41.430  30.191  34.114  1.00  0.00    -0.354 N 
ATOM     49  N   UNL A   1      39.245  31.143  32.489  1.00  0.00    -0.248 NA
ATOM     50  C   UNL A   1      37.182  32.219  32.276  1.00  0.00     0.031 C 
ATOM     51  C   UNL A   1      41.642  30.970  36.186  1.00  0.00     0.029 A 
ATOM     52  C   UNL A   1      40.819  30.982  35.073  1.00  0.00     0.049 A 
ATOM     53  H   UNL A   1      41.081  30.028  33.208  1.00  0.00     0.167 HD
ATOM     54  C   UNL A   1      38.884  31.690  33.714  1.00  0.00     0.074 A 
ATOM     55  C   UNL A   1      37.617  32.363  33.521  1.00  0.00     0.031 C 
ATOM     56  C   UNL A   1      39.549  31.636  34.893  1.00  0.00     0.031 A 
BRANCH  43  57
ATOM     57  C   UNL A   1      44.696  28.263  34.611  1.00  0.00    -0.014 A 
ATOM     58  C   UNL A   1      45.897  28.978  34.493  1.00  0.00     0.009 A 
ATOM     59  C   UNL A   1      44.655  27.115  35.416  1.00  0.00     0.009 A 
ATOM     60  C   UNL A   1      47.044  28.539  35.158  1.00  0.00     0.001 A 
ATOM     61  C   UNL A   1      45.800  26.686  36.088  1.00  0.00     0.001 A 
ATOM     62  C   UNL A   1      46.993  27.395  35.955  1.00  0.00     0.000 A 
ENDBRANCH  43  57
BRANCH  44  63
ATOM     63  C   UNL A   1      37.036  31.735  29.409  1.00  0.00    -0.014 A 
ATOM     64  C   UNL A   1      37.109  33.052  28.932  1.00  0.00     0.009 A 
ATOM     65  C   UNL A   1      35.863  30.995  29.182  1.00  0.00     0.009 A 
ATOM     66  C   UNL A   1      36.023  33.621  28.261  1.00  0.00     0.001 A 
ATOM     67  C   UNL A   1      34.792  31.556  28.487  1.00  0.00     0.001 A 
ATOM     68  C   UNL A   1      34.869  32.872  28.035  1.00  0.00     0.000 A 
ENDBRANCH  44  63
BRANCH  56  69
ATOM     69  C   UNL A   1      38.926  32.325  36.074  1.00  0.00    -0.014 A 
ATOM     70  C   UNL A   1      38.101  31.622  36.966  1.00  0.00     0.009 A 
ATOM     71  C   UNL A   1      39.194  33.681  36.319  1.00  0.00     0.009 A 
ATOM     72  C   UNL A   1      37.539  32.271  38.068  1.00  0.00     0.001 A 
ATOM     73  C   UNL A   1      38.650  34.320  37.436  1.00  0.00     0.001 A 
ATOM     74  C   UNL A   1      37.818  33.616  38.305  1.00  0.00     0.000 A 
ENDBRANCH  56  69
ENDBRANCH  30  31
ENDBRANCH  23  25
ENDBRANCH  22  23
ENDBRANCH  21  22
ENDBRANCH   1  21
TORSDOF 15
ENDMDL
