MODEL 1
REMARK VINA RESULT:     -11.0      0.000      0.000
REMARK SMILES CC(C)c1ccc([C@]2(C(=O)OCCOC(=O)c3ccc(-c4c5nc(c(-c6ccccc6)c6ccc([nH]6)c(-c6ccccc6)c6nc(c(-c7ccccc7)c7ccc4[nH]7)C=C6)C=C5)cc3)CCC[C@@H]2C)cc1
REMARK SMILES IDX 12 1 11 2 9 3 10 4 8 5 65 6 68 7 66 8 67 9 69 10 7 11 4 12
REMARK SMILES IDX 5 13 71 14 6 15 70 16 2 17 1 18 3 19 13 20 14 21 15 22 16 23
REMARK SMILES IDX 17 24 18 25 64 26 19 27 63 28 20 29 21 30 22 31 57 32 23 33
REMARK SMILES IDX 62 34 56 35 58 36 24 37 61 38 55 39 54 40 25 42 47 43 32 44
REMARK SMILES IDX 46 45 33 46 36 47 45 48 59 49 34 50 35 51 44 53 60 54 37 55
REMARK SMILES IDX 26 56 27 57 31 58 28 59 30 60 29 61 48 62 49 63 53 64 50 65
REMARK SMILES IDX 52 66 51 67 38 68 39 69 43 70 40 71 42 72 41 73
REMARK H PARENT 58 41 36 52
REMARK Flexibility Score: inf
ROOT
ATOM      1  C   UNL A   1      36.653  22.758  23.489  1.00  0.00     0.274 C 
ENDROOT
BRANCH   1   2
ATOM      2  O   UNL A   1      35.786  23.679  24.182  1.00  0.00    -0.461 OA
BRANCH   2   3
ATOM      3  C   UNL A   1      34.535  23.865  23.677  1.00  0.00     0.316 C 
ATOM      4  O   UNL A   1      34.314  24.329  22.562  1.00  0.00    -0.251 OA
BRANCH   3   5
ATOM      5  C   UNL A   1      33.413  23.507  24.700  1.00  0.00     0.095 C 
ATOM      6  C   UNL A   1      33.718  24.042  26.124  1.00  0.00     0.024 C 
ATOM      7  C   UNL A   1      32.168  24.373  24.318  1.00  0.00     0.008 C 
ATOM      8  C   UNL A   1      33.329  25.523  26.128  1.00  0.00     0.002 C 
ATOM      9  C   UNL A   1      32.543  25.768  24.845  1.00  0.00     0.005 C 
ATOM     10  C   UNL A   1      30.838  23.930  24.943  1.00  0.00     0.009 C 
BRANCH   5  11
ATOM     11  C   UNL A   1      33.171  21.987  24.655  1.00  0.00    -0.030 A 
ATOM     12  C   UNL A   1      32.745  19.158  24.524  1.00  0.00    -0.045 A 
ATOM     13  C   UNL A   1      32.528  19.980  23.409  1.00  0.00     0.004 A 
ATOM     14  C   UNL A   1      33.189  19.772  25.701  1.00  0.00     0.004 A 
ATOM     15  C   UNL A   1      32.741  21.364  23.472  1.00  0.00     0.005 A 
ATOM     16  C   UNL A   1      33.411  21.157  25.761  1.00  0.00     0.005 A 
BRANCH  12  17
ATOM     17  C   UNL A   1      32.557  17.651  24.381  1.00  0.00     0.013 C 
ATOM     18  C   UNL A   1      33.588  16.948  23.492  1.00  0.00     0.012 C 
ATOM     19  C   UNL A   1      32.525  16.959  25.747  1.00  0.00     0.012 C 
ENDBRANCH  12  17
ENDBRANCH   5  11
ENDBRANCH   3   5
ENDBRANCH   2   3
ENDBRANCH   1   2
BRANCH   1  20
ATOM     20  C   UNL A   1      36.790  21.470  24.292  1.00  0.00     0.275 C 
BRANCH  20  21
ATOM     21  O   UNL A   1      37.224  21.799  25.621  1.00  0.00    -0.458 OA
BRANCH  21  22
ATOM     22  C   UNL A   1      38.516  21.536  25.908  1.00  0.00     0.338 C 
ATOM     23  O   UNL A   1      39.125  20.491  25.742  1.00  0.00    -0.246 OA
BRANCH  22  24
ATOM     24  C   UNL A   1      39.136  22.748  26.462  1.00  0.00     0.060 A 
ATOM     25  C   UNL A   1      38.577  23.989  26.169  1.00  0.00     0.016 A 
ATOM     26  C   UNL A   1      40.333  22.665  27.170  1.00  0.00     0.016 A 
ATOM     27  C   UNL A   1      39.267  25.149  26.505  1.00  0.00     0.010 A 
ATOM     28  C   UNL A   1      40.979  23.839  27.580  1.00  0.00     0.010 A 
ATOM     29  C   UNL A   1      40.481  25.099  27.207  1.00  0.00    -0.014 A 
BRANCH  29  30
ATOM     30  C   UNL A   1      41.252  26.354  27.454  1.00  0.00     0.031 A 
ATOM     31  C   UNL A   1      40.742  27.383  28.435  1.00  0.00     0.074 A 
ATOM     32  C   UNL A   1      42.464  26.543  26.891  1.00  0.00     0.049 A 
ATOM     33  N   UNL A   1      41.234  28.562  28.729  1.00  0.00    -0.248 NA
ATOM     34  C   UNL A   1      39.534  27.035  29.204  1.00  0.00     0.031 C 
ATOM     35  C   UNL A   1      43.138  25.610  25.986  1.00  0.00     0.029 A 
ATOM     36  N   UNL A   1      43.363  27.575  27.027  1.00  0.00    -0.354 N 
ATOM     37  C   UNL A   1      40.383  29.104  29.684  1.00  0.00     0.074 A 
ATOM     38  C   UNL A   1      39.338  28.133  29.922  1.00  0.00     0.031 C 
ATOM     39  C   UNL A   1      44.365  26.075  25.707  1.00  0.00     0.029 A 
ATOM     40  C   UNL A   1      44.532  27.383  26.331  1.00  0.00     0.049 A 
ATOM     41  H   UNL A   1      43.186  28.375  27.572  1.00  0.00     0.167 HD
ATOM     42  C   UNL A   1      40.462  30.298  30.319  1.00  0.00     0.031 A 
ATOM     43  C   UNL A   1      45.606  28.180  26.173  1.00  0.00     0.031 A 
ATOM     44  C   UNL A   1      41.503  31.268  30.119  1.00  0.00     0.049 A 
ATOM     45  C   UNL A   1      45.616  29.545  26.795  1.00  0.00     0.074 A 
ATOM     46  C   UNL A   1      41.630  32.527  30.681  1.00  0.00     0.029 A 
ATOM     47  N   UNL A   1      42.607  31.080  29.305  1.00  0.00    -0.354 N 
ATOM     48  N   UNL A   1      44.743  30.087  27.608  1.00  0.00    -0.248 NA
ATOM     49  C   UNL A   1      46.745  30.421  26.447  1.00  0.00     0.031 C 
ATOM     50  C   UNL A   1      42.798  33.115  30.181  1.00  0.00     0.029 A 
ATOM     51  C   UNL A   1      43.414  32.204  29.339  1.00  0.00     0.049 A 
ATOM     52  H   UNL A   1      42.790  30.268  28.780  1.00  0.00     0.167 HD
ATOM     53  C   UNL A   1      45.209  31.370  27.859  1.00  0.00     0.074 A 
ATOM     54  C   UNL A   1      46.459  31.515  27.141  1.00  0.00     0.031 C 
ATOM     55  C   UNL A   1      44.643  32.346  28.607  1.00  0.00     0.031 A 
BRANCH  42  56
ATOM     56  C   UNL A   1      39.354  30.643  31.272  1.00  0.00    -0.014 A 
ATOM     57  C   UNL A   1      39.449  30.338  32.637  1.00  0.00     0.009 A 
ATOM     58  C   UNL A   1      38.218  31.318  30.798  1.00  0.00     0.009 A 
ATOM     59  C   UNL A   1      38.414  30.684  33.508  1.00  0.00     0.001 A 
ATOM     60  C   UNL A   1      37.195  31.679  31.674  1.00  0.00     0.001 A 
ATOM     61  C   UNL A   1      37.290  31.357  33.027  1.00  0.00     0.000 A 
ENDBRANCH  42  56
BRANCH  43  62
ATOM     62  C   UNL A   1      46.741  27.733  25.322  1.00  0.00    -0.014 A 
ATOM     63  C   UNL A   1      46.780  28.050  23.956  1.00  0.00     0.009 A 
ATOM     64  C   UNL A   1      47.790  26.983  25.877  1.00  0.00     0.009 A 
ATOM     65  C   UNL A   1      47.843  27.616  23.162  1.00  0.00     0.001 A 
ATOM     66  C   UNL A   1      48.866  26.575  25.086  1.00  0.00     0.001 A 
ATOM     67  C   UNL A   1      48.888  26.886  23.729  1.00  0.00     0.000 A 
ENDBRANCH  43  62
BRANCH  55  68
ATOM     68  C   UNL A   1      45.367  33.657  28.681  1.00  0.00    -0.014 A 
ATOM     69  C   UNL A   1      46.326  33.891  29.678  1.00  0.00     0.009 A 
ATOM     70  C   UNL A   1      45.110  34.657  27.730  1.00  0.00     0.009 A 
ATOM     71  C   UNL A   1      46.997  35.114  29.737  1.00  0.00     0.001 A 
ATOM     72  C   UNL A   1      45.796  35.871  27.782  1.00  0.00     0.001 A 
ATOM     73  C   UNL A   1      46.733  36.102  28.789  1.00  0.00     0.000 A 
ENDBRANCH  55  68
ENDBRANCH  29  30
ENDBRANCH  22  24
ENDBRANCH  21  22
ENDBRANCH  20  21
ENDBRANCH   1  20
TORSDOF 13
ENDMDL
MODEL 2
REMARK VINA RESULT:     -10.7      3.661      6.274
REMARK SMILES CC(C)c1ccc([C@]2(C(=O)OCCOC(=O)c3ccc(-c4c5nc(c(-c6ccccc6)c6ccc([nH]6)c(-c6ccccc6)c6nc(c(-c7ccccc7)c7ccc4[nH]7)C=C6)C=C5)cc3)CCC[C@@H]2C)cc1
REMARK SMILES IDX 12 1 11 2 9 3 10 4 8 5 65 6 68 7 66 8 67 9 69 10 7 11 4 12
REMARK SMILES IDX 5 13 71 14 6 15 70 16 2 17 1 18 3 19 13 20 14 21 15 22 16 23
REMARK SMILES IDX 17 24 18 25 64 26 19 27 63 28 20 29 21 30 22 31 57 32 23 33
REMARK SMILES IDX 62 34 56 35 58 36 24 37 61 38 55 39 54 40 25 42 47 43 32 44
REMARK SMILES IDX 46 45 33 46 36 47 45 48 59 49 34 50 35 51 44 53 60 54 37 55
REMARK SMILES IDX 26 56 27 57 31 58 28 59 30 60 29 61 48 62 49 63 53 64 50 65
REMARK SMILES IDX 52 66 51 67 38 68 39 69 43 70 40 71 42 72 41 73
REMARK H PARENT 58 41 36 52
REMARK Flexibility Score: inf
ROOT
ATOM      1  C   UNL A   1      33.278  29.121  24.405  1.00  0.00     0.274 C 
ENDROOT
BRANCH   1   2
ATOM      2  O   UNL A   1      33.772  27.767  24.456  1.00  0.00    -0.461 OA
BRANCH   2   3
ATOM      3  C   UNL A   1      33.072  26.817  23.777  1.00  0.00     0.316 C 
ATOM      4  O   UNL A   1      32.695  26.951  22.616  1.00  0.00    -0.251 OA
BRANCH   3   5
ATOM      5  C   UNL A   1      32.727  25.577  24.660  1.00  0.00     0.095 C 
ATOM      6  C   UNL A   1      32.298  25.976  26.096  1.00  0.00     0.024 C 
ATOM      7  C   UNL A   1      31.387  24.993  24.103  1.00  0.00     0.008 C 
ATOM      8  C   UNL A   1      30.829  26.400  26.015  1.00  0.00     0.002 C 
ATOM      9  C   UNL A   1      30.332  25.976  24.638  1.00  0.00     0.005 C 
ATOM     10  C   UNL A   1      31.043  23.571  24.567  1.00  0.00     0.009 C 
BRANCH   5  11
ATOM     11  C   UNL A   1      33.914  24.599  24.623  1.00  0.00    -0.030 A 
ATOM     12  C   UNL A   1      36.107  22.757  24.599  1.00  0.00    -0.045 A 
ATOM     13  C   UNL A   1      35.718  23.412  25.777  1.00  0.00     0.004 A 
ATOM     14  C   UNL A   1      35.374  23.029  23.438  1.00  0.00     0.004 A 
ATOM     15  C   UNL A   1      34.642  24.309  25.789  1.00  0.00     0.005 A 
ATOM     16  C   UNL A   1      34.291  23.922  23.453  1.00  0.00     0.005 A 
BRANCH  12  17
ATOM     17  C   UNL A   1      37.245  21.744  24.657  1.00  0.00     0.013 C 
ATOM     18  C   UNL A   1      38.343  22.055  25.680  1.00  0.00     0.012 C 
ATOM     19  C   UNL A   1      36.721  20.327  24.909  1.00  0.00     0.012 C 
ENDBRANCH  12  17
ENDBRANCH   5  11
ENDBRANCH   3   5
ENDBRANCH   2   3
ENDBRANCH   1   2
BRANCH   1  20
ATOM     20  C   UNL A   1      32.995  29.625  25.815  1.00  0.00     0.275 C 
BRANCH  20  21
ATOM     21  O   UNL A   1      34.153  29.383  26.632  1.00  0.00    -0.458 OA
BRANCH  21  22
ATOM     22  C   UNL A   1      34.411  30.302  27.585  1.00  0.00     0.338 C 
ATOM     23  O   UNL A   1      33.668  31.175  28.009  1.00  0.00    -0.246 OA
BRANCH  22  24
ATOM     24  C   UNL A   1      35.775  30.093  28.090  1.00  0.00     0.060 A 
ATOM     25  C   UNL A   1      36.853  30.304  27.235  1.00  0.00     0.016 A 
ATOM     26  C   UNL A   1      35.981  29.575  29.367  1.00  0.00     0.016 A 
ATOM     27  C   UNL A   1      38.128  29.908  27.627  1.00  0.00     0.010 A 
ATOM     28  C   UNL A   1      37.280  29.259  29.786  1.00  0.00     0.010 A 
ATOM     29  C   UNL A   1      38.366  29.372  28.901  1.00  0.00    -0.014 A 
BRANCH  29  30
ATOM     30  C   UNL A   1      39.723  28.854  29.251  1.00  0.00     0.031 A 
ATOM     31  C   UNL A   1      40.612  29.623  30.200  1.00  0.00     0.074 A 
ATOM     32  C   UNL A   1      40.135  27.645  28.815  1.00  0.00     0.049 A 
ATOM     33  N   UNL A   1      41.845  29.370  30.567  1.00  0.00    -0.248 NA
ATOM     34  C   UNL A   1      40.036  30.819  30.839  1.00  0.00     0.031 C 
ATOM     35  C   UNL A   1      39.364  26.740  27.960  1.00  0.00     0.029 A 
ATOM     36  N   UNL A   1      41.297  26.953  29.062  1.00  0.00    -0.354 N 
ATOM     37  C   UNL A   1      42.198  30.386  31.446  1.00  0.00     0.074 A 
ATOM     38  C   UNL A   1      41.056  31.266  31.558  1.00  0.00     0.031 C 
ATOM     39  C   UNL A   1      40.040  25.591  27.813  1.00  0.00     0.029 A 
ATOM     40  C   UNL A   1      41.332  25.709  28.480  1.00  0.00     0.049 A 
ATOM     41  H   UNL A   1      42.034  27.315  29.605  1.00  0.00     0.167 HD
ATOM     42  C   UNL A   1      43.363  30.573  32.112  1.00  0.00     0.031 A 
ATOM     43  C   UNL A   1      42.304  24.777  28.447  1.00  0.00     0.031 A 
ATOM     44  C   UNL A   1      44.501  29.699  32.037  1.00  0.00     0.049 A 
ATOM     45  C   UNL A   1      43.626  25.059  29.098  1.00  0.00     0.074 A 
ATOM     46  C   UNL A   1      45.741  29.843  32.638  1.00  0.00     0.029 A 
ATOM     47  N   UNL A   1      44.533  28.508  31.332  1.00  0.00    -0.354 N 
ATOM     48  N   UNL A   1      43.981  26.084  29.832  1.00  0.00    -0.248 NA
ATOM     49  C   UNL A   1      44.693  24.070  28.882  1.00  0.00     0.031 C 
ATOM     50  C   UNL A   1      46.536  28.751  32.269  1.00  0.00     0.029 A 
ATOM     51  C   UNL A   1      45.776  27.912  31.471  1.00  0.00     0.049 A 
ATOM     52  H   UNL A   1      43.785  28.140  30.810  1.00  0.00     0.167 HD
ATOM     53  C   UNL A   1      45.314  25.870  30.157  1.00  0.00     0.074 A 
ATOM     54  C   UNL A   1      45.695  24.602  29.569  1.00  0.00     0.031 C 
ATOM     55  C   UNL A   1      46.150  26.663  30.868  1.00  0.00     0.031 A 
BRANCH  42  56
ATOM     56  C   UNL A   1      43.479  31.807  32.959  1.00  0.00    -0.014 A 
ATOM     57  C   UNL A   1      43.126  31.793  34.316  1.00  0.00     0.009 A 
ATOM     58  C   UNL A   1      43.986  32.988  32.395  1.00  0.00     0.009 A 
ATOM     59  C   UNL A   1      43.259  32.949  35.089  1.00  0.00     0.001 A 
ATOM     60  C   UNL A   1      44.134  34.135  33.174  1.00  0.00     0.001 A 
ATOM     61  C   UNL A   1      43.766  34.116  34.519  1.00  0.00     0.000 A 
ENDBRANCH  42  56
BRANCH  43  62
ATOM     62  C   UNL A   1      42.088  23.508  27.702  1.00  0.00    -0.014 A 
ATOM     63  C   UNL A   1      42.450  23.400  26.351  1.00  0.00     0.009 A 
ATOM     64  C   UNL A   1      41.514  22.399  28.343  1.00  0.00     0.009 A 
ATOM     65  C   UNL A   1      42.233  22.209  25.656  1.00  0.00     0.001 A 
ATOM     66  C   UNL A   1      41.324  21.200  27.654  1.00  0.00     0.001 A 
ATOM     67  C   UNL A   1      41.678  21.109  26.310  1.00  0.00     0.000 A 
ENDBRANCH  43  62
BRANCH  55  68
ATOM     68  C   UNL A   1      47.561  26.185  31.042  1.00  0.00    -0.014 A 
ATOM     69  C   UNL A   1      47.976  25.599  32.248  1.00  0.00     0.009 A 
ATOM     70  C   UNL A   1      48.476  26.293  29.983  1.00  0.00     0.009 A 
ATOM     71  C   UNL A   1      49.290  25.154  32.400  1.00  0.00     0.001 A 
ATOM     72  C   UNL A   1      49.784  25.830  30.133  1.00  0.00     0.001 A 
ATOM     73  C   UNL A   1      50.192  25.268  31.342  1.00  0.00     0.000 A 
ENDBRANCH  55  68
ENDBRANCH  29  30
ENDBRANCH  22  24
ENDBRANCH  21  22
ENDBRANCH  20  21
ENDBRANCH   1  20
TORSDOF 13
ENDMDL
MODEL 3
REMARK VINA RESULT:     -10.6      1.015      3.333
REMARK SMILES CC(C)c1ccc([C@]2(C(=O)OCCOC(=O)c3ccc(-c4c5nc(c(-c6ccccc6)c6ccc([nH]6)c(-c6ccccc6)c6nc(c(-c7ccccc7)c7ccc4[nH]7)C=C6)C=C5)cc3)CCC[C@@H]2C)cc1
REMARK SMILES IDX 12 1 11 2 9 3 10 4 8 5 65 6 68 7 66 8 67 9 69 10 7 11 4 12
REMARK SMILES IDX 5 13 71 14 6 15 70 16 2 17 1 18 3 19 13 20 14 21 15 22 16 23
REMARK SMILES IDX 17 24 18 25 64 26 19 27 63 28 20 29 21 30 22 31 57 32 23 33
REMARK SMILES IDX 62 34 56 35 58 36 24 37 61 38 55 39 54 40 25 42 47 43 32 44
REMARK SMILES IDX 46 45 33 46 36 47 45 48 59 49 34 50 35 51 44 53 60 54 37 55
REMARK SMILES IDX 26 56 27 57 31 58 28 59 30 60 29 61 48 62 49 63 53 64 50 65
REMARK SMILES IDX 52 66 51 67 38 68 39 69 43 70 40 71 42 72 41 73
REMARK H PARENT 58 41 36 52
REMARK Flexibility Score: inf
ROOT
ATOM      1  C   UNL A   1      36.751  22.265  23.703  1.00  0.00     0.274 C 
ENDROOT
BRANCH   1   2
ATOM      2  O   UNL A   1      35.741  23.013  24.411  1.00  0.00    -0.461 OA
BRANCH   2   3
ATOM      3  C   UNL A   1      34.517  23.128  23.824  1.00  0.00     0.316 C 
ATOM      4  O   UNL A   1      34.353  23.231  22.611  1.00  0.00    -0.251 OA
BRANCH   3   5
ATOM      5  C   UNL A   1      33.355  23.204  24.862  1.00  0.00     0.095 C 
ATOM      6  C   UNL A   1      32.119  22.373  24.426  1.00  0.00     0.024 C 
ATOM      7  C   UNL A   1      33.826  22.397  26.117  1.00  0.00     0.008 C 
ATOM      8  C   UNL A   1      32.421  20.915  24.783  1.00  0.00     0.002 C 
ATOM      9  C   UNL A   1      33.661  20.936  25.671  1.00  0.00     0.005 C 
ATOM     10  C   UNL A   1      33.015  22.636  27.398  1.00  0.00     0.009 C 
BRANCH   5  11
ATOM     11  C   UNL A   1      33.034  24.683  25.137  1.00  0.00    -0.030 A 
ATOM     12  C   UNL A   1      32.482  27.451  25.625  1.00  0.00    -0.045 A 
ATOM     13  C   UNL A   1      33.770  26.923  25.796  1.00  0.00     0.004 A 
ATOM     14  C   UNL A   1      31.480  26.575  25.194  1.00  0.00     0.004 A 
ATOM     15  C   UNL A   1      34.041  25.571  25.553  1.00  0.00     0.005 A 
ATOM     16  C   UNL A   1      31.753  25.222  24.942  1.00  0.00     0.005 A 
BRANCH  12  17
ATOM     17  C   UNL A   1      32.258  28.944  25.844  1.00  0.00     0.013 C 
ATOM     18  C   UNL A   1      31.232  29.592  24.910  1.00  0.00     0.012 C 
ATOM     19  C   UNL A   1      31.869  29.244  27.294  1.00  0.00     0.012 C 
ENDBRANCH  12  17
ENDBRANCH   5  11
ENDBRANCH   3   5
ENDBRANCH   2   3
ENDBRANCH   1   2
BRANCH   1  20
ATOM     20  C   UNL A   1      37.199  21.075  24.542  1.00  0.00     0.275 C 
BRANCH  20  21
ATOM     21  O   UNL A   1      37.618  21.551  25.831  1.00  0.00    -0.458 OA
BRANCH  21  22
ATOM     22  C   UNL A   1      38.924  21.388  26.130  1.00  0.00     0.338 C 
ATOM     23  O   UNL A   1      39.607  20.384  25.992  1.00  0.00    -0.246 OA
BRANCH  22  24
ATOM     24  C   UNL A   1      39.452  22.653  26.657  1.00  0.00     0.060 A 
ATOM     25  C   UNL A   1      38.892  23.852  26.227  1.00  0.00     0.016 A 
ATOM     26  C   UNL A   1      40.574  22.657  27.483  1.00  0.00     0.016 A 
ATOM     27  C   UNL A   1      39.513  25.055  26.548  1.00  0.00     0.010 A 
ATOM     28  C   UNL A   1      41.144  23.877  27.873  1.00  0.00     0.010 A 
ATOM     29  C   UNL A   1      40.652  25.092  27.367  1.00  0.00    -0.014 A 
BRANCH  29  30
ATOM     30  C   UNL A   1      41.360  26.386  27.601  1.00  0.00     0.031 A 
ATOM     31  C   UNL A   1      40.792  27.404  28.562  1.00  0.00     0.074 A 
ATOM     32  C   UNL A   1      42.567  26.624  27.046  1.00  0.00     0.049 A 
ATOM     33  N   UNL A   1      41.225  28.610  28.842  1.00  0.00    -0.248 NA
ATOM     34  C   UNL A   1      39.596  27.010  29.327  1.00  0.00     0.031 C 
ATOM     35  C   UNL A   1      43.293  25.711  26.161  1.00  0.00     0.029 A 
ATOM     36  N   UNL A   1      43.414  27.700  27.174  1.00  0.00    -0.354 N 
ATOM     37  C   UNL A   1      40.341  29.125  29.782  1.00  0.00     0.074 A 
ATOM     38  C   UNL A   1      39.342  28.108  30.026  1.00  0.00     0.031 C 
ATOM     39  C   UNL A   1      44.498  26.230  25.885  1.00  0.00     0.029 A 
ATOM     40  C   UNL A   1      44.597  27.554  26.490  1.00  0.00     0.049 A 
ATOM     41  H   UNL A   1      43.194  28.498  27.705  1.00  0.00     0.167 HD
ATOM     42  C   UNL A   1      40.357  30.330  30.399  1.00  0.00     0.031 A 
ATOM     43  C   UNL A   1      45.634  28.398  26.329  1.00  0.00     0.031 A 
ATOM     44  C   UNL A   1      41.353  31.345  30.193  1.00  0.00     0.049 A 
ATOM     45  C   UNL A   1      45.574  29.771  26.931  1.00  0.00     0.074 A 
ATOM     46  C   UNL A   1      41.415  32.617  30.738  1.00  0.00     0.029 A 
ATOM     47  N   UNL A   1      42.472  31.198  29.392  1.00  0.00    -0.354 N 
ATOM     48  N   UNL A   1      44.668  30.283  27.728  1.00  0.00    -0.248 NA
ATOM     49  C   UNL A   1      46.662  30.695  26.579  1.00  0.00     0.031 C 
ATOM     50  C   UNL A   1      42.558  33.252  30.239  1.00  0.00     0.029 A 
ATOM     51  C   UNL A   1      43.225  32.360  29.416  1.00  0.00     0.049 A 
ATOM     52  H   UNL A   1      42.698  30.387  28.881  1.00  0.00     0.167 HD
ATOM     53  C   UNL A   1      45.071  31.590  27.963  1.00  0.00     0.074 A 
ATOM     54  C   UNL A   1      46.319  31.784  27.254  1.00  0.00     0.031 C 
ATOM     55  C   UNL A   1      44.452  32.549  28.692  1.00  0.00     0.031 A 
BRANCH  42  56
ATOM     56  C   UNL A   1      39.226  30.636  31.337  1.00  0.00    -0.014 A 
ATOM     57  C   UNL A   1      39.320  30.349  32.707  1.00  0.00     0.009 A 
ATOM     58  C   UNL A   1      38.066  31.255  30.845  1.00  0.00     0.009 A 
ATOM     59  C   UNL A   1      38.262  30.659  33.564  1.00  0.00     0.001 A 
ATOM     60  C   UNL A   1      37.019  31.580  31.708  1.00  0.00     0.001 A 
ATOM     61  C   UNL A   1      37.115  31.276  33.065  1.00  0.00     0.000 A 
ENDBRANCH  42  56
BRANCH  43  62
ATOM     62  C   UNL A   1      46.797  27.993  25.495  1.00  0.00    -0.014 A 
ATOM     63  C   UNL A   1      46.733  28.066  24.096  1.00  0.00     0.009 A 
ATOM     64  C   UNL A   1      47.975  27.528  26.100  1.00  0.00     0.009 A 
ATOM     65  C   UNL A   1      47.825  27.672  23.319  1.00  0.00     0.001 A 
ATOM     66  C   UNL A   1      49.075  27.162  25.322  1.00  0.00     0.001 A 
ATOM     67  C   UNL A   1      48.997  27.229  23.933  1.00  0.00     0.000 A 
ENDBRANCH  43  62
BRANCH  55  68
ATOM     68  C   UNL A   1      45.112  33.894  28.752  1.00  0.00    -0.014 A 
ATOM     69  C   UNL A   1      44.784  34.896  27.826  1.00  0.00     0.009 A 
ATOM     70  C   UNL A   1      46.050  34.174  29.758  1.00  0.00     0.009 A 
ATOM     71  C   UNL A   1      45.401  36.146  27.891  1.00  0.00     0.001 A 
ATOM     72  C   UNL A   1      46.652  35.430  29.831  1.00  0.00     0.001 A 
ATOM     73  C   UNL A   1      46.333  36.413  28.894  1.00  0.00     0.000 A 
ENDBRANCH  55  68
ENDBRANCH  29  30
ENDBRANCH  22  24
ENDBRANCH  21  22
ENDBRANCH  20  21
ENDBRANCH   1  20
TORSDOF 13
ENDMDL
