MODEL 1
REMARK VINA RESULT:     -10.0      0.000      0.000
REMARK SMILES COc1cc(OC)c([C@@H]2C[C@H]2C(=O)OCCOC(=O)c2ccc(-c3c4nc(c(-c5ccccc5)c5ccc([nH]5)c(-c5ccccc5)c5nc(c(-c6ccccc6)c6ccc3[nH]6)C=C5)C=C4)cc2)c(OC)c1
REMARK SMILES IDX 15 1 14 2 12 3 13 4 11 5 9 6 10 7 8 8 3 9 4 10 71 11 5 12
REMARK SMILES IDX 68 13 2 14 1 15 6 16 7 17 69 18 70 19 16 20 17 21 18 22
REMARK SMILES IDX 19 23 20 24 21 25 67 26 22 27 66 28 23 29 24 30 25 31 60 32
REMARK SMILES IDX 26 33 65 34 59 35 61 36 27 37 64 38 58 39 57 40 28 42 50 43
REMARK SMILES IDX 35 44 49 45 36 46 39 47 48 48 62 49 37 50 38 51 47 53 63 54
REMARK SMILES IDX 40 55 29 56 30 57 34 58 31 59 33 60 32 61 51 62 52 63 56 64
REMARK SMILES IDX 53 65 55 66 54 67 41 68 42 69 46 70 43 71 45 72 44 73
REMARK H PARENT 61 41 39 52
REMARK Flexibility Score: inf
ROOT
ATOM      1  C   UNL A   1      35.224  20.090  24.916  1.00  0.00     0.274 C 
ENDROOT
BRANCH   1   2
ATOM      2  O   UNL A   1      33.822  20.188  25.227  1.00  0.00    -0.462 OA
BRANCH   2   3
ATOM      3  C   UNL A   1      32.979  20.373  24.175  1.00  0.00     0.309 C 
ATOM      4  O   UNL A   1      32.545  19.497  23.441  1.00  0.00    -0.252 OA
BRANCH   3   5
ATOM      5  C   UNL A   1      32.561  21.792  23.989  1.00  0.00     0.107 C 
ATOM      6  C   UNL A   1      33.552  22.864  23.576  1.00  0.00     0.042 C 
ATOM      7  C   UNL A   1      32.474  22.398  22.619  1.00  0.00     0.025 C 
BRANCH   6   8
ATOM      8  C   UNL A   1      33.573  24.331  24.026  1.00  0.00     0.040 A 
ATOM      9  C   UNL A   1      33.214  26.985  25.026  1.00  0.00     0.126 A 
ATOM     10  C   UNL A   1      33.352  25.923  25.905  1.00  0.00     0.093 A 
ATOM     11  C   UNL A   1      33.333  26.756  23.661  1.00  0.00     0.093 A 
ATOM     12  C   UNL A   1      33.530  24.624  25.416  1.00  0.00     0.129 A 
ATOM     13  C   UNL A   1      33.530  25.455  23.160  1.00  0.00     0.129 A 
BRANCH   9  14
ATOM     14  O   UNL A   1      33.017  28.220  25.581  1.00  0.00    -0.496 OA
ATOM     15  C   UNL A   1      34.145  28.723  26.296  1.00  0.00     0.278 C 
ENDBRANCH   9  14
BRANCH  12  16
ATOM     16  O   UNL A   1      33.525  23.651  26.392  1.00  0.00    -0.496 OA
ATOM     17  C   UNL A   1      32.262  23.487  27.033  1.00  0.00     0.278 C 
ENDBRANCH  12  16
BRANCH  13  18
ATOM     18  O   UNL A   1      33.646  25.217  21.813  1.00  0.00    -0.496 OA
ATOM     19  C   UNL A   1      32.600  25.707  20.973  1.00  0.00     0.278 C 
ENDBRANCH  13  18
ENDBRANCH   6   8
ENDBRANCH   3   5
ENDBRANCH   2   3
ENDBRANCH   1   2
BRANCH   1  20
ATOM     20  C   UNL A   1      36.020  21.130  25.703  1.00  0.00     0.275 C 
BRANCH  20  21
ATOM     21  O   UNL A   1      37.218  21.488  24.989  1.00  0.00    -0.458 OA
BRANCH  21  22
ATOM     22  C   UNL A   1      38.376  21.125  25.588  1.00  0.00     0.338 C 
ATOM     23  O   UNL A   1      38.904  20.027  25.592  1.00  0.00    -0.246 OA
BRANCH  22  24
ATOM     24  C   UNL A   1      39.008  22.308  26.185  1.00  0.00     0.060 A 
ATOM     25  C   UNL A   1      38.439  23.546  25.919  1.00  0.00     0.016 A 
ATOM     26  C   UNL A   1      40.219  22.225  26.874  1.00  0.00     0.016 A 
ATOM     27  C   UNL A   1      39.100  24.708  26.294  1.00  0.00     0.010 A 
ATOM     28  C   UNL A   1      40.865  23.404  27.285  1.00  0.00     0.010 A 
ATOM     29  C   UNL A   1      40.329  24.663  26.965  1.00  0.00    -0.014 A 
BRANCH  29  30
ATOM     30  C   UNL A   1      41.042  25.948  27.225  1.00  0.00     0.031 A 
ATOM     31  C   UNL A   1      40.491  26.946  28.213  1.00  0.00     0.074 A 
ATOM     32  C   UNL A   1      42.253  26.173  26.675  1.00  0.00     0.049 A 
ATOM     33  N   UNL A   1      40.988  28.102  28.586  1.00  0.00    -0.248 NA
ATOM     34  C   UNL A   1      39.221  26.604  28.871  1.00  0.00     0.031 C 
ATOM     35  C   UNL A   1      42.944  25.272  25.750  1.00  0.00     0.029 A 
ATOM     36  N   UNL A   1      43.140  27.210  26.851  1.00  0.00    -0.354 N 
ATOM     37  C   UNL A   1      40.071  28.641  29.481  1.00  0.00     0.074 A 
ATOM     38  C   UNL A   1      38.986  27.691  29.592  1.00  0.00     0.031 C 
ATOM     39  C   UNL A   1      44.168  25.759  25.494  1.00  0.00     0.029 A 
ATOM     40  C   UNL A   1      44.324  27.042  26.173  1.00  0.00     0.049 A 
ATOM     41  H   UNL A   1      42.945  27.997  27.408  1.00  0.00     0.167 HD
ATOM     42  C   UNL A   1      40.123  29.820  30.150  1.00  0.00     0.031 A 
ATOM     43  C   UNL A   1      45.411  27.833  26.088  1.00  0.00     0.031 A 
ATOM     44  C   UNL A   1      41.209  30.762  30.070  1.00  0.00     0.049 A 
ATOM     45  C   UNL A   1      45.427  29.149  26.811  1.00  0.00     0.074 A 
ATOM     46  C   UNL A   1      41.342  31.982  30.714  1.00  0.00     0.029 A 
ATOM     47  N   UNL A   1      42.355  30.588  29.309  1.00  0.00    -0.354 N 
ATOM     48  N   UNL A   1      44.531  29.659  27.619  1.00  0.00    -0.248 NA
ATOM     49  C   UNL A   1      46.606  30.001  26.600  1.00  0.00     0.031 C 
ATOM     50  C   UNL A   1      42.547  32.566  30.307  1.00  0.00     0.029 A 
ATOM     51  C   UNL A   1      43.190  31.685  29.455  1.00  0.00     0.049 A 
ATOM     52  H   UNL A   1      42.546  29.802  28.749  1.00  0.00     0.167 HD
ATOM     53  C   UNL A   1      45.038  30.891  28.014  1.00  0.00     0.074 A 
ATOM     54  C   UNL A   1      46.336  31.032  27.388  1.00  0.00     0.031 C 
ATOM     55  C   UNL A   1      44.472  31.826  28.815  1.00  0.00     0.031 A 
BRANCH  42  56
ATOM     56  C   UNL A   1      38.937  30.183  31.000  1.00  0.00    -0.014 A 
ATOM     57  C   UNL A   1      37.807  30.815  30.459  1.00  0.00     0.009 A 
ATOM     58  C   UNL A   1      38.941  29.852  32.365  1.00  0.00     0.009 A 
ATOM     59  C   UNL A   1      36.719  31.137  31.276  1.00  0.00     0.001 A 
ATOM     60  C   UNL A   1      37.843  30.150  33.173  1.00  0.00     0.001 A 
ATOM     61  C   UNL A   1      36.737  30.801  32.629  1.00  0.00     0.000 A 
ENDBRANCH  42  56
BRANCH  43  62
ATOM     62  C   UNL A   1      46.569  27.422  25.249  1.00  0.00    -0.014 A 
ATOM     63  C   UNL A   1      46.750  27.953  23.964  1.00  0.00     0.009 A 
ATOM     64  C   UNL A   1      47.492  26.478  25.730  1.00  0.00     0.009 A 
ATOM     65  C   UNL A   1      47.820  27.534  23.169  1.00  0.00     0.001 A 
ATOM     66  C   UNL A   1      48.578  26.085  24.946  1.00  0.00     0.001 A 
ATOM     67  C   UNL A   1      48.737  26.607  23.663  1.00  0.00     0.000 A 
ENDBRANCH  43  62
BRANCH  55  68
ATOM     68  C   UNL A   1      45.268  33.076  29.068  1.00  0.00    -0.014 A 
ATOM     69  C   UNL A   1      45.133  34.204  28.241  1.00  0.00     0.009 A 
ATOM     70  C   UNL A   1      46.169  33.126  30.142  1.00  0.00     0.009 A 
ATOM     71  C   UNL A   1      45.921  35.338  28.457  1.00  0.00     0.001 A 
ATOM     72  C   UNL A   1      46.934  34.272  30.373  1.00  0.00     0.001 A 
ATOM     73  C   UNL A   1      46.819  35.371  29.523  1.00  0.00     0.000 A 
ENDBRANCH  55  68
ENDBRANCH  29  30
ENDBRANCH  22  24
ENDBRANCH  21  22
ENDBRANCH  20  21
ENDBRANCH   1  20
TORSDOF 15
ENDMDL
MODEL 2
REMARK VINA RESULT:      -9.9      0.650      6.286
REMARK SMILES COc1cc(OC)c([C@@H]2C[C@H]2C(=O)OCCOC(=O)c2ccc(-c3c4nc(c(-c5ccccc5)c5ccc([nH]5)c(-c5ccccc5)c5nc(c(-c6ccccc6)c6ccc3[nH]6)C=C5)C=C4)cc2)c(OC)c1
REMARK SMILES IDX 15 1 14 2 12 3 13 4 11 5 9 6 10 7 8 8 3 9 4 10 71 11 5 12
REMARK SMILES IDX 68 13 2 14 1 15 6 16 7 17 69 18 70 19 16 20 17 21 18 22
REMARK SMILES IDX 19 23 20 24 21 25 67 26 22 27 66 28 23 29 24 30 25 31 60 32
REMARK SMILES IDX 26 33 65 34 59 35 61 36 27 37 64 38 58 39 57 40 28 42 50 43
REMARK SMILES IDX 35 44 49 45 36 46 39 47 48 48 62 49 37 50 38 51 47 53 63 54
REMARK SMILES IDX 40 55 29 56 30 57 34 58 31 59 33 60 32 61 51 62 52 63 56 64
REMARK SMILES IDX 53 65 55 66 54 67 41 68 42 69 46 70 43 71 45 72 44 73
REMARK H PARENT 61 41 39 52
REMARK Flexibility Score: inf
ROOT
ATOM      1  C   UNL A   1      34.925  21.067  25.073  1.00  0.00     0.274 C 
ENDROOT
BRANCH   1   2
ATOM      2  O   UNL A   1      34.045  19.934  24.960  1.00  0.00    -0.462 OA
BRANCH   2   3
ATOM      3  C   UNL A   1      33.017  20.051  24.077  1.00  0.00     0.309 C 
ATOM      4  O   UNL A   1      32.545  19.146  23.403  1.00  0.00    -0.252 OA
BRANCH   3   5
ATOM      5  C   UNL A   1      32.441  21.424  24.010  1.00  0.00     0.107 C 
ATOM      6  C   UNL A   1      33.091  22.518  23.183  1.00  0.00     0.042 C 
ATOM      7  C   UNL A   1      31.764  21.917  22.765  1.00  0.00     0.025 C 
BRANCH   6   8
ATOM      8  C   UNL A   1      33.165  24.013  23.517  1.00  0.00     0.040 A 
ATOM      9  C   UNL A   1      33.700  26.787  23.960  1.00  0.00     0.126 A 
ATOM     10  C   UNL A   1      33.535  26.307  22.671  1.00  0.00     0.093 A 
ATOM     11  C   UNL A   1      33.522  25.923  25.033  1.00  0.00     0.093 A 
ATOM     12  C   UNL A   1      33.271  24.951  22.453  1.00  0.00     0.129 A 
ATOM     13  C   UNL A   1      33.239  24.559  24.825  1.00  0.00     0.129 A 
BRANCH   9  14
ATOM     14  O   UNL A   1      33.982  28.119  24.089  1.00  0.00    -0.496 OA
ATOM     15  C   UNL A   1      32.835  28.937  24.321  1.00  0.00     0.278 C 
ENDBRANCH   9  14
BRANCH  12  16
ATOM     16  O   UNL A   1      33.257  24.587  21.124  1.00  0.00    -0.496 OA
ATOM     17  C   UNL A   1      32.531  25.486  20.290  1.00  0.00     0.278 C 
ENDBRANCH  12  16
BRANCH  13  18
ATOM     18  O   UNL A   1      33.065  23.695  25.878  1.00  0.00    -0.496 OA
ATOM     19  C   UNL A   1      31.970  23.953  26.758  1.00  0.00     0.278 C 
ENDBRANCH  13  18
ENDBRANCH   6   8
ENDBRANCH   3   5
ENDBRANCH   2   3
ENDBRANCH   1   2
BRANCH   1  20
ATOM     20  C   UNL A   1      36.384  20.611  25.102  1.00  0.00     0.275 C 
BRANCH  20  21
ATOM     21  O   UNL A   1      37.250  21.722  25.397  1.00  0.00    -0.458 OA
BRANCH  21  22
ATOM     22  C   UNL A   1      38.499  21.389  25.798  1.00  0.00     0.338 C 
ATOM     23  O   UNL A   1      39.102  20.352  25.583  1.00  0.00    -0.246 OA
BRANCH  22  24
ATOM     24  C   UNL A   1      39.114  22.534  26.479  1.00  0.00     0.060 A 
ATOM     25  C   UNL A   1      38.603  23.797  26.208  1.00  0.00     0.016 A 
ATOM     26  C   UNL A   1      40.264  22.395  27.258  1.00  0.00     0.016 A 
ATOM     27  C   UNL A   1      39.264  24.927  26.670  1.00  0.00     0.010 A 
ATOM     28  C   UNL A   1      40.908  23.541  27.755  1.00  0.00     0.010 A 
ATOM     29  C   UNL A   1      40.434  24.825  27.433  1.00  0.00    -0.014 A 
BRANCH  29  30
ATOM     30  C   UNL A   1      41.160  26.080  27.788  1.00  0.00     0.031 A 
ATOM     31  C   UNL A   1      42.472  26.421  27.127  1.00  0.00     0.074 A 
ATOM     32  C   UNL A   1      40.586  26.985  28.609  1.00  0.00     0.049 A 
ATOM     33  N   UNL A   1      43.231  27.479  27.292  1.00  0.00    -0.248 NA
ATOM     34  C   UNL A   1      43.003  25.453  26.156  1.00  0.00     0.031 C 
ATOM     35  C   UNL A   1      39.292  26.824  29.273  1.00  0.00     0.029 A 
ATOM     36  N   UNL A   1      40.999  28.241  28.987  1.00  0.00    -0.354 N 
ATOM     37  C   UNL A   1      44.344  27.282  26.483  1.00  0.00     0.074 A 
ATOM     38  C   UNL A   1      44.166  26.001  25.833  1.00  0.00     0.031 C 
ATOM     39  C   UNL A   1      38.985  27.959  29.920  1.00  0.00     0.029 A 
ATOM     40  C   UNL A   1      40.091  28.901  29.781  1.00  0.00     0.049 A 
ATOM     41  H   UNL A   1      41.861  28.629  28.717  1.00  0.00     0.167 HD
ATOM     42  C   UNL A   1      45.418  28.088  26.297  1.00  0.00     0.031 A 
ATOM     43  C   UNL A   1      40.142  30.120  30.352  1.00  0.00     0.031 A 
ATOM     44  C   UNL A   1      45.595  29.377  26.915  1.00  0.00     0.049 A 
ATOM     45  C   UNL A   1      41.360  30.978  30.157  1.00  0.00     0.074 A 
ATOM     46  C   UNL A   1      46.655  30.259  26.782  1.00  0.00     0.029 A 
ATOM     47  N   UNL A   1      44.687  29.974  27.775  1.00  0.00    -0.354 N 
ATOM     48  N   UNL A   1      42.421  30.754  29.422  1.00  0.00    -0.248 NA
ATOM     49  C   UNL A   1      41.387  32.256  30.883  1.00  0.00     0.031 C 
ATOM     50  C   UNL A   1      46.408  31.370  27.597  1.00  0.00     0.029 A 
ATOM     51  C   UNL A   1      45.169  31.205  28.192  1.00  0.00     0.049 A 
ATOM     52  H   UNL A   1      43.826  29.582  28.048  1.00  0.00     0.167 HD
ATOM     53  C   UNL A   1      43.240  31.863  29.594  1.00  0.00     0.074 A 
ATOM     54  C   UNL A   1      42.536  32.774  30.472  1.00  0.00     0.031 C 
ATOM     55  C   UNL A   1      44.472  32.098  29.080  1.00  0.00     0.031 A 
BRANCH  42  56
ATOM     56  C   UNL A   1      46.521  27.574  25.414  1.00  0.00    -0.014 A 
ATOM     57  C   UNL A   1      46.673  28.014  24.090  1.00  0.00     0.009 A 
ATOM     58  C   UNL A   1      47.448  26.655  25.933  1.00  0.00     0.009 A 
ATOM     59  C   UNL A   1      47.712  27.518  23.296  1.00  0.00     0.001 A 
ATOM     60  C   UNL A   1      48.499  26.182  25.147  1.00  0.00     0.001 A 
ATOM     61  C   UNL A   1      48.625  26.607  23.827  1.00  0.00     0.000 A 
ENDBRANCH  42  56
BRANCH  43  62
ATOM     62  C   UNL A   1      39.017  30.595  31.202  1.00  0.00    -0.014 A 
ATOM     63  C   UNL A   1      38.971  30.288  32.570  1.00  0.00     0.009 A 
ATOM     64  C   UNL A   1      37.971  31.344  30.639  1.00  0.00     0.009 A 
ATOM     65  C   UNL A   1      37.891  30.706  33.352  1.00  0.00     0.001 A 
ATOM     66  C   UNL A   1      36.911  31.789  31.430  1.00  0.00     0.001 A 
ATOM     67  C   UNL A   1      36.867  31.462  32.784  1.00  0.00     0.000 A 
ENDBRANCH  43  62
BRANCH  55  68
ATOM     68  C   UNL A   1      45.123  33.402  29.446  1.00  0.00    -0.014 A 
ATOM     69  C   UNL A   1      45.953  33.509  30.574  1.00  0.00     0.009 A 
ATOM     70  C   UNL A   1      44.899  34.541  28.657  1.00  0.00     0.009 A 
ATOM     71  C   UNL A   1      46.507  34.742  30.930  1.00  0.00     0.001 A 
ATOM     72  C   UNL A   1      45.477  35.765  29.000  1.00  0.00     0.001 A 
ATOM     73  C   UNL A   1      46.269  35.867  30.143  1.00  0.00     0.000 A 
ENDBRANCH  55  68
ENDBRANCH  29  30
ENDBRANCH  22  24
ENDBRANCH  21  22
ENDBRANCH  20  21
ENDBRANCH   1  20
TORSDOF 15
ENDMDL
MODEL 3
REMARK VINA RESULT:      -9.9      1.400      6.383
REMARK SMILES COc1cc(OC)c([C@@H]2C[C@H]2C(=O)OCCOC(=O)c2ccc(-c3c4nc(c(-c5ccccc5)c5ccc([nH]5)c(-c5ccccc5)c5nc(c(-c6ccccc6)c6ccc3[nH]6)C=C5)C=C4)cc2)c(OC)c1
REMARK SMILES IDX 15 1 14 2 12 3 13 4 11 5 9 6 10 7 8 8 3 9 4 10 71 11 5 12
REMARK SMILES IDX 68 13 2 14 1 15 6 16 7 17 69 18 70 19 16 20 17 21 18 22
REMARK SMILES IDX 19 23 20 24 21 25 67 26 22 27 66 28 23 29 24 30 25 31 60 32
REMARK SMILES IDX 26 33 65 34 59 35 61 36 27 37 64 38 58 39 57 40 28 42 50 43
REMARK SMILES IDX 35 44 49 45 36 46 39 47 48 48 62 49 37 50 38 51 47 53 63 54
REMARK SMILES IDX 40 55 29 56 30 57 34 58 31 59 33 60 32 61 51 62 52 63 56 64
REMARK SMILES IDX 53 65 55 66 54 67 41 68 42 69 46 70 43 71 45 72 44 73
REMARK H PARENT 61 41 39 52
REMARK Flexibility Score: inf
ROOT
ATOM      1  C   UNL A   1      35.408  21.453  25.117  1.00  0.00     0.274 C 
ENDROOT
BRANCH   1   2
ATOM      2  O   UNL A   1      35.402  22.210  26.341  1.00  0.00    -0.462 OA
BRANCH   2   3
ATOM      3  C   UNL A   1      34.234  22.827  26.667  1.00  0.00     0.309 C 
ATOM      4  O   UNL A   1      33.563  22.609  27.665  1.00  0.00    -0.252 OA
BRANCH   3   5
ATOM      5  C   UNL A   1      33.822  23.878  25.693  1.00  0.00     0.107 C 
ATOM      6  C   UNL A   1      33.590  25.314  26.126  1.00  0.00     0.042 C 
ATOM      7  C   UNL A   1      34.779  24.948  25.260  1.00  0.00     0.025 C 
BRANCH   6   8
ATOM      8  C   UNL A   1      32.538  26.289  25.581  1.00  0.00     0.040 A 
ATOM      9  C   UNL A   1      30.607  27.878  24.196  1.00  0.00     0.126 A 
ATOM     10  C   UNL A   1      30.324  26.560  24.512  1.00  0.00     0.093 A 
ATOM     11  C   UNL A   1      31.802  28.439  24.629  1.00  0.00     0.093 A 
ATOM     12  C   UNL A   1      31.268  25.782  25.193  1.00  0.00     0.129 A 
ATOM     13  C   UNL A   1      32.751  27.669  25.330  1.00  0.00     0.129 A 
BRANCH   9  14
ATOM     14  O   UNL A   1      29.645  28.565  23.507  1.00  0.00    -0.496 OA
ATOM     15  C   UNL A   1      30.141  29.293  22.384  1.00  0.00     0.278 C 
ENDBRANCH   9  14
BRANCH  12  16
ATOM     16  O   UNL A   1      30.911  24.458  25.330  1.00  0.00    -0.496 OA
ATOM     17  C   UNL A   1      30.671  23.796  24.090  1.00  0.00     0.278 C 
ENDBRANCH  12  16
BRANCH  13  18
ATOM     18  O   UNL A   1      33.936  28.213  25.760  1.00  0.00    -0.496 OA
ATOM     19  C   UNL A   1      33.914  28.930  26.994  1.00  0.00     0.278 C 
ENDBRANCH  13  18
ENDBRANCH   6   8
ENDBRANCH   3   5
ENDBRANCH   2   3
ENDBRANCH   1   2
BRANCH   1  20
ATOM     20  C   UNL A   1      36.697  20.641  24.996  1.00  0.00     0.275 C 
BRANCH  20  21
ATOM     21  O   UNL A   1      37.839  21.518  24.974  1.00  0.00    -0.458 OA
BRANCH  21  22
ATOM     22  C   UNL A   1      38.861  21.153  25.784  1.00  0.00     0.338 C 
ATOM     23  O   UNL A   1      39.358  20.049  25.910  1.00  0.00    -0.246 OA
BRANCH  22  24
ATOM     24  C   UNL A   1      39.394  22.342  26.461  1.00  0.00     0.060 A 
ATOM     25  C   UNL A   1      38.867  23.577  26.105  1.00  0.00     0.016 A 
ATOM     26  C   UNL A   1      40.489  22.268  27.323  1.00  0.00     0.016 A 
ATOM     27  C   UNL A   1      39.463  24.743  26.567  1.00  0.00     0.010 A 
ATOM     28  C   UNL A   1      41.064  23.451  27.818  1.00  0.00     0.010 A 
ATOM     29  C   UNL A   1      40.578  24.707  27.413  1.00  0.00    -0.014 A 
BRANCH  29  30
ATOM     30  C   UNL A   1      41.241  25.996  27.768  1.00  0.00     0.031 A 
ATOM     31  C   UNL A   1      42.573  26.366  27.164  1.00  0.00     0.074 A 
ATOM     32  C   UNL A   1      40.596  26.900  28.533  1.00  0.00     0.049 A 
ATOM     33  N   UNL A   1      43.285  27.455  27.335  1.00  0.00    -0.248 NA
ATOM     34  C   UNL A   1      43.185  25.392  26.247  1.00  0.00     0.031 C 
ATOM     35  C   UNL A   1      39.276  26.711  29.137  1.00  0.00     0.029 A 
ATOM     36  N   UNL A   1      40.945  28.180  28.896  1.00  0.00    -0.354 N 
ATOM     37  C   UNL A   1      44.443  27.276  26.589  1.00  0.00     0.074 A 
ATOM     38  C   UNL A   1      44.344  25.973  25.967  1.00  0.00     0.031 C 
ATOM     39  C   UNL A   1      38.897  27.852  29.735  1.00  0.00     0.029 A 
ATOM     40  C   UNL A   1      39.976  28.829  29.625  1.00  0.00     0.049 A 
ATOM     41  H   UNL A   1      41.806  28.592  28.658  1.00  0.00     0.167 HD
ATOM     42  C   UNL A   1      45.497  28.115  26.433  1.00  0.00     0.031 A 
ATOM     43  C   UNL A   1      39.956  30.063  30.163  1.00  0.00     0.031 A 
ATOM     44  C   UNL A   1      45.598  29.425  27.023  1.00  0.00     0.049 A 
ATOM     45  C   UNL A   1      41.152  30.959  30.004  1.00  0.00     0.074 A 
ATOM     46  C   UNL A   1      46.632  30.341  26.918  1.00  0.00     0.029 A 
ATOM     47  N   UNL A   1      44.628  30.011  27.819  1.00  0.00    -0.354 N 
ATOM     48  N   UNL A   1      42.256  30.753  29.329  1.00  0.00    -0.248 NA
ATOM     49  C   UNL A   1      41.098  32.256  30.694  1.00  0.00     0.031 C 
ATOM     50  C   UNL A   1      46.307  31.463  27.687  1.00  0.00     0.029 A 
ATOM     51  C   UNL A   1      45.046  31.270  28.225  1.00  0.00     0.049 A 
ATOM     52  H   UNL A   1      43.768  29.597  28.061  1.00  0.00     0.167 HD
ATOM     53  C   UNL A   1      43.027  31.895  29.511  1.00  0.00     0.074 A 
ATOM     54  C   UNL A   1      42.248  32.803  30.326  1.00  0.00     0.031 C 
ATOM     55  C   UNL A   1      44.274  32.160  29.051  1.00  0.00     0.031 A 
BRANCH  42  56
ATOM     56  C   UNL A   1      46.661  27.617  25.621  1.00  0.00    -0.014 A 
ATOM     57  C   UNL A   1      47.675  26.831  26.189  1.00  0.00     0.009 A 
ATOM     58  C   UNL A   1      46.722  27.916  24.250  1.00  0.00     0.009 A 
ATOM     59  C   UNL A   1      48.743  26.382  25.406  1.00  0.00     0.001 A 
ATOM     60  C   UNL A   1      47.774  27.443  23.464  1.00  0.00     0.001 A 
ATOM     61  C   UNL A   1      48.788  26.684  24.045  1.00  0.00     0.000 A 
ENDBRANCH  42  56
BRANCH  43  62
ATOM     62  C   UNL A   1      38.774  30.520  30.942  1.00  0.00    -0.014 A 
ATOM     63  C   UNL A   1      37.719  31.200  30.316  1.00  0.00     0.009 A 
ATOM     64  C   UNL A   1      38.706  30.290  32.326  1.00  0.00     0.009 A 
ATOM     65  C   UNL A   1      36.630  31.658  31.062  1.00  0.00     0.001 A 
ATOM     66  C   UNL A   1      37.602  30.719  33.063  1.00  0.00     0.001 A 
ATOM     67  C   UNL A   1      36.569  31.410  32.432  1.00  0.00     0.000 A 
ENDBRANCH  43  62
BRANCH  55  68
ATOM     68  C   UNL A   1      44.860  33.497  29.412  1.00  0.00    -0.014 A 
ATOM     69  C   UNL A   1      44.663  34.622  28.595  1.00  0.00     0.009 A 
ATOM     70  C   UNL A   1      45.626  33.632  30.580  1.00  0.00     0.009 A 
ATOM     71  C   UNL A   1      45.261  35.843  28.917  1.00  0.00     0.001 A 
ATOM     72  C   UNL A   1      46.198  34.861  30.914  1.00  0.00     0.001 A 
ATOM     73  C   UNL A   1      46.026  35.962  30.076  1.00  0.00     0.000 A 
ENDBRANCH  55  68
ENDBRANCH  29  30
ENDBRANCH  22  24
ENDBRANCH  21  22
ENDBRANCH  20  21
ENDBRANCH   1  20
TORSDOF 15
ENDMDL
