MODEL 1
REMARK VINA RESULT:     -10.8      0.000      0.000
REMARK SMILES Cc1ccc([C@H](C)Nc2ccc(C(=O)OCCOC(=O)c3ccc(-c4c5nc(c(-c6ccccc6)c6ccc([nH]6)c(-c6ccccc6)c6nc(c(-c7ccccc7)c7ccc4[nH]7)C=C6)C=C5)cc3)cc2Cl)cc1F
REMARK SMILES IDX 16 1 15 2 13 3 14 4 12 5 9 6 10 7 70 8 11 9 69 10 71 11 8 12
REMARK SMILES IDX 6 14 7 15 5 16 1 17 2 18 3 19 73 20 4 21 72 22 74 23 17 24
REMARK SMILES IDX 18 25 19 26 20 27 21 28 22 29 68 30 23 31 67 32 24 33 25 34
REMARK SMILES IDX 26 35 61 36 27 37 66 38 60 39 62 40 28 41 65 42 59 43 58 44
REMARK SMILES IDX 29 46 51 47 36 48 50 49 37 50 40 51 49 52 63 53 38 54 39 55
REMARK SMILES IDX 48 57 64 58 41 59 30 60 31 61 35 62 32 63 34 64 33 65 52 66
REMARK SMILES IDX 53 67 57 68 54 69 56 70 55 71 42 72 43 73 47 74 44 75 46 76
REMARK SMILES IDX 45 77
REMARK H PARENT 8 13 62 45 40 56
REMARK Flexibility Score: inf
ROOT
ATOM      1  C   UNL A   1      34.353  34.929  29.010  1.00  0.00     0.275 C 
ENDROOT
BRANCH   1   2
ATOM      2  O   UNL A   1      34.546  33.518  29.234  1.00  0.00    -0.458 OA
BRANCH   2   3
ATOM      3  C   UNL A   1      35.394  32.901  28.376  1.00  0.00     0.338 C 
ATOM      4  O   UNL A   1      36.466  33.315  27.977  1.00  0.00    -0.246 OA
BRANCH   3   5
ATOM      5  C   UNL A   1      34.871  31.570  28.007  1.00  0.00     0.061 A 
ATOM      6  C   UNL A   1      33.955  29.044  27.119  1.00  0.00     0.053 A 
ATOM      7  C   UNL A   1      35.288  29.246  27.492  1.00  0.00     0.028 A 
ATOM      8  C   UNL A   1      33.088  30.157  27.194  1.00  0.00     0.065 A 
ATOM      9  C   UNL A   1      35.746  30.492  27.896  1.00  0.00     0.018 A 
ATOM     10  C   UNL A   1      33.535  31.400  27.669  1.00  0.00     0.038 A 
ATOM     11  Cl  UNL A   1      31.409  30.104  26.780  1.00  0.00    -0.082 Cl
BRANCH   6  12
ATOM     12  N   UNL A   1      33.669  27.772  26.668  1.00  0.00    -0.377 N 
ATOM     13  H   UNL A   1      33.320  27.138  27.336  1.00  0.00     0.161 HD
BRANCH  12  14
ATOM     14  C   UNL A   1      33.824  27.264  25.314  1.00  0.00     0.106 C 
ATOM     15  C   UNL A   1      34.209  25.780  25.440  1.00  0.00     0.036 C 
BRANCH  14  16
ATOM     16  C   UNL A   1      32.553  27.598  24.544  1.00  0.00    -0.023 A 
ATOM     17  C   UNL A   1      28.700  28.665  22.873  1.00  0.00     0.047 C 
ATOM     18  C   UNL A   1      30.046  28.284  23.401  1.00  0.00    -0.015 A 
ATOM     19  C   UNL A   1      31.203  28.999  23.072  1.00  0.00     0.007 A 
ATOM     20  C   UNL A   1      30.157  27.213  24.279  1.00  0.00     0.126 A 
ATOM     21  C   UNL A   1      32.441  28.662  23.640  1.00  0.00     0.006 A 
ATOM     22  C   UNL A   1      31.381  26.868  24.831  1.00  0.00     0.045 A 
ATOM     23  F   UNL A   1      29.068  26.510  24.624  1.00  0.00    -0.207 F 
ENDBRANCH  14  16
ENDBRANCH  12  14
ENDBRANCH   6  12
ENDBRANCH   3   5
ENDBRANCH   2   3
ENDBRANCH   1   2
BRANCH   1  24
ATOM     24  C   UNL A   1      33.012  35.413  29.566  1.00  0.00     0.275 C 
BRANCH  24  25
ATOM     25  O   UNL A   1      33.204  36.343  30.649  1.00  0.00    -0.458 OA
BRANCH  25  26
ATOM     26  C   UNL A   1      32.761  35.913  31.850  1.00  0.00     0.338 C 
ATOM     27  O   UNL A   1      31.637  36.022  32.314  1.00  0.00    -0.246 OA
BRANCH  26  28
ATOM     28  C   UNL A   1      33.811  35.162  32.549  1.00  0.00     0.060 A 
ATOM     29  C   UNL A   1      35.080  35.720  32.582  1.00  0.00     0.016 A 
ATOM     30  C   UNL A   1      33.625  33.842  32.945  1.00  0.00     0.016 A 
ATOM     31  C   UNL A   1      36.192  34.926  32.820  1.00  0.00     0.010 A 
ATOM     32  C   UNL A   1      34.734  33.090  33.361  1.00  0.00     0.010 A 
ATOM     33  C   UNL A   1      36.041  33.605  33.252  1.00  0.00    -0.014 A 
BRANCH  33  34
ATOM     34  C   UNL A   1      37.242  32.781  33.578  1.00  0.00     0.031 A 
ATOM     35  C   UNL A   1      37.949  32.944  34.901  1.00  0.00     0.074 A 
ATOM     36  C   UNL A   1      37.702  31.869  32.694  1.00  0.00     0.049 A 
ATOM     37  N   UNL A   1      39.104  32.459  35.287  1.00  0.00    -0.248 NA
ATOM     38  C   UNL A   1      37.282  33.773  35.918  1.00  0.00     0.031 C 
ATOM     39  C   UNL A   1      37.094  31.554  31.397  1.00  0.00     0.029 A 
ATOM     40  N   UNL A   1      38.787  31.029  32.753  1.00  0.00    -0.354 N 
ATOM     41  C   UNL A   1      39.329  32.976  36.559  1.00  0.00     0.074 A 
ATOM     42  C   UNL A   1      38.196  33.818  36.877  1.00  0.00     0.031 C 
ATOM     43  C   UNL A   1      37.777  30.561  30.814  1.00  0.00     0.029 A 
ATOM     44  C   UNL A   1      38.942  30.251  31.629  1.00  0.00     0.049 A 
ATOM     45  H   UNL A   1      39.395  30.986  33.527  1.00  0.00     0.167 HD
ATOM     46  C   UNL A   1      40.386  32.772  37.383  1.00  0.00     0.031 A 
ATOM     47  C   UNL A   1      39.936  29.426  31.254  1.00  0.00     0.031 A 
ATOM     48  C   UNL A   1      41.495  31.905  37.075  1.00  0.00     0.049 A 
ATOM     49  C   UNL A   1      41.128  29.272  32.152  1.00  0.00     0.074 A 
ATOM     50  C   UNL A   1      42.607  31.619  37.849  1.00  0.00     0.029 A 
ATOM     51  N   UNL A   1      41.629  31.179  35.901  1.00  0.00    -0.354 N 
ATOM     52  N   UNL A   1      41.347  29.802  33.329  1.00  0.00    -0.248 NA
ATOM     53  C   UNL A   1      42.214  28.414  31.661  1.00  0.00     0.031 C 
ATOM     54  C   UNL A   1      43.441  30.767  37.120  1.00  0.00     0.029 A 
ATOM     55  C   UNL A   1      42.817  30.465  35.921  1.00  0.00     0.049 A 
ATOM     56  H   UNL A   1      40.977  31.170  35.164  1.00  0.00     0.167 HD
ATOM     57  C   UNL A   1      42.587  29.325  33.732  1.00  0.00     0.074 A 
ATOM     58  C   UNL A   1      43.059  28.446  32.681  1.00  0.00     0.031 C 
ATOM     59  C   UNL A   1      43.274  29.594  34.869  1.00  0.00     0.031 A 
BRANCH  46  60
ATOM     60  C   UNL A   1      40.422  33.538  38.680  1.00  0.00    -0.014 A 
ATOM     61  C   UNL A   1      39.873  33.021  39.863  1.00  0.00     0.009 A 
ATOM     62  C   UNL A   1      41.053  34.793  38.720  1.00  0.00     0.009 A 
ATOM     63  C   UNL A   1      39.922  33.761  41.049  1.00  0.00     0.001 A 
ATOM     64  C   UNL A   1      41.130  35.516  39.912  1.00  0.00     0.001 A 
ATOM     65  C   UNL A   1      40.555  35.004  41.073  1.00  0.00     0.000 A 
ENDBRANCH  46  60
BRANCH  47  66
ATOM     66  C   UNL A   1      39.875  28.737  29.937  1.00  0.00    -0.014 A 
ATOM     67  C   UNL A   1      40.286  29.393  28.766  1.00  0.00     0.009 A 
ATOM     68  C   UNL A   1      39.410  27.414  29.843  1.00  0.00     0.009 A 
ATOM     69  C   UNL A   1      40.212  28.746  27.530  1.00  0.00     0.001 A 
ATOM     70  C   UNL A   1      39.374  26.757  28.612  1.00  0.00     0.001 A 
ATOM     71  C   UNL A   1      39.765  27.427  27.455  1.00  0.00     0.000 A 
ENDBRANCH  47  66
BRANCH  59  72
ATOM     72  C   UNL A   1      44.587  28.888  35.055  1.00  0.00    -0.014 A 
ATOM     73  C   UNL A   1      44.661  27.623  35.657  1.00  0.00     0.009 A 
ATOM     74  C   UNL A   1      45.767  29.494  34.595  1.00  0.00     0.009 A 
ATOM     75  C   UNL A   1      45.897  26.995  35.827  1.00  0.00     0.001 A 
ATOM     76  C   UNL A   1      46.996  28.850  34.736  1.00  0.00     0.001 A 
ATOM     77  C   UNL A   1      47.062  27.607  35.362  1.00  0.00     0.000 A 
ENDBRANCH  59  72
ENDBRANCH  33  34
ENDBRANCH  26  28
ENDBRANCH  25  26
ENDBRANCH  24  25
ENDBRANCH   1  24
TORSDOF 14
ENDMDL
MODEL 2
REMARK VINA RESULT:     -10.6      5.925      9.737
REMARK SMILES Cc1ccc([C@H](C)Nc2ccc(C(=O)OCCOC(=O)c3ccc(-c4c5nc(c(-c6ccccc6)c6ccc([nH]6)c(-c6ccccc6)c6nc(c(-c7ccccc7)c7ccc4[nH]7)C=C6)C=C5)cc3)cc2Cl)cc1F
REMARK SMILES IDX 16 1 15 2 13 3 14 4 12 5 9 6 10 7 70 8 11 9 69 10 71 11 8 12
REMARK SMILES IDX 6 14 7 15 5 16 1 17 2 18 3 19 73 20 4 21 72 22 74 23 17 24
REMARK SMILES IDX 18 25 19 26 20 27 21 28 22 29 68 30 23 31 67 32 24 33 25 34
REMARK SMILES IDX 26 35 61 36 27 37 66 38 60 39 62 40 28 41 65 42 59 43 58 44
REMARK SMILES IDX 29 46 51 47 36 48 50 49 37 50 40 51 49 52 63 53 38 54 39 55
REMARK SMILES IDX 48 57 64 58 41 59 30 60 31 61 35 62 32 63 34 64 33 65 52 66
REMARK SMILES IDX 53 67 57 68 54 69 56 70 55 71 42 72 43 73 47 74 44 75 46 76
REMARK SMILES IDX 45 77
REMARK H PARENT 8 13 62 45 40 56
REMARK Flexibility Score: inf
ROOT
ATOM      1  C   UNL A   1      35.229  20.409  25.342  1.00  0.00     0.275 C 
ENDROOT
BRANCH   1   2
ATOM      2  O   UNL A   1      34.368  19.496  24.630  1.00  0.00    -0.458 OA
BRANCH   2   3
ATOM      3  C   UNL A   1      33.053  19.566  24.946  1.00  0.00     0.338 C 
ATOM      4  O   UNL A   1      32.408  18.764  25.595  1.00  0.00    -0.246 OA
BRANCH   3   5
ATOM      5  C   UNL A   1      32.471  20.825  24.439  1.00  0.00     0.061 A 
ATOM      6  C   UNL A   1      31.542  23.312  23.459  1.00  0.00     0.053 A 
ATOM      7  C   UNL A   1      32.167  22.386  22.618  1.00  0.00     0.028 A 
ATOM      8  C   UNL A   1      31.403  22.958  24.821  1.00  0.00     0.065 A 
ATOM      9  C   UNL A   1      32.652  21.180  23.104  1.00  0.00     0.018 A 
ATOM     10  C   UNL A   1      31.832  21.710  25.297  1.00  0.00     0.038 A 
ATOM     11  Cl  UNL A   1      30.657  23.969  26.010  1.00  0.00    -0.082 Cl
BRANCH   6  12
ATOM     12  N   UNL A   1      31.182  24.496  22.848  1.00  0.00    -0.377 N 
ATOM     13  H   UNL A   1      30.440  24.448  22.203  1.00  0.00     0.161 HD
BRANCH  12  14
ATOM     14  C   UNL A   1      31.779  25.806  23.052  1.00  0.00     0.106 C 
ATOM     15  C   UNL A   1      32.829  25.990  21.942  1.00  0.00     0.036 C 
BRANCH  14  16
ATOM     16  C   UNL A   1      30.649  26.825  23.125  1.00  0.00    -0.023 A 
ATOM     17  C   UNL A   1      27.398  29.666  22.756  1.00  0.00     0.047 C 
ATOM     18  C   UNL A   1      28.522  28.696  22.936  1.00  0.00    -0.015 A 
ATOM     19  C   UNL A   1      28.377  27.520  23.680  1.00  0.00     0.007 A 
ATOM     20  C   UNL A   1      29.740  28.941  22.315  1.00  0.00     0.126 A 
ATOM     21  C   UNL A   1      29.427  26.593  23.770  1.00  0.00     0.006 A 
ATOM     22  C   UNL A   1      30.785  28.035  22.413  1.00  0.00     0.045 A 
ATOM     23  F   UNL A   1      29.913  30.053  21.586  1.00  0.00    -0.207 F 
ENDBRANCH  14  16
ENDBRANCH  12  14
ENDBRANCH   6  12
ENDBRANCH   3   5
ENDBRANCH   2   3
ENDBRANCH   1   2
BRANCH   1  24
ATOM     24  C   UNL A   1      36.702  20.182  25.001  1.00  0.00     0.275 C 
BRANCH  24  25
ATOM     25  O   UNL A   1      37.497  21.335  25.338  1.00  0.00    -0.458 OA
BRANCH  25  26
ATOM     26  C   UNL A   1      38.724  21.055  25.827  1.00  0.00     0.338 C 
ATOM     27  O   UNL A   1      39.376  20.036  25.667  1.00  0.00    -0.246 OA
BRANCH  26  28
ATOM     28  C   UNL A   1      39.276  22.216  26.536  1.00  0.00     0.060 A 
ATOM     29  C   UNL A   1      38.721  23.456  26.259  1.00  0.00     0.016 A 
ATOM     30  C   UNL A   1      40.460  22.134  27.261  1.00  0.00     0.016 A 
ATOM     31  C   UNL A   1      39.428  24.619  26.528  1.00  0.00     0.010 A 
ATOM     32  C   UNL A   1      41.082  23.315  27.690  1.00  0.00     0.010 A 
ATOM     33  C   UNL A   1      40.604  24.576  27.282  1.00  0.00    -0.014 A 
BRANCH  33  34
ATOM     34  C   UNL A   1      41.317  25.840  27.630  1.00  0.00     0.031 A 
ATOM     35  C   UNL A   1      40.680  26.854  28.549  1.00  0.00     0.074 A 
ATOM     36  C   UNL A   1      42.549  26.085  27.134  1.00  0.00     0.049 A 
ATOM     37  N   UNL A   1      41.058  28.080  28.816  1.00  0.00    -0.248 NA
ATOM     38  C   UNL A   1      39.449  26.445  29.245  1.00  0.00     0.031 C 
ATOM     39  C   UNL A   1      43.322  25.177  26.279  1.00  0.00     0.029 A 
ATOM     40  N   UNL A   1      43.379  27.170  27.283  1.00  0.00    -0.354 N 
ATOM     41  C   UNL A   1      40.080  28.607  29.655  1.00  0.00     0.074 A 
ATOM     42  C   UNL A   1      39.089  27.570  29.846  1.00  0.00     0.031 C 
ATOM     43  C   UNL A   1      44.522  25.715  26.027  1.00  0.00     0.029 A 
ATOM     44  C   UNL A   1      44.563  27.055  26.593  1.00  0.00     0.049 A 
ATOM     45  H   UNL A   1      43.148  27.954  27.832  1.00  0.00     0.167 HD
ATOM     46  C   UNL A   1      40.013  29.841  30.210  1.00  0.00     0.031 A 
ATOM     47  C   UNL A   1      45.552  27.942  26.378  1.00  0.00     0.031 A 
ATOM     48  C   UNL A   1      41.021  30.858  30.044  1.00  0.00     0.049 A 
ATOM     49  C   UNL A   1      45.420  29.325  26.944  1.00  0.00     0.074 A 
ATOM     50  C   UNL A   1      41.053  32.135  30.576  1.00  0.00     0.029 A 
ATOM     51  N   UNL A   1      42.178  30.709  29.293  1.00  0.00    -0.354 N 
ATOM     52  N   UNL A   1      44.470  29.821  27.696  1.00  0.00    -0.248 NA
ATOM     53  C   UNL A   1      46.494  30.273  26.620  1.00  0.00     0.031 C 
ATOM     54  C   UNL A   1      42.200  32.779  30.100  1.00  0.00     0.029 A 
ATOM     55  C   UNL A   1      42.918  31.880  29.329  1.00  0.00     0.049 A 
ATOM     56  H   UNL A   1      42.436  29.893  28.808  1.00  0.00     0.167 HD
ATOM     57  C   UNL A   1      44.840  31.133  27.954  1.00  0.00     0.074 A 
ATOM     58  C   UNL A   1      46.113  31.346  27.296  1.00  0.00     0.031 C 
ATOM     59  C   UNL A   1      44.183  32.078  28.670  1.00  0.00     0.031 A 
BRANCH  46  60
ATOM     60  C   UNL A   1      38.784  30.184  31.010  1.00  0.00    -0.014 A 
ATOM     61  C   UNL A   1      38.727  30.002  32.399  1.00  0.00     0.009 A 
ATOM     62  C   UNL A   1      37.669  30.737  30.356  1.00  0.00     0.009 A 
ATOM     63  C   UNL A   1      37.568  30.330  33.110  1.00  0.00     0.001 A 
ATOM     64  C   UNL A   1      36.525  31.094  31.071  1.00  0.00     0.001 A 
ATOM     65  C   UNL A   1      36.472  30.879  32.447  1.00  0.00     0.000 A 
ENDBRANCH  46  60
BRANCH  47  66
ATOM     66  C   UNL A   1      46.718  27.568  25.534  1.00  0.00    -0.014 A 
ATOM     67  C   UNL A   1      47.809  26.879  26.084  1.00  0.00     0.009 A 
ATOM     68  C   UNL A   1      46.743  27.893  24.166  1.00  0.00     0.009 A 
ATOM     69  C   UNL A   1      48.908  26.544  25.288  1.00  0.00     0.001 A 
ATOM     70  C   UNL A   1      47.825  27.523  23.366  1.00  0.00     0.001 A 
ATOM     71  C   UNL A   1      48.912  26.858  23.930  1.00  0.00     0.000 A 
ENDBRANCH  47  66
BRANCH  59  72
ATOM     72  C   UNL A   1      44.857  33.412  28.819  1.00  0.00    -0.014 A 
ATOM     73  C   UNL A   1      44.470  34.520  28.051  1.00  0.00     0.009 A 
ATOM     74  C   UNL A   1      45.883  33.565  29.765  1.00  0.00     0.009 A 
ATOM     75  C   UNL A   1      45.122  35.746  28.201  1.00  0.00     0.001 A 
ATOM     76  C   UNL A   1      46.510  34.799  29.938  1.00  0.00     0.001 A 
ATOM     77  C   UNL A   1      46.137  35.885  29.148  1.00  0.00     0.000 A 
ENDBRANCH  59  72
ENDBRANCH  33  34
ENDBRANCH  26  28
ENDBRANCH  25  26
ENDBRANCH  24  25
ENDBRANCH   1  24
TORSDOF 14
ENDMDL
MODEL 3
REMARK VINA RESULT:     -10.6      4.511      7.080
REMARK SMILES Cc1ccc([C@H](C)Nc2ccc(C(=O)OCCOC(=O)c3ccc(-c4c5nc(c(-c6ccccc6)c6ccc([nH]6)c(-c6ccccc6)c6nc(c(-c7ccccc7)c7ccc4[nH]7)C=C6)C=C5)cc3)cc2Cl)cc1F
REMARK SMILES IDX 16 1 15 2 13 3 14 4 12 5 9 6 10 7 70 8 11 9 69 10 71 11 8 12
REMARK SMILES IDX 6 14 7 15 5 16 1 17 2 18 3 19 73 20 4 21 72 22 74 23 17 24
REMARK SMILES IDX 18 25 19 26 20 27 21 28 22 29 68 30 23 31 67 32 24 33 25 34
REMARK SMILES IDX 26 35 61 36 27 37 66 38 60 39 62 40 28 41 65 42 59 43 58 44
REMARK SMILES IDX 29 46 51 47 36 48 50 49 37 50 40 51 49 52 63 53 38 54 39 55
REMARK SMILES IDX 48 57 64 58 41 59 30 60 31 61 35 62 32 63 34 64 33 65 52 66
REMARK SMILES IDX 53 67 57 68 54 69 56 70 55 71 42 72 43 73 47 74 44 75 46 76
REMARK SMILES IDX 45 77
REMARK H PARENT 8 13 62 45 40 56
REMARK Flexibility Score: inf
ROOT
ATOM      1  C   UNL A   1      34.087  34.173  30.058  1.00  0.00     0.275 C 
ENDROOT
BRANCH   1   2
ATOM      2  O   UNL A   1      33.825  32.916  29.401  1.00  0.00    -0.458 OA
BRANCH   2   3
ATOM      3  C   UNL A   1      34.421  32.752  28.195  1.00  0.00     0.338 C 
ATOM      4  O   UNL A   1      35.199  33.511  27.650  1.00  0.00    -0.246 OA
BRANCH   3   5
ATOM      5  C   UNL A   1      34.046  31.448  27.612  1.00  0.00     0.061 A 
ATOM      6  C   UNL A   1      33.466  28.981  26.352  1.00  0.00     0.053 A 
ATOM      7  C   UNL A   1      34.614  29.148  27.133  1.00  0.00     0.028 A 
ATOM      8  C   UNL A   1      32.613  30.100  26.209  1.00  0.00     0.065 A 
ATOM      9  C   UNL A   1      34.916  30.366  27.724  1.00  0.00     0.018 A 
ATOM     10  C   UNL A   1      32.884  31.312  26.864  1.00  0.00     0.038 A 
ATOM     11  Cl  UNL A   1      31.149  30.088  25.288  1.00  0.00    -0.082 Cl
BRANCH   6  12
ATOM     12  N   UNL A   1      33.340  27.737  25.768  1.00  0.00    -0.377 N 
ATOM     13  H   UNL A   1      33.737  27.631  24.873  1.00  0.00     0.161 HD
BRANCH  12  14
ATOM     14  C   UNL A   1      32.687  26.566  26.330  1.00  0.00     0.106 C 
ATOM     15  C   UNL A   1      31.237  26.579  25.813  1.00  0.00     0.036 C 
BRANCH  14  16
ATOM     16  C   UNL A   1      33.541  25.351  25.992  1.00  0.00    -0.023 A 
ATOM     17  C   UNL A   1      35.514  21.707  24.722  1.00  0.00     0.047 C 
ATOM     18  C   UNL A   1      34.876  22.977  25.190  1.00  0.00    -0.015 A 
ATOM     19  C   UNL A   1      35.380  24.234  24.840  1.00  0.00     0.007 A 
ATOM     20  C   UNL A   1      33.722  22.917  25.962  1.00  0.00     0.126 A 
ATOM     21  C   UNL A   1      34.718  25.408  25.234  1.00  0.00     0.006 A 
ATOM     22  C   UNL A   1      33.073  24.073  26.364  1.00  0.00     0.045 A 
ATOM     23  F   UNL A   1      33.206  21.729  26.309  1.00  0.00    -0.207 F 
ENDBRANCH  14  16
ENDBRANCH  12  14
ENDBRANCH   6  12
ENDBRANCH   3   5
ENDBRANCH   2   3
ENDBRANCH   1   2
BRANCH   1  24
ATOM     24  C   UNL A   1      34.347  33.986  31.554  1.00  0.00     0.275 C 
BRANCH  24  25
ATOM     25  O   UNL A   1      34.505  32.593  31.884  1.00  0.00    -0.458 OA
BRANCH  25  26
ATOM     26  C   UNL A   1      35.609  32.302  32.604  1.00  0.00     0.338 C 
ATOM     27  O   UNL A   1      35.819  32.548  33.781  1.00  0.00    -0.246 OA
BRANCH  26  28
ATOM     28  C   UNL A   1      36.558  31.520  31.802  1.00  0.00     0.060 A 
ATOM     29  C   UNL A   1      37.425  30.677  32.482  1.00  0.00     0.016 A 
ATOM     30  C   UNL A   1      36.766  31.785  30.452  1.00  0.00     0.016 A 
ATOM     31  C   UNL A   1      38.601  30.248  31.885  1.00  0.00     0.010 A 
ATOM     32  C   UNL A   1      37.863  31.201  29.802  1.00  0.00     0.010 A 
ATOM     33  C   UNL A   1      38.828  30.468  30.523  1.00  0.00    -0.014 A 
BRANCH  33  34
ATOM     34  C   UNL A   1      40.062  29.937  29.873  1.00  0.00     0.031 A 
ATOM     35  C   UNL A   1      41.305  30.786  29.774  1.00  0.00     0.074 A 
ATOM     36  C   UNL A   1      40.082  28.680  29.377  1.00  0.00     0.049 A 
ATOM     37  N   UNL A   1      42.401  30.571  29.088  1.00  0.00    -0.248 NA
ATOM     38  C   UNL A   1      41.313  32.050  30.528  1.00  0.00     0.031 C 
ATOM     39  C   UNL A   1      38.979  27.716  29.447  1.00  0.00     0.029 A 
ATOM     40  N   UNL A   1      41.071  27.990  28.719  1.00  0.00    -0.354 N 
ATOM     41  C   UNL A   1      43.196  31.697  29.276  1.00  0.00     0.074 A 
ATOM     42  C   UNL A   1      42.454  32.597  30.133  1.00  0.00     0.031 C 
ATOM     43  C   UNL A   1      39.368  26.553  28.910  1.00  0.00     0.029 A 
ATOM     44  C   UNL A   1      40.699  26.720  28.345  1.00  0.00     0.049 A 
ATOM     45  H   UNL A   1      41.962  28.368  28.535  1.00  0.00     0.167 HD
ATOM     46  C   UNL A   1      44.428  31.959  28.777  1.00  0.00     0.031 A 
ATOM     47  C   UNL A   1      41.321  25.805  27.578  1.00  0.00     0.031 A 
ATOM     48  C   UNL A   1      45.177  31.045  27.952  1.00  0.00     0.049 A 
ATOM     49  C   UNL A   1      42.652  26.147  26.979  1.00  0.00     0.074 A 
ATOM     50  C   UNL A   1      46.439  31.210  27.408  1.00  0.00     0.029 A 
ATOM     51  N   UNL A   1      44.734  29.791  27.559  1.00  0.00    -0.354 N 
ATOM     52  N   UNL A   1      43.370  27.233  27.128  1.00  0.00    -0.248 NA
ATOM     53  C   UNL A   1      43.253  25.140  26.094  1.00  0.00     0.031 C 
ATOM     54  C   UNL A   1      46.735  30.081  26.637  1.00  0.00     0.029 A 
ATOM     55  C   UNL A   1      45.688  29.182  26.759  1.00  0.00     0.049 A 
ATOM     56  H   UNL A   1      43.871  29.391  27.811  1.00  0.00     0.167 HD
ATOM     57  C   UNL A   1      44.518  27.032  26.374  1.00  0.00     0.074 A 
ATOM     58  C   UNL A   1      44.408  25.712  25.788  1.00  0.00     0.031 C 
ATOM     59  C   UNL A   1      45.567  27.868  26.183  1.00  0.00     0.031 A 
BRANCH  46  60
ATOM     60  C   UNL A   1      45.028  33.311  29.063  1.00  0.00    -0.014 A 
ATOM     61  C   UNL A   1      45.762  33.565  30.232  1.00  0.00     0.009 A 
ATOM     62  C   UNL A   1      44.883  34.342  28.120  1.00  0.00     0.009 A 
ATOM     63  C   UNL A   1      46.303  34.833  30.467  1.00  0.00     0.001 A 
ATOM     64  C   UNL A   1      45.452  35.598  28.342  1.00  0.00     0.001 A 
ATOM     65  C   UNL A   1      46.152  35.845  29.520  1.00  0.00     0.000 A 
ENDBRANCH  46  60
BRANCH  47  66
ATOM     66  C   UNL A   1      40.657  24.508  27.281  1.00  0.00    -0.014 A 
ATOM     67  C   UNL A   1      39.487  24.462  26.508  1.00  0.00     0.009 A 
ATOM     68  C   UNL A   1      41.195  23.302  27.766  1.00  0.00     0.009 A 
ATOM     69  C   UNL A   1      38.860  23.241  26.246  1.00  0.00     0.001 A 
ATOM     70  C   UNL A   1      40.588  22.081  27.469  1.00  0.00     0.001 A 
ATOM     71  C   UNL A   1      39.415  22.052  26.718  1.00  0.00     0.000 A 
ENDBRANCH  47  66
BRANCH  59  72
ATOM     72  C   UNL A   1      46.703  27.356  25.343  1.00  0.00    -0.014 A 
ATOM     73  C   UNL A   1      47.549  26.334  25.799  1.00  0.00     0.009 A 
ATOM     74  C   UNL A   1      46.909  27.891  24.062  1.00  0.00     0.009 A 
ATOM     75  C   UNL A   1      48.605  25.885  25.002  1.00  0.00     0.001 A 
ATOM     76  C   UNL A   1      47.943  27.417  23.254  1.00  0.00     0.001 A 
ATOM     77  C   UNL A   1      48.797  26.423  23.729  1.00  0.00     0.000 A 
ENDBRANCH  59  72
ENDBRANCH  33  34
ENDBRANCH  26  28
ENDBRANCH  25  26
ENDBRANCH  24  25
ENDBRANCH   1  24
TORSDOF 14
ENDMDL
