MODEL 1
REMARK VINA RESULT:     -10.1      0.000      0.000
REMARK SMILES O=C(N[C@@H](CS)C(=O)N[C@@H](CO)C(=O)OCCOC(=O)c1ccc(-c2c3nc(c(-c4ccccc4)c4ccc([nH]4)c(-c4ccccc4)c4nc(c(-c5ccccc5)c5ccc2[nH]5)C=C4)C=C3)cc1)c1ccc(F)cc1
REMARK SMILES IDX 16 1 15 2 13 3 14 4 10 5 9 6 7 7 8 8 4 10 3 11 1 12 2 13
REMARK SMILES IDX 69 15 70 16 75 17 71 18 74 19 72 20 73 21 5 22 6 23 11 25
REMARK SMILES IDX 12 26 17 28 18 29 19 30 20 31 21 32 22 33 68 34 23 35 67 36
REMARK SMILES IDX 24 37 25 38 26 39 61 40 27 41 66 42 60 43 62 44 28 45 65 46
REMARK SMILES IDX 59 47 58 48 29 50 51 51 36 52 50 53 37 54 40 55 49 56 63 57
REMARK SMILES IDX 38 58 39 59 48 61 64 62 41 63 30 64 31 65 35 66 32 67 34 68
REMARK SMILES IDX 33 69 52 70 53 71 57 72 54 73 56 74 55 75 42 76 43 77 47 78
REMARK SMILES IDX 44 79 46 80 45 81
REMARK H PARENT 9 9 3 14 6 24 12 27 62 49 40 60
REMARK Flexibility Score: inf
ROOT
ATOM      1  C   UNL A   1      32.513  28.601  25.235  1.00  0.00     0.274 C 
ENDROOT
BRANCH   1   2
ATOM      2  O   UNL A   1      31.348  27.750  25.186  1.00  0.00    -0.460 OA
BRANCH   2   3
ATOM      3  C   UNL A   1      31.220  26.829  26.187  1.00  0.00     0.331 C 
ATOM      4  O   UNL A   1      31.027  27.096  27.367  1.00  0.00    -0.250 OA
BRANCH   3   5
ATOM      5  C   UNL A   1      31.471  25.397  25.680  1.00  0.00     0.218 C 
BRANCH   5   6
ATOM      6  N   UNL A   1      31.564  24.423  26.777  1.00  0.00    -0.339 N 
ATOM      7  C   UNL A   1      32.283  23.293  26.969  1.00  0.00     0.244 C 
ATOM      8  O   UNL A   1      32.263  22.832  28.117  1.00  0.00    -0.273 OA
ATOM      9  H   UNL A   1      30.976  24.639  27.535  1.00  0.00     0.164 HD
BRANCH   7  10
ATOM     10  C   UNL A   1      33.198  22.631  25.914  1.00  0.00     0.181 C 
BRANCH  10  11
ATOM     11  N   UNL A   1      34.562  23.161  25.815  1.00  0.00    -0.339 N 
ATOM     12  O   UNL A   1      36.364  23.998  24.763  1.00  0.00    -0.269 OA
ATOM     13  C   UNL A   1      35.147  23.846  24.773  1.00  0.00     0.251 C 
ATOM     14  H   UNL A   1      35.137  23.006  26.599  1.00  0.00     0.164 HD
BRANCH  13  15
ATOM     15  C   UNL A   1      34.338  24.333  23.629  1.00  0.00     0.040 A 
ATOM     16  C   UNL A   1      33.749  23.439  22.728  1.00  0.00     0.017 A 
ATOM     17  C   UNL A   1      34.115  25.711  23.494  1.00  0.00     0.017 A 
ATOM     18  C   UNL A   1      32.992  23.925  21.659  1.00  0.00     0.040 A 
ATOM     19  C   UNL A   1      33.347  26.193  22.431  1.00  0.00     0.040 A 
ATOM     20  C   UNL A   1      32.801  25.295  21.519  1.00  0.00     0.123 A 
ATOM     21  F   UNL A   1      32.069  25.755  20.496  1.00  0.00    -0.207 F 
ENDBRANCH  13  15
ENDBRANCH  10  11
BRANCH  10  22
ATOM     22  C   UNL A   1      33.107  21.096  25.992  1.00  0.00     0.101 C 
BRANCH  22  23
ATOM     23  S   UNL A   1      34.247  20.197  24.901  1.00  0.00    -0.177 SA
ATOM     24  H   UNL A   1      33.707  18.990  24.577  1.00  0.00     0.102 HD
ENDBRANCH  22  23
ENDBRANCH  10  22
ENDBRANCH   7  10
ENDBRANCH   5   6
BRANCH   5  25
ATOM     25  C   UNL A   1      30.304  25.043  24.747  1.00  0.00     0.193 C 
BRANCH  25  26
ATOM     26  O   UNL A   1      29.124  25.773  25.095  1.00  0.00    -0.394 OA
ATOM     27  H   UNL A   1      28.533  25.204  25.613  1.00  0.00     0.210 HD
ENDBRANCH  25  26
ENDBRANCH   5  25
ENDBRANCH   3   5
ENDBRANCH   2   3
ENDBRANCH   1   2
BRANCH   1  28
ATOM     28  C   UNL A   1      32.105  30.047  25.498  1.00  0.00     0.275 C 
BRANCH  28  29
ATOM     29  O   UNL A   1      32.274  30.328  26.897  1.00  0.00    -0.458 OA
BRANCH  29  30
ATOM     30  C   UNL A   1      32.962  31.448  27.206  1.00  0.00     0.338 C 
ATOM     31  O   UNL A   1      32.539  32.597  27.206  1.00  0.00    -0.246 OA
BRANCH  30  32
ATOM     32  C   UNL A   1      34.344  31.103  27.598  1.00  0.00     0.060 A 
ATOM     33  C   UNL A   1      34.705  29.779  27.826  1.00  0.00     0.016 A 
ATOM     34  C   UNL A   1      35.255  32.124  27.882  1.00  0.00     0.016 A 
ATOM     35  C   UNL A   1      35.923  29.496  28.453  1.00  0.00     0.010 A 
ATOM     36  C   UNL A   1      36.512  31.819  28.423  1.00  0.00     0.010 A 
ATOM     37  C   UNL A   1      36.846  30.503  28.783  1.00  0.00    -0.014 A 
BRANCH  37  38
ATOM     38  C   UNL A   1      38.093  30.201  29.567  1.00  0.00     0.031 A 
ATOM     39  C   UNL A   1      39.240  29.432  28.939  1.00  0.00     0.074 A 
ATOM     40  C   UNL A   1      38.261  30.635  30.836  1.00  0.00     0.049 A 
ATOM     41  N   UNL A   1      40.252  28.830  29.521  1.00  0.00    -0.248 NA
ATOM     42  C   UNL A   1      39.245  29.305  27.473  1.00  0.00     0.031 C 
ATOM     43  C   UNL A   1      37.318  31.453  31.597  1.00  0.00     0.029 A 
ATOM     44  N   UNL A   1      39.312  30.455  31.710  1.00  0.00    -0.354 N 
ATOM     45  C   UNL A   1      40.944  28.172  28.509  1.00  0.00     0.074 A 
ATOM     46  C   UNL A   1      40.256  28.471  27.271  1.00  0.00     0.031 C 
ATOM     47  C   UNL A   1      37.863  31.780  32.775  1.00  0.00     0.029 A 
ATOM     48  C   UNL A   1      39.125  31.068  32.925  1.00  0.00     0.049 A 
ATOM     49  H   UNL A   1      40.119  29.939  31.484  1.00  0.00     0.167 HD
ATOM     50  C   UNL A   1      42.041  27.379  28.603  1.00  0.00     0.031 A 
ATOM     51  C   UNL A   1      39.831  31.015  34.071  1.00  0.00     0.031 A 
ATOM     52  C   UNL A   1      42.792  27.160  29.813  1.00  0.00     0.049 A 
ATOM     53  C   UNL A   1      41.028  30.118  34.168  1.00  0.00     0.074 A 
ATOM     54  C   UNL A   1      43.925  26.380  29.996  1.00  0.00     0.029 A 
ATOM     55  N   UNL A   1      42.518  27.751  31.034  1.00  0.00    -0.354 N 
ATOM     56  N   UNL A   1      41.576  29.373  33.240  1.00  0.00    -0.248 NA
ATOM     57  C   UNL A   1      41.675  30.020  35.484  1.00  0.00     0.031 C 
ATOM     58  C   UNL A   1      44.316  26.476  31.336  1.00  0.00     0.029 A 
ATOM     59  C   UNL A   1      43.454  27.352  31.974  1.00  0.00     0.049 A 
ATOM     60  H   UNL A   1      41.767  28.364  31.208  1.00  0.00     0.167 HD
ATOM     61  C   UNL A   1      42.625  28.711  33.863  1.00  0.00     0.074 A 
ATOM     62  C   UNL A   1      42.657  29.164  35.237  1.00  0.00     0.031 C 
ATOM     63  C   UNL A   1      43.475  27.795  33.341  1.00  0.00     0.031 A 
BRANCH  50  64
ATOM     64  C   UNL A   1      42.484  26.632  27.374  1.00  0.00    -0.014 A 
ATOM     65  C   UNL A   1      43.465  27.136  26.508  1.00  0.00     0.009 A 
ATOM     66  C   UNL A   1      41.964  25.348  27.136  1.00  0.00     0.009 A 
ATOM     67  C   UNL A   1      43.900  26.376  25.419  1.00  0.00     0.001 A 
ATOM     68  C   UNL A   1      42.421  24.580  26.064  1.00  0.00     0.001 A 
ATOM     69  C   UNL A   1      43.384  25.097  25.202  1.00  0.00     0.000 A 
ENDBRANCH  50  64
BRANCH  51  70
ATOM     70  C   UNL A   1      39.345  31.758  35.264  1.00  0.00    -0.014 A 
ATOM     71  C   UNL A   1      39.758  33.075  35.505  1.00  0.00     0.009 A 
ATOM     72  C   UNL A   1      38.436  31.156  36.149  1.00  0.00     0.009 A 
ATOM     73  C   UNL A   1      39.265  33.776  36.609  1.00  0.00     0.001 A 
ATOM     74  C   UNL A   1      37.917  31.870  37.228  1.00  0.00     0.001 A 
ATOM     75  C   UNL A   1      38.336  33.178  37.460  1.00  0.00     0.000 A 
ENDBRANCH  51  70
BRANCH  63  76
ATOM     76  C   UNL A   1      44.524  27.241  34.259  1.00  0.00    -0.014 A 
ATOM     77  C   UNL A   1      45.767  27.879  34.404  1.00  0.00     0.009 A 
ATOM     78  C   UNL A   1      44.268  26.071  34.989  1.00  0.00     0.009 A 
ATOM     79  C   UNL A   1      46.744  27.334  35.239  1.00  0.00     0.001 A 
ATOM     80  C   UNL A   1      45.240  25.541  35.839  1.00  0.00     0.001 A 
ATOM     81  C   UNL A   1      46.479  26.167  35.956  1.00  0.00     0.000 A 
ENDBRANCH  63  76
ENDBRANCH  37  38
ENDBRANCH  30  32
ENDBRANCH  29  30
ENDBRANCH  28  29
ENDBRANCH   1  28
TORSDOF 19
ENDMDL
MODEL 2
REMARK VINA RESULT:     -10.0      3.751      8.576
REMARK SMILES O=C(N[C@@H](CS)C(=O)N[C@@H](CO)C(=O)OCCOC(=O)c1ccc(-c2c3nc(c(-c4ccccc4)c4ccc([nH]4)c(-c4ccccc4)c4nc(c(-c5ccccc5)c5ccc2[nH]5)C=C4)C=C3)cc1)c1ccc(F)cc1
REMARK SMILES IDX 16 1 15 2 13 3 14 4 10 5 9 6 7 7 8 8 4 10 3 11 1 12 2 13
REMARK SMILES IDX 69 15 70 16 75 17 71 18 74 19 72 20 73 21 5 22 6 23 11 25
REMARK SMILES IDX 12 26 17 28 18 29 19 30 20 31 21 32 22 33 68 34 23 35 67 36
REMARK SMILES IDX 24 37 25 38 26 39 61 40 27 41 66 42 60 43 62 44 28 45 65 46
REMARK SMILES IDX 59 47 58 48 29 50 51 51 36 52 50 53 37 54 40 55 49 56 63 57
REMARK SMILES IDX 38 58 39 59 48 61 64 62 41 63 30 64 31 65 35 66 32 67 34 68
REMARK SMILES IDX 33 69 52 70 53 71 57 72 54 73 56 74 55 75 42 76 43 77 47 78
REMARK SMILES IDX 44 79 46 80 45 81
REMARK H PARENT 9 9 3 14 6 24 12 27 62 49 40 60
REMARK Flexibility Score: inf
ROOT
ATOM      1  C   UNL A   1      34.959  21.083  25.243  1.00  0.00     0.274 C 
ENDROOT
BRANCH   1   2
ATOM      2  O   UNL A   1      34.117  20.909  24.084  1.00  0.00    -0.460 OA
BRANCH   2   3
ATOM      3  C   UNL A   1      32.771  21.045  24.278  1.00  0.00     0.331 C 
ATOM      4  O   UNL A   1      32.113  20.416  25.097  1.00  0.00    -0.250 OA
BRANCH   3   5
ATOM      5  C   UNL A   1      32.141  22.006  23.254  1.00  0.00     0.218 C 
BRANCH   5   6
ATOM      6  N   UNL A   1      33.064  23.074  22.844  1.00  0.00    -0.339 N 
ATOM      7  C   UNL A   1      33.370  24.293  23.347  1.00  0.00     0.244 C 
ATOM      8  O   UNL A   1      34.362  24.844  22.852  1.00  0.00    -0.273 OA
ATOM      9  H   UNL A   1      33.568  22.855  22.029  1.00  0.00     0.164 HD
BRANCH   7  10
ATOM     10  C   UNL A   1      32.659  24.965  24.543  1.00  0.00     0.181 C 
BRANCH  10  11
ATOM     11  N   UNL A   1      31.212  25.165  24.408  1.00  0.00    -0.339 N 
ATOM     12  O   UNL A   1      29.214  26.071  24.897  1.00  0.00    -0.269 OA
ATOM     13  C   UNL A   1      30.434  26.192  24.895  1.00  0.00     0.251 C 
ATOM     14  H   UNL A   1      30.732  24.470  23.900  1.00  0.00     0.164 HD
BRANCH  13  15
ATOM     15  C   UNL A   1      31.052  27.403  25.485  1.00  0.00     0.040 A 
ATOM     16  C   UNL A   1      31.370  27.463  26.847  1.00  0.00     0.017 A 
ATOM     17  C   UNL A   1      31.375  28.479  24.644  1.00  0.00     0.017 A 
ATOM     18  C   UNL A   1      31.951  28.617  27.377  1.00  0.00     0.040 A 
ATOM     19  C   UNL A   1      31.968  29.627  25.175  1.00  0.00     0.040 A 
ATOM     20  C   UNL A   1      32.242  29.688  26.538  1.00  0.00     0.123 A 
ATOM     21  F   UNL A   1      32.805  30.790  27.051  1.00  0.00    -0.207 F 
ENDBRANCH  13  15
ENDBRANCH  10  11
BRANCH  10  22
ATOM     22  C   UNL A   1      33.101  24.330  25.873  1.00  0.00     0.101 C 
BRANCH  22  23
ATOM     23  S   UNL A   1      31.768  23.578  26.851  1.00  0.00    -0.177 SA
ATOM     24  H   UNL A   1      32.104  22.297  27.165  1.00  0.00     0.102 HD
ENDBRANCH  22  23
ENDBRANCH  10  22
ENDBRANCH   7  10
ENDBRANCH   5   6
BRANCH   5  25
ATOM     25  C   UNL A   1      31.732  21.158  22.041  1.00  0.00     0.193 C 
BRANCH  25  26
ATOM     26  O   UNL A   1      31.942  19.765  22.288  1.00  0.00    -0.394 OA
ATOM     27  H   UNL A   1      31.783  19.576  23.226  1.00  0.00     0.210 HD
ENDBRANCH  25  26
ENDBRANCH   5  25
ENDBRANCH   3   5
ENDBRANCH   2   3
ENDBRANCH   1   2
BRANCH   1  28
ATOM     28  C   UNL A   1      36.321  20.435  25.014  1.00  0.00     0.275 C 
BRANCH  28  29
ATOM     29  O   UNL A   1      37.328  21.460  25.027  1.00  0.00    -0.458 OA
BRANCH  29  30
ATOM     30  C   UNL A   1      38.490  21.151  25.642  1.00  0.00     0.338 C 
ATOM     31  O   UNL A   1      39.070  20.073  25.624  1.00  0.00    -0.246 OA
BRANCH  30  32
ATOM     32  C   UNL A   1      39.023  22.337  26.344  1.00  0.00     0.060 A 
ATOM     33  C   UNL A   1      38.474  23.596  26.123  1.00  0.00     0.016 A 
ATOM     34  C   UNL A   1      40.177  22.215  27.123  1.00  0.00     0.016 A 
ATOM     35  C   UNL A   1      39.153  24.732  26.576  1.00  0.00     0.010 A 
ATOM     36  C   UNL A   1      40.796  23.357  27.652  1.00  0.00     0.010 A 
ATOM     37  C   UNL A   1      40.335  24.646  27.332  1.00  0.00    -0.014 A 
BRANCH  37  38
ATOM     38  C   UNL A   1      41.121  25.871  27.706  1.00  0.00     0.031 A 
ATOM     39  C   UNL A   1      40.552  26.899  28.666  1.00  0.00     0.074 A 
ATOM     40  C   UNL A   1      42.372  26.086  27.242  1.00  0.00     0.049 A 
ATOM     41  N   UNL A   1      40.937  28.135  28.882  1.00  0.00    -0.248 NA
ATOM     42  C   UNL A   1      39.391  26.494  29.476  1.00  0.00     0.031 C 
ATOM     43  C   UNL A   1      43.132  25.188  26.372  1.00  0.00     0.029 A 
ATOM     44  N   UNL A   1      43.238  27.136  27.458  1.00  0.00    -0.354 N 
ATOM     45  C   UNL A   1      40.009  28.681  29.763  1.00  0.00     0.074 A 
ATOM     46  C   UNL A   1      39.056  27.634  30.067  1.00  0.00     0.031 C 
ATOM     47  C   UNL A   1      44.369  25.673  26.206  1.00  0.00     0.029 A 
ATOM     48  C   UNL A   1      44.446  26.992  26.820  1.00  0.00     0.049 A 
ATOM     49  H   UNL A   1      43.012  27.914  28.017  1.00  0.00     0.167 HD
ATOM     50  C   UNL A   1      39.945  29.941  30.260  1.00  0.00     0.031 A 
ATOM     51  C   UNL A   1      45.482  27.839  26.665  1.00  0.00     0.031 A 
ATOM     52  C   UNL A   1      40.943  30.959  30.046  1.00  0.00     0.049 A 
ATOM     53  C   UNL A   1      45.389  29.235  27.201  1.00  0.00     0.074 A 
ATOM     54  C   UNL A   1      40.965  32.261  30.523  1.00  0.00     0.029 A 
ATOM     55  N   UNL A   1      42.116  30.780  29.333  1.00  0.00    -0.354 N 
ATOM     56  N   UNL A   1      44.427  29.788  27.898  1.00  0.00    -0.248 NA
ATOM     57  C   UNL A   1      46.506  30.138  26.888  1.00  0.00     0.031 C 
ATOM     58  C   UNL A   1      42.136  32.878  30.071  1.00  0.00     0.029 A 
ATOM     59  C   UNL A   1      42.865  31.946  29.353  1.00  0.00     0.049 A 
ATOM     60  H   UNL A   1      42.379  29.947  28.878  1.00  0.00     0.167 HD
ATOM     61  C   UNL A   1      44.818  31.105  28.096  1.00  0.00     0.074 A 
ATOM     62  C   UNL A   1      46.117  31.260  27.476  1.00  0.00     0.031 C 
ATOM     63  C   UNL A   1      44.148  32.100  28.725  1.00  0.00     0.031 A 
BRANCH  50  64
ATOM     64  C   UNL A   1      38.726  30.331  31.052  1.00  0.00    -0.014 A 
ATOM     65  C   UNL A   1      38.642  30.134  32.437  1.00  0.00     0.009 A 
ATOM     66  C   UNL A   1      37.675  30.997  30.396  1.00  0.00     0.009 A 
ATOM     67  C   UNL A   1      37.522  30.579  33.145  1.00  0.00     0.001 A 
ATOM     68  C   UNL A   1      36.571  31.464  31.110  1.00  0.00     0.001 A 
ATOM     69  C   UNL A   1      36.492  31.249  32.483  1.00  0.00     0.000 A 
ENDBRANCH  50  64
BRANCH  51  70
ATOM     70  C   UNL A   1      46.659  27.414  25.862  1.00  0.00    -0.014 A 
ATOM     71  C   UNL A   1      47.675  26.637  26.434  1.00  0.00     0.009 A 
ATOM     72  C   UNL A   1      46.749  27.761  24.503  1.00  0.00     0.009 A 
ATOM     73  C   UNL A   1      48.757  26.212  25.658  1.00  0.00     0.001 A 
ATOM     74  C   UNL A   1      47.810  27.305  23.724  1.00  0.00     0.001 A 
ATOM     75  C   UNL A   1      48.817  26.535  24.303  1.00  0.00     0.000 A 
ENDBRANCH  51  70
BRANCH  63  76
ATOM     76  C   UNL A   1      44.823  33.438  28.791  1.00  0.00    -0.014 A 
ATOM     77  C   UNL A   1      44.597  34.410  27.803  1.00  0.00     0.009 A 
ATOM     78  C   UNL A   1      45.691  33.732  29.853  1.00  0.00     0.009 A 
ATOM     79  C   UNL A   1      45.257  35.639  27.862  1.00  0.00     0.001 A 
ATOM     80  C   UNL A   1      46.332  34.970  29.921  1.00  0.00     0.001 A 
ATOM     81  C   UNL A   1      46.122  35.918  28.921  1.00  0.00     0.000 A 
ENDBRANCH  63  76
ENDBRANCH  37  38
ENDBRANCH  30  32
ENDBRANCH  29  30
ENDBRANCH  28  29
ENDBRANCH   1  28
TORSDOF 19
ENDMDL
MODEL 3
REMARK VINA RESULT:     -10.0      3.944      6.887
REMARK SMILES O=C(N[C@@H](CS)C(=O)N[C@@H](CO)C(=O)OCCOC(=O)c1ccc(-c2c3nc(c(-c4ccccc4)c4ccc([nH]4)c(-c4ccccc4)c4nc(c(-c5ccccc5)c5ccc2[nH]5)C=C4)C=C3)cc1)c1ccc(F)cc1
REMARK SMILES IDX 16 1 15 2 13 3 14 4 10 5 9 6 7 7 8 8 4 10 3 11 1 12 2 13
REMARK SMILES IDX 69 15 70 16 75 17 71 18 74 19 72 20 73 21 5 22 6 23 11 25
REMARK SMILES IDX 12 26 17 28 18 29 19 30 20 31 21 32 22 33 68 34 23 35 67 36
REMARK SMILES IDX 24 37 25 38 26 39 61 40 27 41 66 42 60 43 62 44 28 45 65 46
REMARK SMILES IDX 59 47 58 48 29 50 51 51 36 52 50 53 37 54 40 55 49 56 63 57
REMARK SMILES IDX 38 58 39 59 48 61 64 62 41 63 30 64 31 65 35 66 32 67 34 68
REMARK SMILES IDX 33 69 52 70 53 71 57 72 54 73 56 74 55 75 42 76 43 77 47 78
REMARK SMILES IDX 44 79 46 80 45 81
REMARK H PARENT 9 9 3 14 6 24 12 27 62 49 40 60
REMARK Flexibility Score: inf
ROOT
ATOM      1  C   UNL A   1      31.962  30.170  26.474  1.00  0.00     0.274 C 
ENDROOT
BRANCH   1   2
ATOM      2  O   UNL A   1      32.389  28.818  26.208  1.00  0.00    -0.460 OA
BRANCH   2   3
ATOM      3  C   UNL A   1      31.676  27.821  26.811  1.00  0.00     0.331 C 
ATOM      4  O   UNL A   1      31.335  27.813  27.988  1.00  0.00    -0.250 OA
BRANCH   3   5
ATOM      5  C   UNL A   1      31.447  26.630  25.863  1.00  0.00     0.218 C 
BRANCH   5   6
ATOM      6  N   UNL A   1      30.666  25.555  26.492  1.00  0.00    -0.339 N 
ATOM      7  C   UNL A   1      30.693  24.204  26.409  1.00  0.00     0.244 C 
ATOM      8  O   UNL A   1      30.017  23.601  27.253  1.00  0.00    -0.273 OA
ATOM      9  H   UNL A   1      29.975  25.890  27.106  1.00  0.00     0.164 HD
BRANCH   7  10
ATOM     10  C   UNL A   1      31.580  23.390  25.441  1.00  0.00     0.181 C 
BRANCH  10  11
ATOM     11  N   UNL A   1      31.856  22.001  25.827  1.00  0.00    -0.339 N 
ATOM     12  O   UNL A   1      33.057  20.105  25.936  1.00  0.00    -0.269 OA
ATOM     13  C   UNL A   1      33.056  21.325  25.815  1.00  0.00     0.251 C 
ATOM     14  H   UNL A   1      31.077  21.483  26.136  1.00  0.00     0.164 HD
BRANCH  13  15
ATOM     15  C   UNL A   1      34.333  22.041  25.580  1.00  0.00     0.040 A 
ATOM     16  C   UNL A   1      34.631  23.228  26.258  1.00  0.00     0.017 A 
ATOM     17  C   UNL A   1      35.276  21.477  24.708  1.00  0.00     0.017 A 
ATOM     18  C   UNL A   1      35.842  23.883  26.017  1.00  0.00     0.040 A 
ATOM     19  C   UNL A   1      36.491  22.128  24.479  1.00  0.00     0.040 A 
ATOM     20  C   UNL A   1      36.758  23.329  25.129  1.00  0.00     0.123 A 
ATOM     21  F   UNL A   1      37.919  23.958  24.906  1.00  0.00    -0.207 F 
ENDBRANCH  13  15
ENDBRANCH  10  11
BRANCH  10  22
ATOM     22  C   UNL A   1      31.119  23.575  23.985  1.00  0.00     0.101 C 
BRANCH  22  23
ATOM     23  S   UNL A   1      32.425  24.044  22.813  1.00  0.00    -0.177 SA
ATOM     24  H   UNL A   1      32.336  25.375  22.544  1.00  0.00     0.102 HD
ENDBRANCH  22  23
ENDBRANCH  10  22
ENDBRANCH   7  10
ENDBRANCH   5   6
BRANCH   5  25
ATOM     25  C   UNL A   1      30.711  27.175  24.631  1.00  0.00     0.193 C 
BRANCH  25  26
ATOM     26  O   UNL A   1      31.630  27.530  23.594  1.00  0.00    -0.394 OA
ATOM     27  H   UNL A   1      31.629  26.841  22.911  1.00  0.00     0.210 HD
ENDBRANCH  25  26
ENDBRANCH   5  25
ENDBRANCH   3   5
ENDBRANCH   2   3
ENDBRANCH   1   2
BRANCH   1  28
ATOM     28  C   UNL A   1      33.144  31.025  26.922  1.00  0.00     0.275 C 
BRANCH  28  29
ATOM     29  O   UNL A   1      33.733  30.423  28.087  1.00  0.00    -0.458 OA
BRANCH  29  30
ATOM     30  C   UNL A   1      34.789  31.070  28.625  1.00  0.00     0.338 C 
ATOM     31  O   UNL A   1      34.796  32.193  29.114  1.00  0.00    -0.246 OA
BRANCH  30  32
ATOM     32  C   UNL A   1      35.987  30.206  28.587  1.00  0.00     0.060 A 
ATOM     33  C   UNL A   1      36.435  29.567  29.739  1.00  0.00     0.016 A 
ATOM     34  C   UNL A   1      36.756  30.146  27.422  1.00  0.00     0.016 A 
ATOM     35  C   UNL A   1      37.705  28.981  29.752  1.00  0.00     0.010 A 
ATOM     36  C   UNL A   1      37.987  29.474  27.422  1.00  0.00     0.010 A 
ATOM     37  C   UNL A   1      38.519  28.935  28.606  1.00  0.00    -0.014 A 
BRANCH  37  38
ATOM     38  C   UNL A   1      39.929  28.416  28.663  1.00  0.00     0.031 A 
ATOM     39  C   UNL A   1      41.073  29.320  29.085  1.00  0.00     0.074 A 
ATOM     40  C   UNL A   1      40.228  27.128  28.388  1.00  0.00     0.049 A 
ATOM     41  N   UNL A   1      42.366  29.152  28.921  1.00  0.00    -0.248 NA
ATOM     42  C   UNL A   1      40.725  30.580  29.760  1.00  0.00     0.031 C 
ATOM     43  C   UNL A   1      39.269  26.079  28.040  1.00  0.00     0.029 A 
ATOM     44  N   UNL A   1      41.441  26.474  28.377  1.00  0.00    -0.354 N 
ATOM     45  C   UNL A   1      42.967  30.322  29.372  1.00  0.00     0.074 A 
ATOM     46  C   UNL A   1      41.904  31.183  29.845  1.00  0.00     0.031 C 
ATOM     47  C   UNL A   1      39.910  24.908  27.941  1.00  0.00     0.029 A 
ATOM     48  C   UNL A   1      41.343  25.141  28.059  1.00  0.00     0.049 A 
ATOM     49  H   UNL A   1      42.295  26.920  28.579  1.00  0.00     0.167 HD
ATOM     50  C   UNL A   1      44.282  30.656  29.378  1.00  0.00     0.031 A 
ATOM     51  C   UNL A   1      42.285  24.211  27.809  1.00  0.00     0.031 A 
ATOM     52  C   UNL A   1      45.355  29.769  29.007  1.00  0.00     0.049 A 
ATOM     53  C   UNL A   1      43.732  24.599  27.797  1.00  0.00     0.074 A 
ATOM     54  C   UNL A   1      46.719  30.022  28.994  1.00  0.00     0.029 A 
ATOM     55  N   UNL A   1      45.195  28.448  28.625  1.00  0.00    -0.354 N 
ATOM     56  N   UNL A   1      44.275  25.759  28.070  1.00  0.00    -0.248 NA
ATOM     57  C   UNL A   1      44.691  23.560  27.396  1.00  0.00     0.031 C 
ATOM     58  C   UNL A   1      47.379  28.863  28.575  1.00  0.00     0.029 A 
ATOM     59  C   UNL A   1      46.431  27.876  28.372  1.00  0.00     0.049 A 
ATOM     60  H   UNL A   1      44.329  27.985  28.546  1.00  0.00     0.167 HD
ATOM     61  C   UNL A   1      45.638  25.592  27.864  1.00  0.00     0.074 A 
ATOM     62  C   UNL A   1      45.842  24.213  27.475  1.00  0.00     0.031 C 
ATOM     63  C   UNL A   1      46.628  26.509  27.973  1.00  0.00     0.031 A 
BRANCH  50  64
ATOM     64  C   UNL A   1      44.653  32.067  29.749  1.00  0.00    -0.014 A 
ATOM     65  C   UNL A   1      44.611  33.117  28.822  1.00  0.00     0.009 A 
ATOM     66  C   UNL A   1      44.964  32.357  31.090  1.00  0.00     0.009 A 
ATOM     67  C   UNL A   1      44.892  34.425  29.227  1.00  0.00     0.001 A 
ATOM     68  C   UNL A   1      45.218  33.668  31.496  1.00  0.00     0.001 A 
ATOM     69  C   UNL A   1      45.187  34.700  30.563  1.00  0.00     0.000 A 
ENDBRANCH  50  64
BRANCH  51  70
ATOM     70  C   UNL A   1      41.868  22.834  27.431  1.00  0.00    -0.014 A 
ATOM     71  C   UNL A   1      41.607  22.505  26.095  1.00  0.00     0.009 A 
ATOM     72  C   UNL A   1      41.764  21.834  28.412  1.00  0.00     0.009 A 
ATOM     73  C   UNL A   1      41.252  21.198  25.748  1.00  0.00     0.001 A 
ATOM     74  C   UNL A   1      41.447  20.523  28.059  1.00  0.00     0.001 A 
ATOM     75  C   UNL A   1      41.186  20.207  26.728  1.00  0.00     0.000 A 
ENDBRANCH  51  70
BRANCH  63  76
ATOM     76  C   UNL A   1      48.024  26.040  27.688  1.00  0.00    -0.014 A 
ATOM     77  C   UNL A   1      48.808  25.452  28.694  1.00  0.00     0.009 A 
ATOM     78  C   UNL A   1      48.560  26.182  26.400  1.00  0.00     0.009 A 
ATOM     79  C   UNL A   1      50.117  25.049  28.420  1.00  0.00     0.001 A 
ATOM     80  C   UNL A   1      49.861  25.757  26.124  1.00  0.00     0.001 A 
ATOM     81  C   UNL A   1      50.641  25.200  27.136  1.00  0.00     0.000 A 
ENDBRANCH  63  76
ENDBRANCH  37  38
ENDBRANCH  30  32
ENDBRANCH  29  30
ENDBRANCH  28  29
ENDBRANCH   1  28
TORSDOF 19
ENDMDL
