MODEL 1
REMARK VINA RESULT:     -10.7      0.000      0.000
REMARK SMILES CCc1ccc(OCC(=O)Nc2cc(C)c(O)c(C(=O)OCCOC(=O)c3ccc(-c4c5nc(c(-c6ccccc6)c6ccc([nH]6)c(-c6ccccc6)c6nc(c(-c7ccccc7)c7ccc4[nH]7)C=C6)C=C5)cc3)c2)cc1
REMARK SMILES IDX 21 1 19 2 20 3 18 4 12 5 13 6 75 7 14 8 15 9 16 10 11 11
REMARK SMILES IDX 9 12 10 13 8 15 7 16 6 17 3 18 4 19 77 20 5 21 76 22 2 23
REMARK SMILES IDX 1 24 17 25 22 27 23 28 24 29 25 30 26 31 27 32 28 33 74 34
REMARK SMILES IDX 29 35 73 36 30 37 31 38 32 39 67 40 33 41 72 42 66 43 68 44
REMARK SMILES IDX 34 45 71 46 65 47 64 48 35 50 57 51 42 52 56 53 43 54 46 55
REMARK SMILES IDX 55 56 69 57 44 58 45 59 54 61 70 62 47 63 36 64 37 65 41 66
REMARK SMILES IDX 38 67 40 68 39 69 58 70 59 71 63 72 60 73 62 74 61 75 48 76
REMARK SMILES IDX 49 77 53 78 50 79 52 80 51 81
REMARK H PARENT 11 14 17 26 68 49 46 60
REMARK Flexibility Score: inf
ROOT
ATOM      1  O   UNL A   1      37.162  22.157  24.773  1.00  0.00    -0.458 OA
ENDROOT
BRANCH   1   2
ATOM      2  C   UNL A   1      36.974  23.413  25.250  1.00  0.00     0.342 C 
ATOM      3  O   UNL A   1      37.761  24.076  25.902  1.00  0.00    -0.246 OA
BRANCH   2   4
ATOM      4  C   UNL A   1      35.689  23.977  24.761  1.00  0.00     0.104 A 
ATOM      5  C   UNL A   1      33.663  25.251  25.154  1.00  0.00     0.042 A 
ATOM      6  C   UNL A   1      33.136  24.755  23.959  1.00  0.00     0.033 A 
ATOM      7  C   UNL A   1      34.901  24.786  25.583  1.00  0.00     0.045 A 
ATOM      8  C   UNL A   1      33.907  23.940  23.113  1.00  0.00    -0.006 A 
ATOM      9  C   UNL A   1      33.305  23.434  21.833  1.00  0.00     0.048 C 
ATOM     10  C   UNL A   1      35.224  23.643  23.482  1.00  0.00     0.133 A 
BRANCH   5  11
ATOM     11  N   UNL A   1      32.883  26.166  25.872  1.00  0.00    -0.323 N 
ATOM     12  C   UNL A   1      31.649  26.048  26.451  1.00  0.00     0.262 C 
ATOM     13  O   UNL A   1      31.194  27.044  27.028  1.00  0.00    -0.271 OA
ATOM     14  H   UNL A   1      33.297  27.054  25.979  1.00  0.00     0.170 HD
BRANCH  12  15
ATOM     15  C   UNL A   1      30.907  24.695  26.539  1.00  0.00     0.329 C 
BRANCH  15  16
ATOM     16  O   UNL A   1      31.387  23.621  27.327  1.00  0.00    -0.484 OA
BRANCH  16  17
ATOM     17  C   UNL A   1      32.055  22.622  26.680  1.00  0.00     0.120 A 
ATOM     18  C   UNL A   1      33.663  20.647  25.479  1.00  0.00    -0.048 A 
ATOM     19  C   UNL A   1      34.046  21.237  26.688  1.00  0.00     0.007 A 
ATOM     20  C   UNL A   1      32.436  21.030  24.912  1.00  0.00     0.007 A 
ATOM     21  C   UNL A   1      33.242  22.210  27.285  1.00  0.00     0.047 A 
ATOM     22  C   UNL A   1      31.633  22.006  25.509  1.00  0.00     0.047 A 
BRANCH  18  23
ATOM     23  C   UNL A   1      34.476  19.583  24.780  1.00  0.00     0.032 C 
ATOM     24  C   UNL A   1      33.729  18.323  24.361  1.00  0.00     0.009 C 
ENDBRANCH  18  23
ENDBRANCH  16  17
ENDBRANCH  15  16
ENDBRANCH  12  15
ENDBRANCH   5  11
BRANCH  10  25
ATOM     25  O   UNL A   1      36.002  22.972  22.576  1.00  0.00    -0.507 OA
ATOM     26  H   UNL A   1      36.925  23.131  22.542  1.00  0.00     0.293 HD
ENDBRANCH  10  25
ENDBRANCH   2   4
ENDBRANCH   1   2
BRANCH   1  27
ATOM     27  C   UNL A   1      37.692  21.170  25.683  1.00  0.00     0.275 C 
BRANCH  27  28
ATOM     28  C   UNL A   1      38.869  20.421  25.051  1.00  0.00     0.275 C 
BRANCH  28  29
ATOM     29  O   UNL A   1      39.539  19.625  26.045  1.00  0.00    -0.458 OA
BRANCH  29  30
ATOM     30  C   UNL A   1      40.890  19.699  26.034  1.00  0.00     0.338 C 
ATOM     31  O   UNL A   1      41.667  18.961  25.447  1.00  0.00    -0.246 OA
BRANCH  30  32
ATOM     32  C   UNL A   1      41.291  20.975  26.648  1.00  0.00     0.060 A 
ATOM     33  C   UNL A   1      41.882  21.913  25.802  1.00  0.00     0.016 A 
ATOM     34  C   UNL A   1      41.079  21.277  27.994  1.00  0.00     0.016 A 
ATOM     35  C   UNL A   1      42.200  23.182  26.269  1.00  0.00     0.010 A 
ATOM     36  C   UNL A   1      41.445  22.540  28.478  1.00  0.00     0.010 A 
ATOM     37  C   UNL A   1      41.994  23.503  27.613  1.00  0.00    -0.014 A 
BRANCH  37  38
ATOM     38  C   UNL A   1      42.471  24.811  28.110  1.00  0.00     0.031 A 
ATOM     39  C   UNL A   1      41.472  25.903  28.354  1.00  0.00     0.074 A 
ATOM     40  C   UNL A   1      43.766  25.000  28.419  1.00  0.00     0.049 A 
ATOM     41  N   UNL A   1      41.668  27.133  28.752  1.00  0.00    -0.248 NA
ATOM     42  C   UNL A   1      40.060  25.555  28.131  1.00  0.00     0.031 C 
ATOM     43  C   UNL A   1      44.816  23.986  28.332  1.00  0.00     0.029 A 
ATOM     44  N   UNL A   1      44.416  26.119  28.879  1.00  0.00    -0.354 N 
ATOM     45  C   UNL A   1      40.408  27.710  28.816  1.00  0.00     0.074 A 
ATOM     46  C   UNL A   1      39.455  26.701  28.408  1.00  0.00     0.031 C 
ATOM     47  C   UNL A   1      45.983  24.534  28.718  1.00  0.00     0.029 A 
ATOM     48  C   UNL A   1      45.769  25.944  29.037  1.00  0.00     0.049 A 
ATOM     49  H   UNL A   1      43.955  26.967  29.076  1.00  0.00     0.167 HD
ATOM     50  C   UNL A   1      40.076  28.970  29.180  1.00  0.00     0.031 A 
ATOM     51  C   UNL A   1      46.727  26.830  29.371  1.00  0.00     0.031 A 
ATOM     52  C   UNL A   1      41.024  29.979  29.568  1.00  0.00     0.049 A 
ATOM     53  C   UNL A   1      46.344  28.259  29.652  1.00  0.00     0.074 A 
ATOM     54  C   UNL A   1      40.785  31.294  29.929  1.00  0.00     0.029 A 
ATOM     55  N   UNL A   1      42.395  29.787  29.635  1.00  0.00    -0.354 N 
ATOM     56  N   UNL A   1      45.152  28.804  29.688  1.00  0.00    -0.248 NA
ATOM     57  C   UNL A   1      47.441  29.197  29.933  1.00  0.00     0.031 C 
ATOM     58  C   UNL A   1      42.017  31.912  30.163  1.00  0.00     0.029 A 
ATOM     59  C   UNL A   1      43.018  30.967  30.005  1.00  0.00     0.049 A 
ATOM     60  H   UNL A   1      42.856  28.937  29.449  1.00  0.00     0.167 HD
ATOM     61  C   UNL A   1      45.354  30.139  30.018  1.00  0.00     0.074 A 
ATOM     62  C   UNL A   1      46.781  30.317  30.189  1.00  0.00     0.031 C 
ATOM     63  C   UNL A   1      44.439  31.128  30.169  1.00  0.00     0.031 A 
BRANCH  50  64
ATOM     64  C   UNL A   1      38.622  29.341  29.110  1.00  0.00    -0.014 A 
ATOM     65  C   UNL A   1      37.777  29.207  30.222  1.00  0.00     0.009 A 
ATOM     66  C   UNL A   1      38.097  29.846  27.910  1.00  0.00     0.009 A 
ATOM     67  C   UNL A   1      36.425  29.542  30.123  1.00  0.00     0.001 A 
ATOM     68  C   UNL A   1      36.752  30.205  27.822  1.00  0.00     0.001 A 
ATOM     69  C   UNL A   1      35.916  30.045  28.925  1.00  0.00     0.000 A 
ENDBRANCH  50  64
BRANCH  51  70
ATOM     70  C   UNL A   1      48.155  26.413  29.405  1.00  0.00    -0.014 A 
ATOM     71  C   UNL A   1      48.949  26.466  28.250  1.00  0.00     0.009 A 
ATOM     72  C   UNL A   1      48.719  25.918  30.591  1.00  0.00     0.009 A 
ATOM     73  C   UNL A   1      50.269  26.009  28.276  1.00  0.00     0.001 A 
ATOM     74  C   UNL A   1      50.046  25.488  30.624  1.00  0.00     0.001 A 
ATOM     75  C   UNL A   1      50.817  25.524  29.464  1.00  0.00     0.000 A 
ENDBRANCH  51  70
BRANCH  63  76
ATOM     76  C   UNL A   1      44.949  32.485  30.568  1.00  0.00    -0.014 A 
ATOM     77  C   UNL A   1      45.281  33.452  29.608  1.00  0.00     0.009 A 
ATOM     78  C   UNL A   1      45.055  32.814  31.930  1.00  0.00     0.009 A 
ATOM     79  C   UNL A   1      45.736  34.712  30.003  1.00  0.00     0.001 A 
ATOM     80  C   UNL A   1      45.483  34.082  32.321  1.00  0.00     0.001 A 
ATOM     81  C   UNL A   1      45.831  35.028  31.359  1.00  0.00     0.000 A 
ENDBRANCH  63  76
ENDBRANCH  37  38
ENDBRANCH  30  32
ENDBRANCH  29  30
ENDBRANCH  28  29
ENDBRANCH  27  28
ENDBRANCH   1  27
TORSDOF 17
ENDMDL
MODEL 2
REMARK VINA RESULT:     -10.6      3.572      8.496
REMARK SMILES CCc1ccc(OCC(=O)Nc2cc(C)c(O)c(C(=O)OCCOC(=O)c3ccc(-c4c5nc(c(-c6ccccc6)c6ccc([nH]6)c(-c6ccccc6)c6nc(c(-c7ccccc7)c7ccc4[nH]7)C=C6)C=C5)cc3)c2)cc1
REMARK SMILES IDX 21 1 19 2 20 3 18 4 12 5 13 6 75 7 14 8 15 9 16 10 11 11
REMARK SMILES IDX 9 12 10 13 8 15 7 16 6 17 3 18 4 19 77 20 5 21 76 22 2 23
REMARK SMILES IDX 1 24 17 25 22 27 23 28 24 29 25 30 26 31 27 32 28 33 74 34
REMARK SMILES IDX 29 35 73 36 30 37 31 38 32 39 67 40 33 41 72 42 66 43 68 44
REMARK SMILES IDX 34 45 71 46 65 47 64 48 35 50 57 51 42 52 56 53 43 54 46 55
REMARK SMILES IDX 55 56 69 57 44 58 45 59 54 61 70 62 47 63 36 64 37 65 41 66
REMARK SMILES IDX 38 67 40 68 39 69 58 70 59 71 63 72 60 73 62 74 61 75 48 76
REMARK SMILES IDX 49 77 53 78 50 79 52 80 51 81
REMARK H PARENT 11 14 17 26 68 49 46 60
REMARK Flexibility Score: inf
ROOT
ATOM      1  O   UNL A   1      31.917  30.272  26.980  1.00  0.00    -0.458 OA
ENDROOT
BRANCH   1   2
ATOM      2  C   UNL A   1      32.432  29.024  26.842  1.00  0.00     0.342 C 
ATOM      3  O   UNL A   1      33.470  28.602  27.321  1.00  0.00    -0.246 OA
BRANCH   2   4
ATOM      4  C   UNL A   1      31.485  28.139  26.115  1.00  0.00     0.104 A 
ATOM      5  C   UNL A   1      30.260  26.052  25.947  1.00  0.00     0.042 A 
ATOM      6  C   UNL A   1      29.982  26.340  24.608  1.00  0.00     0.033 A 
ATOM      7  C   UNL A   1      31.083  26.916  26.660  1.00  0.00     0.045 A 
ATOM      8  C   UNL A   1      30.373  27.561  24.036  1.00  0.00    -0.006 A 
ATOM      9  C   UNL A   1      30.048  27.835  22.596  1.00  0.00     0.048 C 
ATOM     10  C   UNL A   1      31.038  28.497  24.837  1.00  0.00     0.133 A 
BRANCH   5  11
ATOM     11  N   UNL A   1      29.717  24.877  26.481  1.00  0.00    -0.323 N 
ATOM     12  C   UNL A   1      30.296  23.690  26.836  1.00  0.00     0.262 C 
ATOM     13  O   UNL A   1      29.555  22.807  27.286  1.00  0.00    -0.271 OA
ATOM     14  H   UNL A   1      28.743  24.910  26.625  1.00  0.00     0.170 HD
BRANCH  12  15
ATOM     15  C   UNL A   1      31.829  23.492  26.842  1.00  0.00     0.329 C 
BRANCH  15  16
ATOM     16  O   UNL A   1      32.548  23.133  25.676  1.00  0.00    -0.484 OA
BRANCH  16  17
ATOM     17  C   UNL A   1      32.852  24.133  24.799  1.00  0.00     0.120 A 
ATOM     18  C   UNL A   1      33.419  26.015  22.783  1.00  0.00    -0.048 A 
ATOM     19  C   UNL A   1      32.587  24.922  22.520  1.00  0.00     0.007 A 
ATOM     20  C   UNL A   1      33.919  26.173  24.086  1.00  0.00     0.007 A 
ATOM     21  C   UNL A   1      32.302  23.995  23.525  1.00  0.00     0.047 A 
ATOM     22  C   UNL A   1      33.633  25.243  25.090  1.00  0.00     0.047 A 
BRANCH  18  23
ATOM     23  C   UNL A   1      33.765  27.062  21.750  1.00  0.00     0.032 C 
ATOM     24  C   UNL A   1      33.992  28.477  22.265  1.00  0.00     0.009 C 
ENDBRANCH  18  23
ENDBRANCH  16  17
ENDBRANCH  15  16
ENDBRANCH  12  15
ENDBRANCH   5  11
BRANCH  10  25
ATOM     25  O   UNL A   1      31.279  29.735  24.301  1.00  0.00    -0.507 OA
ATOM     26  H   UNL A   1      30.591  30.200  23.868  1.00  0.00     0.293 HD
ENDBRANCH  10  25
ENDBRANCH   2   4
ENDBRANCH   1   2
BRANCH   1  27
ATOM     27  C   UNL A   1      32.838  31.346  27.259  1.00  0.00     0.275 C 
BRANCH  27  28
ATOM     28  C   UNL A   1      32.088  32.664  27.477  1.00  0.00     0.275 C 
BRANCH  28  29
ATOM     29  O   UNL A   1      33.013  33.767  27.464  1.00  0.00    -0.458 OA
BRANCH  29  30
ATOM     30  C   UNL A   1      33.335  34.269  28.679  1.00  0.00     0.338 C 
ATOM     31  O   UNL A   1      32.601  34.868  29.450  1.00  0.00    -0.246 OA
BRANCH  30  32
ATOM     32  C   UNL A   1      34.665  33.762  29.054  1.00  0.00     0.060 A 
ATOM     33  C   UNL A   1      34.733  32.998  30.218  1.00  0.00     0.016 A 
ATOM     34  C   UNL A   1      35.813  33.990  28.293  1.00  0.00     0.016 A 
ATOM     35  C   UNL A   1      35.926  32.394  30.596  1.00  0.00     0.010 A 
ATOM     36  C   UNL A   1      37.027  33.422  28.701  1.00  0.00     0.010 A 
ATOM     37  C   UNL A   1      37.085  32.609  29.846  1.00  0.00    -0.014 A 
BRANCH  37  38
ATOM     38  C   UNL A   1      38.366  32.068  30.351  1.00  0.00     0.031 A 
ATOM     39  C   UNL A   1      38.879  30.776  29.790  1.00  0.00     0.074 A 
ATOM     40  C   UNL A   1      39.104  32.759  31.237  1.00  0.00     0.049 A 
ATOM     41  N   UNL A   1      39.954  30.102  30.107  1.00  0.00    -0.248 NA
ATOM     42  C   UNL A   1      38.078  30.169  28.715  1.00  0.00     0.031 C 
ATOM     43  C   UNL A   1      38.770  34.077  31.775  1.00  0.00     0.029 A 
ATOM     44  N   UNL A   1      40.299  32.444  31.836  1.00  0.00    -0.354 N 
ATOM     45  C   UNL A   1      39.953  28.987  29.282  1.00  0.00     0.074 A 
ATOM     46  C   UNL A   1      38.767  29.068  28.456  1.00  0.00     0.031 C 
ATOM     47  C   UNL A   1      39.735  34.454  32.634  1.00  0.00     0.029 A 
ATOM     48  C   UNL A   1      40.729  33.388  32.736  1.00  0.00     0.049 A 
ATOM     49  H   UNL A   1      40.800  31.619  31.638  1.00  0.00     0.167 HD
ATOM     50  C   UNL A   1      40.858  27.982  29.222  1.00  0.00     0.031 A 
ATOM     51  C   UNL A   1      41.788  33.376  33.569  1.00  0.00     0.031 A 
ATOM     52  C   UNL A   1      42.025  27.891  30.055  1.00  0.00     0.049 A 
ATOM     53  C   UNL A   1      42.713  32.187  33.568  1.00  0.00     0.074 A 
ATOM     54  C   UNL A   1      42.989  26.898  30.085  1.00  0.00     0.029 A 
ATOM     55  N   UNL A   1      42.383  28.826  31.014  1.00  0.00    -0.354 N 
ATOM     56  N   UNL A   1      42.693  31.124  32.801  1.00  0.00    -0.248 NA
ATOM     57  C   UNL A   1      43.804  32.196  34.553  1.00  0.00     0.031 C 
ATOM     58  C   UNL A   1      43.900  27.205  31.100  1.00  0.00     0.029 A 
ATOM     59  C   UNL A   1      43.537  28.418  31.662  1.00  0.00     0.049 A 
ATOM     60  H   UNL A   1      41.890  29.657  31.205  1.00  0.00     0.167 HD
ATOM     61  C   UNL A   1      43.779  30.351  33.194  1.00  0.00     0.074 A 
ATOM     62  C   UNL A   1      44.446  31.075  34.256  1.00  0.00     0.031 C 
ATOM     63  C   UNL A   1      44.188  29.150  32.717  1.00  0.00     0.031 A 
BRANCH  50  64
ATOM     64  C   UNL A   1      40.576  26.866  28.256  1.00  0.00    -0.014 A 
ATOM     65  C   UNL A   1      39.794  25.761  28.622  1.00  0.00     0.009 A 
ATOM     66  C   UNL A   1      41.095  26.935  26.954  1.00  0.00     0.009 A 
ATOM     67  C   UNL A   1      39.563  24.729  27.710  1.00  0.00     0.001 A 
ATOM     68  C   UNL A   1      40.841  25.915  26.037  1.00  0.00     0.001 A 
ATOM     69  C   UNL A   1      40.083  24.810  26.418  1.00  0.00     0.000 A 
ENDBRANCH  50  64
BRANCH  51  70
ATOM     70  C   UNL A   1      42.007  34.499  34.519  1.00  0.00    -0.014 A 
ATOM     71  C   UNL A   1      42.813  35.592  34.170  1.00  0.00     0.009 A 
ATOM     72  C   UNL A   1      41.439  34.459  35.803  1.00  0.00     0.009 A 
ATOM     73  C   UNL A   1      43.067  36.609  35.096  1.00  0.00     0.001 A 
ATOM     74  C   UNL A   1      41.670  35.489  36.716  1.00  0.00     0.001 A 
ATOM     75  C   UNL A   1      42.492  36.558  36.365  1.00  0.00     0.000 A 
ENDBRANCH  51  70
BRANCH  63  76
ATOM     76  C   UNL A   1      45.433  28.556  33.316  1.00  0.00    -0.014 A 
ATOM     77  C   UNL A   1      46.705  28.866  32.811  1.00  0.00     0.009 A 
ATOM     78  C   UNL A   1      45.332  27.710  34.432  1.00  0.00     0.009 A 
ATOM     79  C   UNL A   1      47.849  28.316  33.394  1.00  0.00     0.001 A 
ATOM     80  C   UNL A   1      46.478  27.186  35.030  1.00  0.00     0.001 A 
ATOM     81  C   UNL A   1      47.734  27.481  34.505  1.00  0.00     0.000 A 
ENDBRANCH  63  76
ENDBRANCH  37  38
ENDBRANCH  30  32
ENDBRANCH  29  30
ENDBRANCH  28  29
ENDBRANCH  27  28
ENDBRANCH   1  27
TORSDOF 17
ENDMDL
MODEL 3
REMARK VINA RESULT:     -10.6      3.204      8.283
REMARK SMILES CCc1ccc(OCC(=O)Nc2cc(C)c(O)c(C(=O)OCCOC(=O)c3ccc(-c4c5nc(c(-c6ccccc6)c6ccc([nH]6)c(-c6ccccc6)c6nc(c(-c7ccccc7)c7ccc4[nH]7)C=C6)C=C5)cc3)c2)cc1
REMARK SMILES IDX 21 1 19 2 20 3 18 4 12 5 13 6 75 7 14 8 15 9 16 10 11 11
REMARK SMILES IDX 9 12 10 13 8 15 7 16 6 17 3 18 4 19 77 20 5 21 76 22 2 23
REMARK SMILES IDX 1 24 17 25 22 27 23 28 24 29 25 30 26 31 27 32 28 33 74 34
REMARK SMILES IDX 29 35 73 36 30 37 31 38 32 39 67 40 33 41 72 42 66 43 68 44
REMARK SMILES IDX 34 45 71 46 65 47 64 48 35 50 57 51 42 52 56 53 43 54 46 55
REMARK SMILES IDX 55 56 69 57 44 58 45 59 54 61 70 62 47 63 36 64 37 65 41 66
REMARK SMILES IDX 38 67 40 68 39 69 58 70 59 71 63 72 60 73 62 74 61 75 48 76
REMARK SMILES IDX 49 77 53 78 50 79 52 80 51 81
REMARK H PARENT 11 14 17 26 68 49 46 60
REMARK Flexibility Score: inf
ROOT
ATOM      1  O   UNL A   1      31.981  30.161  27.193  1.00  0.00    -0.458 OA
ENDROOT
BRANCH   1   2
ATOM      2  C   UNL A   1      32.542  28.966  26.881  1.00  0.00     0.342 C 
ATOM      3  O   UNL A   1      33.640  28.561  27.218  1.00  0.00    -0.246 OA
BRANCH   2   4
ATOM      4  C   UNL A   1      31.575  28.102  26.155  1.00  0.00     0.104 A 
ATOM      5  C   UNL A   1      30.318  26.034  25.978  1.00  0.00     0.042 A 
ATOM      6  C   UNL A   1      30.031  26.340  24.645  1.00  0.00     0.033 A 
ATOM      7  C   UNL A   1      31.161  26.879  26.691  1.00  0.00     0.045 A 
ATOM      8  C   UNL A   1      30.434  27.562  24.081  1.00  0.00    -0.006 A 
ATOM      9  C   UNL A   1      30.097  27.854  22.647  1.00  0.00     0.048 C 
ATOM     10  C   UNL A   1      31.120  28.479  24.885  1.00  0.00     0.133 A 
BRANCH   5  11
ATOM     11  N   UNL A   1      29.764  24.862  26.505  1.00  0.00    -0.323 N 
ATOM     12  C   UNL A   1      30.333  23.669  26.859  1.00  0.00     0.262 C 
ATOM     13  O   UNL A   1      29.583  22.790  27.303  1.00  0.00    -0.271 OA
ATOM     14  H   UNL A   1      28.790  24.902  26.646  1.00  0.00     0.170 HD
BRANCH  12  15
ATOM     15  C   UNL A   1      31.864  23.459  26.871  1.00  0.00     0.329 C 
BRANCH  15  16
ATOM     16  O   UNL A   1      32.584  23.094  25.707  1.00  0.00    -0.484 OA
BRANCH  16  17
ATOM     17  C   UNL A   1      32.876  24.087  24.818  1.00  0.00     0.120 A 
ATOM     18  C   UNL A   1      33.411  25.954  22.779  1.00  0.00    -0.048 A 
ATOM     19  C   UNL A   1      32.564  24.867  22.541  1.00  0.00     0.007 A 
ATOM     20  C   UNL A   1      33.942  26.114  24.070  1.00  0.00     0.007 A 
ATOM     21  C   UNL A   1      32.295  23.948  23.558  1.00  0.00     0.047 A 
ATOM     22  C   UNL A   1      33.673  25.192  25.085  1.00  0.00     0.047 A 
BRANCH  18  23
ATOM     23  C   UNL A   1      33.741  26.993  21.733  1.00  0.00     0.032 C 
ATOM     24  C   UNL A   1      34.020  28.403  22.238  1.00  0.00     0.009 C 
ENDBRANCH  18  23
ENDBRANCH  16  17
ENDBRANCH  15  16
ENDBRANCH  12  15
ENDBRANCH   5  11
BRANCH  10  25
ATOM     25  O   UNL A   1      31.374  29.719  24.359  1.00  0.00    -0.507 OA
ATOM     26  H   UNL A   1      30.688  30.199  23.938  1.00  0.00     0.293 HD
ENDBRANCH  10  25
ENDBRANCH   2   4
ENDBRANCH   1   2
BRANCH   1  27
ATOM     27  C   UNL A   1      32.835  31.324  27.174  1.00  0.00     0.275 C 
BRANCH  27  28
ATOM     28  C   UNL A   1      32.035  32.593  27.483  1.00  0.00     0.275 C 
BRANCH  28  29
ATOM     29  O   UNL A   1      32.902  33.742  27.457  1.00  0.00    -0.458 OA
BRANCH  29  30
ATOM     30  C   UNL A   1      33.234  34.247  28.668  1.00  0.00     0.338 C 
ATOM     31  O   UNL A   1      32.545  34.951  29.390  1.00  0.00    -0.246 OA
BRANCH  30  32
ATOM     32  C   UNL A   1      34.484  33.608  29.111  1.00  0.00     0.060 A 
ATOM     33  C   UNL A   1      35.595  33.778  28.286  1.00  0.00     0.016 A 
ATOM     34  C   UNL A   1      34.595  32.888  30.302  1.00  0.00     0.016 A 
ATOM     35  C   UNL A   1      36.840  33.298  28.673  1.00  0.00     0.010 A 
ATOM     36  C   UNL A   1      35.840  32.360  30.668  1.00  0.00     0.010 A 
ATOM     37  C   UNL A   1      36.971  32.577  29.861  1.00  0.00    -0.014 A 
BRANCH  37  38
ATOM     38  C   UNL A   1      38.278  31.960  30.176  1.00  0.00     0.031 A 
ATOM     39  C   UNL A   1      39.200  32.659  31.130  1.00  0.00     0.074 A 
ATOM     40  C   UNL A   1      38.607  30.753  29.683  1.00  0.00     0.049 A 
ATOM     41  N   UNL A   1      40.401  32.322  31.520  1.00  0.00    -0.248 NA
ATOM     42  C   UNL A   1      38.691  33.900  31.736  1.00  0.00     0.031 C 
ATOM     43  C   UNL A   1      37.753  29.922  28.834  1.00  0.00     0.029 A 
ATOM     44  N   UNL A   1      39.753  30.012  29.835  1.00  0.00    -0.354 N 
ATOM     45  C   UNL A   1      40.798  33.313  32.407  1.00  0.00     0.074 A 
ATOM     46  C   UNL A   1      39.714  34.269  32.491  1.00  0.00     0.031 C 
ATOM     47  C   UNL A   1      38.412  28.788  28.533  1.00  0.00     0.029 A 
ATOM     48  C   UNL A   1      39.744  28.833  29.132  1.00  0.00     0.049 A 
ATOM     49  H   UNL A   1      40.510  30.300  30.396  1.00  0.00     0.167 HD
ATOM     50  C   UNL A   1      41.963  33.418  33.087  1.00  0.00     0.031 A 
ATOM     51  C   UNL A   1      40.713  27.912  28.966  1.00  0.00     0.031 A 
ATOM     52  C   UNL A   1      43.047  32.479  32.989  1.00  0.00     0.049 A 
ATOM     53  C   UNL A   1      42.046  28.116  29.638  1.00  0.00     0.074 A 
ATOM     54  C   UNL A   1      44.278  32.514  33.621  1.00  0.00     0.029 A 
ATOM     55  N   UNL A   1      43.033  31.339  32.201  1.00  0.00    -0.354 N 
ATOM     56  N   UNL A   1      42.423  29.068  30.457  1.00  0.00    -0.248 NA
ATOM     57  C   UNL A   1      43.089  27.119  29.356  1.00  0.00     0.031 C 
ATOM     58  C   UNL A   1      45.029  31.422  33.172  1.00  0.00     0.029 A 
ATOM     59  C   UNL A   1      44.244  30.677  32.307  1.00  0.00     0.049 A 
ATOM     60  H   UNL A   1      42.273  31.043  31.648  1.00  0.00     0.167 HD
ATOM     61  C   UNL A   1      43.735  28.772  30.805  1.00  0.00     0.074 A 
ATOM     62  C   UNL A   1      44.083  27.544  30.123  1.00  0.00     0.031 C 
ATOM     63  C   UNL A   1      44.576  29.456  31.620  1.00  0.00     0.031 A 
BRANCH  50  64
ATOM     64  C   UNL A   1      42.143  34.634  33.950  1.00  0.00    -0.014 A 
ATOM     65  C   UNL A   1      42.689  35.821  33.440  1.00  0.00     0.009 A 
ATOM     66  C   UNL A   1      41.743  34.589  35.294  1.00  0.00     0.009 A 
ATOM     67  C   UNL A   1      42.861  36.931  34.269  1.00  0.00     0.001 A 
ATOM     68  C   UNL A   1      41.892  35.708  36.115  1.00  0.00     0.001 A 
ATOM     69  C   UNL A   1      42.459  36.874  35.604  1.00  0.00     0.000 A 
ENDBRANCH  50  64
BRANCH  51  70
ATOM     70  C   UNL A   1      40.488  26.737  28.083  1.00  0.00    -0.014 A 
ATOM     71  C   UNL A   1      39.819  25.598  28.554  1.00  0.00     0.009 A 
ATOM     72  C   UNL A   1      40.981  26.736  26.768  1.00  0.00     0.009 A 
ATOM     73  C   UNL A   1      39.673  24.474  27.737  1.00  0.00     0.001 A 
ATOM     74  C   UNL A   1      40.809  25.623  25.944  1.00  0.00     0.001 A 
ATOM     75  C   UNL A   1      40.164  24.489  26.432  1.00  0.00     0.000 A 
ENDBRANCH  51  70
BRANCH  63  76
ATOM     76  C   UNL A   1      45.944  28.875  31.845  1.00  0.00    -0.014 A 
ATOM     77  C   UNL A   1      46.185  27.953  32.875  1.00  0.00     0.009 A 
ATOM     78  C   UNL A   1      46.997  29.223  30.984  1.00  0.00     0.009 A 
ATOM     79  C   UNL A   1      47.460  27.413  33.055  1.00  0.00     0.001 A 
ATOM     80  C   UNL A   1      48.262  28.660  31.148  1.00  0.00     0.001 A 
ATOM     81  C   UNL A   1      48.496  27.763  32.188  1.00  0.00     0.000 A 
ENDBRANCH  63  76
ENDBRANCH  37  38
ENDBRANCH  30  32
ENDBRANCH  29  30
ENDBRANCH  28  29
ENDBRANCH  27  28
ENDBRANCH   1  27
TORSDOF 17
ENDMDL
