MODEL 1
REMARK VINA RESULT:      -8.8      0.000      0.000
REMARK SMILES COC(=O)[C@H]1CC[C@]2(C)[C@H](CC[C@]3(C)[C@H]2CC=C2[C@H]4CC(C)(C)CC[C@]4(C(=O)OCCOC(=O)c4ccc(-c5c6nc(c(-c7ccccc7)c7ccc([nH]7)c(-c7ccccc7)c7nc(c(-c8ccccc8)c8ccc5[nH]8)C=C7)C=C6)cc4)CC[C@@]23C)C1(C)C
REMARK SMILES IDX 30 1 29 2 27 3 28 4 26 5 5 6 6 7 87 8 7 9 10 10 88 11 89 12
REMARK SMILES IDX 8 13 11 14 15 15 9 16 12 17 16 18 13 19 17 20 85 21 14 22
REMARK SMILES IDX 18 23 84 24 86 25 19 26 83 27 20 28 21 29 25 30 24 31 22 32
REMARK SMILES IDX 23 33 3 34 4 35 2 36 1 37 31 38 32 39 33 40 34 41 35 42
REMARK SMILES IDX 36 43 82 44 37 45 81 46 38 47 39 48 40 49 75 50 41 51 80 52
REMARK SMILES IDX 74 53 76 54 42 55 79 56 73 57 72 58 43 60 65 61 50 62 64 63
REMARK SMILES IDX 51 64 54 65 63 66 77 67 52 68 53 69 62 71 78 72 55 73 44 74
REMARK SMILES IDX 45 75 49 76 46 77 48 78 47 79 66 80 67 81 71 82 68 83 70 84
REMARK SMILES IDX 69 85 56 86 57 87 61 88 58 89 60 90 59 91
REMARK H PARENT 76 59 54 70
REMARK Flexibility Score: inf
ROOT
ATOM      1  C   UNL A   1      50.264  22.434  35.684  1.00  0.00     0.274 C 
ENDROOT
BRANCH   1   2
ATOM      2  O   UNL A   1      48.938  22.997  35.866  1.00  0.00    -0.462 OA
BRANCH   2   3
ATOM      3  C   UNL A   1      48.544  23.007  37.159  1.00  0.00     0.312 C 
ATOM      4  O   UNL A   1      49.353  23.127  38.073  1.00  0.00    -0.252 OA
BRANCH   3   5
ATOM      5  C   UNL A   1      47.079  22.671  37.487  1.00  0.00     0.075 C 
ATOM      6  C   UNL A   1      42.447  29.091  34.971  1.00  0.00     0.105 C 
ATOM      7  C   UNL A   1      43.441  30.036  35.697  1.00  0.00     0.016 C 
ATOM      8  C   UNL A   1      42.753  27.552  35.027  1.00  0.00    -0.019 C 
ATOM      9  C   UNL A   1      44.363  29.488  36.807  1.00  0.00     0.008 C 
ATOM     10  C   UNL A   1      43.460  27.266  36.450  1.00  0.00     0.002 C 
ATOM     11  C   UNL A   1      41.489  26.658  34.883  1.00  0.00     0.012 C 
ATOM     12  C   UNL A   1      43.486  27.234  33.681  1.00  0.00     0.012 C 
ATOM     13  C   UNL A   1      44.820  28.007  36.656  1.00  0.00    -0.026 C 
ATOM     14  C   UNL A   1      43.559  25.823  36.898  1.00  0.00     0.005 C 
ATOM     15  C   UNL A   1      45.674  27.615  38.006  1.00  0.00     0.006 C 
ATOM     16  C   UNL A   1      45.682  27.890  35.362  1.00  0.00     0.012 C 
ATOM     17  C   UNL A   1      43.895  25.672  38.387  1.00  0.00     0.008 C 
ATOM     18  C   UNL A   1      47.215  27.531  37.657  1.00  0.00     0.032 C 
ATOM     19  C   UNL A   1      45.204  26.327  38.930  1.00  0.00    -0.020 C 
ATOM     20  C   UNL A   1      47.461  26.172  37.037  1.00  0.00    -0.027 C 
ATOM     21  C   UNL A   1      46.449  25.280  39.086  1.00  0.00    -0.006 C 
ATOM     22  C   UNL A   1      44.825  26.829  40.357  1.00  0.00     0.012 C 
ATOM     23  C   UNL A   1      46.849  25.130  37.622  1.00  0.00    -0.063 C 
ATOM     24  C   UNL A   1      46.286  23.853  39.745  1.00  0.00     0.013 C 
ATOM     25  C   UNL A   1      47.564  25.901  40.031  1.00  0.00     0.017 C 
ATOM     26  C   UNL A   1      46.317  23.875  36.932  1.00  0.00     0.033 C 
ATOM     27  C   UNL A   1      46.625  22.554  38.956  1.00  0.00     0.020 C 
ATOM     28  C   UNL A   1      46.107  23.805  35.400  1.00  0.00     0.015 C 
ATOM     29  C   UNL A   1      45.175  22.610  35.025  1.00  0.00    -0.035 C 
ATOM     30  C   UNL A   1      46.689  21.367  36.727  1.00  0.00     0.020 C 
ATOM     31  C   UNL A   1      45.331  21.426  36.017  1.00  0.00     0.007 C 
ATOM     32  C   UNL A   1      45.504  22.178  33.591  1.00  0.00     0.011 C 
ATOM     33  C   UNL A   1      43.690  23.023  35.008  1.00  0.00     0.011 C 
BRANCH   6  34
ATOM     34  C   UNL A   1      40.983  29.414  35.221  1.00  0.00     0.309 C 
ATOM     35  O   UNL A   1      40.508  29.460  36.352  1.00  0.00    -0.252 OA
BRANCH  34  36
ATOM     36  O   UNL A   1      40.326  29.757  34.085  1.00  0.00    -0.469 OA
ATOM     37  C   UNL A   1      39.251  30.688  34.262  1.00  0.00     0.282 C 
ENDBRANCH  34  36
ENDBRANCH   6  34
ENDBRANCH   3   5
ENDBRANCH   2   3
ENDBRANCH   1   2
BRANCH   1  38
ATOM     38  C   UNL A   1      51.162  22.838  34.486  1.00  0.00     0.275 C 
BRANCH  38  39
ATOM     39  O   UNL A   1      50.901  24.131  33.914  1.00  0.00    -0.458 OA
BRANCH  39  40
ATOM     40  C   UNL A   1      50.766  24.111  32.560  1.00  0.00     0.338 C 
ATOM     41  O   UNL A   1      51.265  23.324  31.798  1.00  0.00    -0.246 OA
BRANCH  40  42
ATOM     42  C   UNL A   1      49.696  25.049  32.129  1.00  0.00     0.060 A 
ATOM     43  C   UNL A   1      48.644  25.197  33.037  1.00  0.00     0.016 A 
ATOM     44  C   UNL A   1      49.666  25.715  30.904  1.00  0.00     0.016 A 
ATOM     45  C   UNL A   1      47.560  26.009  32.738  1.00  0.00     0.010 A 
ATOM     46  C   UNL A   1      48.525  26.461  30.558  1.00  0.00     0.010 A 
ATOM     47  C   UNL A   1      47.453  26.575  31.462  1.00  0.00    -0.014 A 
BRANCH  47  48
ATOM     48  C   UNL A   1      46.079  26.910  31.010  1.00  0.00     0.031 A 
ATOM     49  C   UNL A   1      45.607  28.311  31.318  1.00  0.00     0.074 A 
ATOM     50  C   UNL A   1      45.317  26.080  30.278  1.00  0.00     0.049 A 
ATOM     51  N   UNL A   1      44.502  28.917  30.971  1.00  0.00    -0.248 NA
ATOM     52  C   UNL A   1      46.530  29.153  32.103  1.00  0.00     0.031 C 
ATOM     53  C   UNL A   1      45.692  24.737  29.846  1.00  0.00     0.029 A 
ATOM     54  N   UNL A   1      44.067  26.266  29.741  1.00  0.00    -0.354 N 
ATOM     55  C   UNL A   1      44.610  30.203  31.485  1.00  0.00     0.074 A 
ATOM     56  C   UNL A   1      45.893  30.308  32.136  1.00  0.00     0.031 C 
ATOM     57  C   UNL A   1      44.706  24.229  29.085  1.00  0.00     0.029 A 
ATOM     58  C   UNL A   1      43.603  25.187  29.027  1.00  0.00     0.049 A 
ATOM     59  H   UNL A   1      43.550  27.096  29.858  1.00  0.00     0.167 HD
ATOM     60  C   UNL A   1      43.702  31.203  31.470  1.00  0.00     0.031 A 
ATOM     61  C   UNL A   1      42.411  24.993  28.428  1.00  0.00     0.031 A 
ATOM     62  C   UNL A   1      42.380  31.061  30.939  1.00  0.00     0.049 A 
ATOM     63  C   UNL A   1      41.366  26.079  28.527  1.00  0.00     0.074 A 
ATOM     64  C   UNL A   1      41.335  31.963  30.971  1.00  0.00     0.029 A 
ATOM     65  N   UNL A   1      41.917  29.918  30.307  1.00  0.00    -0.354 N 
ATOM     66  N   UNL A   1      41.467  27.281  29.046  1.00  0.00    -0.248 NA
ATOM     67  C   UNL A   1      40.035  25.770  27.983  1.00  0.00     0.031 C 
ATOM     68  C   UNL A   1      40.217  31.341  30.406  1.00  0.00     0.029 A 
ATOM     69  C   UNL A   1      40.588  30.079  29.966  1.00  0.00     0.049 A 
ATOM     70  H   UNL A   1      42.454  29.113  30.127  1.00  0.00     0.167 HD
ATOM     71  C   UNL A   1      40.218  27.871  28.888  1.00  0.00     0.074 A 
ATOM     72  C   UNL A   1      39.385  26.907  28.198  1.00  0.00     0.031 C 
ATOM     73  C   UNL A   1      39.789  29.094  29.286  1.00  0.00     0.031 A 
BRANCH  60  74
ATOM     74  C   UNL A   1      44.092  32.468  32.175  1.00  0.00    -0.014 A 
ATOM     75  C   UNL A   1      43.722  32.708  33.508  1.00  0.00     0.009 A 
ATOM     76  C   UNL A   1      44.771  33.469  31.464  1.00  0.00     0.009 A 
ATOM     77  C   UNL A   1      43.993  33.942  34.102  1.00  0.00     0.001 A 
ATOM     78  C   UNL A   1      45.061  34.692  32.067  1.00  0.00     0.001 A 
ATOM     79  C   UNL A   1      44.663  34.932  33.382  1.00  0.00     0.000 A 
ENDBRANCH  60  74
BRANCH  61  80
ATOM     80  C   UNL A   1      42.096  23.704  27.749  1.00  0.00    -0.014 A 
ATOM     81  C   UNL A   1      42.377  23.513  26.387  1.00  0.00     0.009 A 
ATOM     82  C   UNL A   1      41.460  22.668  28.453  1.00  0.00     0.009 A 
ATOM     83  C   UNL A   1      42.012  22.327  25.744  1.00  0.00     0.001 A 
ATOM     84  C   UNL A   1      41.125  21.470  27.816  1.00  0.00     0.001 A 
ATOM     85  C   UNL A   1      41.392  21.304  26.460  1.00  0.00     0.000 A 
ENDBRANCH  61  80
BRANCH  73  86
ATOM     86  C   UNL A   1      38.369  29.464  28.970  1.00  0.00    -0.014 A 
ATOM     87  C   UNL A   1      37.987  29.840  27.674  1.00  0.00     0.009 A 
ATOM     88  C   UNL A   1      37.391  29.366  29.972  1.00  0.00     0.009 A 
ATOM     89  C   UNL A   1      36.653  30.136  27.393  1.00  0.00     0.001 A 
ATOM     90  C   UNL A   1      36.054  29.636  29.681  1.00  0.00     0.001 A 
ATOM     91  C   UNL A   1      35.687  30.029  28.395  1.00  0.00     0.000 A 
ENDBRANCH  73  86
ENDBRANCH  47  48
ENDBRANCH  40  42
ENDBRANCH  39  40
ENDBRANCH  38  39
ENDBRANCH   1  38
TORSDOF 13
ENDMDL
MODEL 2
REMARK VINA RESULT:      -8.7      6.138     13.098
REMARK SMILES COC(=O)[C@H]1CC[C@]2(C)[C@H](CC[C@]3(C)[C@H]2CC=C2[C@H]4CC(C)(C)CC[C@]4(C(=O)OCCOC(=O)c4ccc(-c5c6nc(c(-c7ccccc7)c7ccc([nH]7)c(-c7ccccc7)c7nc(c(-c8ccccc8)c8ccc5[nH]8)C=C7)C=C6)cc4)CC[C@@]23C)C1(C)C
REMARK SMILES IDX 30 1 29 2 27 3 28 4 26 5 5 6 6 7 87 8 7 9 10 10 88 11 89 12
REMARK SMILES IDX 8 13 11 14 15 15 9 16 12 17 16 18 13 19 17 20 85 21 14 22
REMARK SMILES IDX 18 23 84 24 86 25 19 26 83 27 20 28 21 29 25 30 24 31 22 32
REMARK SMILES IDX 23 33 3 34 4 35 2 36 1 37 31 38 32 39 33 40 34 41 35 42
REMARK SMILES IDX 36 43 82 44 37 45 81 46 38 47 39 48 40 49 75 50 41 51 80 52
REMARK SMILES IDX 74 53 76 54 42 55 79 56 73 57 72 58 43 60 65 61 50 62 64 63
REMARK SMILES IDX 51 64 54 65 63 66 77 67 52 68 53 69 62 71 78 72 55 73 44 74
REMARK SMILES IDX 45 75 49 76 46 77 48 78 47 79 66 80 67 81 71 82 68 83 70 84
REMARK SMILES IDX 69 85 56 86 57 87 61 88 58 89 60 90 59 91
REMARK H PARENT 76 59 54 70
REMARK Flexibility Score: inf
ROOT
ATOM      1  C   UNL A   1      37.121  33.681  29.624  1.00  0.00     0.274 C 
ENDROOT
BRANCH   1   2
ATOM      2  O   UNL A   1      37.918  33.114  30.699  1.00  0.00    -0.462 OA
BRANCH   2   3
ATOM      3  C   UNL A   1      39.247  33.250  30.496  1.00  0.00     0.312 C 
ATOM      4  O   UNL A   1      39.687  33.905  29.556  1.00  0.00    -0.252 OA
BRANCH   3   5
ATOM      5  C   UNL A   1      40.213  32.410  31.349  1.00  0.00     0.075 C 
ATOM      6  C   UNL A   1      42.476  25.852  26.779  1.00  0.00     0.105 C 
ATOM      7  C   UNL A   1      40.978  25.621  26.448  1.00  0.00     0.016 C 
ATOM      8  C   UNL A   1      42.825  27.079  27.695  1.00  0.00    -0.019 C 
ATOM      9  C   UNL A   1      39.881  26.229  27.349  1.00  0.00     0.008 C 
ATOM     10  C   UNL A   1      41.592  27.264  28.720  1.00  0.00     0.002 C 
ATOM     11  C   UNL A   1      44.147  26.905  28.494  1.00  0.00     0.012 C 
ATOM     12  C   UNL A   1      43.233  28.222  26.707  1.00  0.00     0.012 C 
ATOM     13  C   UNL A   1      40.225  27.584  28.036  1.00  0.00    -0.026 C 
ATOM     14  C   UNL A   1      41.816  28.160  29.921  1.00  0.00     0.005 C 
ATOM     15  C   UNL A   1      38.973  27.961  29.033  1.00  0.00     0.006 C 
ATOM     16  C   UNL A   1      40.433  28.657  26.924  1.00  0.00     0.012 C 
ATOM     17  C   UNL A   1      40.752  27.989  31.012  1.00  0.00     0.008 C 
ATOM     18  C   UNL A   1      38.128  29.144  28.407  1.00  0.00     0.032 C 
ATOM     19  C   UNL A   1      39.254  28.221  30.642  1.00  0.00    -0.020 C 
ATOM     20  C   UNL A   1      38.852  30.434  28.732  1.00  0.00    -0.027 C 
ATOM     21  C   UNL A   1      38.691  29.696  31.066  1.00  0.00    -0.006 C 
ATOM     22  C   UNL A   1      38.476  27.158  31.478  1.00  0.00     0.012 C 
ATOM     23  C   UNL A   1      39.339  30.545  29.978  1.00  0.00    -0.063 C 
ATOM     24  C   UNL A   1      38.968  30.339  32.483  1.00  0.00     0.013 C 
ATOM     25  C   UNL A   1      37.103  29.691  31.065  1.00  0.00     0.017 C 
ATOM     26  C   UNL A   1      40.612  31.278  30.401  1.00  0.00     0.033 C 
ATOM     27  C   UNL A   1      39.704  31.704  32.622  1.00  0.00     0.020 C 
ATOM     28  C   UNL A   1      41.698  31.696  29.382  1.00  0.00     0.015 C 
ATOM     29  C   UNL A   1      43.041  32.021  30.108  1.00  0.00    -0.035 C 
ATOM     30  C   UNL A   1      41.446  33.291  31.713  1.00  0.00     0.020 C 
ATOM     31  C   UNL A   1      42.801  32.597  31.530  1.00  0.00     0.007 C 
ATOM     32  C   UNL A   1      43.830  33.005  29.237  1.00  0.00     0.011 C 
ATOM     33  C   UNL A   1      43.936  30.773  30.247  1.00  0.00     0.011 C 
BRANCH   6  34
ATOM     34  C   UNL A   1      43.232  24.591  27.163  1.00  0.00     0.309 C 
ATOM     35  O   UNL A   1      42.894  23.891  28.113  1.00  0.00    -0.252 OA
BRANCH  34  36
ATOM     36  O   UNL A   1      44.211  24.283  26.277  1.00  0.00    -0.469 OA
ATOM     37  C   UNL A   1      44.187  25.036  25.058  1.00  0.00     0.282 C 
ENDBRANCH  34  36
ENDBRANCH   6  34
ENDBRANCH   3   5
ENDBRANCH   2   3
ENDBRANCH   1   2
BRANCH   1  38
ATOM     38  C   UNL A   1      35.592  33.891  29.769  1.00  0.00     0.275 C 
BRANCH  38  39
ATOM     39  O   UNL A   1      34.958  33.176  30.843  1.00  0.00    -0.458 OA
BRANCH  39  40
ATOM     40  C   UNL A   1      34.572  33.973  31.876  1.00  0.00     0.338 C 
ATOM     41  O   UNL A   1      33.630  34.721  31.896  1.00  0.00    -0.246 OA
BRANCH  40  42
ATOM     42  C   UNL A   1      35.321  33.623  33.113  1.00  0.00     0.060 A 
ATOM     43  C   UNL A   1      35.298  34.603  34.109  1.00  0.00     0.016 A 
ATOM     44  C   UNL A   1      36.049  32.447  33.299  1.00  0.00     0.016 A 
ATOM     45  C   UNL A   1      35.993  34.421  35.296  1.00  0.00     0.010 A 
ATOM     46  C   UNL A   1      36.831  32.303  34.458  1.00  0.00     0.010 A 
ATOM     47  C   UNL A   1      36.834  33.311  35.440  1.00  0.00    -0.014 A 
BRANCH  47  48
ATOM     48  C   UNL A   1      37.950  33.459  36.408  1.00  0.00     0.031 A 
ATOM     49  C   UNL A   1      39.150  34.234  35.918  1.00  0.00     0.074 A 
ATOM     50  C   UNL A   1      37.887  33.034  37.681  1.00  0.00     0.049 A 
ATOM     51  N   UNL A   1      40.227  34.602  36.560  1.00  0.00    -0.248 NA
ATOM     52  C   UNL A   1      39.109  34.681  34.512  1.00  0.00     0.031 C 
ATOM     53  C   UNL A   1      36.754  32.348  38.296  1.00  0.00     0.029 A 
ATOM     54  N   UNL A   1      38.800  33.149  38.700  1.00  0.00    -0.354 N 
ATOM     55  C   UNL A   1      40.974  35.327  35.640  1.00  0.00     0.074 A 
ATOM     56  C   UNL A   1      40.223  35.380  34.410  1.00  0.00     0.031 C 
ATOM     57  C   UNL A   1      37.027  32.129  39.595  1.00  0.00     0.029 A 
ATOM     58  C   UNL A   1      38.378  32.602  39.889  1.00  0.00     0.049 A 
ATOM     59  H   UNL A   1      39.678  33.582  38.589  1.00  0.00     0.167 HD
ATOM     60  C   UNL A   1      42.206  35.861  35.779  1.00  0.00     0.031 A 
ATOM     61  C   UNL A   1      39.029  32.476  41.063  1.00  0.00     0.031 A 
ATOM     62  C   UNL A   1      43.009  35.701  36.954  1.00  0.00     0.049 A 
ATOM     63  C   UNL A   1      40.451  32.974  41.159  1.00  0.00     0.074 A 
ATOM     64  C   UNL A   1      44.315  36.095  37.169  1.00  0.00     0.029 A 
ATOM     65  N   UNL A   1      42.579  35.058  38.104  1.00  0.00    -0.354 N 
ATOM     66  N   UNL A   1      41.162  33.629  40.272  1.00  0.00    -0.248 NA
ATOM     67  C   UNL A   1      41.170  32.689  42.411  1.00  0.00     0.031 C 
ATOM     68  C   UNL A   1      44.695  35.638  38.435  1.00  0.00     0.029 A 
ATOM     69  C   UNL A   1      43.606  35.019  39.028  1.00  0.00     0.049 A 
ATOM     70  H   UNL A   1      41.678  34.686  38.242  1.00  0.00     0.167 HD
ATOM     71  C   UNL A   1      42.406  33.837  40.856  1.00  0.00     0.074 A 
ATOM     72  C   UNL A   1      42.343  33.266  42.186  1.00  0.00     0.031 C 
ATOM     73  C   UNL A   1      43.508  34.435  40.340  1.00  0.00     0.031 A 
BRANCH  60  74
ATOM     74  C   UNL A   1      42.781  36.536  34.569  1.00  0.00    -0.014 A 
ATOM     75  C   UNL A   1      43.361  35.799  33.525  1.00  0.00     0.009 A 
ATOM     76  C   UNL A   1      42.814  37.938  34.516  1.00  0.00     0.009 A 
ATOM     77  C   UNL A   1      43.996  36.455  32.468  1.00  0.00     0.001 A 
ATOM     78  C   UNL A   1      43.428  38.590  33.447  1.00  0.00     0.001 A 
ATOM     79  C   UNL A   1      44.028  37.849  32.430  1.00  0.00     0.000 A 
ENDBRANCH  60  74
BRANCH  61  80
ATOM     80  C   UNL A   1      38.391  31.787  42.221  1.00  0.00    -0.014 A 
ATOM     81  C   UNL A   1      37.668  32.508  43.185  1.00  0.00     0.009 A 
ATOM     82  C   UNL A   1      38.546  30.402  42.397  1.00  0.00     0.009 A 
ATOM     83  C   UNL A   1      37.135  31.862  44.305  1.00  0.00     0.001 A 
ATOM     84  C   UNL A   1      37.985  29.754  43.501  1.00  0.00     0.001 A 
ATOM     85  C   UNL A   1      37.289  30.485  44.459  1.00  0.00     0.000 A 
ENDBRANCH  61  80
BRANCH  73  86
ATOM     86  C   UNL A   1      44.722  34.518  41.218  1.00  0.00    -0.014 A 
ATOM     87  C   UNL A   1      44.886  35.568  42.134  1.00  0.00     0.009 A 
ATOM     88  C   UNL A   1      45.679  33.492  41.173  1.00  0.00     0.009 A 
ATOM     89  C   UNL A   1      46.002  35.601  42.972  1.00  0.00     0.001 A 
ATOM     90  C   UNL A   1      46.778  33.514  42.031  1.00  0.00     0.001 A 
ATOM     91  C   UNL A   1      46.943  34.572  42.924  1.00  0.00     0.000 A 
ENDBRANCH  73  86
ENDBRANCH  47  48
ENDBRANCH  40  42
ENDBRANCH  39  40
ENDBRANCH  38  39
ENDBRANCH   1  38
TORSDOF 13
ENDMDL
MODEL 3
REMARK VINA RESULT:      -8.6      6.321     13.424
REMARK SMILES COC(=O)[C@H]1CC[C@]2(C)[C@H](CC[C@]3(C)[C@H]2CC=C2[C@H]4CC(C)(C)CC[C@]4(C(=O)OCCOC(=O)c4ccc(-c5c6nc(c(-c7ccccc7)c7ccc([nH]7)c(-c7ccccc7)c7nc(c(-c8ccccc8)c8ccc5[nH]8)C=C7)C=C6)cc4)CC[C@@]23C)C1(C)C
REMARK SMILES IDX 30 1 29 2 27 3 28 4 26 5 5 6 6 7 87 8 7 9 10 10 88 11 89 12
REMARK SMILES IDX 8 13 11 14 15 15 9 16 12 17 16 18 13 19 17 20 85 21 14 22
REMARK SMILES IDX 18 23 84 24 86 25 19 26 83 27 20 28 21 29 25 30 24 31 22 32
REMARK SMILES IDX 23 33 3 34 4 35 2 36 1 37 31 38 32 39 33 40 34 41 35 42
REMARK SMILES IDX 36 43 82 44 37 45 81 46 38 47 39 48 40 49 75 50 41 51 80 52
REMARK SMILES IDX 74 53 76 54 42 55 79 56 73 57 72 58 43 60 65 61 50 62 64 63
REMARK SMILES IDX 51 64 54 65 63 66 77 67 52 68 53 69 62 71 78 72 55 73 44 74
REMARK SMILES IDX 45 75 49 76 46 77 48 78 47 79 66 80 67 81 71 82 68 83 70 84
REMARK SMILES IDX 69 85 56 86 57 87 61 88 58 89 60 90 59 91
REMARK H PARENT 76 59 54 70
REMARK Flexibility Score: inf
ROOT
ATOM      1  C   UNL A   1      36.967  33.527  30.004  1.00  0.00     0.274 C 
ENDROOT
BRANCH   1   2
ATOM      2  O   UNL A   1      37.914  33.275  31.076  1.00  0.00    -0.462 OA
BRANCH   2   3
ATOM      3  C   UNL A   1      39.200  33.328  30.665  1.00  0.00     0.312 C 
ATOM      4  O   UNL A   1      39.513  33.871  29.610  1.00  0.00    -0.252 OA
BRANCH   3   5
ATOM      5  C   UNL A   1      40.258  32.526  31.444  1.00  0.00     0.075 C 
ATOM      6  C   UNL A   1      42.083  25.803  26.919  1.00  0.00     0.105 C 
ATOM      7  C   UNL A   1      40.560  25.553  26.756  1.00  0.00     0.016 C 
ATOM      8  C   UNL A   1      42.516  27.066  27.745  1.00  0.00    -0.019 C 
ATOM      9  C   UNL A   1      39.559  26.191  27.743  1.00  0.00     0.008 C 
ATOM     10  C   UNL A   1      41.396  27.286  28.886  1.00  0.00     0.002 C 
ATOM     11  C   UNL A   1      43.916  26.930  28.407  1.00  0.00     0.012 C 
ATOM     12  C   UNL A   1      42.809  28.171  26.676  1.00  0.00     0.012 C 
ATOM     13  C   UNL A   1      39.961  27.573  28.337  1.00  0.00    -0.026 C 
ATOM     14  C   UNL A   1      41.737  28.229  30.021  1.00  0.00     0.005 C 
ATOM     15  C   UNL A   1      38.818  27.984  29.445  1.00  0.00     0.006 C 
ATOM     16  C   UNL A   1      40.044  28.603  27.169  1.00  0.00     0.012 C 
ATOM     17  C   UNL A   1      40.795  28.097  31.224  1.00  0.00     0.008 C 
ATOM     18  C   UNL A   1      37.903  29.138  28.865  1.00  0.00     0.032 C 
ATOM     19  C   UNL A   1      39.264  28.308  31.005  1.00  0.00    -0.020 C 
ATOM     20  C   UNL A   1      38.646  30.442  29.063  1.00  0.00    -0.027 C 
ATOM     21  C   UNL A   1      38.737  29.796  31.428  1.00  0.00    -0.006 C 
ATOM     22  C   UNL A   1      38.587  27.276  31.957  1.00  0.00     0.012 C 
ATOM     23  C   UNL A   1      39.260  30.605  30.246  1.00  0.00    -0.063 C 
ATOM     24  C   UNL A   1      39.155  30.496  32.782  1.00  0.00     0.013 C 
ATOM     25  C   UNL A   1      37.157  29.785  31.593  1.00  0.00     0.017 C 
ATOM     26  C   UNL A   1      40.564  31.359  30.504  1.00  0.00     0.033 C 
ATOM     27  C   UNL A   1      39.890  31.869  32.789  1.00  0.00     0.020 C 
ATOM     28  C   UNL A   1      41.534  31.741  29.361  1.00  0.00     0.015 C 
ATOM     29  C   UNL A   1      42.943  32.100  29.929  1.00  0.00    -0.035 C 
ATOM     30  C   UNL A   1      41.514  33.425  31.642  1.00  0.00     0.020 C 
ATOM     31  C   UNL A   1      42.848  32.730  31.345  1.00  0.00     0.007 C 
ATOM     32  C   UNL A   1      43.628  33.052  28.942  1.00  0.00     0.011 C 
ATOM     33  C   UNL A   1      43.857  30.862  30.021  1.00  0.00     0.011 C 
BRANCH   6  34
ATOM     34  C   UNL A   1      42.886  24.561  27.270  1.00  0.00     0.309 C 
ATOM     35  O   UNL A   1      42.649  23.892  28.272  1.00  0.00    -0.252 OA
BRANCH  34  36
ATOM     36  O   UNL A   1      43.777  24.228  26.303  1.00  0.00    -0.469 OA
ATOM     37  C   UNL A   1      43.640  24.954  25.075  1.00  0.00     0.282 C 
ENDBRANCH  34  36
ENDBRANCH   6  34
ENDBRANCH   3   5
ENDBRANCH   2   3
ENDBRANCH   1   2
BRANCH   1  38
ATOM     38  C   UNL A   1      35.451  33.696  30.281  1.00  0.00     0.275 C 
BRANCH  38  39
ATOM     39  O   UNL A   1      34.894  32.827  31.282  1.00  0.00    -0.458 OA
BRANCH  39  40
ATOM     40  C   UNL A   1      34.402  33.487  32.364  1.00  0.00     0.338 C 
ATOM     41  O   UNL A   1      33.299  33.955  32.483  1.00  0.00    -0.246 OA
BRANCH  40  42
ATOM     42  C   UNL A   1      35.322  33.347  33.524  1.00  0.00     0.060 A 
ATOM     43  C   UNL A   1      35.261  34.391  34.451  1.00  0.00     0.016 A 
ATOM     44  C   UNL A   1      36.233  32.305  33.698  1.00  0.00     0.016 A 
ATOM     45  C   UNL A   1      36.099  34.406  35.557  1.00  0.00     0.010 A 
ATOM     46  C   UNL A   1      37.148  32.367  34.764  1.00  0.00     0.010 A 
ATOM     47  C   UNL A   1      37.106  33.441  35.672  1.00  0.00    -0.014 A 
BRANCH  47  48
ATOM     48  C   UNL A   1      38.285  33.822  36.489  1.00  0.00     0.031 A 
ATOM     49  C   UNL A   1      38.293  33.315  37.912  1.00  0.00     0.074 A 
ATOM     50  C   UNL A   1      39.345  34.485  35.996  1.00  0.00     0.049 A 
ATOM     51  N   UNL A   1      39.222  33.408  38.827  1.00  0.00    -0.248 NA
ATOM     52  C   UNL A   1      37.095  32.574  38.348  1.00  0.00     0.031 C 
ATOM     53  C   UNL A   1      39.492  34.954  34.621  1.00  0.00     0.029 A 
ATOM     54  N   UNL A   1      40.521  34.853  36.602  1.00  0.00    -0.354 N 
ATOM     55  C   UNL A   1      38.719  32.729  39.930  1.00  0.00     0.074 A 
ATOM     56  C   UNL A   1      37.427  32.201  39.569  1.00  0.00     0.031 C 
ATOM     57  C   UNL A   1      40.704  35.522  34.479  1.00  0.00     0.029 A 
ATOM     58  C   UNL A   1      41.392  35.513  35.768  1.00  0.00     0.049 A 
ATOM     59  H   UNL A   1      40.721  34.663  37.547  1.00  0.00     0.167 HD
ATOM     60  C   UNL A   1      39.256  32.597  41.163  1.00  0.00     0.031 A 
ATOM     61  C   UNL A   1      42.591  36.070  36.035  1.00  0.00     0.031 A 
ATOM     62  C   UNL A   1      40.477  33.227  41.565  1.00  0.00     0.049 A 
ATOM     63  C   UNL A   1      43.116  36.014  37.450  1.00  0.00     0.074 A 
ATOM     64  C   UNL A   1      41.060  33.262  42.816  1.00  0.00     0.029 A 
ATOM     65  N   UNL A   1      41.284  33.966  40.714  1.00  0.00    -0.354 N 
ATOM     66  N   UNL A   1      42.617  35.398  38.495  1.00  0.00    -0.248 NA
ATOM     67  C   UNL A   1      44.357  36.755  37.726  1.00  0.00     0.031 C 
ATOM     68  C   UNL A   1      42.196  34.075  42.734  1.00  0.00     0.029 A 
ATOM     69  C   UNL A   1      42.351  34.488  41.420  1.00  0.00     0.049 A 
ATOM     70  H   UNL A   1      41.121  34.099  39.753  1.00  0.00     0.167 HD
ATOM     71  C   UNL A   1      43.480  35.672  39.550  1.00  0.00     0.074 A 
ATOM     72  C   UNL A   1      44.552  36.485  39.010  1.00  0.00     0.031 C 
ATOM     73  C   UNL A   1      43.395  35.299  40.850  1.00  0.00     0.031 A 
BRANCH  60  74
ATOM     74  C   UNL A   1      38.432  31.854  42.172  1.00  0.00    -0.014 A 
ATOM     75  C   UNL A   1      37.479  32.510  42.966  1.00  0.00     0.009 A 
ATOM     76  C   UNL A   1      38.676  30.488  42.386  1.00  0.00     0.009 A 
ATOM     77  C   UNL A   1      36.812  31.819  43.980  1.00  0.00     0.001 A 
ATOM     78  C   UNL A   1      37.991  29.796  43.384  1.00  0.00     0.001 A 
ATOM     79  C   UNL A   1      37.068  30.463  44.187  1.00  0.00     0.000 A 
ENDBRANCH  60  74
BRANCH  61  80
ATOM     80  C   UNL A   1      43.349  36.797  34.977  1.00  0.00    -0.014 A 
ATOM     81  C   UNL A   1      43.096  38.150  34.704  1.00  0.00     0.009 A 
ATOM     82  C   UNL A   1      44.302  36.122  34.196  1.00  0.00     0.009 A 
ATOM     83  C   UNL A   1      43.762  38.803  33.662  1.00  0.00     0.001 A 
ATOM     84  C   UNL A   1      44.989  36.784  33.175  1.00  0.00     0.001 A 
ATOM     85  C   UNL A   1      44.712  38.121  32.902  1.00  0.00     0.000 A 
ENDBRANCH  61  80
BRANCH  73  86
ATOM     86  C   UNL A   1      44.491  35.748  41.771  1.00  0.00    -0.014 A 
ATOM     87  C   UNL A   1      44.388  36.945  42.495  1.00  0.00     0.009 A 
ATOM     88  C   UNL A   1      45.610  34.923  41.966  1.00  0.00     0.009 A 
ATOM     89  C   UNL A   1      45.400  37.320  43.380  1.00  0.00     0.001 A 
ATOM     90  C   UNL A   1      46.606  35.288  42.872  1.00  0.00     0.001 A 
ATOM     91  C   UNL A   1      46.505  36.489  43.572  1.00  0.00     0.000 A 
ENDBRANCH  73  86
ENDBRANCH  47  48
ENDBRANCH  40  42
ENDBRANCH  39  40
ENDBRANCH  38  39
ENDBRANCH   1  38
TORSDOF 13
ENDMDL
