MODEL 1
REMARK VINA RESULT:     -12.0      0.000      0.000
REMARK SMILES COc1cccc(/C=C2/C(=O)N(c3cccc(C(=O)OCCOC(=O)c4ccc(-c5c6nc(c(-c7ccccc7)c7ccc([nH]7)c(-c7ccccc7)c7nc(c(-c8ccccc8)c8ccc5[nH]8)C=C7)C=C6)cc4)c3)N=C2C)c1
REMARK SMILES IDX 21 1 20 2 18 3 19 4 17 5 13 6 14 7 74 8 15 9 16 10 12 11
REMARK SMILES IDX 8 12 9 13 10 14 76 15 11 16 75 17 77 18 7 19 3 20 4 21 78 22
REMARK SMILES IDX 5 23 6 24 2 25 1 26 22 27 23 28 24 29 25 30 26 31 27 32
REMARK SMILES IDX 73 33 28 34 72 35 29 36 30 37 31 38 66 39 32 40 71 41 65 42
REMARK SMILES IDX 67 43 33 44 70 45 64 46 63 47 34 49 56 50 41 51 55 52 42 53
REMARK SMILES IDX 45 54 54 55 68 56 43 57 44 58 53 60 69 61 46 62 35 63 36 64
REMARK SMILES IDX 40 65 37 66 39 67 38 68 57 69 58 70 62 71 59 72 61 73 60 74
REMARK SMILES IDX 47 75 48 76 52 77 49 78 51 79 50 80
REMARK H PARENT 67 48 45 59
REMARK Flexibility Score: inf
ROOT
ATOM      1  C   UNL A   1      34.342  34.924  31.889  1.00  0.00     0.275 C 
ENDROOT
BRANCH   1   2
ATOM      2  O   UNL A   1      33.142  34.687  31.125  1.00  0.00    -0.458 OA
BRANCH   2   3
ATOM      3  C   UNL A   1      33.130  35.115  29.836  1.00  0.00     0.338 C 
ATOM      4  O   UNL A   1      32.609  36.133  29.411  1.00  0.00    -0.246 OA
BRANCH   3   5
ATOM      5  C   UNL A   1      33.998  34.236  29.013  1.00  0.00     0.062 A 
ATOM      6  C   UNL A   1      34.415  32.126  27.914  1.00  0.00     0.070 A 
ATOM      7  C   UNL A   1      35.770  32.452  27.790  1.00  0.00     0.028 A 
ATOM      8  C   UNL A   1      33.538  33.004  28.559  1.00  0.00     0.044 A 
ATOM      9  C   UNL A   1      36.209  33.722  28.154  1.00  0.00     0.003 A 
ATOM     10  C   UNL A   1      35.309  34.629  28.712  1.00  0.00     0.016 A 
BRANCH   6  11
ATOM     11  N   UNL A   1      33.922  30.947  27.343  1.00  0.00    -0.196 N 
ATOM     12  C   UNL A   1      33.840  27.526  26.557  1.00  0.00     0.024 C 
ATOM     13  C   UNL A   1      33.606  28.838  26.665  1.00  0.00     0.065 C 
ATOM     14  C   UNL A   1      34.561  29.705  27.385  1.00  0.00     0.280 C 
ATOM     15  C   UNL A   1      32.526  29.750  26.238  1.00  0.00     0.071 C 
ATOM     16  O   UNL A   1      35.608  29.355  27.893  1.00  0.00    -0.267 OA
ATOM     17  N   UNL A   1      32.706  30.966  26.686  1.00  0.00    -0.169 NA
ATOM     18  C   UNL A   1      31.373  29.383  25.368  1.00  0.00     0.069 C 
BRANCH  12  19
ATOM     19  C   UNL A   1      32.987  26.604  25.824  1.00  0.00    -0.021 A 
ATOM     20  C   UNL A   1      31.172  25.005  25.856  1.00  0.00     0.119 A 
ATOM     21  C   UNL A   1      31.454  24.686  24.527  1.00  0.00     0.046 A 
ATOM     22  C   UNL A   1      31.933  25.976  26.499  1.00  0.00     0.054 A 
ATOM     23  C   UNL A   1      32.468  25.351  23.833  1.00  0.00     0.004 A 
ATOM     24  C   UNL A   1      33.238  26.313  24.483  1.00  0.00     0.008 A 
BRANCH  20  25
ATOM     25  O   UNL A   1      30.180  24.270  26.445  1.00  0.00    -0.497 OA
ATOM     26  C   UNL A   1      30.414  22.868  26.537  1.00  0.00     0.278 C 
ENDBRANCH  20  25
ENDBRANCH  12  19
ENDBRANCH   6  11
ENDBRANCH   3   5
ENDBRANCH   2   3
ENDBRANCH   1   2
BRANCH   1  27
ATOM     27  C   UNL A   1      34.398  34.040  33.139  1.00  0.00     0.275 C 
BRANCH  27  28
ATOM     28  O   UNL A   1      34.912  32.734  32.817  1.00  0.00    -0.458 OA
BRANCH  28  29
ATOM     29  C   UNL A   1      36.072  32.414  33.430  1.00  0.00     0.338 C 
ATOM     30  O   UNL A   1      36.382  32.607  34.594  1.00  0.00    -0.246 OA
BRANCH  29  31
ATOM     31  C   UNL A   1      36.923  31.636  32.520  1.00  0.00     0.060 A 
ATOM     32  C   UNL A   1      37.878  30.819  33.107  1.00  0.00     0.016 A 
ATOM     33  C   UNL A   1      36.942  31.852  31.148  1.00  0.00     0.016 A 
ATOM     34  C   UNL A   1      38.934  30.306  32.366  1.00  0.00     0.010 A 
ATOM     35  C   UNL A   1      37.947  31.248  30.377  1.00  0.00     0.010 A 
ATOM     36  C   UNL A   1      38.986  30.511  30.983  1.00  0.00    -0.014 A 
BRANCH  36  37
ATOM     37  C   UNL A   1      40.161  30.024  30.203  1.00  0.00     0.031 A 
ATOM     38  C   UNL A   1      41.371  30.909  30.032  1.00  0.00     0.074 A 
ATOM     39  C   UNL A   1      40.177  28.778  29.684  1.00  0.00     0.049 A 
ATOM     40  N   UNL A   1      42.424  30.738  29.271  1.00  0.00    -0.248 NA
ATOM     41  C   UNL A   1      41.395  32.157  30.812  1.00  0.00     0.031 C 
ATOM     42  C   UNL A   1      39.117  27.777  29.830  1.00  0.00     0.029 A 
ATOM     43  N   UNL A   1      41.132  28.136  28.932  1.00  0.00    -0.354 N 
ATOM     44  C   UNL A   1      43.204  31.877  29.440  1.00  0.00     0.074 A 
ATOM     45  C   UNL A   1      42.496  32.741  30.358  1.00  0.00     0.031 C 
ATOM     46  C   UNL A   1      39.496  26.641  29.226  1.00  0.00     0.029 A 
ATOM     47  C   UNL A   1      40.776  26.858  28.566  1.00  0.00     0.049 A 
ATOM     48  H   UNL A   1      41.988  28.550  28.679  1.00  0.00     0.167 HD
ATOM     49  C   UNL A   1      44.403  32.177  28.885  1.00  0.00     0.031 A 
ATOM     50  C   UNL A   1      41.386  25.974  27.754  1.00  0.00     0.031 A 
ATOM     51  C   UNL A   1      45.125  31.304  27.995  1.00  0.00     0.049 A 
ATOM     52  C   UNL A   1      42.674  26.364  27.084  1.00  0.00     0.074 A 
ATOM     53  C   UNL A   1      46.345  31.519  27.376  1.00  0.00     0.029 A 
ATOM     54  N   UNL A   1      44.699  30.042  27.611  1.00  0.00    -0.354 N 
ATOM     55  N   UNL A   1      43.373  27.465  27.210  1.00  0.00    -0.248 NA
ATOM     56  C   UNL A   1      43.254  25.385  26.154  1.00  0.00     0.031 C 
ATOM     57  C   UNL A   1      46.631  30.409  26.576  1.00  0.00     0.029 A 
ATOM     58  C   UNL A   1      45.624  29.472  26.752  1.00  0.00     0.049 A 
ATOM     59  H   UNL A   1      43.863  29.614  27.905  1.00  0.00     0.167 HD
ATOM     60  C   UNL A   1      44.491  27.298  26.403  1.00  0.00     0.074 A 
ATOM     61  C   UNL A   1      44.385  25.982  25.808  1.00  0.00     0.031 C 
ATOM     62  C   UNL A   1      45.514  28.157  26.176  1.00  0.00     0.031 A 
BRANCH  49  63
ATOM     63  C   UNL A   1      44.995  33.527  29.191  1.00  0.00    -0.014 A 
ATOM     64  C   UNL A   1      45.880  33.718  30.264  1.00  0.00     0.009 A 
ATOM     65  C   UNL A   1      44.687  34.621  28.366  1.00  0.00     0.009 A 
ATOM     66  C   UNL A   1      46.411  34.984  30.528  1.00  0.00     0.001 A 
ATOM     67  C   UNL A   1      45.245  35.878  28.611  1.00  0.00     0.001 A 
ATOM     68  C   UNL A   1      46.098  36.060  29.698  1.00  0.00     0.000 A 
ENDBRANCH  49  63
BRANCH  50  69
ATOM     69  C   UNL A   1      40.766  24.648  27.482  1.00  0.00    -0.014 A 
ATOM     70  C   UNL A   1      41.307  23.477  28.033  1.00  0.00     0.009 A 
ATOM     71  C   UNL A   1      39.646  24.542  26.640  1.00  0.00     0.009 A 
ATOM     72  C   UNL A   1      40.762  22.229  27.722  1.00  0.00     0.001 A 
ATOM     73  C   UNL A   1      39.080  23.297  26.362  1.00  0.00     0.001 A 
ATOM     74  C   UNL A   1      39.645  22.140  26.891  1.00  0.00     0.000 A 
ENDBRANCH  50  69
BRANCH  62  75
ATOM     75  C   UNL A   1      46.636  27.673  25.301  1.00  0.00    -0.014 A 
ATOM     76  C   UNL A   1      47.631  26.811  25.787  1.00  0.00     0.009 A 
ATOM     77  C   UNL A   1      46.684  28.075  23.956  1.00  0.00     0.009 A 
ATOM     78  C   UNL A   1      48.674  26.396  24.955  1.00  0.00     0.001 A 
ATOM     79  C   UNL A   1      47.706  27.631  23.118  1.00  0.00     0.001 A 
ATOM     80  C   UNL A   1      48.707  26.802  23.621  1.00  0.00     0.000 A 
ENDBRANCH  62  75
ENDBRANCH  36  37
ENDBRANCH  29  31
ENDBRANCH  28  29
ENDBRANCH  27  28
ENDBRANCH   1  27
TORSDOF 14
ENDMDL
MODEL 2
REMARK VINA RESULT:     -11.6      3.616      6.502
REMARK SMILES COc1cccc(/C=C2/C(=O)N(c3cccc(C(=O)OCCOC(=O)c4ccc(-c5c6nc(c(-c7ccccc7)c7ccc([nH]7)c(-c7ccccc7)c7nc(c(-c8ccccc8)c8ccc5[nH]8)C=C7)C=C6)cc4)c3)N=C2C)c1
REMARK SMILES IDX 21 1 20 2 18 3 19 4 17 5 13 6 14 7 74 8 15 9 16 10 12 11
REMARK SMILES IDX 8 12 9 13 10 14 76 15 11 16 75 17 77 18 7 19 3 20 4 21 78 22
REMARK SMILES IDX 5 23 6 24 2 25 1 26 22 27 23 28 24 29 25 30 26 31 27 32
REMARK SMILES IDX 73 33 28 34 72 35 29 36 30 37 31 38 66 39 32 40 71 41 65 42
REMARK SMILES IDX 67 43 33 44 70 45 64 46 63 47 34 49 56 50 41 51 55 52 42 53
REMARK SMILES IDX 45 54 54 55 68 56 43 57 44 58 53 60 69 61 46 62 35 63 36 64
REMARK SMILES IDX 40 65 37 66 39 67 38 68 57 69 58 70 62 71 59 72 61 73 60 74
REMARK SMILES IDX 47 75 48 76 52 77 49 78 51 79 50 80
REMARK H PARENT 67 48 45 59
REMARK Flexibility Score: inf
ROOT
ATOM      1  C   UNL A   1      33.245  33.888  28.017  1.00  0.00     0.275 C 
ENDROOT
BRANCH   1   2
ATOM      2  O   UNL A   1      32.821  34.379  29.305  1.00  0.00    -0.458 OA
BRANCH   2   3
ATOM      3  C   UNL A   1      32.866  35.721  29.506  1.00  0.00     0.338 C 
ATOM      4  O   UNL A   1      32.354  36.580  28.808  1.00  0.00    -0.246 OA
BRANCH   3   5
ATOM      5  C   UNL A   1      33.505  36.006  30.816  1.00  0.00     0.062 A 
ATOM      6  C   UNL A   1      34.987  35.372  32.614  1.00  0.00     0.070 A 
ATOM      7  C   UNL A   1      34.421  36.353  33.434  1.00  0.00     0.028 A 
ATOM      8  C   UNL A   1      34.502  35.176  31.317  1.00  0.00     0.044 A 
ATOM      9  C   UNL A   1      33.495  37.246  32.903  1.00  0.00     0.003 A 
ATOM     10  C   UNL A   1      33.083  37.103  31.578  1.00  0.00     0.016 A 
BRANCH   6  11
ATOM     11  N   UNL A   1      36.079  34.622  33.068  1.00  0.00    -0.196 N 
ATOM     12  C   UNL A   1      37.746  32.088  34.836  1.00  0.00     0.024 C 
ATOM     13  C   UNL A   1      37.415  33.141  34.082  1.00  0.00     0.065 C 
ATOM     14  C   UNL A   1      36.007  33.578  33.995  1.00  0.00     0.280 C 
ATOM     15  C   UNL A   1      38.148  34.071  33.199  1.00  0.00     0.071 C 
ATOM     16  O   UNL A   1      35.064  33.086  34.582  1.00  0.00    -0.267 OA
ATOM     17  N   UNL A   1      37.343  34.895  32.580  1.00  0.00    -0.169 NA
ATOM     18  C   UNL A   1      39.628  34.127  33.034  1.00  0.00     0.069 C 
BRANCH  12  19
ATOM     19  C   UNL A   1      39.109  31.617  35.026  1.00  0.00    -0.021 A 
ATOM     20  C   UNL A   1      40.848  30.042  34.438  1.00  0.00     0.119 A 
ATOM     21  C   UNL A   1      41.631  30.546  35.477  1.00  0.00     0.046 A 
ATOM     22  C   UNL A   1      39.590  30.590  34.206  1.00  0.00     0.054 A 
ATOM     23  C   UNL A   1      41.177  31.609  36.261  1.00  0.00     0.004 A 
ATOM     24  C   UNL A   1      39.912  32.147  36.037  1.00  0.00     0.008 A 
BRANCH  20  25
ATOM     25  O   UNL A   1      41.378  28.982  33.756  1.00  0.00    -0.497 OA
ATOM     26  C   UNL A   1      40.446  28.154  33.068  1.00  0.00     0.278 C 
ENDBRANCH  20  25
ENDBRANCH  12  19
ENDBRANCH   6  11
ENDBRANCH   3   5
ENDBRANCH   2   3
ENDBRANCH   1   2
BRANCH   1  27
ATOM     27  C   UNL A   1      34.651  33.284  28.079  1.00  0.00     0.275 C 
BRANCH  27  28
ATOM     28  O   UNL A   1      34.663  32.104  28.905  1.00  0.00    -0.458 OA
BRANCH  28  29
ATOM     29  C   UNL A   1      34.511  30.941  28.235  1.00  0.00     0.338 C 
ATOM     30  O   UNL A   1      33.556  30.582  27.566  1.00  0.00    -0.246 OA
BRANCH  29  31
ATOM     31  C   UNL A   1      35.754  30.160  28.295  1.00  0.00     0.060 A 
ATOM     32  C   UNL A   1      36.072  29.590  29.519  1.00  0.00     0.016 A 
ATOM     33  C   UNL A   1      36.685  30.159  27.264  1.00  0.00     0.016 A 
ATOM     34  C   UNL A   1      37.353  29.124  29.779  1.00  0.00     0.010 A 
ATOM     35  C   UNL A   1      37.949  29.591  27.489  1.00  0.00     0.010 A 
ATOM     36  C   UNL A   1      38.317  29.115  28.766  1.00  0.00    -0.014 A 
BRANCH  36  37
ATOM     37  C   UNL A   1      39.712  28.684  29.069  1.00  0.00     0.031 A 
ATOM     38  C   UNL A   1      40.631  29.599  29.843  1.00  0.00     0.074 A 
ATOM     39  C   UNL A   1      40.155  27.464  28.703  1.00  0.00     0.049 A 
ATOM     40  N   UNL A   1      41.914  29.481  30.077  1.00  0.00    -0.248 NA
ATOM     41  C   UNL A   1      40.028  30.812  30.419  1.00  0.00     0.031 C 
ATOM     42  C   UNL A   1      39.362  26.437  28.019  1.00  0.00     0.029 A 
ATOM     43  N   UNL A   1      41.385  26.873  28.865  1.00  0.00    -0.354 N 
ATOM     44  C   UNL A   1      42.280  30.626  30.777  1.00  0.00     0.074 A 
ATOM     45  C   UNL A   1      41.089  31.436  30.912  1.00  0.00     0.031 C 
ATOM     46  C   UNL A   1      40.111  25.336  27.858  1.00  0.00     0.029 A 
ATOM     47  C   UNL A   1      41.461  25.606  28.334  1.00  0.00     0.049 A 
ATOM     48  H   UNL A   1      42.140  27.313  29.316  1.00  0.00     0.167 HD
ATOM     49  C   UNL A   1      43.494  30.973  31.267  1.00  0.00     0.031 A 
ATOM     50  C   UNL A   1      42.508  24.770  28.201  1.00  0.00     0.031 A 
ATOM     51  C   UNL A   1      44.674  30.154  31.162  1.00  0.00     0.049 A 
ATOM     52  C   UNL A   1      43.863  25.212  28.677  1.00  0.00     0.074 A 
ATOM     53  C   UNL A   1      45.953  30.418  31.621  1.00  0.00     0.029 A 
ATOM     54  N   UNL A   1      44.714  28.901  30.568  1.00  0.00    -0.354 N 
ATOM     55  N   UNL A   1      44.205  26.320  29.288  1.00  0.00    -0.248 NA
ATOM     56  C   UNL A   1      44.979  24.286  28.440  1.00  0.00     0.031 C 
ATOM     57  C   UNL A   1      46.779  29.349  31.258  1.00  0.00     0.029 A 
ATOM     58  C   UNL A   1      45.999  28.388  30.635  1.00  0.00     0.049 A 
ATOM     59  H   UNL A   1      43.944  28.445  30.158  1.00  0.00     0.167 HD
ATOM     60  C   UNL A   1      45.567  26.209  29.538  1.00  0.00     0.074 A 
ATOM     61  C   UNL A   1      45.983  24.919  29.030  1.00  0.00     0.031 C 
ATOM     62  C   UNL A   1      46.398  27.097  30.137  1.00  0.00     0.031 A 
BRANCH  49  63
ATOM     63  C   UNL A   1      43.621  32.319  31.930  1.00  0.00    -0.014 A 
ATOM     64  C   UNL A   1      43.885  33.483  31.191  1.00  0.00     0.009 A 
ATOM     65  C   UNL A   1      43.437  32.427  33.318  1.00  0.00     0.009 A 
ATOM     66  C   UNL A   1      44.002  34.719  31.832  1.00  0.00     0.001 A 
ATOM     67  C   UNL A   1      43.521  33.668  33.953  1.00  0.00     0.001 A 
ATOM     68  C   UNL A   1      43.814  34.811  33.211  1.00  0.00     0.000 A 
ENDBRANCH  49  63
BRANCH  50  69
ATOM     69  C   UNL A   1      42.336  23.445  27.542  1.00  0.00    -0.014 A 
ATOM     70  C   UNL A   1      42.580  23.291  26.169  1.00  0.00     0.009 A 
ATOM     71  C   UNL A   1      41.894  22.333  28.278  1.00  0.00     0.009 A 
ATOM     72  C   UNL A   1      42.354  22.063  25.542  1.00  0.00     0.001 A 
ATOM     73  C   UNL A   1      41.707  21.097  27.656  1.00  0.00     0.001 A 
ATOM     74  C   UNL A   1      41.923  20.966  26.288  1.00  0.00     0.000 A 
ENDBRANCH  50  69
BRANCH  62  75
ATOM     75  C   UNL A   1      47.826  26.672  30.338  1.00  0.00    -0.014 A 
ATOM     76  C   UNL A   1      48.835  27.023  29.427  1.00  0.00     0.009 A 
ATOM     77  C   UNL A   1      48.168  25.923  31.475  1.00  0.00     0.009 A 
ATOM     78  C   UNL A   1      50.149  26.594  29.631  1.00  0.00     0.001 A 
ATOM     79  C   UNL A   1      49.487  25.526  31.693  1.00  0.00     0.001 A 
ATOM     80  C   UNL A   1      50.474  25.851  30.765  1.00  0.00     0.000 A 
ENDBRANCH  62  75
ENDBRANCH  36  37
ENDBRANCH  29  31
ENDBRANCH  28  29
ENDBRANCH  27  28
ENDBRANCH   1  27
TORSDOF 14
ENDMDL
MODEL 3
REMARK VINA RESULT:     -11.4      0.976      5.888
REMARK SMILES COc1cccc(/C=C2/C(=O)N(c3cccc(C(=O)OCCOC(=O)c4ccc(-c5c6nc(c(-c7ccccc7)c7ccc([nH]7)c(-c7ccccc7)c7nc(c(-c8ccccc8)c8ccc5[nH]8)C=C7)C=C6)cc4)c3)N=C2C)c1
REMARK SMILES IDX 21 1 20 2 18 3 19 4 17 5 13 6 14 7 74 8 15 9 16 10 12 11
REMARK SMILES IDX 8 12 9 13 10 14 76 15 11 16 75 17 77 18 7 19 3 20 4 21 78 22
REMARK SMILES IDX 5 23 6 24 2 25 1 26 22 27 23 28 24 29 25 30 26 31 27 32
REMARK SMILES IDX 73 33 28 34 72 35 29 36 30 37 31 38 66 39 32 40 71 41 65 42
REMARK SMILES IDX 67 43 33 44 70 45 64 46 63 47 34 49 56 50 41 51 55 52 42 53
REMARK SMILES IDX 45 54 54 55 68 56 43 57 44 58 53 60 69 61 46 62 35 63 36 64
REMARK SMILES IDX 40 65 37 66 39 67 38 68 57 69 58 70 62 71 59 72 61 73 60 74
REMARK SMILES IDX 47 75 48 76 52 77 49 78 51 79 50 80
REMARK H PARENT 67 48 45 59
REMARK Flexibility Score: inf
ROOT
ATOM      1  C   UNL A   1      35.075  34.494  33.990  1.00  0.00     0.275 C 
ENDROOT
BRANCH   1   2
ATOM      2  O   UNL A   1      35.408  34.704  32.602  1.00  0.00    -0.458 OA
BRANCH   2   3
ATOM      3  C   UNL A   1      34.469  34.372  31.678  1.00  0.00     0.338 C 
ATOM      4  O   UNL A   1      33.279  34.636  31.722  1.00  0.00    -0.246 OA
BRANCH   3   5
ATOM      5  C   UNL A   1      35.129  33.765  30.495  1.00  0.00     0.062 A 
ATOM      6  C   UNL A   1      35.240  32.052  28.796  1.00  0.00     0.070 A 
ATOM      7  C   UNL A   1      36.562  32.409  28.514  1.00  0.00     0.028 A 
ATOM      8  C   UNL A   1      34.538  32.707  29.814  1.00  0.00     0.044 A 
ATOM      9  C   UNL A   1      37.119  33.528  29.125  1.00  0.00     0.003 A 
ATOM     10  C   UNL A   1      36.380  34.236  30.073  1.00  0.00     0.016 A 
BRANCH   6  11
ATOM     11  N   UNL A   1      34.595  31.077  28.026  1.00  0.00    -0.196 N 
ATOM     12  C   UNL A   1      34.113  27.935  26.535  1.00  0.00     0.024 C 
ATOM     13  C   UNL A   1      34.025  29.206  26.938  1.00  0.00     0.065 C 
ATOM     14  C   UNL A   1      35.102  29.803  27.753  1.00  0.00     0.280 C 
ATOM     15  C   UNL A   1      33.025  30.285  26.798  1.00  0.00     0.071 C 
ATOM     16  O   UNL A   1      36.132  29.257  28.095  1.00  0.00    -0.267 OA
ATOM     17  N   UNL A   1      33.354  31.351  27.480  1.00  0.00    -0.169 NA
ATOM     18  C   UNL A   1      31.795  30.224  25.958  1.00  0.00     0.069 C 
BRANCH  12  19
ATOM     19  C   UNL A   1      33.130  27.278  25.688  1.00  0.00    -0.021 A 
ATOM     20  C   UNL A   1      31.304  25.705  25.486  1.00  0.00     0.119 A 
ATOM     21  C   UNL A   1      31.360  25.845  24.099  1.00  0.00     0.046 A 
ATOM     22  C   UNL A   1      32.183  26.435  26.280  1.00  0.00     0.054 A 
ATOM     23  C   UNL A   1      32.266  26.729  23.508  1.00  0.00     0.004 A 
ATOM     24  C   UNL A   1      33.155  27.448  24.303  1.00  0.00     0.008 A 
BRANCH  20  25
ATOM     25  O   UNL A   1      30.401  24.790  25.954  1.00  0.00    -0.497 OA
ATOM     26  C   UNL A   1      30.822  23.430  25.928  1.00  0.00     0.278 C 
ENDBRANCH  20  25
ENDBRANCH  12  19
ENDBRANCH   6  11
ENDBRANCH   3   5
ENDBRANCH   2   3
ENDBRANCH   1   2
BRANCH   1  27
ATOM     27  C   UNL A   1      36.123  33.630  34.696  1.00  0.00     0.275 C 
BRANCH  27  28
ATOM     28  O   UNL A   1      36.388  32.431  33.943  1.00  0.00    -0.458 OA
BRANCH  28  29
ATOM     29  C   UNL A   1      37.390  31.666  34.427  1.00  0.00     0.338 C 
ATOM     30  O   UNL A   1      37.644  31.415  35.593  1.00  0.00    -0.246 OA
BRANCH  29  31
ATOM     31  C   UNL A   1      38.107  31.019  33.320  1.00  0.00     0.060 A 
ATOM     32  C   UNL A   1      39.265  30.328  33.648  1.00  0.00     0.016 A 
ATOM     33  C   UNL A   1      37.791  31.252  31.988  1.00  0.00     0.016 A 
ATOM     34  C   UNL A   1      40.184  29.969  32.672  1.00  0.00     0.010 A 
ATOM     35  C   UNL A   1      38.667  30.796  30.990  1.00  0.00     0.010 A 
ATOM     36  C   UNL A   1      39.900  30.196  31.322  1.00  0.00    -0.014 A 
BRANCH  36  37
ATOM     37  C   UNL A   1      40.922  29.877  30.283  1.00  0.00     0.031 A 
ATOM     38  C   UNL A   1      40.807  28.604  29.480  1.00  0.00     0.074 A 
ATOM     39  C   UNL A   1      41.927  30.736  30.015  1.00  0.00     0.049 A 
ATOM     40  N   UNL A   1      41.664  28.070  28.645  1.00  0.00    -0.248 NA
ATOM     41  C   UNL A   1      39.571  27.823  29.648  1.00  0.00     0.031 C 
ATOM     42  C   UNL A   1      42.128  32.042  30.651  1.00  0.00     0.029 A 
ATOM     43  N   UNL A   1      42.969  30.643  29.124  1.00  0.00    -0.354 N 
ATOM     44  C   UNL A   1      41.095  26.869  28.232  1.00  0.00     0.074 A 
ATOM     45  C   UNL A   1      39.830  26.743  28.924  1.00  0.00     0.031 C 
ATOM     46  C   UNL A   1      43.196  32.640  30.103  1.00  0.00     0.029 A 
ATOM     47  C   UNL A   1      43.815  31.727  29.151  1.00  0.00     0.049 A 
ATOM     48  H   UNL A   1      43.099  29.874  28.524  1.00  0.00     0.167 HD
ATOM     49  C   UNL A   1      41.576  25.956  27.356  1.00  0.00     0.031 A 
ATOM     50  C   UNL A   1      44.984  31.947  28.519  1.00  0.00     0.031 A 
ATOM     51  C   UNL A   1      42.820  26.095  26.643  1.00  0.00     0.049 A 
ATOM     52  C   UNL A   1      45.538  30.882  27.616  1.00  0.00     0.074 A 
ATOM     53  C   UNL A   1      43.398  25.223  25.736  1.00  0.00     0.029 A 
ATOM     54  N   UNL A   1      43.669  27.187  26.744  1.00  0.00    -0.354 N 
ATOM     55  N   UNL A   1      45.016  29.728  27.278  1.00  0.00    -0.248 NA
ATOM     56  C   UNL A   1      46.851  31.149  27.010  1.00  0.00     0.031 C 
ATOM     57  C   UNL A   1      44.623  25.762  25.330  1.00  0.00     0.029 A 
ATOM     58  C   UNL A   1      44.774  27.002  25.929  1.00  0.00     0.049 A 
ATOM     59  H   UNL A   1      43.511  27.975  27.311  1.00  0.00     0.167 HD
ATOM     60  C   UNL A   1      45.919  29.149  26.394  1.00  0.00     0.074 A 
ATOM     61  C   UNL A   1      47.011  30.086  26.236  1.00  0.00     0.031 C 
ATOM     62  C   UNL A   1      45.848  27.948  25.770  1.00  0.00     0.031 A 
BRANCH  49  63
ATOM     63  C   UNL A   1      40.775  24.699  27.147  1.00  0.00    -0.014 A 
ATOM     64  C   UNL A   1      41.196  23.462  27.661  1.00  0.00     0.009 A 
ATOM     65  C   UNL A   1      39.556  24.763  26.453  1.00  0.00     0.009 A 
ATOM     66  C   UNL A   1      40.433  22.310  27.448  1.00  0.00     0.001 A 
ATOM     67  C   UNL A   1      38.779  23.617  26.271  1.00  0.00     0.001 A 
ATOM     68  C   UNL A   1      39.224  22.389  26.759  1.00  0.00     0.000 A 
ENDBRANCH  49  63
BRANCH  50  69
ATOM     69  C   UNL A   1      45.742  33.208  28.752  1.00  0.00    -0.014 A 
ATOM     70  C   UNL A   1      46.616  33.326  29.843  1.00  0.00     0.009 A 
ATOM     71  C   UNL A   1      45.569  34.313  27.902  1.00  0.00     0.009 A 
ATOM     72  C   UNL A   1      47.275  34.532  30.096  1.00  0.00     0.001 A 
ATOM     73  C   UNL A   1      46.259  35.504  28.135  1.00  0.00     0.001 A 
ATOM     74  C   UNL A   1      47.100  35.618  29.238  1.00  0.00     0.000 A 
ENDBRANCH  50  69
BRANCH  62  75
ATOM     75  C   UNL A   1      46.949  27.612  24.802  1.00  0.00    -0.014 A 
ATOM     76  C   UNL A   1      46.925  28.060  23.473  1.00  0.00     0.009 A 
ATOM     77  C   UNL A   1      48.040  26.845  25.241  1.00  0.00     0.009 A 
ATOM     78  C   UNL A   1      47.952  27.712  22.593  1.00  0.00     0.001 A 
ATOM     79  C   UNL A   1      49.081  26.528  24.369  1.00  0.00     0.001 A 
ATOM     80  C   UNL A   1      49.031  26.951  23.043  1.00  0.00     0.000 A 
ENDBRANCH  62  75
ENDBRANCH  36  37
ENDBRANCH  29  31
ENDBRANCH  28  29
ENDBRANCH  27  28
ENDBRANCH   1  27
TORSDOF 14
ENDMDL
