MODEL 1
REMARK VINA RESULT:      -9.8      0.000      0.000
REMARK SMILES COc1ccccc1N1C(=O)CC[C@H]1CC(=O)OCCOC(=O)c1ccc(-c2c3nc(c(-c4ccccc4)c4ccc([nH]4)c(-c4ccccc4)c4nc(c(-c5ccccc5)c5ccc2[nH]5)C=C4)C=C3)cc1
REMARK SMILES IDX 19 1 18 2 16 3 17 4 15 5 14 6 9 7 10 8 11 9 12 10 13 11 8 12
REMARK SMILES IDX 3 13 4 14 5 15 7 16 6 17 2 18 1 19 20 20 21 21 22 22 23 23
REMARK SMILES IDX 24 24 25 25 71 26 26 27 70 28 27 29 28 30 29 31 64 32 30 33
REMARK SMILES IDX 69 34 63 35 65 36 31 37 68 38 62 39 61 40 32 42 54 43 39 44
REMARK SMILES IDX 53 45 40 46 43 47 52 48 66 49 41 50 42 51 51 53 67 54 44 55
REMARK SMILES IDX 33 56 34 57 38 58 35 59 37 60 36 61 55 62 56 63 60 64 57 65
REMARK SMILES IDX 59 66 58 67 45 68 46 69 50 70 47 71 49 72 48 73
REMARK H PARENT 65 41 43 52
REMARK Flexibility Score: inf
ROOT
ATOM      1  C   UNL A   1      37.552  20.329  25.028  1.00  0.00     0.274 C 
ENDROOT
BRANCH   1   2
ATOM      2  O   UNL A   1      37.596  21.661  24.461  1.00  0.00    -0.462 OA
BRANCH   2   3
ATOM      3  C   UNL A   1      37.550  22.697  25.332  1.00  0.00     0.308 C 
ATOM      4  O   UNL A   1      38.411  22.924  26.178  1.00  0.00    -0.252 OA
BRANCH   3   5
ATOM      5  C   UNL A   1      36.416  23.673  25.081  1.00  0.00     0.148 C 
BRANCH   5   6
ATOM      6  C   UNL A   1      35.229  23.755  26.042  1.00  0.00     0.102 C 
ATOM      7  N   UNL A   1      34.006  24.385  25.578  1.00  0.00    -0.305 N 
ATOM      8  C   UNL A   1      32.871  23.719  26.055  1.00  0.00     0.227 C 
ATOM      9  O   UNL A   1      31.695  24.006  25.899  1.00  0.00    -0.275 OA
ATOM     10  C   UNL A   1      33.352  22.635  26.990  1.00  0.00     0.103 C 
ATOM     11  C   UNL A   1      34.771  22.379  26.518  1.00  0.00     0.036 C 
BRANCH   7  12
ATOM     12  C   UNL A   1      33.924  25.678  24.994  1.00  0.00     0.086 A 
ATOM     13  C   UNL A   1      33.842  25.886  23.605  1.00  0.00     0.142 A 
ATOM     14  C   UNL A   1      33.617  27.161  23.072  1.00  0.00     0.048 A 
ATOM     15  C   UNL A   1      33.521  28.261  23.921  1.00  0.00     0.004 A 
ATOM     16  C   UNL A   1      33.898  26.807  25.826  1.00  0.00     0.030 A 
ATOM     17  C   UNL A   1      33.678  28.086  25.296  1.00  0.00     0.002 A 
BRANCH  13  18
ATOM     18  O   UNL A   1      34.051  24.867  22.706  1.00  0.00    -0.495 OA
ATOM     19  C   UNL A   1      32.779  24.411  22.229  1.00  0.00     0.278 C 
ENDBRANCH  13  18
ENDBRANCH   7  12
ENDBRANCH   5   6
ENDBRANCH   3   5
ENDBRANCH   2   3
ENDBRANCH   1   2
BRANCH   1  20
ATOM     20  C   UNL A   1      38.924  19.635  24.954  1.00  0.00     0.275 C 
BRANCH  20  21
ATOM     21  O   UNL A   1      39.604  19.588  26.233  1.00  0.00    -0.458 OA
BRANCH  21  22
ATOM     22  C   UNL A   1      40.930  19.738  26.109  1.00  0.00     0.338 C 
ATOM     23  O   UNL A   1      41.694  18.932  25.576  1.00  0.00    -0.246 OA
BRANCH  22  24
ATOM     24  C   UNL A   1      41.509  20.961  26.627  1.00  0.00     0.060 A 
ATOM     25  C   UNL A   1      41.266  21.278  27.967  1.00  0.00     0.016 A 
ATOM     26  C   UNL A   1      41.953  21.928  25.722  1.00  0.00     0.016 A 
ATOM     27  C   UNL A   1      41.462  22.580  28.406  1.00  0.00     0.010 A 
ATOM     28  C   UNL A   1      42.188  23.226  26.175  1.00  0.00     0.010 A 
ATOM     29  C   UNL A   1      41.941  23.556  27.517  1.00  0.00    -0.014 A 
BRANCH  29  30
ATOM     30  C   UNL A   1      42.360  24.867  28.048  1.00  0.00     0.031 A 
ATOM     31  C   UNL A   1      43.775  25.165  28.429  1.00  0.00     0.074 A 
ATOM     32  C   UNL A   1      41.394  25.791  28.186  1.00  0.00     0.049 A 
ATOM     33  N   UNL A   1      44.267  26.268  28.935  1.00  0.00    -0.248 NA
ATOM     34  C   UNL A   1      44.766  24.099  28.221  1.00  0.00     0.031 C 
ATOM     35  C   UNL A   1      39.987  25.588  27.830  1.00  0.00     0.029 A 
ATOM     36  N   UNL A   1      41.441  27.074  28.656  1.00  0.00    -0.354 N 
ATOM     37  C   UNL A   1      45.623  26.031  29.116  1.00  0.00     0.074 A 
ATOM     38  C   UNL A   1      45.875  24.674  28.673  1.00  0.00     0.031 C 
ATOM     39  C   UNL A   1      39.305  26.712  28.083  1.00  0.00     0.029 A 
ATOM     40  C   UNL A   1      40.217  27.692  28.658  1.00  0.00     0.049 A 
ATOM     41  H   UNL A   1      42.269  27.510  28.960  1.00  0.00     0.167 HD
ATOM     42  C   UNL A   1      46.561  26.875  29.612  1.00  0.00     0.031 A 
ATOM     43  C   UNL A   1      39.858  28.909  29.098  1.00  0.00     0.031 A 
ATOM     44  C   UNL A   1      46.286  28.217  30.061  1.00  0.00     0.049 A 
ATOM     45  C   UNL A   1      40.908  29.804  29.671  1.00  0.00     0.074 A 
ATOM     46  C   UNL A   1      47.169  29.161  30.557  1.00  0.00     0.029 A 
ATOM     47  N   UNL A   1      45.028  28.803  30.075  1.00  0.00    -0.354 N 
ATOM     48  N   UNL A   1      42.189  29.573  29.820  1.00  0.00    -0.248 NA
ATOM     49  C   UNL A   1      40.465  31.123  30.134  1.00  0.00     0.031 C 
ATOM     50  C   UNL A   1      46.438  30.303  30.909  1.00  0.00     0.029 A 
ATOM     51  C   UNL A   1      45.106  30.085  30.595  1.00  0.00     0.049 A 
ATOM     52  H   UNL A   1      44.201  28.371  29.763  1.00  0.00     0.167 HD
ATOM     53  C   UNL A   1      42.712  30.721  30.392  1.00  0.00     0.074 A 
ATOM     54  C   UNL A   1      41.610  31.652  30.544  1.00  0.00     0.031 C 
ATOM     55  C   UNL A   1      43.990  30.981  30.759  1.00  0.00     0.031 A 
BRANCH  42  56
ATOM     56  C   UNL A   1      47.969  26.362  29.729  1.00  0.00    -0.014 A 
ATOM     57  C   UNL A   1      48.431  25.766  30.912  1.00  0.00     0.009 A 
ATOM     58  C   UNL A   1      48.826  26.424  28.619  1.00  0.00     0.009 A 
ATOM     59  C   UNL A   1      49.733  25.261  30.987  1.00  0.00     0.001 A 
ATOM     60  C   UNL A   1      50.121  25.904  28.692  1.00  0.00     0.001 A 
ATOM     61  C   UNL A   1      50.575  25.327  29.878  1.00  0.00     0.000 A 
ENDBRANCH  42  56
BRANCH  43  62
ATOM     62  C   UNL A   1      38.435  29.309  29.012  1.00  0.00    -0.014 A 
ATOM     63  C   UNL A   1      37.612  29.253  30.144  1.00  0.00     0.009 A 
ATOM     64  C   UNL A   1      37.923  29.841  27.818  1.00  0.00     0.009 A 
ATOM     65  C   UNL A   1      36.299  29.724  30.081  1.00  0.00     0.001 A 
ATOM     66  C   UNL A   1      36.619  30.333  27.765  1.00  0.00     0.001 A 
ATOM     67  C   UNL A   1      35.807  30.271  28.896  1.00  0.00     0.000 A 
ENDBRANCH  43  62
BRANCH  55  68
ATOM     68  C   UNL A   1      44.245  32.331  31.357  1.00  0.00    -0.014 A 
ATOM     69  C   UNL A   1      44.114  32.540  32.738  1.00  0.00     0.009 A 
ATOM     70  C   UNL A   1      44.610  33.403  30.531  1.00  0.00     0.009 A 
ATOM     71  C   UNL A   1      44.311  33.812  33.278  1.00  0.00     0.001 A 
ATOM     72  C   UNL A   1      44.824  34.669  31.077  1.00  0.00     0.001 A 
ATOM     73  C   UNL A   1      44.666  34.875  32.447  1.00  0.00     0.000 A 
ENDBRANCH  55  68
ENDBRANCH  29  30
ENDBRANCH  22  24
ENDBRANCH  21  22
ENDBRANCH  20  21
ENDBRANCH   1  20
TORSDOF 14
ENDMDL
MODEL 2
REMARK VINA RESULT:      -9.8      0.838      6.185
REMARK SMILES COc1ccccc1N1C(=O)CC[C@H]1CC(=O)OCCOC(=O)c1ccc(-c2c3nc(c(-c4ccccc4)c4ccc([nH]4)c(-c4ccccc4)c4nc(c(-c5ccccc5)c5ccc2[nH]5)C=C4)C=C3)cc1
REMARK SMILES IDX 19 1 18 2 16 3 17 4 15 5 14 6 9 7 10 8 11 9 12 10 13 11 8 12
REMARK SMILES IDX 3 13 4 14 5 15 7 16 6 17 2 18 1 19 20 20 21 21 22 22 23 23
REMARK SMILES IDX 24 24 25 25 71 26 26 27 70 28 27 29 28 30 29 31 64 32 30 33
REMARK SMILES IDX 69 34 63 35 65 36 31 37 68 38 62 39 61 40 32 42 54 43 39 44
REMARK SMILES IDX 53 45 40 46 43 47 52 48 66 49 41 50 42 51 51 53 67 54 44 55
REMARK SMILES IDX 33 56 34 57 38 58 35 59 37 60 36 61 55 62 56 63 60 64 57 65
REMARK SMILES IDX 59 66 58 67 45 68 46 69 50 70 47 71 49 72 48 73
REMARK H PARENT 65 41 43 52
REMARK Flexibility Score: inf
ROOT
ATOM      1  C   UNL A   1      38.705  21.200  25.870  1.00  0.00     0.274 C 
ENDROOT
BRANCH   1   2
ATOM      2  O   UNL A   1      37.999  21.910  24.824  1.00  0.00    -0.462 OA
BRANCH   2   3
ATOM      3  C   UNL A   1      37.282  22.996  25.200  1.00  0.00     0.308 C 
ATOM      4  O   UNL A   1      37.612  23.759  26.105  1.00  0.00    -0.252 OA
BRANCH   3   5
ATOM      5  C   UNL A   1      36.099  23.304  24.302  1.00  0.00     0.148 C 
BRANCH   5   6
ATOM      6  C   UNL A   1      34.667  23.121  24.806  1.00  0.00     0.102 C 
ATOM      7  N   UNL A   1      33.646  24.039  24.336  1.00  0.00    -0.305 N 
ATOM      8  C   UNL A   1      32.429  23.385  24.113  1.00  0.00     0.227 C 
ATOM      9  O   UNL A   1      31.359  23.860  23.765  1.00  0.00    -0.275 OA
ATOM     10  C   UNL A   1      32.604  21.955  24.564  1.00  0.00     0.103 C 
ATOM     11  C   UNL A   1      34.103  21.745  24.465  1.00  0.00     0.036 C 
BRANCH   7  12
ATOM     12  C   UNL A   1      33.733  25.457  24.391  1.00  0.00     0.086 A 
ATOM     13  C   UNL A   1      33.772  26.266  23.241  1.00  0.00     0.142 A 
ATOM     14  C   UNL A   1      33.713  27.662  23.331  1.00  0.00     0.048 A 
ATOM     15  C   UNL A   1      33.664  28.275  24.581  1.00  0.00     0.004 A 
ATOM     16  C   UNL A   1      33.759  26.095  25.640  1.00  0.00     0.030 A 
ATOM     17  C   UNL A   1      33.704  27.493  25.734  1.00  0.00     0.002 A 
BRANCH  13  18
ATOM     18  O   UNL A   1      33.944  25.733  21.986  1.00  0.00    -0.495 OA
ATOM     19  C   UNL A   1      32.719  25.877  21.257  1.00  0.00     0.278 C 
ENDBRANCH  13  18
ENDBRANCH   7  12
ENDBRANCH   5   6
ENDBRANCH   3   5
ENDBRANCH   2   3
ENDBRANCH   1   2
BRANCH   1  20
ATOM     20  C   UNL A   1      39.411  19.945  25.326  1.00  0.00     0.275 C 
BRANCH  20  21
ATOM     21  O   UNL A   1      40.380  19.393  26.252  1.00  0.00    -0.458 OA
BRANCH  21  22
ATOM     22  C   UNL A   1      41.634  19.757  25.951  1.00  0.00     0.338 C 
ATOM     23  O   UNL A   1      42.407  19.128  25.228  1.00  0.00    -0.246 OA
BRANCH  22  24
ATOM     24  C   UNL A   1      42.112  21.006  26.507  1.00  0.00     0.060 A 
ATOM     25  C   UNL A   1      41.912  21.228  27.872  1.00  0.00     0.016 A 
ATOM     26  C   UNL A   1      42.406  22.059  25.637  1.00  0.00     0.016 A 
ATOM     27  C   UNL A   1      41.998  22.520  28.374  1.00  0.00     0.010 A 
ATOM     28  C   UNL A   1      42.532  23.349  26.149  1.00  0.00     0.010 A 
ATOM     29  C   UNL A   1      42.326  23.584  27.518  1.00  0.00    -0.014 A 
BRANCH  29  30
ATOM     30  C   UNL A   1      42.638  24.904  28.099  1.00  0.00     0.031 A 
ATOM     31  C   UNL A   1      41.595  25.953  28.318  1.00  0.00     0.074 A 
ATOM     32  C   UNL A   1      43.925  25.127  28.416  1.00  0.00     0.049 A 
ATOM     33  N   UNL A   1      41.745  27.163  28.794  1.00  0.00    -0.248 NA
ATOM     34  C   UNL A   1      40.211  25.609  27.962  1.00  0.00     0.031 C 
ATOM     35  C   UNL A   1      45.008  24.155  28.243  1.00  0.00     0.029 A 
ATOM     36  N   UNL A   1      44.540  26.227  28.945  1.00  0.00    -0.354 N 
ATOM     37  C   UNL A   1      40.480  27.734  28.788  1.00  0.00     0.074 A 
ATOM     38  C   UNL A   1      39.572  26.738  28.253  1.00  0.00     0.031 C 
ATOM     39  C   UNL A   1      46.155  24.697  28.669  1.00  0.00     0.029 A 
ATOM     40  C   UNL A   1      45.893  26.064  29.100  1.00  0.00     0.049 A 
ATOM     41  H   UNL A   1      44.061  27.051  29.189  1.00  0.00     0.167 HD
ATOM     42  C   UNL A   1      40.120  28.977  29.190  1.00  0.00     0.031 A 
ATOM     43  C   UNL A   1      46.830  26.929  29.522  1.00  0.00     0.031 A 
ATOM     44  C   UNL A   1      41.041  29.959  29.707  1.00  0.00     0.049 A 
ATOM     45  C   UNL A   1      46.408  28.304  29.927  1.00  0.00     0.074 A 
ATOM     46  C   UNL A   1      40.775  31.238  30.165  1.00  0.00     0.029 A 
ATOM     47  N   UNL A   1      42.411  29.771  29.826  1.00  0.00    -0.354 N 
ATOM     48  N   UNL A   1      45.205  28.824  29.932  1.00  0.00    -0.248 NA
ATOM     49  C   UNL A   1      47.468  29.208  30.383  1.00  0.00     0.031 C 
ATOM     50  C   UNL A   1      41.989  31.838  30.522  1.00  0.00     0.029 A 
ATOM     51  C   UNL A   1      43.007  30.917  30.325  1.00  0.00     0.049 A 
ATOM     52  H   UNL A   1      42.889  28.944  29.590  1.00  0.00     0.167 HD
ATOM     53  C   UNL A   1      45.359  30.119  30.397  1.00  0.00     0.074 A 
ATOM     54  C   UNL A   1      46.771  30.297  30.680  1.00  0.00     0.031 C 
ATOM     55  C   UNL A   1      44.416  31.076  30.573  1.00  0.00     0.031 A 
BRANCH  42  56
ATOM     56  C   UNL A   1      38.673  29.363  29.057  1.00  0.00    -0.014 A 
ATOM     57  C   UNL A   1      38.153  29.831  27.841  1.00  0.00     0.009 A 
ATOM     58  C   UNL A   1      37.806  29.200  30.149  1.00  0.00     0.009 A 
ATOM     59  C   UNL A   1      36.796  30.148  27.728  1.00  0.00     0.001 A 
ATOM     60  C   UNL A   1      36.448  29.501  30.028  1.00  0.00     0.001 A 
ATOM     61  C   UNL A   1      35.944  29.981  28.819  1.00  0.00     0.000 A 
ENDBRANCH  42  56
BRANCH  43  62
ATOM     62  C   UNL A   1      48.244  26.491  29.555  1.00  0.00    -0.014 A 
ATOM     63  C   UNL A   1      49.094  26.752  28.472  1.00  0.00     0.009 A 
ATOM     64  C   UNL A   1      48.771  25.896  30.712  1.00  0.00     0.009 A 
ATOM     65  C   UNL A   1      50.449  26.426  28.550  1.00  0.00     0.001 A 
ATOM     66  C   UNL A   1      50.130  25.593  30.795  1.00  0.00     0.001 A 
ATOM     67  C   UNL A   1      50.967  25.855  29.712  1.00  0.00     0.000 A 
ENDBRANCH  43  62
BRANCH  55  68
ATOM     68  C   UNL A   1      44.902  32.393  31.098  1.00  0.00    -0.014 A 
ATOM     69  C   UNL A   1      45.302  33.412  30.220  1.00  0.00     0.009 A 
ATOM     70  C   UNL A   1      44.967  32.613  32.481  1.00  0.00     0.009 A 
ATOM     71  C   UNL A   1      45.794  34.618  30.721  1.00  0.00     0.001 A 
ATOM     72  C   UNL A   1      45.441  33.827  32.978  1.00  0.00     0.001 A 
ATOM     73  C   UNL A   1      45.862  34.825  32.099  1.00  0.00     0.000 A 
ENDBRANCH  55  68
ENDBRANCH  29  30
ENDBRANCH  22  24
ENDBRANCH  21  22
ENDBRANCH  20  21
ENDBRANCH   1  20
TORSDOF 14
ENDMDL
MODEL 3
REMARK VINA RESULT:      -9.8      3.822      8.424
REMARK SMILES COc1ccccc1N1C(=O)CC[C@H]1CC(=O)OCCOC(=O)c1ccc(-c2c3nc(c(-c4ccccc4)c4ccc([nH]4)c(-c4ccccc4)c4nc(c(-c5ccccc5)c5ccc2[nH]5)C=C4)C=C3)cc1
REMARK SMILES IDX 19 1 18 2 16 3 17 4 15 5 14 6 9 7 10 8 11 9 12 10 13 11 8 12
REMARK SMILES IDX 3 13 4 14 5 15 7 16 6 17 2 18 1 19 20 20 21 21 22 22 23 23
REMARK SMILES IDX 24 24 25 25 71 26 26 27 70 28 27 29 28 30 29 31 64 32 30 33
REMARK SMILES IDX 69 34 63 35 65 36 31 37 68 38 62 39 61 40 32 42 54 43 39 44
REMARK SMILES IDX 53 45 40 46 43 47 52 48 66 49 41 50 42 51 51 53 67 54 44 55
REMARK SMILES IDX 33 56 34 57 38 58 35 59 37 60 36 61 55 62 56 63 60 64 57 65
REMARK SMILES IDX 59 66 58 67 45 68 46 69 50 70 47 71 49 72 48 73
REMARK H PARENT 65 41 43 52
REMARK Flexibility Score: inf
ROOT
ATOM      1  C   UNL A   1      31.767  31.061  26.411  1.00  0.00     0.274 C 
ENDROOT
BRANCH   1   2
ATOM      2  O   UNL A   1      32.823  30.302  27.049  1.00  0.00    -0.462 OA
BRANCH   2   3
ATOM      3  C   UNL A   1      32.848  28.969  26.807  1.00  0.00     0.308 C 
ATOM      4  O   UNL A   1      33.698  28.205  27.257  1.00  0.00    -0.252 OA
BRANCH   3   5
ATOM      5  C   UNL A   1      31.638  28.448  26.056  1.00  0.00     0.148 C 
BRANCH   5   6
ATOM      6  C   UNL A   1      31.778  27.890  24.639  1.00  0.00     0.102 C 
ATOM      7  N   UNL A   1      31.778  26.449  24.461  1.00  0.00    -0.305 N 
ATOM      8  C   UNL A   1      31.084  26.074  23.304  1.00  0.00     0.227 C 
ATOM      9  O   UNL A   1      30.932  24.958  22.832  1.00  0.00    -0.275 OA
ATOM     10  C   UNL A   1      30.683  27.345  22.595  1.00  0.00     0.103 C 
ATOM     11  C   UNL A   1      30.665  28.371  23.713  1.00  0.00     0.036 C 
BRANCH   7  12
ATOM     12  C   UNL A   1      32.620  25.539  25.155  1.00  0.00     0.086 A 
ATOM     13  C   UNL A   1      32.129  24.581  26.061  1.00  0.00     0.142 A 
ATOM     14  C   UNL A   1      32.969  23.608  26.617  1.00  0.00     0.048 A 
ATOM     15  C   UNL A   1      34.328  23.609  26.313  1.00  0.00     0.004 A 
ATOM     16  C   UNL A   1      34.003  25.568  24.920  1.00  0.00     0.030 A 
ATOM     17  C   UNL A   1      34.847  24.598  25.478  1.00  0.00     0.002 A 
BRANCH  13  18
ATOM     18  O   UNL A   1      30.827  24.600  26.499  1.00  0.00    -0.495 OA
ATOM     19  C   UNL A   1      30.434  23.259  26.819  1.00  0.00     0.278 C 
ENDBRANCH  13  18
ENDBRANCH   7  12
ENDBRANCH   5   6
ENDBRANCH   3   5
ENDBRANCH   2   3
ENDBRANCH   1   2
BRANCH   1  20
ATOM     20  C   UNL A   1      31.446  32.349  27.190  1.00  0.00     0.275 C 
BRANCH  20  21
ATOM     21  O   UNL A   1      32.324  33.451  26.848  1.00  0.00    -0.458 OA
BRANCH  21  22
ATOM     22  C   UNL A   1      32.971  33.934  27.918  1.00  0.00     0.338 C 
ATOM     23  O   UNL A   1      32.602  34.886  28.607  1.00  0.00    -0.246 OA
BRANCH  22  24
ATOM     24  C   UNL A   1      34.197  33.267  28.307  1.00  0.00     0.060 A 
ATOM     25  C   UNL A   1      34.153  32.424  29.421  1.00  0.00     0.016 A 
ATOM     26  C   UNL A   1      35.410  33.752  27.812  1.00  0.00     0.016 A 
ATOM     27  C   UNL A   1      35.335  32.069  30.055  1.00  0.00     0.010 A 
ATOM     28  C   UNL A   1      36.599  33.361  28.426  1.00  0.00     0.010 A 
ATOM     29  C   UNL A   1      36.565  32.521  29.550  1.00  0.00    -0.014 A 
BRANCH  29  30
ATOM     30  C   UNL A   1      37.816  31.953  30.089  1.00  0.00     0.031 A 
ATOM     31  C   UNL A   1      38.433  30.705  29.544  1.00  0.00     0.074 A 
ATOM     32  C   UNL A   1      38.375  32.613  31.118  1.00  0.00     0.049 A 
ATOM     33  N   UNL A   1      39.514  30.087  29.950  1.00  0.00    -0.248 NA
ATOM     34  C   UNL A   1      37.761  30.065  28.404  1.00  0.00     0.031 C 
ATOM     35  C   UNL A   1      37.844  33.845  31.708  1.00  0.00     0.029 A 
ATOM     36  N   UNL A   1      39.502  32.350  31.845  1.00  0.00    -0.354 N 
ATOM     37  C   UNL A   1      39.652  28.980  29.124  1.00  0.00     0.074 A 
ATOM     38  C   UNL A   1      38.537  29.006  28.197  1.00  0.00     0.031 C 
ATOM     39  C   UNL A   1      38.651  34.239  32.700  1.00  0.00     0.029 A 
ATOM     40  C   UNL A   1      39.725  33.265  32.842  1.00  0.00     0.049 A 
ATOM     41  H   UNL A   1      40.093  31.583  31.671  1.00  0.00     0.167 HD
ATOM     42  C   UNL A   1      40.621  28.033  29.148  1.00  0.00     0.031 A 
ATOM     43  C   UNL A   1      40.678  33.305  33.787  1.00  0.00     0.031 A 
ATOM     44  C   UNL A   1      41.714  28.017  30.088  1.00  0.00     0.049 A 
ATOM     45  C   UNL A   1      41.713  32.228  33.811  1.00  0.00     0.074 A 
ATOM     46  C   UNL A   1      42.761  27.117  30.182  1.00  0.00     0.029 A 
ATOM     47  N   UNL A   1      41.896  28.945  31.104  1.00  0.00    -0.354 N 
ATOM     48  N   UNL A   1      41.841  31.197  33.012  1.00  0.00    -0.248 NA
ATOM     49  C   UNL A   1      42.734  32.320  34.860  1.00  0.00     0.031 C 
ATOM     50  C   UNL A   1      43.553  27.477  31.280  1.00  0.00     0.029 A 
ATOM     51  C   UNL A   1      43.021  28.625  31.845  1.00  0.00     0.049 A 
ATOM     52  H   UNL A   1      41.309  29.717  31.273  1.00  0.00     0.167 HD
ATOM     53  C   UNL A   1      42.960  30.514  33.458  1.00  0.00     0.074 A 
ATOM     54  C   UNL A   1      43.484  31.262  34.586  1.00  0.00     0.031 C 
ATOM     55  C   UNL A   1      43.505  29.371  32.978  1.00  0.00     0.031 A 
BRANCH  42  56
ATOM     56  C   UNL A   1      40.527  26.912  28.150  1.00  0.00    -0.014 A 
ATOM     57  C   UNL A   1      41.142  27.003  26.892  1.00  0.00     0.009 A 
ATOM     58  C   UNL A   1      39.863  25.726  28.497  1.00  0.00     0.009 A 
ATOM     59  C   UNL A   1      41.074  25.935  25.993  1.00  0.00     0.001 A 
ATOM     60  C   UNL A   1      39.811  24.653  27.604  1.00  0.00     0.001 A 
ATOM     61  C   UNL A   1      40.412  24.761  26.350  1.00  0.00     0.000 A 
ENDBRANCH  42  56
BRANCH  43  62
ATOM     62  C   UNL A   1      40.657  34.406  34.778  1.00  0.00    -0.014 A 
ATOM     63  C   UNL A   1      39.983  34.252  35.997  1.00  0.00     0.009 A 
ATOM     64  C   UNL A   1      41.393  35.578  34.545  1.00  0.00     0.009 A 
ATOM     65  C   UNL A   1      40.049  35.254  36.966  1.00  0.00     0.001 A 
ATOM     66  C   UNL A   1      41.475  36.567  35.525  1.00  0.00     0.001 A 
ATOM     67  C   UNL A   1      40.801  36.405  36.734  1.00  0.00     0.000 A 
ENDBRANCH  43  62
BRANCH  55  68
ATOM     68  C   UNL A   1      44.731  28.876  33.683  1.00  0.00    -0.014 A 
ATOM     69  C   UNL A   1      44.628  27.982  34.760  1.00  0.00     0.009 A 
ATOM     70  C   UNL A   1      45.998  29.314  33.273  1.00  0.00     0.009 A 
ATOM     71  C   UNL A   1      45.774  27.562  35.436  1.00  0.00     0.001 A 
ATOM     72  C   UNL A   1      47.143  28.878  33.940  1.00  0.00     0.001 A 
ATOM     73  C   UNL A   1      47.030  28.010  35.026  1.00  0.00     0.000 A 
ENDBRANCH  55  68
ENDBRANCH  29  30
ENDBRANCH  22  24
ENDBRANCH  21  22
ENDBRANCH  20  21
ENDBRANCH   1  20
TORSDOF 14
ENDMDL
