MODEL 1
REMARK VINA RESULT:     -13.1      0.000      0.000
REMARK SMILES C[C@]1(C(=O)OCCOC(=O)c2ccc(-c3c4nc(c(-c5ccccc5)c5ccc([nH]5)c(-c5ccccc5)c5nc(c(-c6ccccc6)c6ccc3[nH]6)C=C5)C=C4)cc2)[NH2+]C2(C(=O)c3ccccc3C2=O)[C@@H]2C(=O)N(c3ccccc3)C(=O)[C@H]21
REMARK SMILES IDX 7 1 6 2 5 3 3 4 4 5 2 6 1 7 59 8 83 9 60 10 71 13 81 14
REMARK SMILES IDX 61 15 69 16 72 17 74 18 82 19 62 20 63 21 68 22 70 23 73 24
REMARK SMILES IDX 64 25 67 26 65 27 66 28 75 29 76 30 80 31 77 32 79 33 78 34
REMARK SMILES IDX 8 35 9 36 10 37 11 38 12 39 58 40 13 41 57 42 14 43 15 44
REMARK SMILES IDX 16 45 51 46 17 47 56 48 50 49 52 50 18 51 55 52 49 53 48 54
REMARK SMILES IDX 19 56 41 57 26 58 40 59 27 60 30 61 39 62 53 63 28 64 29 65
REMARK SMILES IDX 38 67 54 68 31 69 20 70 21 71 25 72 22 73 24 74 23 75 42 76
REMARK SMILES IDX 43 77 47 78 44 79 46 80 45 81 32 82 33 83 37 84 34 85 36 86
REMARK SMILES IDX 35 87
REMARK H PARENT 59 11 59 12 52 55 30 66
REMARK Flexibility Score: inf
ROOT
ATOM      1  C   UNL A   1      39.246  21.213  26.002  1.00  0.00     0.275 C 
ENDROOT
BRANCH   1   2
ATOM      2  C   UNL A   1      38.149  21.361  24.947  1.00  0.00     0.274 C 
BRANCH   2   3
ATOM      3  O   UNL A   1      37.720  22.730  24.817  1.00  0.00    -0.457 OA
BRANCH   3   4
ATOM      4  C   UNL A   1      36.558  22.985  24.153  1.00  0.00     0.368 C 
ATOM      5  O   UNL A   1      36.408  22.814  22.950  1.00  0.00    -0.245 OA
BRANCH   4   6
ATOM      6  C   UNL A   1      35.474  23.620  25.088  1.00  0.00     0.205 C 
ATOM      7  C   UNL A   1      36.064  24.032  26.442  1.00  0.00     0.093 C 
ATOM      8  N   UNL A   1      34.779  24.802  24.447  1.00  0.00    -0.313 N 
ATOM      9  C   UNL A   1      34.330  22.664  25.286  1.00  0.00     0.172 C 
ATOM     10  C   UNL A   1      33.383  24.364  24.040  1.00  0.00     0.237 C 
ATOM     11  H   UNL A   1      35.300  25.105  23.625  1.00  0.00     0.348 HD
ATOM     12  H   UNL A   1      34.728  25.581  25.104  1.00  0.00     0.348 HD
ATOM     13  C   UNL A   1      33.514  22.878  24.030  1.00  0.00     0.177 C 
ATOM     14  C   UNL A   1      34.448  21.188  25.321  1.00  0.00     0.244 C 
ATOM     15  C   UNL A   1      32.351  24.979  24.984  1.00  0.00     0.232 C 
ATOM     16  C   UNL A   1      33.026  24.974  22.684  1.00  0.00     0.232 C 
ATOM     17  C   UNL A   1      32.527  21.775  24.182  1.00  0.00     0.245 C 
ATOM     18  N   UNL A   1      33.274  20.730  24.733  1.00  0.00    -0.250 N 
ATOM     19  O   UNL A   1      35.373  20.580  25.826  1.00  0.00    -0.273 OA
ATOM     20  O   UNL A   1      32.243  24.795  26.181  1.00  0.00    -0.286 OA
ATOM     21  C   UNL A   1      31.564  25.955  24.230  1.00  0.00     0.036 A 
ATOM     22  C   UNL A   1      31.963  25.962  22.900  1.00  0.00     0.036 A 
ATOM     23  O   UNL A   1      33.492  24.712  21.592  1.00  0.00    -0.286 OA
ATOM     24  O   UNL A   1      31.381  21.802  23.769  1.00  0.00    -0.273 OA
ATOM     25  C   UNL A   1      30.584  26.806  24.706  1.00  0.00     0.013 A 
ATOM     26  C   UNL A   1      31.390  26.821  21.981  1.00  0.00     0.013 A 
ATOM     27  C   UNL A   1      29.992  27.680  23.791  1.00  0.00     0.001 A 
ATOM     28  C   UNL A   1      30.391  27.688  22.441  1.00  0.00     0.001 A 
BRANCH  18  29
ATOM     29  C   UNL A   1      33.020  19.354  24.567  1.00  0.00     0.052 A 
ATOM     30  C   UNL A   1      32.776  18.538  25.682  1.00  0.00     0.027 A 
ATOM     31  C   UNL A   1      33.181  18.760  23.311  1.00  0.00     0.027 A 
ATOM     32  C   UNL A   1      32.717  17.152  25.549  1.00  0.00     0.002 A 
ATOM     33  C   UNL A   1      33.168  17.368  23.189  1.00  0.00     0.002 A 
ATOM     34  C   UNL A   1      32.936  16.566  24.307  1.00  0.00     0.000 A 
ENDBRANCH  18  29
ENDBRANCH   4   6
ENDBRANCH   3   4
ENDBRANCH   2   3
ENDBRANCH   1   2
BRANCH   1  35
ATOM     35  O   UNL A   1      39.816  19.894  25.964  1.00  0.00    -0.458 OA
BRANCH  35  36
ATOM     36  C   UNL A   1      41.166  19.857  26.011  1.00  0.00     0.338 C 
ATOM     37  O   UNL A   1      41.911  18.996  25.577  1.00  0.00    -0.246 OA
BRANCH  36  38
ATOM     38  C   UNL A   1      41.654  21.144  26.517  1.00  0.00     0.060 A 
ATOM     39  C   UNL A   1      42.107  22.150  25.673  1.00  0.00     0.016 A 
ATOM     40  C   UNL A   1      41.587  21.351  27.893  1.00  0.00     0.016 A 
ATOM     41  C   UNL A   1      42.509  23.366  26.235  1.00  0.00     0.010 A 
ATOM     42  C   UNL A   1      41.959  22.561  28.454  1.00  0.00     0.010 A 
ATOM     43  C   UNL A   1      42.433  23.579  27.628  1.00  0.00    -0.014 A 
BRANCH  43  44
ATOM     44  C   UNL A   1      42.772  24.891  28.219  1.00  0.00     0.031 A 
ATOM     45  C   UNL A   1      44.186  25.228  28.595  1.00  0.00     0.074 A 
ATOM     46  C   UNL A   1      41.771  25.756  28.463  1.00  0.00     0.049 A 
ATOM     47  N   UNL A   1      44.667  26.368  29.018  1.00  0.00    -0.248 NA
ATOM     48  C   UNL A   1      45.185  24.149  28.512  1.00  0.00     0.031 C 
ATOM     49  C   UNL A   1      40.350  25.478  28.235  1.00  0.00     0.029 A 
ATOM     50  N   UNL A   1      41.789  27.043  28.935  1.00  0.00    -0.354 N 
ATOM     51  C   UNL A   1      46.021  26.149  29.237  1.00  0.00     0.074 A 
ATOM     52  C   UNL A   1      46.273  24.750  28.972  1.00  0.00     0.031 C 
ATOM     53  C   UNL A   1      39.641  26.584  28.501  1.00  0.00     0.029 A 
ATOM     54  C   UNL A   1      40.550  27.636  28.946  1.00  0.00     0.049 A 
ATOM     55  H   UNL A   1      42.609  27.496  29.236  1.00  0.00     0.167 HD
ATOM     56  C   UNL A   1      46.968  27.046  29.593  1.00  0.00     0.031 A 
ATOM     57  C   UNL A   1      40.190  28.898  29.249  1.00  0.00     0.031 A 
ATOM     58  C   UNL A   1      46.691  28.436  29.850  1.00  0.00     0.049 A 
ATOM     59  C   UNL A   1      41.262  29.885  29.611  1.00  0.00     0.074 A 
ATOM     60  C   UNL A   1      47.585  29.449  30.142  1.00  0.00     0.029 A 
ATOM     61  N   UNL A   1      45.425  29.002  29.849  1.00  0.00    -0.354 N 
ATOM     62  N   UNL A   1      42.558  29.698  29.695  1.00  0.00    -0.248 NA
ATOM     63  C   UNL A   1      40.832  31.260  29.897  1.00  0.00     0.031 C 
ATOM     64  C   UNL A   1      46.854  30.614  30.385  1.00  0.00     0.029 A 
ATOM     65  C   UNL A   1      45.512  30.346  30.166  1.00  0.00     0.049 A 
ATOM     66  H   UNL A   1      44.589  28.520  29.652  1.00  0.00     0.167 HD
ATOM     67  C   UNL A   1      43.101  30.932  30.024  1.00  0.00     0.074 A 
ATOM     68  C   UNL A   1      41.995  31.866  30.103  1.00  0.00     0.031 C 
ATOM     69  C   UNL A   1      44.398  31.259  30.244  1.00  0.00     0.031 A 
BRANCH  56  70
ATOM     70  C   UNL A   1      48.396  26.580  29.695  1.00  0.00    -0.014 A 
ATOM     71  C   UNL A   1      48.905  26.124  30.923  1.00  0.00     0.009 A 
ATOM     72  C   UNL A   1      49.274  26.699  28.605  1.00  0.00     0.009 A 
ATOM     73  C   UNL A   1      50.260  25.817  31.060  1.00  0.00     0.001 A 
ATOM     74  C   UNL A   1      50.622  26.359  28.736  1.00  0.00     0.001 A 
ATOM     75  C   UNL A   1      51.116  25.930  29.966  1.00  0.00     0.000 A 
ENDBRANCH  56  70
BRANCH  57  76
ATOM     76  C   UNL A   1      38.761  29.290  29.128  1.00  0.00    -0.014 A 
ATOM     77  C   UNL A   1      37.888  29.163  30.221  1.00  0.00     0.009 A 
ATOM     78  C   UNL A   1      38.240  29.705  27.893  1.00  0.00     0.009 A 
ATOM     79  C   UNL A   1      36.521  29.410  30.073  1.00  0.00     0.001 A 
ATOM     80  C   UNL A   1      36.878  29.984  27.755  1.00  0.00     0.001 A 
ATOM     81  C   UNL A   1      36.018  29.823  28.841  1.00  0.00     0.000 A 
ENDBRANCH  57  76
BRANCH  69  82
ATOM     82  C   UNL A   1      44.713  32.687  30.595  1.00  0.00    -0.014 A 
ATOM     83  C   UNL A   1      45.047  33.596  29.577  1.00  0.00     0.009 A 
ATOM     84  C   UNL A   1      44.806  33.098  31.932  1.00  0.00     0.009 A 
ATOM     85  C   UNL A   1      45.492  34.880  29.893  1.00  0.00     0.001 A 
ATOM     86  C   UNL A   1      45.219  34.395  32.244  1.00  0.00     0.001 A 
ATOM     87  C   UNL A   1      45.575  35.279  31.225  1.00  0.00     0.000 A 
ENDBRANCH  69  82
ENDBRANCH  43  44
ENDBRANCH  36  38
ENDBRANCH  35  36
ENDBRANCH   1  35
TORSDOF 12
ENDMDL
MODEL 2
REMARK VINA RESULT:     -13.1      3.566      9.014
REMARK SMILES C[C@]1(C(=O)OCCOC(=O)c2ccc(-c3c4nc(c(-c5ccccc5)c5ccc([nH]5)c(-c5ccccc5)c5nc(c(-c6ccccc6)c6ccc3[nH]6)C=C5)C=C4)cc2)[NH2+]C2(C(=O)c3ccccc3C2=O)[C@@H]2C(=O)N(c3ccccc3)C(=O)[C@H]21
REMARK SMILES IDX 7 1 6 2 5 3 3 4 4 5 2 6 1 7 59 8 83 9 60 10 71 13 81 14
REMARK SMILES IDX 61 15 69 16 72 17 74 18 82 19 62 20 63 21 68 22 70 23 73 24
REMARK SMILES IDX 64 25 67 26 65 27 66 28 75 29 76 30 80 31 77 32 79 33 78 34
REMARK SMILES IDX 8 35 9 36 10 37 11 38 12 39 58 40 13 41 57 42 14 43 15 44
REMARK SMILES IDX 16 45 51 46 17 47 56 48 50 49 52 50 18 51 55 52 49 53 48 54
REMARK SMILES IDX 19 56 41 57 26 58 40 59 27 60 30 61 39 62 53 63 28 64 29 65
REMARK SMILES IDX 38 67 54 68 31 69 20 70 21 71 25 72 22 73 24 74 23 75 42 76
REMARK SMILES IDX 43 77 47 78 44 79 46 80 45 81 32 82 33 83 37 84 34 85 36 86
REMARK SMILES IDX 35 87
REMARK H PARENT 59 11 59 12 52 55 30 66
REMARK Flexibility Score: inf
ROOT
ATOM      1  C   UNL A   1      33.012  32.033  27.279  1.00  0.00     0.275 C 
ENDROOT
BRANCH   1   2
ATOM      2  C   UNL A   1      32.064  30.833  27.249  1.00  0.00     0.274 C 
BRANCH   2   3
ATOM      3  O   UNL A   1      32.740  29.615  27.616  1.00  0.00    -0.457 OA
BRANCH   3   4
ATOM      4  C   UNL A   1      32.200  28.428  27.219  1.00  0.00     0.368 C 
ATOM      5  O   UNL A   1      31.166  27.962  27.680  1.00  0.00    -0.245 OA
BRANCH   4   6
ATOM      6  C   UNL A   1      33.109  27.685  26.183  1.00  0.00     0.205 C 
ATOM      7  C   UNL A   1      34.515  28.295  26.122  1.00  0.00     0.093 C 
ATOM      8  N   UNL A   1      33.204  26.200  26.458  1.00  0.00    -0.313 N 
ATOM      9  C   UNL A   1      32.472  27.703  24.821  1.00  0.00     0.172 C 
ATOM     10  C   UNL A   1      32.367  25.474  25.419  1.00  0.00     0.237 C 
ATOM     11  H   UNL A   1      32.848  25.998  27.392  1.00  0.00     0.348 HD
ATOM     12  H   UNL A   1      34.175  25.892  26.408  1.00  0.00     0.348 HD
ATOM     13  C   UNL A   1      31.481  26.564  24.917  1.00  0.00     0.177 C 
ATOM     14  C   UNL A   1      31.625  28.796  24.290  1.00  0.00     0.244 C 
ATOM     15  C   UNL A   1      33.281  24.780  24.410  1.00  0.00     0.232 C 
ATOM     16  C   UNL A   1      31.623  24.311  26.077  1.00  0.00     0.232 C 
ATOM     17  C   UNL A   1      30.748  26.763  23.637  1.00  0.00     0.245 C 
ATOM     18  N   UNL A   1      30.677  28.152  23.502  1.00  0.00    -0.250 N 
ATOM     19  O   UNL A   1      31.817  29.981  24.493  1.00  0.00    -0.273 OA
ATOM     20  O   UNL A   1      34.075  25.303  23.652  1.00  0.00    -0.286 OA
ATOM     21  C   UNL A   1      33.145  23.335  24.588  1.00  0.00     0.036 A 
ATOM     22  C   UNL A   1      32.195  23.062  25.562  1.00  0.00     0.036 A 
ATOM     23  O   UNL A   1      30.705  24.356  26.872  1.00  0.00    -0.286 OA
ATOM     24  O   UNL A   1      30.235  25.873  22.982  1.00  0.00    -0.273 OA
ATOM     25  C   UNL A   1      33.851  22.331  23.950  1.00  0.00     0.013 A 
ATOM     26  C   UNL A   1      31.900  21.764  25.937  1.00  0.00     0.013 A 
ATOM     27  C   UNL A   1      33.565  21.013  24.314  1.00  0.00     0.001 A 
ATOM     28  C   UNL A   1      32.598  20.732  25.299  1.00  0.00     0.001 A 
BRANCH  18  29
ATOM     29  C   UNL A   1      29.667  28.868  22.830  1.00  0.00     0.052 A 
ATOM     30  C   UNL A   1      29.999  29.785  21.821  1.00  0.00     0.027 A 
ATOM     31  C   UNL A   1      28.344  28.800  23.280  1.00  0.00     0.027 A 
ATOM     32  C   UNL A   1      29.032  30.635  21.287  1.00  0.00     0.002 A 
ATOM     33  C   UNL A   1      27.388  29.685  22.775  1.00  0.00     0.002 A 
ATOM     34  C   UNL A   1      27.732  30.601  21.781  1.00  0.00     0.000 A 
ENDBRANCH  18  29
ENDBRANCH   4   6
ENDBRANCH   3   4
ENDBRANCH   2   3
ENDBRANCH   1   2
BRANCH   1  35
ATOM     35  O   UNL A   1      32.297  33.239  27.596  1.00  0.00    -0.458 OA
BRANCH  35  36
ATOM     36  C   UNL A   1      33.015  34.161  28.277  1.00  0.00     0.338 C 
ATOM     37  O   UNL A   1      32.643  35.242  28.698  1.00  0.00    -0.246 OA
BRANCH  36  38
ATOM     38  C   UNL A   1      34.318  33.582  28.620  1.00  0.00     0.060 A 
ATOM     39  C   UNL A   1      35.456  33.809  27.856  1.00  0.00     0.016 A 
ATOM     40  C   UNL A   1      34.391  32.836  29.794  1.00  0.00     0.016 A 
ATOM     41  C   UNL A   1      36.669  33.261  28.281  1.00  0.00     0.010 A 
ATOM     42  C   UNL A   1      35.594  32.312  30.235  1.00  0.00     0.010 A 
ATOM     43  C   UNL A   1      36.745  32.513  29.475  1.00  0.00    -0.014 A 
BRANCH  43  44
ATOM     44  C   UNL A   1      38.040  32.005  29.977  1.00  0.00     0.031 A 
ATOM     45  C   UNL A   1      38.805  32.747  31.035  1.00  0.00     0.074 A 
ATOM     46  C   UNL A   1      38.542  30.887  29.422  1.00  0.00     0.049 A 
ATOM     47  N   UNL A   1      39.894  32.382  31.660  1.00  0.00    -0.248 NA
ATOM     48  C   UNL A   1      38.305  34.076  31.426  1.00  0.00     0.031 C 
ATOM     49  C   UNL A   1      37.927  30.155  28.311  1.00  0.00     0.029 A 
ATOM     50  N   UNL A   1      39.666  30.161  29.720  1.00  0.00    -0.354 N 
ATOM     51  C   UNL A   1      40.200  33.424  32.526  1.00  0.00     0.074 A 
ATOM     52  C   UNL A   1      39.228  34.468  32.294  1.00  0.00     0.031 C 
ATOM     53  C   UNL A   1      38.644  29.048  28.069  1.00  0.00     0.029 A 
ATOM     54  C   UNL A   1      39.781  29.008  28.983  1.00  0.00     0.049 A 
ATOM     55  H   UNL A   1      40.325  30.440  30.396  1.00  0.00     0.167 HD
ATOM     56  C   UNL A   1      41.185  33.483  33.451  1.00  0.00     0.031 A 
ATOM     57  C   UNL A   1      40.683  28.011  29.057  1.00  0.00     0.031 A 
ATOM     58  C   UNL A   1      42.141  32.427  33.663  1.00  0.00     0.049 A 
ATOM     59  C   UNL A   1      41.749  28.083  30.113  1.00  0.00     0.074 A 
ATOM     60  C   UNL A   1      43.132  32.347  34.624  1.00  0.00     0.029 A 
ATOM     61  N   UNL A   1      42.226  31.272  32.899  1.00  0.00    -0.354 N 
ATOM     62  N   UNL A   1      41.956  29.016  31.011  1.00  0.00    -0.248 NA
ATOM     63  C   UNL A   1      42.691  26.958  30.186  1.00  0.00     0.031 C 
ATOM     64  C   UNL A   1      43.860  31.177  34.398  1.00  0.00     0.029 A 
ATOM     65  C   UNL A   1      43.273  30.488  33.349  1.00  0.00     0.049 A 
ATOM     66  H   UNL A   1      41.629  31.044  32.150  1.00  0.00     0.167 HD
ATOM     67  C   UNL A   1      43.037  28.586  31.767  1.00  0.00     0.074 A 
ATOM     68  C   UNL A   1      43.429  27.295  31.237  1.00  0.00     0.031 C 
ATOM     69  C   UNL A   1      43.650  29.206  32.804  1.00  0.00     0.031 A 
BRANCH  56  70
ATOM     70  C   UNL A   1      41.269  34.700  34.332  1.00  0.00    -0.014 A 
ATOM     71  C   UNL A   1      42.145  35.750  34.005  1.00  0.00     0.009 A 
ATOM     72  C   UNL A   1      40.570  34.761  35.548  1.00  0.00     0.009 A 
ATOM     73  C   UNL A   1      42.329  36.821  34.882  1.00  0.00     0.001 A 
ATOM     74  C   UNL A   1      40.731  35.850  36.409  1.00  0.00     0.001 A 
ATOM     75  C   UNL A   1      41.620  36.872  36.081  1.00  0.00     0.000 A 
ENDBRANCH  56  70
BRANCH  57  76
ATOM     76  C   UNL A   1      40.540  26.838  28.156  1.00  0.00    -0.014 A 
ATOM     77  C   UNL A   1      41.134  26.836  26.882  1.00  0.00     0.009 A 
ATOM     78  C   UNL A   1      39.731  25.753  28.523  1.00  0.00     0.009 A 
ATOM     79  C   UNL A   1      40.895  25.791  25.987  1.00  0.00     0.001 A 
ATOM     80  C   UNL A   1      39.520  24.692  27.639  1.00  0.00     0.001 A 
ATOM     81  C   UNL A   1      40.091  24.719  26.367  1.00  0.00     0.000 A 
ENDBRANCH  57  76
BRANCH  69  82
ATOM     82  C   UNL A   1      44.817  28.511  33.450  1.00  0.00    -0.014 A 
ATOM     83  C   UNL A   1      46.110  28.695  32.932  1.00  0.00     0.009 A 
ATOM     84  C   UNL A   1      44.622  27.581  34.480  1.00  0.00     0.009 A 
ATOM     85  C   UNL A   1      47.180  27.943  33.416  1.00  0.00     0.001 A 
ATOM     86  C   UNL A   1      45.702  26.854  34.987  1.00  0.00     0.001 A 
ATOM     87  C   UNL A   1      46.975  27.025  34.445  1.00  0.00     0.000 A 
ENDBRANCH  69  82
ENDBRANCH  43  44
ENDBRANCH  36  38
ENDBRANCH  35  36
ENDBRANCH   1  35
TORSDOF 12
ENDMDL
MODEL 3
REMARK VINA RESULT:     -13.0      2.391      8.275
REMARK SMILES C[C@]1(C(=O)OCCOC(=O)c2ccc(-c3c4nc(c(-c5ccccc5)c5ccc([nH]5)c(-c5ccccc5)c5nc(c(-c6ccccc6)c6ccc3[nH]6)C=C5)C=C4)cc2)[NH2+]C2(C(=O)c3ccccc3C2=O)[C@@H]2C(=O)N(c3ccccc3)C(=O)[C@H]21
REMARK SMILES IDX 7 1 6 2 5 3 3 4 4 5 2 6 1 7 59 8 83 9 60 10 71 13 81 14
REMARK SMILES IDX 61 15 69 16 72 17 74 18 82 19 62 20 63 21 68 22 70 23 73 24
REMARK SMILES IDX 64 25 67 26 65 27 66 28 75 29 76 30 80 31 77 32 79 33 78 34
REMARK SMILES IDX 8 35 9 36 10 37 11 38 12 39 58 40 13 41 57 42 14 43 15 44
REMARK SMILES IDX 16 45 51 46 17 47 56 48 50 49 52 50 18 51 55 52 49 53 48 54
REMARK SMILES IDX 19 56 41 57 26 58 40 59 27 60 30 61 39 62 53 63 28 64 29 65
REMARK SMILES IDX 38 67 54 68 31 69 20 70 21 71 25 72 22 73 24 74 23 75 42 76
REMARK SMILES IDX 43 77 47 78 44 79 46 80 45 81 32 82 33 83 37 84 34 85 36 86
REMARK SMILES IDX 35 87
REMARK H PARENT 59 11 59 12 52 55 30 66
REMARK Flexibility Score: inf
ROOT
ATOM      1  C   UNL A   1      33.424  31.723  27.682  1.00  0.00     0.275 C 
ENDROOT
BRANCH   1   2
ATOM      2  C   UNL A   1      32.475  30.602  27.256  1.00  0.00     0.274 C 
BRANCH   2   3
ATOM      3  O   UNL A   1      32.981  29.307  27.633  1.00  0.00    -0.457 OA
BRANCH   3   4
ATOM      4  C   UNL A   1      32.342  28.199  27.164  1.00  0.00     0.368 C 
ATOM      5  O   UNL A   1      31.262  27.805  27.587  1.00  0.00    -0.245 OA
BRANCH   4   6
ATOM      6  C   UNL A   1      33.196  27.434  26.099  1.00  0.00     0.205 C 
ATOM      7  C   UNL A   1      34.609  28.018  25.979  1.00  0.00     0.093 C 
ATOM      8  N   UNL A   1      33.275  25.949  26.380  1.00  0.00    -0.313 N 
ATOM      9  C   UNL A   1      32.507  27.455  24.763  1.00  0.00     0.172 C 
ATOM     10  C   UNL A   1      32.385  25.232  25.380  1.00  0.00     0.237 C 
ATOM     11  H   UNL A   1      32.952  25.759  27.329  1.00  0.00     0.348 HD
ATOM     12  H   UNL A   1      34.238  25.623  26.294  1.00  0.00     0.348 HD
ATOM     13  C   UNL A   1      31.500  26.334  24.905  1.00  0.00     0.177 C 
ATOM     14  C   UNL A   1      31.659  28.559  24.258  1.00  0.00     0.244 C 
ATOM     15  C   UNL A   1      33.247  24.515  24.341  1.00  0.00     0.232 C 
ATOM     16  C   UNL A   1      31.647  24.086  26.074  1.00  0.00     0.232 C 
ATOM     17  C   UNL A   1      30.721  26.538  23.654  1.00  0.00     0.245 C 
ATOM     18  N   UNL A   1      30.669  27.928  23.512  1.00  0.00    -0.250 N 
ATOM     19  O   UNL A   1      31.879  29.742  24.445  1.00  0.00    -0.273 OA
ATOM     20  O   UNL A   1      34.019  25.018  23.549  1.00  0.00    -0.286 OA
ATOM     21  C   UNL A   1      33.093  23.074  24.533  1.00  0.00     0.036 A 
ATOM     22  C   UNL A   1      32.176  22.823  25.546  1.00  0.00     0.036 A 
ATOM     23  O   UNL A   1      30.762  24.152  26.904  1.00  0.00    -0.286 OA
ATOM     24  O   UNL A   1      30.167  25.653  23.025  1.00  0.00    -0.273 OA
ATOM     25  C   UNL A   1      33.755  22.054  23.875  1.00  0.00     0.013 A 
ATOM     26  C   UNL A   1      31.874  21.533  25.941  1.00  0.00     0.013 A 
ATOM     27  C   UNL A   1      33.460  20.743  24.260  1.00  0.00     0.001 A 
ATOM     28  C   UNL A   1      32.528  20.485  25.284  1.00  0.00     0.001 A 
BRANCH  18  29
ATOM     29  C   UNL A   1      29.646  28.657  22.875  1.00  0.00     0.052 A 
ATOM     30  C   UNL A   1      29.964  29.706  22.000  1.00  0.00     0.027 A 
ATOM     31  C   UNL A   1      28.312  28.457  23.243  1.00  0.00     0.027 A 
ATOM     32  C   UNL A   1      28.969  30.556  21.518  1.00  0.00     0.002 A 
ATOM     33  C   UNL A   1      27.324  29.338  22.794  1.00  0.00     0.002 A 
ATOM     34  C   UNL A   1      27.653  30.385  21.934  1.00  0.00     0.000 A 
ENDBRANCH  18  29
ENDBRANCH   4   6
ENDBRANCH   3   4
ENDBRANCH   2   3
ENDBRANCH   1   2
BRANCH   1  35
ATOM     35  O   UNL A   1      34.787  31.267  27.673  1.00  0.00    -0.458 OA
BRANCH  35  36
ATOM     36  C   UNL A   1      35.401  31.290  28.877  1.00  0.00     0.338 C 
ATOM     37  O   UNL A   1      34.952  31.674  29.943  1.00  0.00    -0.246 OA
BRANCH  36  38
ATOM     38  C   UNL A   1      36.683  30.587  28.765  1.00  0.00     0.060 A 
ATOM     39  C   UNL A   1      37.260  30.286  27.538  1.00  0.00     0.016 A 
ATOM     40  C   UNL A   1      37.345  30.283  29.952  1.00  0.00     0.016 A 
ATOM     41  C   UNL A   1      38.508  29.658  27.521  1.00  0.00     0.010 A 
ATOM     42  C   UNL A   1      38.593  29.684  29.942  1.00  0.00     0.010 A 
ATOM     43  C   UNL A   1      39.183  29.357  28.723  1.00  0.00    -0.014 A 
BRANCH  43  44
ATOM     44  C   UNL A   1      40.542  28.773  28.711  1.00  0.00     0.031 A 
ATOM     45  C   UNL A   1      40.757  27.320  28.401  1.00  0.00     0.074 A 
ATOM     46  C   UNL A   1      41.577  29.567  29.039  1.00  0.00     0.049 A 
ATOM     47  N   UNL A   1      41.885  26.679  28.240  1.00  0.00    -0.248 NA
ATOM     48  C   UNL A   1      39.561  26.469  28.279  1.00  0.00     0.031 C 
ATOM     49  C   UNL A   1      41.459  30.965  29.463  1.00  0.00     0.029 A 
ATOM     50  N   UNL A   1      42.926  29.326  29.052  1.00  0.00    -0.354 N 
ATOM     51  C   UNL A   1      41.537  25.360  27.985  1.00  0.00     0.074 A 
ATOM     52  C   UNL A   1      40.098  25.273  28.085  1.00  0.00     0.031 C 
ATOM     53  C   UNL A   1      42.688  31.476  29.627  1.00  0.00     0.029 A 
ATOM     54  C   UNL A   1      43.676  30.438  29.349  1.00  0.00     0.049 A 
ATOM     55  H   UNL A   1      43.319  28.442  28.866  1.00  0.00     0.167 HD
ATOM     56  C   UNL A   1      42.349  24.326  27.663  1.00  0.00     0.031 A 
ATOM     57  C   UNL A   1      45.011  30.612  29.365  1.00  0.00     0.031 A 
ATOM     58  C   UNL A   1      43.782  24.440  27.569  1.00  0.00     0.049 A 
ATOM     59  C   UNL A   1      45.891  29.460  28.974  1.00  0.00     0.074 A 
ATOM     60  C   UNL A   1      44.695  23.478  27.176  1.00  0.00     0.029 A 
ATOM     61  N   UNL A   1      44.506  25.582  27.875  1.00  0.00    -0.354 N 
ATOM     62  N   UNL A   1      45.546  28.247  28.614  1.00  0.00    -0.248 NA
ATOM     63  C   UNL A   1      47.340  29.701  28.968  1.00  0.00     0.031 C 
ATOM     64  C   UNL A   1      45.976  24.018  27.310  1.00  0.00     0.029 A 
ATOM     65  C   UNL A   1      45.858  25.340  27.709  1.00  0.00     0.049 A 
ATOM     66  H   UNL A   1      44.116  26.438  28.167  1.00  0.00     0.167 HD
ATOM     67  C   UNL A   1      46.730  27.585  28.319  1.00  0.00     0.074 A 
ATOM     68  C   UNL A   1      47.802  28.540  28.522  1.00  0.00     0.031 C 
ATOM     69  C   UNL A   1      46.911  26.303  27.920  1.00  0.00     0.031 A 
BRANCH  56  70
ATOM     70  C   UNL A   1      41.724  22.992  27.353  1.00  0.00    -0.014 A 
ATOM     71  C   UNL A   1      41.676  21.989  28.336  1.00  0.00     0.009 A 
ATOM     72  C   UNL A   1      41.285  22.685  26.055  1.00  0.00     0.009 A 
ATOM     73  C   UNL A   1      41.221  20.707  28.021  1.00  0.00     0.001 A 
ATOM     74  C   UNL A   1      40.799  21.411  25.751  1.00  0.00     0.001 A 
ATOM     75  C   UNL A   1      40.779  20.420  26.730  1.00  0.00     0.000 A 
ENDBRANCH  56  70
BRANCH  57  76
ATOM     76  C   UNL A   1      45.561  31.957  29.681  1.00  0.00    -0.014 A 
ATOM     77  C   UNL A   1      45.825  32.882  28.658  1.00  0.00     0.009 A 
ATOM     78  C   UNL A   1      45.914  32.289  30.997  1.00  0.00     0.009 A 
ATOM     79  C   UNL A   1      46.459  34.094  28.940  1.00  0.00     0.001 A 
ATOM     80  C   UNL A   1      46.518  33.515  31.283  1.00  0.00     0.001 A 
ATOM     81  C   UNL A   1      46.802  34.411  30.252  1.00  0.00     0.000 A 
ENDBRANCH  57  76
BRANCH  69  82
ATOM     82  C   UNL A   1      48.319  25.835  27.671  1.00  0.00    -0.014 A 
ATOM     83  C   UNL A   1      49.126  25.450  28.754  1.00  0.00     0.009 A 
ATOM     84  C   UNL A   1      48.883  25.897  26.390  1.00  0.00     0.009 A 
ATOM     85  C   UNL A   1      50.477  25.162  28.563  1.00  0.00     0.001 A 
ATOM     86  C   UNL A   1      50.228  25.575  26.195  1.00  0.00     0.001 A 
ATOM     87  C   UNL A   1      51.026  25.222  27.283  1.00  0.00     0.000 A 
ENDBRANCH  69  82
ENDBRANCH  43  44
ENDBRANCH  36  38
ENDBRANCH  35  36
ENDBRANCH   1  35
TORSDOF 12
ENDMDL
