MODEL 1
REMARK VINA RESULT:     -10.9      0.000      0.000
REMARK SMILES Cc1cc(C(=O)N[C@@H](Cc2ccccc2)C(=O)OCCOC(=O)c2ccc(-c3c4nc(c(-c5ccccc5)c5ccc([nH]5)c(-c5ccccc5)c5nc(c(-c6ccccc6)c6ccc3[nH]6)C=C5)C=C4)cc2)c(C)o1
REMARK SMILES IDX 19 1 18 2 16 3 17 4 8 5 7 6 5 7 6 8 4 10 1 11 2 12 3 13
REMARK SMILES IDX 74 14 72 15 73 16 9 17 10 18 11 19 15 20 12 21 14 22 13 23
REMARK SMILES IDX 20 24 21 25 22 26 23 27 24 28 25 29 71 30 26 31 70 32 27 33
REMARK SMILES IDX 28 34 29 35 64 36 30 37 69 38 63 39 65 40 31 41 68 42 62 43
REMARK SMILES IDX 61 44 32 46 54 47 39 48 53 49 40 50 43 51 52 52 66 53 41 54
REMARK SMILES IDX 42 55 51 57 67 58 44 59 33 60 34 61 38 62 35 63 37 64 36 65
REMARK SMILES IDX 55 66 56 67 60 68 57 69 59 70 58 71 45 72 46 73 50 74 47 75
REMARK SMILES IDX 49 76 48 77
REMARK H PARENT 7 9 65 45 43 56
REMARK Flexibility Score: inf
ROOT
ATOM      1  C   UNL A   1      35.295  20.631  24.895  1.00  0.00     0.274 C 
ENDROOT
BRANCH   1   2
ATOM      2  O   UNL A   1      35.084  22.026  25.185  1.00  0.00    -0.461 OA
BRANCH   2   3
ATOM      3  C   UNL A   1      34.227  22.312  26.203  1.00  0.00     0.329 C 
ATOM      4  O   UNL A   1      34.169  21.714  27.272  1.00  0.00    -0.250 OA
BRANCH   3   5
ATOM      5  C   UNL A   1      33.269  23.460  25.844  1.00  0.00     0.197 C 
BRANCH   5   6
ATOM      6  N   UNL A   1      31.968  23.361  26.508  1.00  0.00    -0.338 N 
ATOM      7  C   UNL A   1      30.784  24.043  26.426  1.00  0.00     0.255 C 
ATOM      8  O   UNL A   1      29.946  23.730  27.275  1.00  0.00    -0.269 OA
ATOM      9  H   UNL A   1      31.937  22.632  27.170  1.00  0.00     0.164 HD
BRANCH   7  10
ATOM     10  C   UNL A   1      30.487  25.038  25.392  1.00  0.00     0.081 A 
ATOM     11  C   UNL A   1      29.972  28.221  23.509  1.00  0.00     0.087 C 
ATOM     12  C   UNL A   1      30.131  26.888  24.127  1.00  0.00     0.101 A 
ATOM     13  C   UNL A   1      30.169  26.433  25.427  1.00  0.00     0.059 A 
ATOM     14  O   UNL A   1      30.298  25.852  23.276  1.00  0.00    -0.466 OA
ATOM     15  C   UNL A   1      30.483  24.735  24.029  1.00  0.00     0.113 A 
ATOM     16  C   UNL A   1      30.665  23.500  23.229  1.00  0.00     0.088 C 
ENDBRANCH   7  10
ENDBRANCH   5   6
BRANCH   5  17
ATOM     17  C   UNL A   1      33.944  24.812  26.142  1.00  0.00     0.072 C 
BRANCH  17  18
ATOM     18  C   UNL A   1      33.910  25.773  24.973  1.00  0.00    -0.045 A 
ATOM     19  C   UNL A   1      33.805  27.153  25.207  1.00  0.00     0.004 A 
ATOM     20  C   UNL A   1      33.892  25.307  23.653  1.00  0.00     0.004 A 
ATOM     21  C   UNL A   1      33.660  28.044  24.144  1.00  0.00     0.000 A 
ATOM     22  C   UNL A   1      33.736  26.200  22.591  1.00  0.00     0.000 A 
ATOM     23  C   UNL A   1      33.617  27.566  22.838  1.00  0.00     0.000 A 
ENDBRANCH  17  18
ENDBRANCH   5  17
ENDBRANCH   3   5
ENDBRANCH   2   3
ENDBRANCH   1   2
BRANCH   1  24
ATOM     24  C   UNL A   1      36.783  20.309  24.994  1.00  0.00     0.275 C 
BRANCH  24  25
ATOM     25  O   UNL A   1      37.456  21.379  25.685  1.00  0.00    -0.458 OA
BRANCH  25  26
ATOM     26  C   UNL A   1      38.763  21.157  25.951  1.00  0.00     0.338 C 
ATOM     27  O   UNL A   1      39.415  20.150  25.734  1.00  0.00    -0.246 OA
BRANCH  26  28
ATOM     28  C   UNL A   1      39.347  22.378  26.517  1.00  0.00     0.060 A 
ATOM     29  C   UNL A   1      38.806  23.612  26.163  1.00  0.00     0.016 A 
ATOM     30  C   UNL A   1      40.502  22.307  27.294  1.00  0.00     0.016 A 
ATOM     31  C   UNL A   1      39.452  24.787  26.538  1.00  0.00     0.010 A 
ATOM     32  C   UNL A   1      41.118  23.490  27.715  1.00  0.00     0.010 A 
ATOM     33  C   UNL A   1      40.620  24.742  27.310  1.00  0.00    -0.014 A 
BRANCH  33  34
ATOM     34  C   UNL A   1      41.360  25.993  27.628  1.00  0.00     0.031 A 
ATOM     35  C   UNL A   1      40.756  27.004  28.567  1.00  0.00     0.074 A 
ATOM     36  C   UNL A   1      42.580  26.226  27.109  1.00  0.00     0.049 A 
ATOM     37  N   UNL A   1      41.142  28.231  28.819  1.00  0.00    -0.248 NA
ATOM     38  C   UNL A   1      39.555  26.586  29.307  1.00  0.00     0.031 C 
ATOM     39  C   UNL A   1      43.325  25.315  26.239  1.00  0.00     0.029 A 
ATOM     40  N   UNL A   1      43.414  27.309  27.248  1.00  0.00    -0.354 N 
ATOM     41  C   UNL A   1      40.193  28.752  29.690  1.00  0.00     0.074 A 
ATOM     42  C   UNL A   1      39.221  27.708  29.932  1.00  0.00     0.031 C 
ATOM     43  C   UNL A   1      44.519  25.859  25.954  1.00  0.00     0.029 A 
ATOM     44  C   UNL A   1      44.591  27.189  26.551  1.00  0.00     0.049 A 
ATOM     45  H   UNL A   1      43.189  28.096  27.794  1.00  0.00     0.167 HD
ATOM     46  C   UNL A   1      40.132  29.992  30.232  1.00  0.00     0.031 A 
ATOM     47  C   UNL A   1      45.600  28.062  26.377  1.00  0.00     0.031 A 
ATOM     48  C   UNL A   1      41.127  31.014  30.045  1.00  0.00     0.049 A 
ATOM     49  C   UNL A   1      45.507  29.435  26.975  1.00  0.00     0.074 A 
ATOM     50  C   UNL A   1      41.150  32.300  30.561  1.00  0.00     0.029 A 
ATOM     51  N   UNL A   1      42.287  30.858  29.307  1.00  0.00    -0.354 N 
ATOM     52  N   UNL A   1      44.560  29.946  27.724  1.00  0.00    -0.248 NA
ATOM     53  C   UNL A   1      46.611  30.361  26.684  1.00  0.00     0.031 C 
ATOM     54  C   UNL A   1      42.317  32.929  30.113  1.00  0.00     0.029 A 
ATOM     55  C   UNL A   1      43.033  32.024  29.349  1.00  0.00     0.049 A 
ATOM     56  H   UNL A   1      42.544  30.039  28.824  1.00  0.00     0.167 HD
ATOM     57  C   UNL A   1      44.954  31.250  27.992  1.00  0.00     0.074 A 
ATOM     58  C   UNL A   1      46.237  31.445  27.349  1.00  0.00     0.031 C 
ATOM     59  C   UNL A   1      44.304  32.204  28.701  1.00  0.00     0.031 A 
BRANCH  46  60
ATOM     60  C   UNL A   1      38.918  30.329  31.048  1.00  0.00    -0.014 A 
ATOM     61  C   UNL A   1      37.754  30.842  30.457  1.00  0.00     0.009 A 
ATOM     62  C   UNL A   1      38.933  30.089  32.432  1.00  0.00     0.009 A 
ATOM     63  C   UNL A   1      36.637  31.135  31.244  1.00  0.00     0.001 A 
ATOM     64  C   UNL A   1      37.808  30.362  33.210  1.00  0.00     0.001 A 
ATOM     65  C   UNL A   1      36.664  30.891  32.617  1.00  0.00     0.000 A 
ENDBRANCH  46  60
BRANCH  47  66
ATOM     66  C   UNL A   1      46.775  27.679  25.552  1.00  0.00    -0.014 A 
ATOM     67  C   UNL A   1      47.893  27.076  26.147  1.00  0.00     0.009 A 
ATOM     68  C   UNL A   1      46.780  27.911  24.169  1.00  0.00     0.009 A 
ATOM     69  C   UNL A   1      48.999  26.723  25.371  1.00  0.00     0.001 A 
ATOM     70  C   UNL A   1      47.877  27.535  23.392  1.00  0.00     0.001 A 
ATOM     71  C   UNL A   1      48.987  26.947  23.995  1.00  0.00     0.000 A 
ENDBRANCH  47  66
BRANCH  59  72
ATOM     72  C   UNL A   1      44.980  33.537  28.831  1.00  0.00    -0.014 A 
ATOM     73  C   UNL A   1      44.729  34.564  27.909  1.00  0.00     0.009 A 
ATOM     74  C   UNL A   1      45.850  33.777  29.904  1.00  0.00     0.009 A 
ATOM     75  C   UNL A   1      45.361  35.802  28.046  1.00  0.00     0.001 A 
ATOM     76  C   UNL A   1      46.465  35.022  30.050  1.00  0.00     0.001 A 
ATOM     77  C   UNL A   1      46.226  36.031  29.116  1.00  0.00     0.000 A 
ENDBRANCH  59  72
ENDBRANCH  33  34
ENDBRANCH  26  28
ENDBRANCH  25  26
ENDBRANCH  24  25
ENDBRANCH   1  24
TORSDOF 15
ENDMDL
MODEL 2
REMARK VINA RESULT:     -10.7      3.036      6.685
REMARK SMILES Cc1cc(C(=O)N[C@@H](Cc2ccccc2)C(=O)OCCOC(=O)c2ccc(-c3c4nc(c(-c5ccccc5)c5ccc([nH]5)c(-c5ccccc5)c5nc(c(-c6ccccc6)c6ccc3[nH]6)C=C5)C=C4)cc2)c(C)o1
REMARK SMILES IDX 19 1 18 2 16 3 17 4 8 5 7 6 5 7 6 8 4 10 1 11 2 12 3 13
REMARK SMILES IDX 74 14 72 15 73 16 9 17 10 18 11 19 15 20 12 21 14 22 13 23
REMARK SMILES IDX 20 24 21 25 22 26 23 27 24 28 25 29 71 30 26 31 70 32 27 33
REMARK SMILES IDX 28 34 29 35 64 36 30 37 69 38 63 39 65 40 31 41 68 42 62 43
REMARK SMILES IDX 61 44 32 46 54 47 39 48 53 49 40 50 43 51 52 52 66 53 41 54
REMARK SMILES IDX 42 55 51 57 67 58 44 59 33 60 34 61 38 62 35 63 37 64 36 65
REMARK SMILES IDX 55 66 56 67 60 68 57 69 59 70 58 71 45 72 46 73 50 74 47 75
REMARK SMILES IDX 49 76 48 77
REMARK H PARENT 7 9 65 45 43 56
REMARK Flexibility Score: inf
ROOT
ATOM      1  C   UNL A   1      32.187  29.699  25.882  1.00  0.00     0.274 C 
ENDROOT
BRANCH   1   2
ATOM      2  O   UNL A   1      33.020  29.187  24.825  1.00  0.00    -0.461 OA
BRANCH   2   3
ATOM      3  C   UNL A   1      32.379  28.603  23.775  1.00  0.00     0.329 C 
ATOM      4  O   UNL A   1      31.584  29.164  23.027  1.00  0.00    -0.250 OA
BRANCH   3   5
ATOM      5  C   UNL A   1      32.718  27.109  23.652  1.00  0.00     0.197 C 
BRANCH   5   6
ATOM      6  N   UNL A   1      32.832  26.651  22.266  1.00  0.00    -0.338 N 
ATOM      7  C   UNL A   1      32.903  25.430  21.652  1.00  0.00     0.255 C 
ATOM      8  O   UNL A   1      33.135  25.471  20.442  1.00  0.00    -0.269 OA
ATOM      9  H   UNL A   1      32.866  27.398  21.624  1.00  0.00     0.164 HD
BRANCH   7  10
ATOM     10  C   UNL A   1      32.675  24.157  22.341  1.00  0.00     0.081 A 
ATOM     11  C   UNL A   1      33.113  20.860  24.039  1.00  0.00     0.087 C 
ATOM     12  C   UNL A   1      32.789  22.146  23.386  1.00  0.00     0.101 A 
ATOM     13  C   UNL A   1      33.461  22.973  22.513  1.00  0.00     0.059 A 
ATOM     14  O   UNL A   1      31.586  22.682  23.689  1.00  0.00    -0.466 OA
ATOM     15  C   UNL A   1      31.500  23.876  23.043  1.00  0.00     0.113 A 
ATOM     16  C   UNL A   1      30.217  24.584  23.266  1.00  0.00     0.088 C 
ENDBRANCH   7  10
ENDBRANCH   5   6
BRANCH   5  17
ATOM     17  C   UNL A   1      34.001  26.800  24.446  1.00  0.00     0.072 C 
BRANCH  17  18
ATOM     18  C   UNL A   1      33.875  25.590  25.348  1.00  0.00    -0.045 A 
ATOM     19  C   UNL A   1      34.940  24.682  25.450  1.00  0.00     0.004 A 
ATOM     20  C   UNL A   1      32.678  25.308  26.018  1.00  0.00     0.004 A 
ATOM     21  C   UNL A   1      34.801  23.505  26.185  1.00  0.00     0.000 A 
ATOM     22  C   UNL A   1      32.539  24.125  26.745  1.00  0.00     0.000 A 
ATOM     23  C   UNL A   1      33.598  23.223  26.825  1.00  0.00     0.000 A 
ENDBRANCH  17  18
ENDBRANCH   5  17
ENDBRANCH   3   5
ENDBRANCH   2   3
ENDBRANCH   1   2
BRANCH   1  24
ATOM     24  C   UNL A   1      32.662  29.144  27.221  1.00  0.00     0.275 C 
BRANCH  24  25
ATOM     25  O   UNL A   1      34.099  29.221  27.284  1.00  0.00    -0.458 OA
BRANCH  25  26
ATOM     26  C   UNL A   1      34.587  30.324  27.896  1.00  0.00     0.338 C 
ATOM     27  O   UNL A   1      34.007  31.368  28.142  1.00  0.00    -0.246 OA
BRANCH  26  28
ATOM     28  C   UNL A   1      35.974  30.068  28.301  1.00  0.00     0.060 A 
ATOM     29  C   UNL A   1      36.992  30.238  27.365  1.00  0.00     0.016 A 
ATOM     30  C   UNL A   1      36.250  29.545  29.563  1.00  0.00     0.016 A 
ATOM     31  C   UNL A   1      38.288  29.829  27.668  1.00  0.00     0.010 A 
ATOM     32  C   UNL A   1      37.564  29.185  29.882  1.00  0.00     0.010 A 
ATOM     33  C   UNL A   1      38.590  29.290  28.925  1.00  0.00    -0.014 A 
BRANCH  33  34
ATOM     34  C   UNL A   1      39.953  28.766  29.211  1.00  0.00     0.031 A 
ATOM     35  C   UNL A   1      40.932  29.607  29.986  1.00  0.00     0.074 A 
ATOM     36  C   UNL A   1      40.318  27.534  28.810  1.00  0.00     0.049 A 
ATOM     37  N   UNL A   1      42.216  29.420  30.171  1.00  0.00    -0.248 NA
ATOM     38  C   UNL A   1      40.402  30.822  30.625  1.00  0.00     0.031 C 
ATOM     39  C   UNL A   1      39.463  26.575  28.110  1.00  0.00     0.029 A 
ATOM     40  N   UNL A   1      41.516  26.874  28.945  1.00  0.00    -0.354 N 
ATOM     41  C   UNL A   1      42.658  30.527  30.884  1.00  0.00     0.074 A 
ATOM     42  C   UNL A   1      41.506  31.374  31.109  1.00  0.00     0.031 C 
ATOM     43  C   UNL A   1      40.148  25.439  27.910  1.00  0.00     0.029 A 
ATOM     44  C   UNL A   1      41.514  25.616  28.393  1.00  0.00     0.049 A 
ATOM     45  H   UNL A   1      42.300  27.265  29.392  1.00  0.00     0.167 HD
ATOM     46  C   UNL A   1      43.912  30.817  31.306  1.00  0.00     0.031 A 
ATOM     47  C   UNL A   1      42.507  24.718  28.255  1.00  0.00     0.031 A 
ATOM     48  C   UNL A   1      45.049  29.952  31.141  1.00  0.00     0.049 A 
ATOM     49  C   UNL A   1      43.893  25.064  28.717  1.00  0.00     0.074 A 
ATOM     50  C   UNL A   1      46.358  30.162  31.542  1.00  0.00     0.029 A 
ATOM     51  N   UNL A   1      45.007  28.701  30.551  1.00  0.00    -0.354 N 
ATOM     52  N   UNL A   1      44.316  26.153  29.311  1.00  0.00    -0.248 NA
ATOM     53  C   UNL A   1      44.942  24.065  28.469  1.00  0.00     0.031 C 
ATOM     54  C   UNL A   1      47.114  29.042  31.171  1.00  0.00     0.029 A 
ATOM     55  C   UNL A   1      46.266  28.126  30.572  1.00  0.00     0.049 A 
ATOM     56  H   UNL A   1      44.200  28.281  30.172  1.00  0.00     0.167 HD
ATOM     57  C   UNL A   1      45.678  25.971  29.506  1.00  0.00     0.074 A 
ATOM     58  C   UNL A   1      46.007  24.657  28.992  1.00  0.00     0.031 C 
ATOM     59  C   UNL A   1      46.579  26.821  30.053  1.00  0.00     0.031 A 
BRANCH  46  60
ATOM     60  C   UNL A   1      44.131  32.154  31.953  1.00  0.00    -0.014 A 
ATOM     61  C   UNL A   1      43.919  32.351  33.325  1.00  0.00     0.009 A 
ATOM     62  C   UNL A   1      44.594  33.227  31.172  1.00  0.00     0.009 A 
ATOM     63  C   UNL A   1      44.143  33.605  33.898  1.00  0.00     0.001 A 
ATOM     64  C   UNL A   1      44.837  34.472  31.752  1.00  0.00     0.001 A 
ATOM     65  C   UNL A   1      44.605  34.663  33.113  1.00  0.00     0.000 A 
ENDBRANCH  46  60
BRANCH  47  66
ATOM     66  C   UNL A   1      42.236  23.412  27.600  1.00  0.00    -0.014 A 
ATOM     67  C   UNL A   1      42.549  23.219  26.246  1.00  0.00     0.009 A 
ATOM     68  C   UNL A   1      41.668  22.356  28.327  1.00  0.00     0.009 A 
ATOM     69  C   UNL A   1      42.287  21.994  25.631  1.00  0.00     0.001 A 
ATOM     70  C   UNL A   1      41.429  21.124  27.715  1.00  0.00     0.001 A 
ATOM     71  C   UNL A   1      41.732  20.946  26.367  1.00  0.00     0.000 A 
ENDBRANCH  47  66
BRANCH  59  72
ATOM     72  C   UNL A   1      48.000  26.349  30.140  1.00  0.00    -0.014 A 
ATOM     73  C   UNL A   1      48.477  25.708  31.293  1.00  0.00     0.009 A 
ATOM     74  C   UNL A   1      48.860  26.518  29.044  1.00  0.00     0.009 A 
ATOM     75  C   UNL A   1      49.801  25.269  31.356  1.00  0.00     0.001 A 
ATOM     76  C   UNL A   1      50.177  26.060  29.104  1.00  0.00     0.001 A 
ATOM     77  C   UNL A   1      50.648  25.443  30.262  1.00  0.00     0.000 A 
ENDBRANCH  59  72
ENDBRANCH  33  34
ENDBRANCH  26  28
ENDBRANCH  25  26
ENDBRANCH  24  25
ENDBRANCH   1  24
TORSDOF 15
ENDMDL
MODEL 3
REMARK VINA RESULT:     -10.6      3.726      8.584
REMARK SMILES Cc1cc(C(=O)N[C@@H](Cc2ccccc2)C(=O)OCCOC(=O)c2ccc(-c3c4nc(c(-c5ccccc5)c5ccc([nH]5)c(-c5ccccc5)c5nc(c(-c6ccccc6)c6ccc3[nH]6)C=C5)C=C4)cc2)c(C)o1
REMARK SMILES IDX 19 1 18 2 16 3 17 4 8 5 7 6 5 7 6 8 4 10 1 11 2 12 3 13
REMARK SMILES IDX 74 14 72 15 73 16 9 17 10 18 11 19 15 20 12 21 14 22 13 23
REMARK SMILES IDX 20 24 21 25 22 26 23 27 24 28 25 29 71 30 26 31 70 32 27 33
REMARK SMILES IDX 28 34 29 35 64 36 30 37 69 38 63 39 65 40 31 41 68 42 62 43
REMARK SMILES IDX 61 44 32 46 54 47 39 48 53 49 40 50 43 51 52 52 66 53 41 54
REMARK SMILES IDX 42 55 51 57 67 58 44 59 33 60 34 61 38 62 35 63 37 64 36 65
REMARK SMILES IDX 55 66 56 67 60 68 57 69 59 70 58 71 45 72 46 73 50 74 47 75
REMARK SMILES IDX 49 76 48 77
REMARK H PARENT 7 9 65 45 43 56
REMARK Flexibility Score: inf
ROOT
ATOM      1  C   UNL A   1      31.358  28.997  25.243  1.00  0.00     0.274 C 
ENDROOT
BRANCH   1   2
ATOM      2  O   UNL A   1      32.458  28.108  25.516  1.00  0.00    -0.461 OA
BRANCH   2   3
ATOM      3  C   UNL A   1      32.187  27.032  26.305  1.00  0.00     0.329 C 
ATOM      4  O   UNL A   1      31.819  27.082  27.474  1.00  0.00    -0.250 OA
BRANCH   3   5
ATOM      5  C   UNL A   1      32.451  25.703  25.578  1.00  0.00     0.197 C 
BRANCH   5   6
ATOM      6  N   UNL A   1      31.471  25.408  24.531  1.00  0.00    -0.338 N 
ATOM      7  C   UNL A   1      31.043  24.273  23.897  1.00  0.00     0.255 C 
ATOM      8  O   UNL A   1      30.277  24.467  22.950  1.00  0.00    -0.269 OA
ATOM      9  H   UNL A   1      31.012  26.217  24.206  1.00  0.00     0.164 HD
BRANCH   7  10
ATOM     10  C   UNL A   1      31.408  22.918  24.317  1.00  0.00     0.081 A 
ATOM     11  C   UNL A   1      33.026  19.568  24.641  1.00  0.00     0.087 C 
ATOM     12  C   UNL A   1      32.291  20.851  24.626  1.00  0.00     0.101 A 
ATOM     13  C   UNL A   1      32.131  21.852  23.693  1.00  0.00     0.059 A 
ATOM     14  O   UNL A   1      31.626  21.170  25.758  1.00  0.00    -0.466 OA
ATOM     15  C   UNL A   1      31.070  22.397  25.569  1.00  0.00     0.113 A 
ATOM     16  C   UNL A   1      30.285  22.881  26.729  1.00  0.00     0.088 C 
ENDBRANCH   7  10
ENDBRANCH   5   6
BRANCH   5  17
ATOM     17  C   UNL A   1      33.885  25.695  25.015  1.00  0.00     0.072 C 
BRANCH  17  18
ATOM     18  C   UNL A   1      34.521  24.321  25.008  1.00  0.00    -0.045 A 
ATOM     19  C   UNL A   1      34.562  23.563  26.189  1.00  0.00     0.004 A 
ATOM     20  C   UNL A   1      35.154  23.823  23.862  1.00  0.00     0.004 A 
ATOM     21  C   UNL A   1      35.242  22.347  26.229  1.00  0.00     0.000 A 
ATOM     22  C   UNL A   1      35.842  22.609  23.908  1.00  0.00     0.000 A 
ATOM     23  C   UNL A   1      35.889  21.875  25.091  1.00  0.00     0.000 A 
ENDBRANCH  17  18
ENDBRANCH   5  17
ENDBRANCH   3   5
ENDBRANCH   2   3
ENDBRANCH   1   2
BRANCH   1  24
ATOM     24  C   UNL A   1      31.778  30.433  25.538  1.00  0.00     0.275 C 
BRANCH  24  25
ATOM     25  O   UNL A   1      32.205  30.531  26.909  1.00  0.00    -0.458 OA
BRANCH  25  26
ATOM     26  C   UNL A   1      32.868  31.667  27.224  1.00  0.00     0.338 C 
ATOM     27  O   UNL A   1      32.462  32.815  27.167  1.00  0.00    -0.246 OA
BRANCH  26  28
ATOM     28  C   UNL A   1      34.201  31.316  27.725  1.00  0.00     0.060 A 
ATOM     29  C   UNL A   1      34.478  29.986  28.034  1.00  0.00     0.016 A 
ATOM     30  C   UNL A   1      35.130  32.317  28.004  1.00  0.00     0.016 A 
ATOM     31  C   UNL A   1      35.666  29.656  28.680  1.00  0.00     0.010 A 
ATOM     32  C   UNL A   1      36.347  31.975  28.604  1.00  0.00     0.010 A 
ATOM     33  C   UNL A   1      36.611  30.645  28.981  1.00  0.00    -0.014 A 
BRANCH  33  34
ATOM     34  C   UNL A   1      37.835  30.305  29.756  1.00  0.00     0.031 A 
ATOM     35  C   UNL A   1      38.942  29.519  29.104  1.00  0.00     0.074 A 
ATOM     36  C   UNL A   1      37.983  30.713  31.031  1.00  0.00     0.049 A 
ATOM     37  N   UNL A   1      39.991  28.958  29.653  1.00  0.00    -0.248 NA
ATOM     38  C   UNL A   1      38.849  29.328  27.648  1.00  0.00     0.031 C 
ATOM     39  C   UNL A   1      37.033  31.537  31.779  1.00  0.00     0.029 A 
ATOM     40  N   UNL A   1      39.005  30.492  31.922  1.00  0.00    -0.354 N 
ATOM     41  C   UNL A   1      40.642  28.290  28.623  1.00  0.00     0.074 A 
ATOM     42  C   UNL A   1      39.879  28.524  27.416  1.00  0.00     0.031 C 
ATOM     43  C   UNL A   1      37.532  31.783  33.000  1.00  0.00     0.029 A 
ATOM     44  C   UNL A   1      38.796  31.069  33.151  1.00  0.00     0.049 A 
ATOM     45  H   UNL A   1      39.809  29.970  31.702  1.00  0.00     0.167 HD
ATOM     46  C   UNL A   1      41.769  27.541  28.679  1.00  0.00     0.031 A 
ATOM     47  C   UNL A   1      39.517  31.003  34.286  1.00  0.00     0.031 A 
ATOM     48  C   UNL A   1      42.567  27.354  29.861  1.00  0.00     0.049 A 
ATOM     49  C   UNL A   1      40.756  30.156  34.330  1.00  0.00     0.074 A 
ATOM     50  C   UNL A   1      43.729  26.615  30.010  1.00  0.00     0.029 A 
ATOM     51  N   UNL A   1      42.301  27.933  31.090  1.00  0.00    -0.354 N 
ATOM     52  N   UNL A   1      41.313  29.458  33.371  1.00  0.00    -0.248 NA
ATOM     53  C   UNL A   1      41.454  30.072  35.621  1.00  0.00     0.031 C 
ATOM     54  C   UNL A   1      44.153  26.730  31.339  1.00  0.00     0.029 A 
ATOM     55  C   UNL A   1      43.274  27.567  32.005  1.00  0.00     0.049 A 
ATOM     56  H   UNL A   1      41.533  28.519  31.284  1.00  0.00     0.167 HD
ATOM     57  C   UNL A   1      42.423  28.851  33.942  1.00  0.00     0.074 A 
ATOM     58  C   UNL A   1      42.477  29.284  35.324  1.00  0.00     0.031 C 
ATOM     59  C   UNL A   1      43.312  28.002  33.375  1.00  0.00     0.031 A 
BRANCH  46  60
ATOM     60  C   UNL A   1      42.185  26.825  27.427  1.00  0.00    -0.014 A 
ATOM     61  C   UNL A   1      43.109  27.385  26.532  1.00  0.00     0.009 A 
ATOM     62  C   UNL A   1      41.665  25.547  27.162  1.00  0.00     0.009 A 
ATOM     63  C   UNL A   1      43.483  26.688  25.381  1.00  0.00     0.001 A 
ATOM     64  C   UNL A   1      42.059  24.845  26.023  1.00  0.00     0.001 A 
ATOM     65  C   UNL A   1      42.962  25.418  25.129  1.00  0.00     0.000 A 
ENDBRANCH  46  60
BRANCH  47  66
ATOM     66  C   UNL A   1      39.055  31.725  35.498  1.00  0.00    -0.014 A 
ATOM     67  C   UNL A   1      39.460  33.047  35.734  1.00  0.00     0.009 A 
ATOM     68  C   UNL A   1      38.204  31.097  36.420  1.00  0.00     0.009 A 
ATOM     69  C   UNL A   1      39.030  33.721  36.879  1.00  0.00     0.001 A 
ATOM     70  C   UNL A   1      37.757  31.782  37.551  1.00  0.00     0.001 A 
ATOM     71  C   UNL A   1      38.175  33.091  37.782  1.00  0.00     0.000 A 
ENDBRANCH  47  66
BRANCH  59  72
ATOM     72  C   UNL A   1      44.428  27.501  34.243  1.00  0.00    -0.014 A 
ATOM     73  C   UNL A   1      45.632  28.212  34.350  1.00  0.00     0.009 A 
ATOM     74  C   UNL A   1      44.260  26.324  34.987  1.00  0.00     0.009 A 
ATOM     75  C   UNL A   1      46.660  27.737  35.166  1.00  0.00     0.001 A 
ATOM     76  C   UNL A   1      45.282  25.861  35.818  1.00  0.00     0.001 A 
ATOM     77  C   UNL A   1      46.484  26.564  35.901  1.00  0.00     0.000 A 
ENDBRANCH  59  72
ENDBRANCH  33  34
ENDBRANCH  26  28
ENDBRANCH  25  26
ENDBRANCH  24  25
ENDBRANCH   1  24
TORSDOF 15
ENDMDL
