MODEL 1
REMARK VINA RESULT:     -10.9      0.000      0.000
REMARK SMILES CCOCCn1nc(C)cc1C(=O)N1CCc2nc[nH]c2[C@H]1C(=O)OCCOC(=O)c1ccc(-c2c3nc(c(-c4ccccc4)c4ccc([nH]4)c(-c4ccccc4)c4nc(c(-c5ccccc5)c5ccc2[nH]5)C=C4)C=C3)cc1
REMARK SMILES IDX 23 1 24 2 22 3 14 4 15 5 16 6 21 7 17 8 20 9 18 10 19 11
REMARK SMILES IDX 12 13 13 14 11 15 6 16 7 17 8 18 10 19 9 20 5 21 4 22 3 23
REMARK SMILES IDX 2 24 1 25 25 26 26 27 27 28 28 29 29 30 30 31 31 32 32 33
REMARK SMILES IDX 78 34 33 35 77 36 34 37 35 38 36 39 71 40 37 41 76 42 70 43
REMARK SMILES IDX 72 44 38 45 75 46 69 47 68 48 39 50 61 51 46 52 60 53 47 54
REMARK SMILES IDX 50 55 59 56 73 57 48 58 49 59 58 61 74 62 51 63 40 64 41 65
REMARK SMILES IDX 45 66 42 67 44 68 43 69 62 70 63 71 67 72 64 73 66 74 65 75
REMARK SMILES IDX 52 76 53 77 57 78 54 79 56 80 55 81
REMARK H PARENT 20 12 72 49 50 60
REMARK Flexibility Score: inf
ROOT
ATOM      1  C   UNL A   1      32.573  28.094  27.161  1.00  0.00     0.335 C 
ATOM      2  O   UNL A   1      31.633  27.819  27.897  1.00  0.00    -0.249 OA
ENDROOT
BRANCH   1   3
ATOM      3  C   UNL A   1      33.079  27.185  25.994  1.00  0.00     0.244 C 
ATOM      4  N   UNL A   1      32.210  25.984  25.804  1.00  0.00    -0.318 N 
ATOM      5  C   UNL A   1      30.843  26.207  25.201  1.00  0.00     0.127 C 
ATOM      6  C   UNL A   1      30.591  27.581  24.508  1.00  0.00     0.080 C 
ATOM      7  C   UNL A   1      33.033  27.852  24.641  1.00  0.00     0.072 A 
ATOM      8  C   UNL A   1      31.873  27.987  23.909  1.00  0.00     0.066 A 
ATOM      9  N   UNL A   1      34.033  27.959  23.708  1.00  0.00    -0.346 N 
ATOM     10  N   UNL A   1      32.120  28.029  22.569  1.00  0.00    -0.242 NA
ATOM     11  C   UNL A   1      33.424  27.894  22.476  1.00  0.00     0.197 A 
ATOM     12  H   UNL A   1      34.996  28.063  23.885  1.00  0.00     0.167 HD
BRANCH   4  13
ATOM     13  C   UNL A   1      32.578  24.658  26.109  1.00  0.00     0.273 C 
ATOM     14  O   UNL A   1      31.906  24.023  26.925  1.00  0.00    -0.267 OA
BRANCH  13  15
ATOM     15  C   UNL A   1      33.711  23.995  25.456  1.00  0.00     0.126 A 
ATOM     16  N   UNL A   1      33.646  22.799  24.746  1.00  0.00    -0.257 N 
ATOM     17  N   UNL A   1      34.865  22.312  24.419  1.00  0.00    -0.177 NA
ATOM     18  C   UNL A   1      35.738  23.172  24.929  1.00  0.00     0.060 A 
ATOM     19  C   UNL A   1      35.078  24.262  25.527  1.00  0.00     0.059 A 
ATOM     20  C   UNL A   1      37.186  22.865  24.851  1.00  0.00     0.069 C 
BRANCH  16  21
ATOM     21  C   UNL A   1      32.531  21.933  24.394  1.00  0.00     0.173 C 
BRANCH  21  22
ATOM     22  C   UNL A   1      32.232  20.682  25.222  1.00  0.00     0.183 C 
BRANCH  22  23
ATOM     23  O   UNL A   1      32.104  19.441  24.516  1.00  0.00    -0.380 OA
BRANCH  23  24
ATOM     24  C   UNL A   1      32.194  19.498  23.102  1.00  0.00     0.157 C 
ATOM     25  C   UNL A   1      32.483  18.161  22.468  1.00  0.00     0.035 C 
ENDBRANCH  23  24
ENDBRANCH  22  23
ENDBRANCH  21  22
ENDBRANCH  16  21
ENDBRANCH  13  15
ENDBRANCH   4  13
ENDBRANCH   1   3
BRANCH   1  26
ATOM     26  O   UNL A   1      33.345  29.214  27.288  1.00  0.00    -0.460 OA
BRANCH  26  27
ATOM     27  C   UNL A   1      32.758  30.528  27.194  1.00  0.00     0.274 C 
BRANCH  27  28
ATOM     28  C   UNL A   1      33.772  31.530  27.774  1.00  0.00     0.275 C 
BRANCH  28  29
ATOM     29  O   UNL A   1      35.171  31.284  27.521  1.00  0.00    -0.458 OA
BRANCH  29  30
ATOM     30  C   UNL A   1      36.054  31.755  28.421  1.00  0.00     0.338 C 
ATOM     31  O   UNL A   1      36.126  32.908  28.824  1.00  0.00    -0.246 OA
BRANCH  30  32
ATOM     32  C   UNL A   1      37.073  30.745  28.751  1.00  0.00     0.060 A 
ATOM     33  C   UNL A   1      38.304  31.219  29.208  1.00  0.00     0.016 A 
ATOM     34  C   UNL A   1      36.893  29.382  28.505  1.00  0.00     0.016 A 
ATOM     35  C   UNL A   1      39.394  30.381  29.279  1.00  0.00     0.010 A 
ATOM     36  C   UNL A   1      37.974  28.519  28.630  1.00  0.00     0.010 A 
ATOM     37  C   UNL A   1      39.231  29.034  28.959  1.00  0.00    -0.014 A 
BRANCH  37  38
ATOM     38  C   UNL A   1      40.375  28.165  29.203  1.00  0.00     0.031 A 
ATOM     39  C   UNL A   1      40.773  28.145  30.644  1.00  0.00     0.074 A 
ATOM     40  C   UNL A   1      40.930  27.395  28.247  1.00  0.00     0.049 A 
ATOM     41  N   UNL A   1      41.915  28.465  31.156  1.00  0.00    -0.248 NA
ATOM     42  C   UNL A   1      39.714  27.911  31.647  1.00  0.00     0.031 C 
ATOM     43  C   UNL A   1      40.467  27.193  26.873  1.00  0.00     0.029 A 
ATOM     44  N   UNL A   1      41.975  26.526  28.335  1.00  0.00    -0.354 N 
ATOM     45  C   UNL A   1      41.776  28.291  32.532  1.00  0.00     0.074 A 
ATOM     46  C   UNL A   1      40.371  28.120  32.787  1.00  0.00     0.031 C 
ATOM     47  C   UNL A   1      41.035  26.071  26.372  1.00  0.00     0.029 A 
ATOM     48  C   UNL A   1      41.991  25.555  27.337  1.00  0.00     0.049 A 
ATOM     49  H   UNL A   1      42.659  26.578  29.041  1.00  0.00     0.167 HD
ATOM     50  C   UNL A   1      42.850  28.016  33.320  1.00  0.00     0.031 A 
ATOM     51  C   UNL A   1      42.673  24.378  27.352  1.00  0.00     0.031 A 
ATOM     52  C   UNL A   1      44.082  28.417  32.692  1.00  0.00     0.049 A 
ATOM     53  C   UNL A   1      43.719  24.479  28.398  1.00  0.00     0.074 A 
ATOM     54  C   UNL A   1      44.602  29.618  32.253  1.00  0.00     0.029 A 
ATOM     55  N   UNL A   1      44.817  27.435  32.076  1.00  0.00    -0.354 N 
ATOM     56  N   UNL A   1      44.755  25.257  28.295  1.00  0.00    -0.248 NA
ATOM     57  C   UNL A   1      43.353  24.093  29.753  1.00  0.00     0.031 C 
ATOM     58  C   UNL A   1      45.280  29.299  31.040  1.00  0.00     0.029 A 
ATOM     59  C   UNL A   1      45.214  27.918  30.858  1.00  0.00     0.049 A 
ATOM     60  H   UNL A   1      45.021  26.545  32.443  1.00  0.00     0.167 HD
ATOM     61  C   UNL A   1      44.881  25.832  29.550  1.00  0.00     0.074 A 
ATOM     62  C   UNL A   1      44.037  25.020  30.428  1.00  0.00     0.031 C 
ATOM     63  C   UNL A   1      45.413  27.079  29.700  1.00  0.00     0.031 A 
BRANCH  50  64
ATOM     64  C   UNL A   1      42.805  26.943  34.385  1.00  0.00    -0.014 A 
ATOM     65  C   UNL A   1      43.261  25.653  34.057  1.00  0.00     0.009 A 
ATOM     66  C   UNL A   1      42.048  27.061  35.567  1.00  0.00     0.009 A 
ATOM     67  C   UNL A   1      42.888  24.536  34.814  1.00  0.00     0.001 A 
ATOM     68  C   UNL A   1      41.708  25.954  36.346  1.00  0.00     0.001 A 
ATOM     69  C   UNL A   1      42.100  24.686  35.951  1.00  0.00     0.000 A 
ENDBRANCH  50  64
BRANCH  51  70
ATOM     70  C   UNL A   1      42.286  23.064  26.783  1.00  0.00    -0.014 A 
ATOM     71  C   UNL A   1      43.244  22.230  26.179  1.00  0.00     0.009 A 
ATOM     72  C   UNL A   1      41.036  22.497  27.092  1.00  0.00     0.009 A 
ATOM     73  C   UNL A   1      42.974  20.874  25.934  1.00  0.00     0.001 A 
ATOM     74  C   UNL A   1      40.766  21.145  26.845  1.00  0.00     0.001 A 
ATOM     75  C   UNL A   1      41.741  20.329  26.282  1.00  0.00     0.000 A 
ENDBRANCH  51  70
BRANCH  63  76
ATOM     76  C   UNL A   1      46.075  27.719  28.506  1.00  0.00    -0.014 A 
ATOM     77  C   UNL A   1      45.384  28.457  27.529  1.00  0.00     0.009 A 
ATOM     78  C   UNL A   1      47.474  27.679  28.443  1.00  0.00     0.009 A 
ATOM     79  C   UNL A   1      46.077  29.101  26.497  1.00  0.00     0.001 A 
ATOM     80  C   UNL A   1      48.168  28.339  27.429  1.00  0.00     0.001 A 
ATOM     81  C   UNL A   1      47.469  29.042  26.450  1.00  0.00     0.000 A 
ENDBRANCH  63  76
ENDBRANCH  37  38
ENDBRANCH  30  32
ENDBRANCH  29  30
ENDBRANCH  28  29
ENDBRANCH  27  28
ENDBRANCH  26  27
ENDBRANCH   1  26
TORSDOF 17
ENDMDL
MODEL 2
REMARK VINA RESULT:     -10.8      3.190      8.121
REMARK SMILES CCOCCn1nc(C)cc1C(=O)N1CCc2nc[nH]c2[C@H]1C(=O)OCCOC(=O)c1ccc(-c2c3nc(c(-c4ccccc4)c4ccc([nH]4)c(-c4ccccc4)c4nc(c(-c5ccccc5)c5ccc2[nH]5)C=C4)C=C3)cc1
REMARK SMILES IDX 23 1 24 2 22 3 14 4 15 5 16 6 21 7 17 8 20 9 18 10 19 11
REMARK SMILES IDX 12 13 13 14 11 15 6 16 7 17 8 18 10 19 9 20 5 21 4 22 3 23
REMARK SMILES IDX 2 24 1 25 25 26 26 27 27 28 28 29 29 30 30 31 31 32 32 33
REMARK SMILES IDX 78 34 33 35 77 36 34 37 35 38 36 39 71 40 37 41 76 42 70 43
REMARK SMILES IDX 72 44 38 45 75 46 69 47 68 48 39 50 61 51 46 52 60 53 47 54
REMARK SMILES IDX 50 55 59 56 73 57 48 58 49 59 58 61 74 62 51 63 40 64 41 65
REMARK SMILES IDX 45 66 42 67 44 68 43 69 62 70 63 71 67 72 64 73 66 74 65 75
REMARK SMILES IDX 52 76 53 77 57 78 54 79 56 80 55 81
REMARK H PARENT 20 12 72 49 50 60
REMARK Flexibility Score: inf
ROOT
ATOM      1  C   UNL A   1      35.648  23.071  23.796  1.00  0.00     0.335 C 
ATOM      2  O   UNL A   1      36.008  23.086  22.625  1.00  0.00    -0.249 OA
ENDROOT
BRANCH   1   3
ATOM      3  C   UNL A   1      34.534  23.994  24.392  1.00  0.00     0.244 C 
ATOM      4  N   UNL A   1      33.634  24.539  23.331  1.00  0.00    -0.318 N 
ATOM      5  C   UNL A   1      32.664  23.579  22.684  1.00  0.00     0.127 C 
ATOM      6  C   UNL A   1      32.431  22.216  23.405  1.00  0.00     0.080 C 
ATOM      7  C   UNL A   1      33.576  23.274  25.309  1.00  0.00     0.072 A 
ATOM      8  C   UNL A   1      32.545  22.483  24.848  1.00  0.00     0.066 A 
ATOM      9  N   UNL A   1      33.195  23.614  26.581  1.00  0.00    -0.346 N 
ATOM     10  N   UNL A   1      31.502  22.447  25.725  1.00  0.00    -0.242 NA
ATOM     11  C   UNL A   1      31.878  23.233  26.708  1.00  0.00     0.197 A 
ATOM     12  H   UNL A   1      33.752  24.046  27.269  1.00  0.00     0.167 HD
BRANCH   4  13
ATOM     13  C   UNL A   1      33.594  25.885  22.912  1.00  0.00     0.273 C 
ATOM     14  O   UNL A   1      33.972  26.169  21.773  1.00  0.00    -0.267 OA
BRANCH  13  15
ATOM     15  C   UNL A   1      33.079  26.953  23.774  1.00  0.00     0.126 A 
ATOM     16  N   UNL A   1      31.867  27.615  23.600  1.00  0.00    -0.257 N 
ATOM     17  N   UNL A   1      31.728  28.686  24.416  1.00  0.00    -0.177 NA
ATOM     18  C   UNL A   1      32.855  28.747  25.114  1.00  0.00     0.060 A 
ATOM     19  C   UNL A   1      33.698  27.664  24.801  1.00  0.00     0.059 A 
ATOM     20  C   UNL A   1      33.080  29.893  26.027  1.00  0.00     0.069 C 
BRANCH  16  21
ATOM     21  C   UNL A   1      30.786  27.439  22.641  1.00  0.00     0.173 C 
BRANCH  21  22
ATOM     22  C   UNL A   1      29.523  28.296  22.734  1.00  0.00     0.183 C 
BRANCH  22  23
ATOM     23  O   UNL A   1      29.370  29.346  21.770  1.00  0.00    -0.380 OA
BRANCH  23  24
ATOM     24  C   UNL A   1      28.122  30.018  21.749  1.00  0.00     0.157 C 
ATOM     25  C   UNL A   1      27.757  30.645  23.071  1.00  0.00     0.035 C 
ENDBRANCH  23  24
ENDBRANCH  22  23
ENDBRANCH  21  22
ENDBRANCH  16  21
ENDBRANCH  13  15
ENDBRANCH   4  13
ENDBRANCH   1   3
BRANCH   1  26
ATOM     26  O   UNL A   1      36.204  22.279  24.760  1.00  0.00    -0.460 OA
BRANCH  26  27
ATOM     27  C   UNL A   1      37.121  22.830  25.727  1.00  0.00     0.274 C 
BRANCH  27  28
ATOM     28  C   UNL A   1      38.408  21.987  25.677  1.00  0.00     0.275 C 
BRANCH  28  29
ATOM     29  O   UNL A   1      39.329  22.110  26.780  1.00  0.00    -0.458 OA
BRANCH  29  30
ATOM     30  C   UNL A   1      40.498  22.734  26.542  1.00  0.00     0.338 C 
ATOM     31  O   UNL A   1      41.418  22.305  25.860  1.00  0.00    -0.246 OA
BRANCH  30  32
ATOM     32  C   UNL A   1      40.631  23.949  27.361  1.00  0.00     0.060 A 
ATOM     33  C   UNL A   1      39.625  24.909  27.233  1.00  0.00     0.016 A 
ATOM     34  C   UNL A   1      41.761  24.217  28.138  1.00  0.00     0.016 A 
ATOM     35  C   UNL A   1      39.798  26.177  27.740  1.00  0.00     0.010 A 
ATOM     36  C   UNL A   1      41.916  25.476  28.703  1.00  0.00     0.010 A 
ATOM     37  C   UNL A   1      40.962  26.466  28.451  1.00  0.00    -0.014 A 
BRANCH  37  38
ATOM     38  C   UNL A   1      41.022  27.770  29.099  1.00  0.00     0.031 A 
ATOM     39  C   UNL A   1      42.053  28.661  28.485  1.00  0.00     0.074 A 
ATOM     40  C   UNL A   1      40.168  28.147  30.071  1.00  0.00     0.049 A 
ATOM     41  N   UNL A   1      43.070  29.213  29.059  1.00  0.00    -0.248 NA
ATOM     42  C   UNL A   1      42.046  28.807  27.015  1.00  0.00     0.031 C 
ATOM     43  C   UNL A   1      39.001  27.422  30.576  1.00  0.00     0.029 A 
ATOM     44  N   UNL A   1      40.090  29.330  30.743  1.00  0.00    -0.354 N 
ATOM     45  C   UNL A   1      43.726  29.930  28.061  1.00  0.00     0.074 A 
ATOM     46  C   UNL A   1      43.160  29.508  26.808  1.00  0.00     0.031 C 
ATOM     47  C   UNL A   1      38.192  28.282  31.236  1.00  0.00     0.029 A 
ATOM     48  C   UNL A   1      38.844  29.579  31.310  1.00  0.00     0.049 A 
ATOM     49  H   UNL A   1      40.848  29.953  30.821  1.00  0.00     0.167 HD
ATOM     50  C   UNL A   1      44.483  31.021  28.359  1.00  0.00     0.031 A 
ATOM     51  C   UNL A   1      38.361  30.780  31.726  1.00  0.00     0.031 A 
ATOM     52  C   UNL A   1      44.903  31.012  29.736  1.00  0.00     0.049 A 
ATOM     53  C   UNL A   1      39.512  31.702  31.869  1.00  0.00     0.074 A 
ATOM     54  C   UNL A   1      45.664  30.163  30.514  1.00  0.00     0.029 A 
ATOM     55  N   UNL A   1      44.190  31.795  30.611  1.00  0.00    -0.354 N 
ATOM     56  N   UNL A   1      40.417  31.573  32.793  1.00  0.00    -0.248 NA
ATOM     57  C   UNL A   1      39.917  32.459  30.693  1.00  0.00     0.031 C 
ATOM     58  C   UNL A   1      45.008  30.144  31.780  1.00  0.00     0.029 A 
ATOM     59  C   UNL A   1      43.947  31.047  31.732  1.00  0.00     0.049 A 
ATOM     60  H   UNL A   1      43.905  32.724  30.459  1.00  0.00     0.167 HD
ATOM     61  C   UNL A   1      41.616  31.805  32.137  1.00  0.00     0.074 A 
ATOM     62  C   UNL A   1      41.241  32.422  30.863  1.00  0.00     0.031 C 
ATOM     63  C   UNL A   1      42.771  31.210  32.552  1.00  0.00     0.031 A 
BRANCH  50  64
ATOM     64  C   UNL A   1      44.391  32.299  27.557  1.00  0.00    -0.014 A 
ATOM     65  C   UNL A   1      45.455  32.630  26.698  1.00  0.00     0.009 A 
ATOM     66  C   UNL A   1      43.473  33.329  27.847  1.00  0.00     0.009 A 
ATOM     67  C   UNL A   1      45.645  33.942  26.247  1.00  0.00     0.001 A 
ATOM     68  C   UNL A   1      43.638  34.629  27.366  1.00  0.00     0.001 A 
ATOM     69  C   UNL A   1      44.743  34.943  26.592  1.00  0.00     0.000 A 
ENDBRANCH  50  64
BRANCH  51  70
ATOM     70  C   UNL A   1      36.970  31.296  31.684  1.00  0.00    -0.014 A 
ATOM     71  C   UNL A   1      36.365  31.834  32.834  1.00  0.00     0.009 A 
ATOM     72  C   UNL A   1      36.338  31.532  30.449  1.00  0.00     0.009 A 
ATOM     73  C   UNL A   1      35.199  32.610  32.744  1.00  0.00     0.001 A 
ATOM     74  C   UNL A   1      35.173  32.304  30.360  1.00  0.00     0.001 A 
ATOM     75  C   UNL A   1      34.613  32.858  31.506  1.00  0.00     0.000 A 
ENDBRANCH  51  70
BRANCH  63  76
ATOM     76  C   UNL A   1      42.761  30.483  33.874  1.00  0.00    -0.014 A 
ATOM     77  C   UNL A   1      43.078  31.089  35.103  1.00  0.00     0.009 A 
ATOM     78  C   UNL A   1      42.285  29.166  33.885  1.00  0.00     0.009 A 
ATOM     79  C   UNL A   1      42.959  30.376  36.302  1.00  0.00     0.001 A 
ATOM     80  C   UNL A   1      42.144  28.462  35.080  1.00  0.00     0.001 A 
ATOM     81  C   UNL A   1      42.489  29.063  36.288  1.00  0.00     0.000 A 
ENDBRANCH  63  76
ENDBRANCH  37  38
ENDBRANCH  30  32
ENDBRANCH  29  30
ENDBRANCH  28  29
ENDBRANCH  27  28
ENDBRANCH  26  27
ENDBRANCH   1  26
TORSDOF 17
ENDMDL
MODEL 3
REMARK VINA RESULT:     -10.8      2.550      7.906
REMARK SMILES CCOCCn1nc(C)cc1C(=O)N1CCc2nc[nH]c2[C@H]1C(=O)OCCOC(=O)c1ccc(-c2c3nc(c(-c4ccccc4)c4ccc([nH]4)c(-c4ccccc4)c4nc(c(-c5ccccc5)c5ccc2[nH]5)C=C4)C=C3)cc1
REMARK SMILES IDX 23 1 24 2 22 3 14 4 15 5 16 6 21 7 17 8 20 9 18 10 19 11
REMARK SMILES IDX 12 13 13 14 11 15 6 16 7 17 8 18 10 19 9 20 5 21 4 22 3 23
REMARK SMILES IDX 2 24 1 25 25 26 26 27 27 28 28 29 29 30 30 31 31 32 32 33
REMARK SMILES IDX 78 34 33 35 77 36 34 37 35 38 36 39 71 40 37 41 76 42 70 43
REMARK SMILES IDX 72 44 38 45 75 46 69 47 68 48 39 50 61 51 46 52 60 53 47 54
REMARK SMILES IDX 50 55 59 56 73 57 48 58 49 59 58 61 74 62 51 63 40 64 41 65
REMARK SMILES IDX 45 66 42 67 44 68 43 69 62 70 63 71 67 72 64 73 66 74 65 75
REMARK SMILES IDX 52 76 53 77 57 78 54 79 56 80 55 81
REMARK H PARENT 20 12 72 49 50 60
REMARK Flexibility Score: inf
ROOT
ATOM      1  C   UNL A   1      35.120  22.881  23.746  1.00  0.00     0.335 C 
ATOM      2  O   UNL A   1      35.814  23.075  22.754  1.00  0.00    -0.249 OA
ENDROOT
BRANCH   1   3
ATOM      3  C   UNL A   1      34.056  23.887  24.293  1.00  0.00     0.244 C 
ATOM      4  N   UNL A   1      33.156  24.391  23.211  1.00  0.00    -0.318 N 
ATOM      5  C   UNL A   1      32.136  23.427  22.652  1.00  0.00     0.127 C 
ATOM      6  C   UNL A   1      31.866  22.130  23.473  1.00  0.00     0.080 C 
ATOM      7  C   UNL A   1      33.089  23.274  25.276  1.00  0.00     0.072 A 
ATOM      8  C   UNL A   1      32.019  22.494  24.892  1.00  0.00     0.066 A 
ATOM      9  N   UNL A   1      32.747  23.719  26.527  1.00  0.00    -0.346 N 
ATOM     10  N   UNL A   1      30.994  22.563  25.786  1.00  0.00    -0.242 NA
ATOM     11  C   UNL A   1      31.420  23.401  26.704  1.00  0.00     0.197 A 
ATOM     12  H   UNL A   1      33.335  24.176  27.172  1.00  0.00     0.167 HD
BRANCH   4  13
ATOM     13  C   UNL A   1      33.160  25.704  22.697  1.00  0.00     0.273 C 
ATOM     14  O   UNL A   1      34.028  26.026  21.882  1.00  0.00    -0.267 OA
BRANCH  13  15
ATOM     15  C   UNL A   1      32.139  26.688  23.070  1.00  0.00     0.126 A 
ATOM     16  N   UNL A   1      31.994  27.261  24.331  1.00  0.00    -0.257 N 
ATOM     17  N   UNL A   1      30.856  27.983  24.455  1.00  0.00    -0.177 NA
ATOM     18  C   UNL A   1      30.237  27.871  23.287  1.00  0.00     0.060 A 
ATOM     19  C   UNL A   1      31.015  27.134  22.375  1.00  0.00     0.059 A 
ATOM     20  C   UNL A   1      28.884  28.454  23.126  1.00  0.00     0.069 C 
BRANCH  16  21
ATOM     21  C   UNL A   1      32.772  27.138  25.555  1.00  0.00     0.173 C 
BRANCH  21  22
ATOM     22  C   UNL A   1      32.428  27.990  26.778  1.00  0.00     0.183 C 
BRANCH  22  23
ATOM     23  O   UNL A   1      33.496  28.730  27.383  1.00  0.00    -0.380 OA
BRANCH  23  24
ATOM     24  C   UNL A   1      33.464  30.140  27.231  1.00  0.00     0.157 C 
ATOM     25  C   UNL A   1      32.131  30.659  26.755  1.00  0.00     0.035 C 
ENDBRANCH  23  24
ENDBRANCH  22  23
ENDBRANCH  21  22
ENDBRANCH  16  21
ENDBRANCH  13  15
ENDBRANCH   4  13
ENDBRANCH   1   3
BRANCH   1  26
ATOM     26  O   UNL A   1      35.215  21.776  24.543  1.00  0.00    -0.460 OA
BRANCH  26  27
ATOM     27  C   UNL A   1      36.014  21.800  25.744  1.00  0.00     0.274 C 
BRANCH  27  28
ATOM     28  C   UNL A   1      37.447  21.395  25.352  1.00  0.00     0.275 C 
BRANCH  28  29
ATOM     29  O   UNL A   1      38.477  22.399  25.465  1.00  0.00    -0.458 OA
BRANCH  29  30
ATOM     30  C   UNL A   1      39.496  22.146  26.307  1.00  0.00     0.338 C 
ATOM     31  O   UNL A   1      39.990  21.049  26.530  1.00  0.00    -0.246 OA
BRANCH  30  32
ATOM     32  C   UNL A   1      39.850  23.339  27.093  1.00  0.00     0.060 A 
ATOM     33  C   UNL A   1      39.018  24.453  26.956  1.00  0.00     0.016 A 
ATOM     34  C   UNL A   1      41.023  23.428  27.846  1.00  0.00     0.016 A 
ATOM     35  C   UNL A   1      39.413  25.684  27.428  1.00  0.00     0.010 A 
ATOM     36  C   UNL A   1      41.400  24.655  28.376  1.00  0.00     0.010 A 
ATOM     37  C   UNL A   1      40.623  25.786  28.114  1.00  0.00    -0.014 A 
BRANCH  37  38
ATOM     38  C   UNL A   1      40.915  27.075  28.728  1.00  0.00     0.031 A 
ATOM     39  C   UNL A   1      42.129  27.720  28.141  1.00  0.00     0.074 A 
ATOM     40  C   UNL A   1      40.113  27.651  29.645  1.00  0.00     0.049 A 
ATOM     41  N   UNL A   1      43.210  28.079  28.750  1.00  0.00    -0.248 NA
ATOM     42  C   UNL A   1      42.215  27.810  26.669  1.00  0.00     0.031 C 
ATOM     43  C   UNL A   1      38.803  27.191  30.111  1.00  0.00     0.029 A 
ATOM     44  N   UNL A   1      40.246  28.849  30.280  1.00  0.00    -0.354 N 
ATOM     45  C   UNL A   1      44.040  28.614  27.766  1.00  0.00     0.074 A 
ATOM     46  C   UNL A   1      43.455  28.267  26.499  1.00  0.00     0.031 C 
ATOM     47  C   UNL A   1      38.156  28.219  30.708  1.00  0.00     0.029 A 
ATOM     48  C   UNL A   1      39.051  29.362  30.778  1.00  0.00     0.049 A 
ATOM     49  H   UNL A   1      41.109  29.311  30.378  1.00  0.00     0.167 HD
ATOM     50  C   UNL A   1      44.986  29.543  28.071  1.00  0.00     0.031 A 
ATOM     51  C   UNL A   1      38.802  30.650  31.136  1.00  0.00     0.031 A 
ATOM     52  C   UNL A   1      45.337  29.501  29.466  1.00  0.00     0.049 A 
ATOM     53  C   UNL A   1      40.108  31.329  31.310  1.00  0.00     0.074 A 
ATOM     54  C   UNL A   1      45.878  28.547  30.304  1.00  0.00     0.029 A 
ATOM     55  N   UNL A   1      44.758  30.441  30.282  1.00  0.00    -0.354 N 
ATOM     56  N   UNL A   1      40.928  31.056  32.281  1.00  0.00    -0.248 NA
ATOM     57  C   UNL A   1      40.705  31.946  30.135  1.00  0.00     0.031 C 
ATOM     58  C   UNL A   1      45.178  28.705  31.536  1.00  0.00     0.029 A 
ATOM     59  C   UNL A   1      44.322  29.799  31.410  1.00  0.00     0.049 A 
ATOM     60  H   UNL A   1      44.672  31.403  30.091  1.00  0.00     0.167 HD
ATOM     61  C   UNL A   1      42.176  31.021  31.679  1.00  0.00     0.074 A 
ATOM     62  C   UNL A   1      41.987  31.652  30.372  1.00  0.00     0.031 C 
ATOM     63  C   UNL A   1      43.169  30.223  32.167  1.00  0.00     0.031 A 
BRANCH  50  64
ATOM     64  C   UNL A   1      45.187  30.783  27.230  1.00  0.00    -0.014 A 
ATOM     65  C   UNL A   1      46.501  31.227  26.992  1.00  0.00     0.009 A 
ATOM     66  C   UNL A   1      44.153  31.696  26.941  1.00  0.00     0.009 A 
ATOM     67  C   UNL A   1      46.763  32.543  26.592  1.00  0.00     0.001 A 
ATOM     68  C   UNL A   1      44.410  32.997  26.504  1.00  0.00     0.001 A 
ATOM     69  C   UNL A   1      45.717  33.430  26.361  1.00  0.00     0.000 A 
ENDBRANCH  50  64
BRANCH  51  70
ATOM     70  C   UNL A   1      37.546  31.431  31.011  1.00  0.00    -0.014 A 
ATOM     71  C   UNL A   1      36.962  31.660  29.752  1.00  0.00     0.009 A 
ATOM     72  C   UNL A   1      36.762  31.701  32.147  1.00  0.00     0.009 A 
ATOM     73  C   UNL A   1      35.635  32.101  29.637  1.00  0.00     0.001 A 
ATOM     74  C   UNL A   1      35.438  32.144  32.033  1.00  0.00     0.001 A 
ATOM     75  C   UNL A   1      34.869  32.328  30.778  1.00  0.00     0.000 A 
ENDBRANCH  51  70
BRANCH  63  76
ATOM     76  C   UNL A   1      42.957  29.562  33.506  1.00  0.00    -0.014 A 
ATOM     77  C   UNL A   1      43.328  30.141  34.733  1.00  0.00     0.009 A 
ATOM     78  C   UNL A   1      42.233  28.363  33.529  1.00  0.00     0.009 A 
ATOM     79  C   UNL A   1      43.017  29.510  35.943  1.00  0.00     0.001 A 
ATOM     80  C   UNL A   1      41.902  27.745  34.734  1.00  0.00     0.001 A 
ATOM     81  C   UNL A   1      42.302  28.313  35.942  1.00  0.00     0.000 A 
ENDBRANCH  63  76
ENDBRANCH  37  38
ENDBRANCH  30  32
ENDBRANCH  29  30
ENDBRANCH  28  29
ENDBRANCH  27  28
ENDBRANCH  26  27
ENDBRANCH   1  26
TORSDOF 17
ENDMDL
