MODEL 1
REMARK VINA RESULT:     -10.0      0.000      0.000
REMARK SMILES C=CC[NH2+][C@@H](C(=O)OCCOC(=O)c1ccc(-c2c3nc(c(-c4ccccc4)c4ccc([nH]4)c(-c4ccccc4)c4nc(c(-c5ccccc5)c5ccc2[nH]5)C=C4)C=C3)cc1)c1ccc(CC(C)C)cc1
REMARK SMILES IDX 9 1 8 2 6 3 7 4 5 5 4 6 3 9 2 10 1 11 62 12 63 13 71 14
REMARK SMILES IDX 64 15 70 16 65 17 66 18 67 19 68 20 69 21 10 22 11 23 12 24
REMARK SMILES IDX 13 25 14 26 15 27 61 28 16 29 60 30 17 31 18 32 19 33 54 34
REMARK SMILES IDX 20 35 59 36 53 37 55 38 21 39 58 40 52 41 51 42 22 44 44 45
REMARK SMILES IDX 29 46 43 47 30 48 33 49 42 50 56 51 31 52 32 53 41 55 57 56
REMARK SMILES IDX 34 57 23 58 24 59 28 60 25 61 27 62 26 63 45 64 46 65 50 66
REMARK SMILES IDX 47 67 49 68 48 69 35 70 36 71 40 72 37 73 39 74 38 75
REMARK H PARENT 4 7 4 8 55 43 33 54
REMARK Flexibility Score: inf
ROOT
ATOM      1  C   UNL A   1      36.532  22.964  23.190  1.00  0.00     0.274 C 
ENDROOT
BRANCH   1   2
ATOM      2  O   UNL A   1      35.318  23.503  23.747  1.00  0.00    -0.457 OA
BRANCH   2   3
ATOM      3  C   UNL A   1      34.163  23.362  23.031  1.00  0.00     0.369 C 
ATOM      4  O   UNL A   1      34.079  23.657  21.844  1.00  0.00    -0.245 OA
BRANCH   3   5
ATOM      5  C   UNL A   1      32.975  22.828  23.910  1.00  0.00     0.325 C 
BRANCH   5   6
ATOM      6  N   UNL A   1      32.993  23.427  25.272  1.00  0.00    -0.327 N 
ATOM      7  H   UNL A   1      33.662  22.907  25.839  1.00  0.00     0.347 HD
ATOM      8  H   UNL A   1      33.247  24.407  25.153  1.00  0.00     0.347 HD
BRANCH   6   9
ATOM      9  C   UNL A   1      31.710  23.412  25.954  1.00  0.00     0.289 C 
BRANCH   9  10
ATOM     10  C   UNL A   1      31.946  22.961  27.364  1.00  0.00     0.025 C 
ATOM     11  C   UNL A   1      33.121  22.533  27.846  1.00  0.00     0.010 C 
ENDBRANCH   9  10
ENDBRANCH   6   9
ENDBRANCH   5   6
BRANCH   5  12
ATOM     12  C   UNL A   1      32.956  21.286  24.009  1.00  0.00     0.021 A 
ATOM     13  C   UNL A   1      32.192  20.494  23.134  1.00  0.00     0.011 A 
ATOM     14  C   UNL A   1      33.696  20.603  24.986  1.00  0.00     0.011 A 
ATOM     15  C   UNL A   1      32.284  19.089  23.139  1.00  0.00     0.004 A 
ATOM     16  C   UNL A   1      33.782  19.207  24.994  1.00  0.00     0.004 A 
ATOM     17  C   UNL A   1      33.115  18.424  24.039  1.00  0.00    -0.048 A 
BRANCH  17  18
ATOM     18  C   UNL A   1      33.456  16.948  24.002  1.00  0.00     0.038 C 
BRANCH  18  19
ATOM     19  C   UNL A   1      33.743  16.135  25.284  1.00  0.00    -0.013 C 
ATOM     20  C   UNL A   1      32.959  14.824  25.380  1.00  0.00     0.008 C 
ATOM     21  C   UNL A   1      35.242  15.785  25.299  1.00  0.00     0.008 C 
ENDBRANCH  18  19
ENDBRANCH  17  18
ENDBRANCH   5  12
ENDBRANCH   3   5
ENDBRANCH   2   3
ENDBRANCH   1   2
BRANCH   1  22
ATOM     22  C   UNL A   1      36.914  21.678  23.925  1.00  0.00     0.275 C 
BRANCH  22  23
ATOM     23  O   UNL A   1      37.144  21.940  25.321  1.00  0.00    -0.458 OA
BRANCH  23  24
ATOM     24  C   UNL A   1      38.335  21.516  25.798  1.00  0.00     0.338 C 
ATOM     25  O   UNL A   1      38.833  20.407  25.691  1.00  0.00    -0.246 OA
BRANCH  24  26
ATOM     26  C   UNL A   1      39.039  22.659  26.388  1.00  0.00     0.060 A 
ATOM     27  C   UNL A   1      38.467  23.920  26.244  1.00  0.00     0.016 A 
ATOM     28  C   UNL A   1      40.290  22.510  26.985  1.00  0.00     0.016 A 
ATOM     29  C   UNL A   1      39.170  25.052  26.644  1.00  0.00     0.010 A 
ATOM     30  C   UNL A   1      40.975  23.648  27.427  1.00  0.00     0.010 A 
ATOM     31  C   UNL A   1      40.433  24.932  27.233  1.00  0.00    -0.014 A 
BRANCH  31  32
ATOM     32  C   UNL A   1      41.219  26.150  27.570  1.00  0.00     0.031 A 
ATOM     33  C   UNL A   1      40.678  27.128  28.576  1.00  0.00     0.074 A 
ATOM     34  C   UNL A   1      42.431  26.368  27.025  1.00  0.00     0.049 A 
ATOM     35  N   UNL A   1      41.096  28.336  28.862  1.00  0.00    -0.248 NA
ATOM     36  C   UNL A   1      39.506  26.696  29.356  1.00  0.00     0.031 C 
ATOM     37  C   UNL A   1      43.131  25.459  26.116  1.00  0.00     0.029 A 
ATOM     38  N   UNL A   1      43.305  27.414  27.188  1.00  0.00    -0.354 N 
ATOM     39  C   UNL A   1      40.192  28.835  29.790  1.00  0.00     0.074 A 
ATOM     40  C   UNL A   1      39.225  27.791  30.048  1.00  0.00     0.031 C 
ATOM     41  C   UNL A   1      44.352  25.956  25.856  1.00  0.00     0.029 A 
ATOM     42  C   UNL A   1      44.484  27.260  26.500  1.00  0.00     0.049 A 
ATOM     43  H   UNL A   1      43.107  28.200  27.746  1.00  0.00     0.167 HD
ATOM     44  C   UNL A   1      40.159  30.067  30.354  1.00  0.00     0.031 A 
ATOM     45  C   UNL A   1      45.538  28.090  26.372  1.00  0.00     0.031 A 
ATOM     46  C   UNL A   1      41.148  31.086  30.132  1.00  0.00     0.049 A 
ATOM     47  C   UNL A   1      45.476  29.456  26.997  1.00  0.00     0.074 A 
ATOM     48  C   UNL A   1      41.174  32.386  30.608  1.00  0.00     0.029 A 
ATOM     49  N   UNL A   1      42.305  30.907  29.392  1.00  0.00    -0.354 N 
ATOM     50  N   UNL A   1      44.548  29.973  27.763  1.00  0.00    -0.248 NA
ATOM     51  C   UNL A   1      46.591  30.368  26.703  1.00  0.00     0.031 C 
ATOM     52  C   UNL A   1      42.338  33.001  30.137  1.00  0.00     0.029 A 
ATOM     53  C   UNL A   1      43.054  32.071  29.399  1.00  0.00     0.049 A 
ATOM     54  H   UNL A   1      42.558  30.076  28.930  1.00  0.00     0.167 HD
ATOM     55  C   UNL A   1      44.960  31.269  28.036  1.00  0.00     0.074 A 
ATOM     56  C   UNL A   1      46.239  31.452  27.382  1.00  0.00     0.031 C 
ATOM     57  C   UNL A   1      44.327  32.231  28.750  1.00  0.00     0.031 A 
BRANCH  44  58
ATOM     58  C   UNL A   1      38.970  30.403  31.205  1.00  0.00    -0.014 A 
ATOM     59  C   UNL A   1      39.064  30.505  32.601  1.00  0.00     0.009 A 
ATOM     60  C   UNL A   1      37.735  30.649  30.584  1.00  0.00     0.009 A 
ATOM     61  C   UNL A   1      37.934  30.820  33.359  1.00  0.00     0.001 A 
ATOM     62  C   UNL A   1      36.613  30.985  31.343  1.00  0.00     0.001 A 
ATOM     63  C   UNL A   1      36.712  31.063  32.731  1.00  0.00     0.000 A 
ENDBRANCH  44  58
BRANCH  45  64
ATOM     64  C   UNL A   1      46.723  27.676  25.578  1.00  0.00    -0.014 A 
ATOM     65  C   UNL A   1      47.803  27.032  26.202  1.00  0.00     0.009 A 
ATOM     66  C   UNL A   1      46.786  27.923  24.197  1.00  0.00     0.009 A 
ATOM     67  C   UNL A   1      48.926  26.656  25.460  1.00  0.00     0.001 A 
ATOM     68  C   UNL A   1      47.897  27.520  23.455  1.00  0.00     0.001 A 
ATOM     69  C   UNL A   1      48.969  26.894  24.087  1.00  0.00     0.000 A 
ENDBRANCH  45  64
BRANCH  57  70
ATOM     70  C   UNL A   1      45.010  33.560  28.874  1.00  0.00    -0.014 A 
ATOM     71  C   UNL A   1      44.762  34.585  27.948  1.00  0.00     0.009 A 
ATOM     72  C   UNL A   1      45.855  33.810  29.965  1.00  0.00     0.009 A 
ATOM     73  C   UNL A   1      45.366  35.834  28.106  1.00  0.00     0.001 A 
ATOM     74  C   UNL A   1      46.443  35.065  30.127  1.00  0.00     0.001 A 
ATOM     75  C   UNL A   1      46.201  36.074  29.196  1.00  0.00     0.000 A 
ENDBRANCH  57  70
ENDBRANCH  31  32
ENDBRANCH  24  26
ENDBRANCH  23  24
ENDBRANCH  22  23
ENDBRANCH   1  22
TORSDOF 17
ENDMDL
MODEL 2
REMARK VINA RESULT:      -9.8      5.771     10.409
REMARK SMILES C=CC[NH2+][C@@H](C(=O)OCCOC(=O)c1ccc(-c2c3nc(c(-c4ccccc4)c4ccc([nH]4)c(-c4ccccc4)c4nc(c(-c5ccccc5)c5ccc2[nH]5)C=C4)C=C3)cc1)c1ccc(CC(C)C)cc1
REMARK SMILES IDX 9 1 8 2 6 3 7 4 5 5 4 6 3 9 2 10 1 11 62 12 63 13 71 14
REMARK SMILES IDX 64 15 70 16 65 17 66 18 67 19 68 20 69 21 10 22 11 23 12 24
REMARK SMILES IDX 13 25 14 26 15 27 61 28 16 29 60 30 17 31 18 32 19 33 54 34
REMARK SMILES IDX 20 35 59 36 53 37 55 38 21 39 58 40 52 41 51 42 22 44 44 45
REMARK SMILES IDX 29 46 43 47 30 48 33 49 42 50 56 51 31 52 32 53 41 55 57 56
REMARK SMILES IDX 34 57 23 58 24 59 28 60 25 61 27 62 26 63 45 64 46 65 50 66
REMARK SMILES IDX 47 67 49 68 48 69 35 70 36 71 40 72 37 73 39 74 38 75
REMARK H PARENT 4 7 4 8 55 43 33 54
REMARK Flexibility Score: inf
ROOT
ATOM      1  C   UNL A   1      34.002  33.786  29.122  1.00  0.00     0.274 C 
ENDROOT
BRANCH   1   2
ATOM      2  O   UNL A   1      34.267  34.269  30.452  1.00  0.00    -0.457 OA
BRANCH   2   3
ATOM      3  C   UNL A   1      34.779  33.391  31.365  1.00  0.00     0.369 C 
ATOM      4  O   UNL A   1      34.378  32.238  31.473  1.00  0.00    -0.245 OA
BRANCH   3   5
ATOM      5  C   UNL A   1      35.890  34.042  32.265  1.00  0.00     0.325 C 
BRANCH   5   6
ATOM      6  N   UNL A   1      35.627  35.489  32.494  1.00  0.00    -0.327 N 
ATOM      7  H   UNL A   1      36.503  35.933  32.767  1.00  0.00     0.347 HD
ATOM      8  H   UNL A   1      35.248  35.855  31.621  1.00  0.00     0.347 HD
BRANCH   6   9
ATOM      9  C   UNL A   1      34.637  35.766  33.521  1.00  0.00     0.289 C 
BRANCH   9  10
ATOM     10  C   UNL A   1      33.945  37.045  33.158  1.00  0.00     0.025 C 
ATOM     11  C   UNL A   1      33.257  37.249  32.027  1.00  0.00     0.010 C 
ENDBRANCH   9  10
ENDBRANCH   6   9
ENDBRANCH   5   6
BRANCH   5  12
ATOM     12  C   UNL A   1      37.311  33.847  31.689  1.00  0.00     0.021 A 
ATOM     13  C   UNL A   1      37.533  33.195  30.465  1.00  0.00     0.011 A 
ATOM     14  C   UNL A   1      38.449  34.306  32.369  1.00  0.00     0.011 A 
ATOM     15  C   UNL A   1      38.812  33.139  29.878  1.00  0.00     0.004 A 
ATOM     16  C   UNL A   1      39.721  34.246  31.788  1.00  0.00     0.004 A 
ATOM     17  C   UNL A   1      39.919  33.705  30.508  1.00  0.00    -0.048 A 
BRANCH  17  18
ATOM     18  C   UNL A   1      41.288  33.893  29.888  1.00  0.00     0.038 C 
BRANCH  18  19
ATOM     19  C   UNL A   1      42.561  33.257  30.488  1.00  0.00    -0.013 C 
ATOM     20  C   UNL A   1      43.069  32.033  29.721  1.00  0.00     0.008 C 
ATOM     21  C   UNL A   1      43.678  34.317  30.468  1.00  0.00     0.008 C 
ENDBRANCH  18  19
ENDBRANCH  17  18
ENDBRANCH   5  12
ENDBRANCH   3   5
ENDBRANCH   2   3
ENDBRANCH   1   2
BRANCH   1  22
ATOM     22  C   UNL A   1      35.318  33.454  28.418  1.00  0.00     0.275 C 
BRANCH  22  23
ATOM     23  O   UNL A   1      35.115  32.452  27.405  1.00  0.00    -0.458 OA
BRANCH  23  24
ATOM     24  C   UNL A   1      34.711  31.246  27.862  1.00  0.00     0.338 C 
ATOM     25  O   UNL A   1      33.574  30.801  27.898  1.00  0.00    -0.246 OA
BRANCH  24  26
ATOM     26  C   UNL A   1      35.895  30.457  28.215  1.00  0.00     0.060 A 
ATOM     27  C   UNL A   1      35.920  29.847  29.465  1.00  0.00     0.016 A 
ATOM     28  C   UNL A   1      37.005  30.401  27.373  1.00  0.00     0.016 A 
ATOM     29  C   UNL A   1      37.081  29.223  29.911  1.00  0.00     0.010 A 
ATOM     30  C   UNL A   1      38.157  29.733  27.807  1.00  0.00     0.010 A 
ATOM     31  C   UNL A   1      38.215  29.163  29.092  1.00  0.00    -0.014 A 
BRANCH  31  32
ATOM     32  C   UNL A   1      39.481  28.580  29.611  1.00  0.00     0.031 A 
ATOM     33  C   UNL A   1      40.150  29.202  30.806  1.00  0.00     0.074 A 
ATOM     34  C   UNL A   1      40.013  27.473  29.060  1.00  0.00     0.049 A 
ATOM     35  N   UNL A   1      41.346  28.980  31.291  1.00  0.00    -0.248 NA
ATOM     36  C   UNL A   1      39.378  30.212  31.546  1.00  0.00     0.031 C 
ATOM     37  C   UNL A   1      39.424  26.699  27.965  1.00  0.00     0.029 A 
ATOM     38  N   UNL A   1      41.160  26.785  29.372  1.00  0.00    -0.354 N 
ATOM     39  C   UNL A   1      41.499  29.880  32.338  1.00  0.00     0.074 A 
ATOM     40  C   UNL A   1      40.263  30.625  32.442  1.00  0.00     0.031 C 
ATOM     41  C   UNL A   1      40.179  25.609  27.745  1.00  0.00     0.029 A 
ATOM     42  C   UNL A   1      41.352  25.657  28.613  1.00  0.00     0.049 A 
ATOM     43  H   UNL A   1      41.786  27.073  30.076  1.00  0.00     0.167 HD
ATOM     44  C   UNL A   1      42.585  30.084  33.121  1.00  0.00     0.031 A 
ATOM     45  C   UNL A   1      42.374  24.779  28.592  1.00  0.00     0.031 A 
ATOM     46  C   UNL A   1      43.794  29.310  33.046  1.00  0.00     0.049 A 
ATOM     47  C   UNL A   1      43.574  25.030  29.461  1.00  0.00     0.074 A 
ATOM     48  C   UNL A   1      44.974  29.475  33.752  1.00  0.00     0.029 A 
ATOM     49  N   UNL A   1      43.967  28.203  32.232  1.00  0.00    -0.354 N 
ATOM     50  N   UNL A   1      43.767  25.970  30.353  1.00  0.00    -0.248 NA
ATOM     51  C   UNL A   1      44.717  24.120  29.290  1.00  0.00     0.031 C 
ATOM     52  C   UNL A   1      45.868  28.479  33.349  1.00  0.00     0.029 A 
ATOM     53  C   UNL A   1      45.231  27.673  32.419  1.00  0.00     0.049 A 
ATOM     54  H   UNL A   1      43.291  27.847  31.611  1.00  0.00     0.167 HD
ATOM     55  C   UNL A   1      45.050  25.771  30.843  1.00  0.00     0.074 A 
ATOM     56  C   UNL A   1      45.580  24.601  30.174  1.00  0.00     0.031 C 
ATOM     57  C   UNL A   1      45.737  26.504  31.751  1.00  0.00     0.031 A 
BRANCH  44  58
ATOM     58  C   UNL A   1      42.539  31.241  34.075  1.00  0.00    -0.014 A 
ATOM     59  C   UNL A   1      42.929  32.532  33.691  1.00  0.00     0.009 A 
ATOM     60  C   UNL A   1      42.068  31.030  35.381  1.00  0.00     0.009 A 
ATOM     61  C   UNL A   1      42.872  33.584  34.608  1.00  0.00     0.001 A 
ATOM     62  C   UNL A   1      41.991  32.088  36.288  1.00  0.00     0.001 A 
ATOM     63  C   UNL A   1      42.401  33.362  35.903  1.00  0.00     0.000 A 
ENDBRANCH  44  58
BRANCH  45  64
ATOM     64  C   UNL A   1      42.334  23.607  27.679  1.00  0.00    -0.014 A 
ATOM     65  C   UNL A   1      41.826  22.379  28.129  1.00  0.00     0.009 A 
ATOM     66  C   UNL A   1      42.805  23.706  26.360  1.00  0.00     0.009 A 
ATOM     67  C   UNL A   1      41.802  21.271  27.277  1.00  0.00     0.001 A 
ATOM     68  C   UNL A   1      42.752  22.605  25.504  1.00  0.00     0.001 A 
ATOM     69  C   UNL A   1      42.258  21.387  25.965  1.00  0.00     0.000 A 
ENDBRANCH  45  64
BRANCH  57  70
ATOM     70  C   UNL A   1      47.128  26.058  32.088  1.00  0.00    -0.014 A 
ATOM     71  C   UNL A   1      47.378  25.286  33.233  1.00  0.00     0.009 A 
ATOM     72  C   UNL A   1      48.187  26.355  31.216  1.00  0.00     0.009 A 
ATOM     73  C   UNL A   1      48.671  24.834  33.506  1.00  0.00     0.001 A 
ATOM     74  C   UNL A   1      49.473  25.887  31.485  1.00  0.00     0.001 A 
ATOM     75  C   UNL A   1      49.715  25.131  32.631  1.00  0.00     0.000 A 
ENDBRANCH  57  70
ENDBRANCH  31  32
ENDBRANCH  24  26
ENDBRANCH  23  24
ENDBRANCH  22  23
ENDBRANCH   1  22
TORSDOF 17
ENDMDL
MODEL 3
REMARK VINA RESULT:      -9.8      2.038      4.503
REMARK SMILES C=CC[NH2+][C@@H](C(=O)OCCOC(=O)c1ccc(-c2c3nc(c(-c4ccccc4)c4ccc([nH]4)c(-c4ccccc4)c4nc(c(-c5ccccc5)c5ccc2[nH]5)C=C4)C=C3)cc1)c1ccc(CC(C)C)cc1
REMARK SMILES IDX 9 1 8 2 6 3 7 4 5 5 4 6 3 9 2 10 1 11 62 12 63 13 71 14
REMARK SMILES IDX 64 15 70 16 65 17 66 18 67 19 68 20 69 21 10 22 11 23 12 24
REMARK SMILES IDX 13 25 14 26 15 27 61 28 16 29 60 30 17 31 18 32 19 33 54 34
REMARK SMILES IDX 20 35 59 36 53 37 55 38 21 39 58 40 52 41 51 42 22 44 44 45
REMARK SMILES IDX 29 46 43 47 30 48 33 49 42 50 56 51 31 52 32 53 41 55 57 56
REMARK SMILES IDX 34 57 23 58 24 59 28 60 25 61 27 62 26 63 45 64 46 65 50 66
REMARK SMILES IDX 47 67 49 68 48 69 35 70 36 71 40 72 37 73 39 74 38 75
REMARK H PARENT 4 7 4 8 55 43 33 54
REMARK Flexibility Score: inf
ROOT
ATOM      1  C   UNL A   1      34.849  22.825  25.699  1.00  0.00     0.274 C 
ENDROOT
BRANCH   1   2
ATOM      2  O   UNL A   1      33.989  22.729  24.549  1.00  0.00    -0.457 OA
BRANCH   2   3
ATOM      3  C   UNL A   1      33.829  23.840  23.771  1.00  0.00     0.369 C 
ATOM      4  O   UNL A   1      34.608  24.137  22.872  1.00  0.00    -0.245 OA
BRANCH   3   5
ATOM      5  C   UNL A   1      32.576  24.692  24.190  1.00  0.00     0.325 C 
BRANCH   5   6
ATOM      6  N   UNL A   1      31.730  25.030  23.013  1.00  0.00    -0.327 N 
ATOM      7  H   UNL A   1      32.211  25.747  22.471  1.00  0.00     0.347 HD
ATOM      8  H   UNL A   1      31.594  24.161  22.496  1.00  0.00     0.347 HD
BRANCH   6   9
ATOM      9  C   UNL A   1      30.405  25.524  23.346  1.00  0.00     0.289 C 
BRANCH   9  10
ATOM     10  C   UNL A   1      30.323  26.953  22.900  1.00  0.00     0.025 C 
ATOM     11  C   UNL A   1      30.188  28.004  23.719  1.00  0.00     0.010 C 
ENDBRANCH   9  10
ENDBRANCH   6   9
ENDBRANCH   5   6
BRANCH   5  12
ATOM     12  C   UNL A   1      32.961  25.979  24.953  1.00  0.00     0.021 A 
ATOM     13  C   UNL A   1      33.733  26.992  24.359  1.00  0.00     0.011 A 
ATOM     14  C   UNL A   1      32.565  26.192  26.282  1.00  0.00     0.011 A 
ATOM     15  C   UNL A   1      33.966  28.220  25.008  1.00  0.00     0.004 A 
ATOM     16  C   UNL A   1      32.802  27.410  26.928  1.00  0.00     0.004 A 
ATOM     17  C   UNL A   1      33.465  28.467  26.285  1.00  0.00    -0.048 A 
BRANCH  17  18
ATOM     18  C   UNL A   1      33.469  29.806  26.991  1.00  0.00     0.038 C 
BRANCH  18  19
ATOM     19  C   UNL A   1      34.777  30.525  27.392  1.00  0.00    -0.013 C 
ATOM     20  C   UNL A   1      34.571  31.727  28.317  1.00  0.00     0.008 C 
ATOM     21  C   UNL A   1      35.667  29.511  28.135  1.00  0.00     0.008 C 
ENDBRANCH  18  19
ENDBRANCH  17  18
ENDBRANCH   5  12
ENDBRANCH   3   5
ENDBRANCH   2   3
ENDBRANCH   1   2
BRANCH   1  22
ATOM     22  C   UNL A   1      35.811  21.636  25.729  1.00  0.00     0.275 C 
BRANCH  22  23
ATOM     23  O   UNL A   1      37.039  21.958  25.052  1.00  0.00    -0.458 OA
BRANCH  23  24
ATOM     24  C   UNL A   1      38.162  21.502  25.650  1.00  0.00     0.338 C 
ATOM     25  O   UNL A   1      38.611  20.366  25.632  1.00  0.00    -0.246 OA
BRANCH  24  26
ATOM     26  C   UNL A   1      38.868  22.636  26.252  1.00  0.00     0.060 A 
ATOM     27  C   UNL A   1      38.398  23.916  25.975  1.00  0.00     0.016 A 
ATOM     28  C   UNL A   1      40.033  22.451  26.995  1.00  0.00     0.016 A 
ATOM     29  C   UNL A   1      39.125  25.028  26.390  1.00  0.00     0.010 A 
ATOM     30  C   UNL A   1      40.737  23.574  27.450  1.00  0.00     0.010 A 
ATOM     31  C   UNL A   1      40.305  24.872  27.125  1.00  0.00    -0.014 A 
BRANCH  31  32
ATOM     32  C   UNL A   1      41.125  26.061  27.482  1.00  0.00     0.031 A 
ATOM     33  C   UNL A   1      40.604  27.047  28.491  1.00  0.00     0.074 A 
ATOM     34  C   UNL A   1      42.350  26.244  26.953  1.00  0.00     0.049 A 
ATOM     35  N   UNL A   1      41.059  28.238  28.793  1.00  0.00    -0.248 NA
ATOM     36  C   UNL A   1      39.411  26.646  29.253  1.00  0.00     0.031 C 
ATOM     37  C   UNL A   1      43.031  25.321  26.043  1.00  0.00     0.029 A 
ATOM     38  N   UNL A   1      43.256  27.259  27.135  1.00  0.00    -0.354 N 
ATOM     39  C   UNL A   1      40.161  28.758  29.716  1.00  0.00     0.074 A 
ATOM     40  C   UNL A   1      39.157  27.744  29.952  1.00  0.00     0.031 C 
ATOM     41  C   UNL A   1      44.270  25.781  25.802  1.00  0.00     0.029 A 
ATOM     42  C   UNL A   1      44.437  27.073  26.459  1.00  0.00     0.049 A 
ATOM     43  H   UNL A   1      43.076  28.047  27.699  1.00  0.00     0.167 HD
ATOM     44  C   UNL A   1      40.160  29.985  30.291  1.00  0.00     0.031 A 
ATOM     45  C   UNL A   1      45.518  27.870  26.351  1.00  0.00     0.031 A 
ATOM     46  C   UNL A   1      41.184  30.973  30.089  1.00  0.00     0.049 A 
ATOM     47  C   UNL A   1      45.493  29.231  26.988  1.00  0.00     0.074 A 
ATOM     48  C   UNL A   1      41.247  32.268  30.577  1.00  0.00     0.029 A 
ATOM     49  N   UNL A   1      42.344  30.764  29.361  1.00  0.00    -0.354 N 
ATOM     50  N   UNL A   1      44.573  29.772  27.749  1.00  0.00    -0.248 NA
ATOM     51  C   UNL A   1      46.641  30.110  26.715  1.00  0.00     0.031 C 
ATOM     52  C   UNL A   1      42.436  32.849  30.125  1.00  0.00     0.029 A 
ATOM     53  C   UNL A   1      43.129  31.903  29.387  1.00  0.00     0.049 A 
ATOM     54  H   UNL A   1      42.574  29.929  28.893  1.00  0.00     0.167 HD
ATOM     55  C   UNL A   1      45.025  31.052  28.038  1.00  0.00     0.074 A 
ATOM     56  C   UNL A   1      46.316  31.199  27.400  1.00  0.00     0.031 C 
ATOM     57  C   UNL A   1      44.414  32.027  28.753  1.00  0.00     0.031 A 
BRANCH  44  58
ATOM     58  C   UNL A   1      38.973  30.352  31.131  1.00  0.00    -0.014 A 
ATOM     59  C   UNL A   1      37.847  30.985  30.585  1.00  0.00     0.009 A 
ATOM     60  C   UNL A   1      38.979  30.028  32.497  1.00  0.00     0.009 A 
ATOM     61  C   UNL A   1      36.761  31.311  31.401  1.00  0.00     0.001 A 
ATOM     62  C   UNL A   1      37.883  30.335  33.305  1.00  0.00     0.001 A 
ATOM     63  C   UNL A   1      36.778  30.983  32.757  1.00  0.00     0.000 A 
ENDBRANCH  44  58
BRANCH  45  64
ATOM     64  C   UNL A   1      46.699  27.425  25.566  1.00  0.00    -0.014 A 
ATOM     65  C   UNL A   1      47.704  26.658  26.176  1.00  0.00     0.009 A 
ATOM     66  C   UNL A   1      46.832  27.765  24.211  1.00  0.00     0.009 A 
ATOM     67  C   UNL A   1      48.824  26.251  25.444  1.00  0.00     0.001 A 
ATOM     68  C   UNL A   1      47.937  27.332  23.476  1.00  0.00     0.001 A 
ATOM     69  C   UNL A   1      48.935  26.583  24.095  1.00  0.00     0.000 A 
ENDBRANCH  45  64
BRANCH  57  70
ATOM     70  C   UNL A   1      45.138  33.332  28.898  1.00  0.00    -0.014 A 
ATOM     71  C   UNL A   1      46.028  33.547  29.962  1.00  0.00     0.009 A 
ATOM     72  C   UNL A   1      44.981  34.329  27.924  1.00  0.00     0.009 A 
ATOM     73  C   UNL A   1      46.733  34.748  30.056  1.00  0.00     0.001 A 
ATOM     74  C   UNL A   1      45.700  35.521  28.012  1.00  0.00     0.001 A 
ATOM     75  C   UNL A   1      46.573  35.731  29.080  1.00  0.00     0.000 A 
ENDBRANCH  57  70
ENDBRANCH  31  32
ENDBRANCH  24  26
ENDBRANCH  23  24
ENDBRANCH  22  23
ENDBRANCH   1  22
TORSDOF 17
ENDMDL
