MODEL 1
REMARK VINA RESULT:     -10.7      0.000      0.000
REMARK SMILES [NH3+][C@]1(C(=O)OCCOC(=O)c2ccc(-c3c4nc(c(-c5ccccc5)c5ccc([nH]5)c(-c5ccccc5)c5nc(c(-c6ccccc6)c6ccc3[nH]6)C=C5)C=C4)cc2)CC[C@@H]([NH+]2CCC(C(F)(F)F)CC2)C1
REMARK SMILES IDX 6 1 5 2 3 3 4 4 2 5 59 6 72 7 60 8 61 9 1 10 62 14 63 15
REMARK SMILES IDX 71 16 64 18 70 19 65 20 66 21 67 22 68 23 69 24 7 25 8 26
REMARK SMILES IDX 9 27 10 28 11 29 12 30 58 31 13 32 57 33 14 34 15 35 16 36
REMARK SMILES IDX 51 37 17 38 56 39 50 40 52 41 18 42 55 43 49 44 48 45 19 47
REMARK SMILES IDX 41 48 26 49 40 50 27 51 30 52 39 53 53 54 28 55 29 56 38 58
REMARK SMILES IDX 54 59 31 60 20 61 21 62 25 63 22 64 24 65 23 66 42 67 43 68
REMARK SMILES IDX 47 69 44 70 46 71 45 72 32 73 33 74 37 75 34 76 36 77 35 78
REMARK H PARENT 1 11 1 12 1 13 62 17 52 46 30 57
REMARK Flexibility Score: inf
ROOT
ATOM      1  C   UNL A   1      31.809  28.588  27.299  1.00  0.00     0.274 C 
ENDROOT
BRANCH   1   2
ATOM      2  O   UNL A   1      31.070  27.356  27.148  1.00  0.00    -0.457 OA
BRANCH   2   3
ATOM      3  C   UNL A   1      31.009  26.829  25.893  1.00  0.00     0.368 C 
ATOM      4  O   UNL A   1      31.070  27.484  24.858  1.00  0.00    -0.245 OA
BRANCH   3   5
ATOM      5  C   UNL A   1      30.756  25.303  25.910  1.00  0.00     0.198 C 
ATOM      6  C   UNL A   1      30.769  24.751  24.478  1.00  0.00     0.087 C 
ATOM      7  C   UNL A   1      31.858  24.479  26.598  1.00  0.00     0.145 C 
ATOM      8  C   UNL A   1      31.009  23.260  24.636  1.00  0.00     0.072 C 
ATOM      9  C   UNL A   1      31.982  23.146  25.820  1.00  0.00     0.191 C 
BRANCH   5  10
ATOM     10  N   UNL A   1      29.438  25.033  26.529  1.00  0.00    -0.343 N 
ATOM     11  H   UNL A   1      29.334  24.030  26.684  1.00  0.00     0.345 HD
ATOM     12  H   UNL A   1      28.698  25.360  25.908  1.00  0.00     0.345 HD
ATOM     13  H   UNL A   1      29.374  25.523  27.421  1.00  0.00     0.345 HD
ENDBRANCH   5  10
BRANCH   9  14
ATOM     14  N   UNL A   1      33.362  22.763  25.436  1.00  0.00    -0.332 N 
ATOM     15  C   UNL A   1      34.429  23.466  26.161  1.00  0.00     0.263 C 
ATOM     16  C   UNL A   1      33.529  21.302  25.474  1.00  0.00     0.263 C 
ATOM     17  H   UNL A   1      33.473  23.080  24.473  1.00  0.00     0.348 HD
ATOM     18  C   UNL A   1      35.819  23.076  25.655  1.00  0.00     0.074 C 
ATOM     19  C   UNL A   1      34.894  20.873  24.941  1.00  0.00     0.074 C 
ATOM     20  C   UNL A   1      36.022  21.561  25.712  1.00  0.00     0.106 C 
BRANCH  20  21
ATOM     21  C   UNL A   1      37.380  21.167  25.166  1.00  0.00     0.392 C 
ATOM     22  F   UNL A   1      37.486  19.825  25.057  1.00  0.00    -0.171 F 
ATOM     23  F   UNL A   1      37.574  21.689  23.934  1.00  0.00    -0.171 F 
ATOM     24  F   UNL A   1      38.386  21.595  25.957  1.00  0.00    -0.171 F 
ENDBRANCH  20  21
ENDBRANCH   9  14
ENDBRANCH   3   5
ENDBRANCH   2   3
ENDBRANCH   1   2
BRANCH   1  25
ATOM     25  C   UNL A   1      33.311  28.309  27.258  1.00  0.00     0.275 C 
BRANCH  25  26
ATOM     26  O   UNL A   1      33.985  29.470  26.743  1.00  0.00    -0.458 OA
BRANCH  26  27
ATOM     27  C   UNL A   1      34.390  30.379  27.659  1.00  0.00     0.338 C 
ATOM     28  O   UNL A   1      33.733  31.293  28.127  1.00  0.00    -0.246 OA
BRANCH  27  29
ATOM     29  C   UNL A   1      35.779  30.086  28.075  1.00  0.00     0.060 A 
ATOM     30  C   UNL A   1      36.835  30.220  27.174  1.00  0.00     0.016 A 
ATOM     31  C   UNL A   1      36.021  29.564  29.346  1.00  0.00     0.016 A 
ATOM     32  C   UNL A   1      38.101  29.729  27.496  1.00  0.00     0.010 A 
ATOM     33  C   UNL A   1      37.319  29.182  29.708  1.00  0.00     0.010 A 
ATOM     34  C   UNL A   1      38.369  29.217  28.773  1.00  0.00    -0.014 A 
BRANCH  34  35
ATOM     35  C   UNL A   1      39.722  28.689  29.123  1.00  0.00     0.031 A 
ATOM     36  C   UNL A   1      40.677  29.525  29.943  1.00  0.00     0.074 A 
ATOM     37  C   UNL A   1      40.117  27.464  28.720  1.00  0.00     0.049 A 
ATOM     38  N   UNL A   1      41.953  29.336  30.174  1.00  0.00    -0.248 NA
ATOM     39  C   UNL A   1      40.130  30.740  30.568  1.00  0.00     0.031 C 
ATOM     40  C   UNL A   1      39.307  26.511  27.959  1.00  0.00     0.029 A 
ATOM     41  N   UNL A   1      41.307  26.803  28.910  1.00  0.00    -0.354 N 
ATOM     42  C   UNL A   1      42.375  30.443  30.902  1.00  0.00     0.074 A 
ATOM     43  C   UNL A   1      41.218  31.294  31.083  1.00  0.00     0.031 C 
ATOM     44  C   UNL A   1      39.998  25.373  27.799  1.00  0.00     0.029 A 
ATOM     45  C   UNL A   1      41.333  25.544  28.361  1.00  0.00     0.049 A 
ATOM     46  H   UNL A   1      42.070  27.196  29.393  1.00  0.00     0.167 HD
ATOM     47  C   UNL A   1      43.614  30.730  31.371  1.00  0.00     0.031 A 
ATOM     48  C   UNL A   1      42.324  24.637  28.276  1.00  0.00     0.031 A 
ATOM     49  C   UNL A   1      44.755  29.863  31.255  1.00  0.00     0.049 A 
ATOM     50  C   UNL A   1      43.686  24.973  28.808  1.00  0.00     0.074 A 
ATOM     51  C   UNL A   1      46.048  30.072  31.707  1.00  0.00     0.029 A 
ATOM     52  N   UNL A   1      44.735  28.607  30.670  1.00  0.00    -0.354 N 
ATOM     53  N   UNL A   1      44.089  26.064  29.411  1.00  0.00    -0.248 NA
ATOM     54  C   UNL A   1      44.736  23.962  28.621  1.00  0.00     0.031 C 
ATOM     55  C   UNL A   1      46.816  28.949  31.375  1.00  0.00     0.029 A 
ATOM     56  C   UNL A   1      45.991  28.029  30.750  1.00  0.00     0.049 A 
ATOM     57  H   UNL A   1      43.945  28.188  30.260  1.00  0.00     0.167 HD
ATOM     58  C   UNL A   1      45.438  25.870  29.677  1.00  0.00     0.074 A 
ATOM     59  C   UNL A   1      45.778  24.548  29.193  1.00  0.00     0.031 C 
ATOM     60  C   UNL A   1      46.318  26.718  30.260  1.00  0.00     0.031 A 
BRANCH  47  61
ATOM     61  C   UNL A   1      43.812  32.069  32.024  1.00  0.00    -0.014 A 
ATOM     62  C   UNL A   1      44.149  33.209  31.281  1.00  0.00     0.009 A 
ATOM     63  C   UNL A   1      43.616  32.193  33.410  1.00  0.00     0.009 A 
ATOM     64  C   UNL A   1      44.316  34.441  31.917  1.00  0.00     0.001 A 
ATOM     65  C   UNL A   1      43.759  33.431  34.039  1.00  0.00     0.001 A 
ATOM     66  C   UNL A   1      44.116  34.552  33.293  1.00  0.00     0.000 A 
ENDBRANCH  47  61
BRANCH  48  67
ATOM     67  C   UNL A   1      42.075  23.330  27.617  1.00  0.00    -0.014 A 
ATOM     68  C   UNL A   1      42.449  23.127  26.280  1.00  0.00     0.009 A 
ATOM     69  C   UNL A   1      41.473  22.277  28.324  1.00  0.00     0.009 A 
ATOM     70  C   UNL A   1      42.213  21.898  25.660  1.00  0.00     0.001 A 
ATOM     71  C   UNL A   1      41.262  21.042  27.709  1.00  0.00     0.001 A 
ATOM     72  C   UNL A   1      41.626  20.855  26.377  1.00  0.00     0.000 A 
ENDBRANCH  48  67
BRANCH  60  73
ATOM     73  C   UNL A   1      47.728  26.230  30.421  1.00  0.00    -0.014 A 
ATOM     74  C   UNL A   1      48.630  26.262  29.347  1.00  0.00     0.009 A 
ATOM     75  C   UNL A   1      48.160  25.746  31.664  1.00  0.00     0.009 A 
ATOM     76  C   UNL A   1      49.934  25.788  29.508  1.00  0.00     0.001 A 
ATOM     77  C   UNL A   1      49.469  25.291  31.827  1.00  0.00     0.001 A 
ATOM     78  C   UNL A   1      50.351  25.305  30.748  1.00  0.00     0.000 A 
ENDBRANCH  60  73
ENDBRANCH  34  35
ENDBRANCH  27  29
ENDBRANCH  26  27
ENDBRANCH  25  26
ENDBRANCH   1  25
TORSDOF 14
ENDMDL
MODEL 2
REMARK VINA RESULT:     -10.5      1.673      2.290
REMARK SMILES [NH3+][C@]1(C(=O)OCCOC(=O)c2ccc(-c3c4nc(c(-c5ccccc5)c5ccc([nH]5)c(-c5ccccc5)c5nc(c(-c6ccccc6)c6ccc3[nH]6)C=C5)C=C4)cc2)CC[C@@H]([NH+]2CCC(C(F)(F)F)CC2)C1
REMARK SMILES IDX 6 1 5 2 3 3 4 4 2 5 59 6 72 7 60 8 61 9 1 10 62 14 63 15
REMARK SMILES IDX 71 16 64 18 70 19 65 20 66 21 67 22 68 23 69 24 7 25 8 26
REMARK SMILES IDX 9 27 10 28 11 29 12 30 58 31 13 32 57 33 14 34 15 35 16 36
REMARK SMILES IDX 51 37 17 38 56 39 50 40 52 41 18 42 55 43 49 44 48 45 19 47
REMARK SMILES IDX 41 48 26 49 40 50 27 51 30 52 39 53 53 54 28 55 29 56 38 58
REMARK SMILES IDX 54 59 31 60 20 61 21 62 25 63 22 64 24 65 23 66 42 67 43 68
REMARK SMILES IDX 47 69 44 70 46 71 45 72 32 73 33 74 37 75 34 76 36 77 35 78
REMARK H PARENT 1 11 1 12 1 13 62 17 52 46 30 57
REMARK Flexibility Score: inf
ROOT
ATOM      1  C   UNL A   1      31.991  29.082  27.071  1.00  0.00     0.274 C 
ENDROOT
BRANCH   1   2
ATOM      2  O   UNL A   1      31.627  28.478  25.811  1.00  0.00    -0.457 OA
BRANCH   2   3
ATOM      3  C   UNL A   1      31.413  29.325  24.765  1.00  0.00     0.368 C 
ATOM      4  O   UNL A   1      30.805  30.387  24.841  1.00  0.00    -0.245 OA
BRANCH   3   5
ATOM      5  C   UNL A   1      31.943  28.752  23.429  1.00  0.00     0.198 C 
ATOM      6  C   UNL A   1      33.445  29.038  23.293  1.00  0.00     0.087 C 
ATOM      7  C   UNL A   1      31.882  27.219  23.321  1.00  0.00     0.145 C 
ATOM      8  C   UNL A   1      33.939  28.048  22.254  1.00  0.00     0.072 C 
ATOM      9  C   UNL A   1      33.128  26.769  22.518  1.00  0.00     0.191 C 
BRANCH   5  10
ATOM     10  N   UNL A   1      31.219  29.385  22.304  1.00  0.00    -0.343 N 
ATOM     11  H   UNL A   1      31.492  28.939  21.429  1.00  0.00     0.345 HD
ATOM     12  H   UNL A   1      31.450  30.378  22.266  1.00  0.00     0.345 HD
ATOM     13  H   UNL A   1      30.214  29.275  22.442  1.00  0.00     0.345 HD
ENDBRANCH   5  10
BRANCH   9  14
ATOM     14  N   UNL A   1      33.912  25.670  23.130  1.00  0.00    -0.332 N 
ATOM     15  C   UNL A   1      33.974  25.690  24.597  1.00  0.00     0.263 C 
ATOM     16  C   UNL A   1      33.479  24.365  22.608  1.00  0.00     0.263 C 
ATOM     17  H   UNL A   1      34.877  25.833  22.844  1.00  0.00     0.348 HD
ATOM     18  C   UNL A   1      34.863  24.574  25.149  1.00  0.00     0.074 C 
ATOM     19  C   UNL A   1      34.368  23.229  23.109  1.00  0.00     0.074 C 
ATOM     20  C   UNL A   1      34.412  23.205  24.637  1.00  0.00     0.106 C 
BRANCH  20  21
ATOM     21  C   UNL A   1      35.321  22.102  25.143  1.00  0.00     0.392 C 
ATOM     22  F   UNL A   1      36.040  21.567  24.132  1.00  0.00    -0.171 F 
ATOM     23  F   UNL A   1      36.199  22.581  26.054  1.00  0.00    -0.171 F 
ATOM     24  F   UNL A   1      34.627  21.103  25.727  1.00  0.00    -0.171 F 
ENDBRANCH  20  21
ENDBRANCH   9  14
ENDBRANCH   3   5
ENDBRANCH   2   3
ENDBRANCH   1   2
BRANCH   1  25
ATOM     25  C   UNL A   1      33.510  29.087  27.235  1.00  0.00     0.275 C 
BRANCH  25  26
ATOM     26  O   UNL A   1      33.993  30.428  27.050  1.00  0.00    -0.458 OA
BRANCH  26  27
ATOM     27  C   UNL A   1      34.648  30.975  28.100  1.00  0.00     0.338 C 
ATOM     28  O   UNL A   1      34.267  31.891  28.807  1.00  0.00    -0.246 OA
BRANCH  27  29
ATOM     29  C   UNL A   1      35.924  30.260  28.321  1.00  0.00     0.060 A 
ATOM     30  C   UNL A   1      36.179  29.617  29.532  1.00  0.00     0.016 A 
ATOM     31  C   UNL A   1      36.926  30.324  27.353  1.00  0.00     0.016 A 
ATOM     32  C   UNL A   1      37.459  29.144  29.822  1.00  0.00     0.010 A 
ATOM     33  C   UNL A   1      38.175  29.742  27.601  1.00  0.00     0.010 A 
ATOM     34  C   UNL A   1      38.475  29.183  28.857  1.00  0.00    -0.014 A 
BRANCH  34  35
ATOM     35  C   UNL A   1      39.847  28.679  29.162  1.00  0.00     0.031 A 
ATOM     36  C   UNL A   1      40.815  29.532  29.947  1.00  0.00     0.074 A 
ATOM     37  C   UNL A   1      40.248  27.459  28.749  1.00  0.00     0.049 A 
ATOM     38  N   UNL A   1      42.101  29.364  30.136  1.00  0.00    -0.248 NA
ATOM     39  C   UNL A   1      40.270  30.740  30.588  1.00  0.00     0.031 C 
ATOM     40  C   UNL A   1      39.429  26.490  28.017  1.00  0.00     0.029 A 
ATOM     41  N   UNL A   1      41.455  26.818  28.899  1.00  0.00    -0.354 N 
ATOM     42  C   UNL A   1      42.529  30.480  30.847  1.00  0.00     0.074 A 
ATOM     43  C   UNL A   1      41.366  31.313  31.064  1.00  0.00     0.031 C 
ATOM     44  C   UNL A   1      40.133  25.363  27.837  1.00  0.00     0.029 A 
ATOM     45  C   UNL A   1      41.483  25.558  28.353  1.00  0.00     0.049 A 
ATOM     46  H   UNL A   1      42.228  27.225  29.356  1.00  0.00     0.167 HD
ATOM     47  C   UNL A   1      43.778  30.789  31.273  1.00  0.00     0.031 A 
ATOM     48  C   UNL A   1      42.485  24.667  28.237  1.00  0.00     0.031 A 
ATOM     49  C   UNL A   1      44.929  29.940  31.121  1.00  0.00     0.049 A 
ATOM     50  C   UNL A   1      43.859  25.027  28.722  1.00  0.00     0.074 A 
ATOM     51  C   UNL A   1      46.233  30.171  31.529  1.00  0.00     0.029 A 
ATOM     52  N   UNL A   1      44.910  28.683  30.540  1.00  0.00    -0.354 N 
ATOM     53  N   UNL A   1      44.264  26.126  29.309  1.00  0.00    -0.248 NA
ATOM     54  C   UNL A   1      44.918  24.032  28.502  1.00  0.00     0.031 C 
ATOM     55  C   UNL A   1      47.007  29.061  31.174  1.00  0.00     0.029 A 
ATOM     56  C   UNL A   1      46.177  28.126  30.579  1.00  0.00     0.049 A 
ATOM     57  H   UNL A   1      44.113  28.249  30.157  1.00  0.00     0.167 HD
ATOM     58  C   UNL A   1      45.624  25.954  29.529  1.00  0.00     0.074 A 
ATOM     59  C   UNL A   1      45.970  24.637  29.038  1.00  0.00     0.031 C 
ATOM     60  C   UNL A   1      46.509  26.819  30.081  1.00  0.00     0.031 A 
BRANCH  47  61
ATOM     61  C   UNL A   1      43.976  32.132  31.917  1.00  0.00    -0.014 A 
ATOM     62  C   UNL A   1      43.892  32.303  33.306  1.00  0.00     0.009 A 
ATOM     63  C   UNL A   1      44.292  33.240  31.113  1.00  0.00     0.009 A 
ATOM     64  C   UNL A   1      44.091  33.563  33.875  1.00  0.00     0.001 A 
ATOM     65  C   UNL A   1      44.515  34.493  31.686  1.00  0.00     0.001 A 
ATOM     66  C   UNL A   1      44.407  34.654  33.066  1.00  0.00     0.000 A 
ENDBRANCH  47  61
BRANCH  48  67
ATOM     67  C   UNL A   1      42.236  23.354  27.590  1.00  0.00    -0.014 A 
ATOM     68  C   UNL A   1      41.687  22.293  28.326  1.00  0.00     0.009 A 
ATOM     69  C   UNL A   1      42.537  23.158  26.233  1.00  0.00     0.009 A 
ATOM     70  C   UNL A   1      41.456  21.058  27.717  1.00  0.00     0.001 A 
ATOM     71  C   UNL A   1      42.280  21.931  25.621  1.00  0.00     0.001 A 
ATOM     72  C   UNL A   1      41.745  20.880  26.365  1.00  0.00     0.000 A 
ENDBRANCH  48  67
BRANCH  60  73
ATOM     73  C   UNL A   1      47.931  26.354  30.195  1.00  0.00    -0.014 A 
ATOM     74  C   UNL A   1      48.400  25.748  31.370  1.00  0.00     0.009 A 
ATOM     75  C   UNL A   1      48.807  26.514  29.111  1.00  0.00     0.009 A 
ATOM     76  C   UNL A   1      49.732  25.337  31.468  1.00  0.00     0.001 A 
ATOM     77  C   UNL A   1      50.131  26.084  29.205  1.00  0.00     0.001 A 
ATOM     78  C   UNL A   1      50.594  25.504  30.385  1.00  0.00     0.000 A 
ENDBRANCH  60  73
ENDBRANCH  34  35
ENDBRANCH  27  29
ENDBRANCH  26  27
ENDBRANCH  25  26
ENDBRANCH   1  25
TORSDOF 14
ENDMDL
MODEL 3
REMARK VINA RESULT:     -10.5      4.292      7.245
REMARK SMILES [NH3+][C@]1(C(=O)OCCOC(=O)c2ccc(-c3c4nc(c(-c5ccccc5)c5ccc([nH]5)c(-c5ccccc5)c5nc(c(-c6ccccc6)c6ccc3[nH]6)C=C5)C=C4)cc2)CC[C@@H]([NH+]2CCC(C(F)(F)F)CC2)C1
REMARK SMILES IDX 6 1 5 2 3 3 4 4 2 5 59 6 72 7 60 8 61 9 1 10 62 14 63 15
REMARK SMILES IDX 71 16 64 18 70 19 65 20 66 21 67 22 68 23 69 24 7 25 8 26
REMARK SMILES IDX 9 27 10 28 11 29 12 30 58 31 13 32 57 33 14 34 15 35 16 36
REMARK SMILES IDX 51 37 17 38 56 39 50 40 52 41 18 42 55 43 49 44 48 45 19 47
REMARK SMILES IDX 41 48 26 49 40 50 27 51 30 52 39 53 53 54 28 55 29 56 38 58
REMARK SMILES IDX 54 59 31 60 20 61 21 62 25 63 22 64 24 65 23 66 42 67 43 68
REMARK SMILES IDX 47 69 44 70 46 71 45 72 32 73 33 74 37 75 34 76 36 77 35 78
REMARK H PARENT 1 11 1 12 1 13 62 17 52 46 30 57
REMARK Flexibility Score: inf
ROOT
ATOM      1  C   UNL A   1      34.649  21.450  25.985  1.00  0.00     0.274 C 
ENDROOT
BRANCH   1   2
ATOM      2  O   UNL A   1      33.628  21.994  25.120  1.00  0.00    -0.457 OA
BRANCH   2   3
ATOM      3  C   UNL A   1      33.239  23.276  25.366  1.00  0.00     0.368 C 
ATOM      4  O   UNL A   1      32.556  23.627  26.323  1.00  0.00    -0.245 OA
BRANCH   3   5
ATOM      5  C   UNL A   1      33.675  24.247  24.243  1.00  0.00     0.198 C 
ATOM      6  C   UNL A   1      33.056  23.815  22.906  1.00  0.00     0.087 C 
ATOM      7  C   UNL A   1      33.157  25.686  24.403  1.00  0.00     0.145 C 
ATOM      8  C   UNL A   1      33.126  25.051  22.026  1.00  0.00     0.072 C 
ATOM      9  C   UNL A   1      32.860  26.225  22.982  1.00  0.00     0.191 C 
BRANCH   5  10
ATOM     10  N   UNL A   1      35.151  24.232  24.128  1.00  0.00    -0.343 N 
ATOM     11  H   UNL A   1      35.525  25.129  24.434  1.00  0.00     0.345 HD
ATOM     12  H   UNL A   1      35.415  24.066  23.157  1.00  0.00     0.345 HD
ATOM     13  H   UNL A   1      35.529  23.487  24.715  1.00  0.00     0.345 HD
ENDBRANCH   5  10
BRANCH   9  14
ATOM     14  N   UNL A   1      31.530  26.857  22.810  1.00  0.00    -0.332 N 
ATOM     15  C   UNL A   1      30.517  26.458  23.796  1.00  0.00     0.263 C 
ATOM     16  C   UNL A   1      31.656  28.319  22.701  1.00  0.00     0.263 C 
ATOM     17  H   UNL A   1      31.169  26.494  21.929  1.00  0.00     0.348 HD
ATOM     18  C   UNL A   1      29.154  27.090  23.506  1.00  0.00     0.074 C 
ATOM     19  C   UNL A   1      30.320  28.981  22.375  1.00  0.00     0.074 C 
ATOM     20  C   UNL A   1      29.261  28.613  23.414  1.00  0.00     0.106 C 
BRANCH  20  21
ATOM     21  C   UNL A   1      27.921  29.238  23.079  1.00  0.00     0.392 C 
ATOM     22  F   UNL A   1      26.905  28.426  23.446  1.00  0.00    -0.171 F 
ATOM     23  F   UNL A   1      27.758  30.410  23.735  1.00  0.00    -0.171 F 
ATOM     24  F   UNL A   1      27.793  29.484  21.759  1.00  0.00    -0.171 F 
ENDBRANCH  20  21
ENDBRANCH   9  14
ENDBRANCH   3   5
ENDBRANCH   2   3
ENDBRANCH   1   2
BRANCH   1  25
ATOM     25  C   UNL A   1      35.703  20.714  25.158  1.00  0.00     0.275 C 
BRANCH  25  26
ATOM     26  O   UNL A   1      36.815  21.596  24.932  1.00  0.00    -0.458 OA
BRANCH  26  27
ATOM     27  C   UNL A   1      38.007  21.190  25.426  1.00  0.00     0.338 C 
ATOM     28  O   UNL A   1      38.482  20.069  25.370  1.00  0.00    -0.246 OA
BRANCH  27  29
ATOM     29  C   UNL A   1      38.717  22.339  26.031  1.00  0.00     0.060 A 
ATOM     30  C   UNL A   1      38.143  23.611  26.028  1.00  0.00     0.016 A 
ATOM     31  C   UNL A   1      40.016  22.172  26.507  1.00  0.00     0.016 A 
ATOM     32  C   UNL A   1      38.901  24.725  26.388  1.00  0.00     0.010 A 
ATOM     33  C   UNL A   1      40.734  23.278  26.981  1.00  0.00     0.010 A 
ATOM     34  C   UNL A   1      40.204  24.577  26.886  1.00  0.00    -0.014 A 
BRANCH  34  35
ATOM     35  C   UNL A   1      41.020  25.767  27.272  1.00  0.00     0.031 A 
ATOM     36  C   UNL A   1      40.492  26.757  28.284  1.00  0.00     0.074 A 
ATOM     37  C   UNL A   1      42.238  25.980  26.733  1.00  0.00     0.049 A 
ATOM     38  N   UNL A   1      40.950  27.944  28.596  1.00  0.00    -0.248 NA
ATOM     39  C   UNL A   1      39.284  26.368  29.028  1.00  0.00     0.031 C 
ATOM     40  C   UNL A   1      42.915  25.104  25.775  1.00  0.00     0.029 A 
ATOM     41  N   UNL A   1      43.133  27.005  26.928  1.00  0.00    -0.354 N 
ATOM     42  C   UNL A   1      40.045  28.472  29.510  1.00  0.00     0.074 A 
ATOM     43  C   UNL A   1      39.017  27.473  29.710  1.00  0.00     0.031 C 
ATOM     44  C   UNL A   1      44.135  25.596  25.513  1.00  0.00     0.029 A 
ATOM     45  C   UNL A   1      44.295  26.868  26.208  1.00  0.00     0.049 A 
ATOM     46  H   UNL A   1      42.957  27.767  27.528  1.00  0.00     0.167 HD
ATOM     47  C   UNL A   1      40.061  29.682  30.121  1.00  0.00     0.031 A 
ATOM     48  C   UNL A   1      45.357  27.685  26.080  1.00  0.00     0.031 A 
ATOM     49  C   UNL A   1      41.110  30.656  29.982  1.00  0.00     0.049 A 
ATOM     50  C   UNL A   1      45.357  29.016  26.771  1.00  0.00     0.074 A 
ATOM     51  C   UNL A   1      41.211  31.907  30.570  1.00  0.00     0.029 A 
ATOM     52  N   UNL A   1      42.254  30.479  29.223  1.00  0.00    -0.354 N 
ATOM     53  N   UNL A   1      44.448  29.536  27.559  1.00  0.00    -0.248 NA
ATOM     54  C   UNL A   1      46.520  29.884  26.533  1.00  0.00     0.031 C 
ATOM     55  C   UNL A   1      42.408  32.495  30.148  1.00  0.00     0.029 A 
ATOM     56  C   UNL A   1      43.068  31.595  29.327  1.00  0.00     0.049 A 
ATOM     57  H   UNL A   1      42.460  29.678  28.688  1.00  0.00     0.167 HD
ATOM     58  C   UNL A   1      44.929  30.791  27.910  1.00  0.00     0.074 A 
ATOM     59  C   UNL A   1      46.220  30.943  27.272  1.00  0.00     0.031 C 
ATOM     60  C   UNL A   1      44.345  31.737  28.683  1.00  0.00     0.031 A 
BRANCH  47  61
ATOM     61  C   UNL A   1      38.878  30.040  30.976  1.00  0.00    -0.014 A 
ATOM     62  C   UNL A   1      38.899  29.877  32.369  1.00  0.00     0.009 A 
ATOM     63  C   UNL A   1      37.734  30.588  30.372  1.00  0.00     0.009 A 
ATOM     64  C   UNL A   1      37.787  30.229  33.137  1.00  0.00     0.001 A 
ATOM     65  C   UNL A   1      36.634  30.962  31.145  1.00  0.00     0.001 A 
ATOM     66  C   UNL A   1      36.659  30.775  32.525  1.00  0.00     0.000 A 
ENDBRANCH  47  61
BRANCH  48  67
ATOM     67  C   UNL A   1      46.499  27.283  25.220  1.00  0.00    -0.014 A 
ATOM     68  C   UNL A   1      47.422  26.326  25.668  1.00  0.00     0.009 A 
ATOM     69  C   UNL A   1      46.667  27.847  23.947  1.00  0.00     0.009 A 
ATOM     70  C   UNL A   1      48.497  25.950  24.860  1.00  0.00     0.001 A 
ATOM     71  C   UNL A   1      47.727  27.451  23.131  1.00  0.00     0.001 A 
ATOM     72  C   UNL A   1      48.645  26.507  23.590  1.00  0.00     0.000 A 
ENDBRANCH  48  67
BRANCH  60  73
ATOM     73  C   UNL A   1      45.110  33.010  28.894  1.00  0.00    -0.014 A 
ATOM     74  C   UNL A   1      46.020  33.138  29.954  1.00  0.00     0.009 A 
ATOM     75  C   UNL A   1      44.927  34.088  28.015  1.00  0.00     0.009 A 
ATOM     76  C   UNL A   1      46.712  34.336  30.148  1.00  0.00     0.001 A 
ATOM     77  C   UNL A   1      45.635  35.276  28.200  1.00  0.00     0.001 A 
ATOM     78  C   UNL A   1      46.519  35.402  29.270  1.00  0.00     0.000 A 
ENDBRANCH  60  73
ENDBRANCH  34  35
ENDBRANCH  27  29
ENDBRANCH  26  27
ENDBRANCH  25  26
ENDBRANCH   1  25
TORSDOF 14
ENDMDL
