MODEL 1
REMARK VINA RESULT:     -10.0      0.000      0.000
REMARK SMILES CC(C)(C)OC(=O)N[C@H](Cc1ccc(N=[N+]=[N-])cc1)C(=O)OCCOC(=O)c1ccc(-c2c3nc(c(-c4ccccc4)c4ccc([nH]4)c(-c4ccccc4)c4nc(c(-c5ccccc5)c5ccc2[nH]5)C=C4)C=C3)cc1
REMARK SMILES IDX 23 1 22 2 20 3 21 4 9 5 8 6 6 7 7 8 5 10 2 11 1 12 3 13 4 14
REMARK SMILES IDX 10 15 11 16 12 17 19 18 13 19 18 20 14 21 15 22 16 23 17 24
REMARK SMILES IDX 24 25 25 26 26 27 27 28 28 29 29 30 75 31 30 32 74 33 31 34
REMARK SMILES IDX 32 35 33 36 68 37 34 38 73 39 67 40 69 41 35 42 72 43 66 44
REMARK SMILES IDX 65 45 36 47 58 48 43 49 57 50 44 51 47 52 56 53 70 54 45 55
REMARK SMILES IDX 46 56 55 58 71 59 48 60 37 61 38 62 42 63 39 64 41 65 40 66
REMARK SMILES IDX 59 67 60 68 64 69 61 70 63 71 62 72 49 73 50 74 54 75 51 76
REMARK SMILES IDX 53 77 52 78
REMARK H PARENT 8 9 69 46 47 57
REMARK Flexibility Score: inf
ROOT
ATOM      1  C   UNL A   1      38.848  21.569  25.986  1.00  0.00     0.274 C 
ENDROOT
BRANCH   1   2
ATOM      2  O   UNL A   1      37.778  22.092  25.176  1.00  0.00    -0.461 OA
BRANCH   2   3
ATOM      3  C   UNL A   1      37.201  23.234  25.638  1.00  0.00     0.329 C 
ATOM      4  O   UNL A   1      37.812  24.110  26.244  1.00  0.00    -0.250 OA
BRANCH   3   5
ATOM      5  C   UNL A   1      35.681  23.301  25.383  1.00  0.00     0.199 C 
BRANCH   5   6
ATOM      6  N   UNL A   1      35.137  24.661  25.476  1.00  0.00    -0.308 N 
ATOM      7  C   UNL A   1      34.251  25.259  24.633  1.00  0.00     0.408 C 
ATOM      8  O   UNL A   1      33.685  26.295  24.950  1.00  0.00    -0.225 OA
ATOM      9  H   UNL A   1      35.450  25.205  26.234  1.00  0.00     0.168 HD
BRANCH   7  10
ATOM     10  O   UNL A   1      34.157  24.631  23.449  1.00  0.00    -0.444 OA
BRANCH  10  11
ATOM     11  C   UNL A   1      32.881  24.249  22.883  1.00  0.00     0.106 C 
ATOM     12  C   UNL A   1      33.158  22.936  22.133  1.00  0.00     0.056 C 
ATOM     13  C   UNL A   1      32.421  25.301  21.869  1.00  0.00     0.056 C 
ATOM     14  C   UNL A   1      31.840  23.985  23.971  1.00  0.00     0.056 C 
ENDBRANCH  10  11
ENDBRANCH   7  10
ENDBRANCH   5   6
BRANCH   5  15
ATOM     15  C   UNL A   1      34.956  22.265  26.286  1.00  0.00     0.072 C 
BRANCH  15  16
ATOM     16  C   UNL A   1      34.389  21.063  25.567  1.00  0.00    -0.045 A 
ATOM     17  C   UNL A   1      33.015  20.894  25.383  1.00  0.00     0.004 A 
ATOM     18  C   UNL A   1      35.259  20.081  25.074  1.00  0.00     0.004 A 
ATOM     19  C   UNL A   1      32.527  19.732  24.770  1.00  0.00     0.010 A 
ATOM     20  C   UNL A   1      34.766  18.911  24.495  1.00  0.00     0.010 A 
ATOM     21  C   UNL A   1      33.388  18.711  24.348  1.00  0.00     0.038 A 
BRANCH  21  22
ATOM     22  N   UNL A   1      32.802  17.568  23.772  1.00  0.00    -0.061 NA
ATOM     23  N   UNL A   1      33.148  16.474  24.266  1.00  0.00     0.005 N 
ATOM     24  N   UNL A   1      33.466  15.476  24.707  1.00  0.00    -0.003 NA
ENDBRANCH  21  22
ENDBRANCH  15  16
ENDBRANCH   5  15
ENDBRANCH   3   5
ENDBRANCH   2   3
ENDBRANCH   1   2
BRANCH   1  25
ATOM     25  C   UNL A   1      39.413  20.237  25.469  1.00  0.00     0.275 C 
BRANCH  25  26
ATOM     26  O   UNL A   1      40.374  19.640  26.368  1.00  0.00    -0.458 OA
BRANCH  26  27
ATOM     27  C   UNL A   1      41.670  19.818  26.015  1.00  0.00     0.338 C 
ATOM     28  O   UNL A   1      42.320  19.115  25.256  1.00  0.00    -0.246 OA
BRANCH  27  29
ATOM     29  C   UNL A   1      42.187  21.109  26.512  1.00  0.00     0.060 A 
ATOM     30  C   UNL A   1      42.098  21.345  27.889  1.00  0.00     0.016 A 
ATOM     31  C   UNL A   1      42.663  22.105  25.660  1.00  0.00     0.016 A 
ATOM     32  C   UNL A   1      42.467  22.572  28.425  1.00  0.00     0.010 A 
ATOM     33  C   UNL A   1      43.019  23.349  26.197  1.00  0.00     0.010 A 
ATOM     34  C   UNL A   1      42.902  23.595  27.578  1.00  0.00    -0.014 A 
BRANCH  34  35
ATOM     35  C   UNL A   1      43.110  24.948  28.147  1.00  0.00     0.031 A 
ATOM     36  C   UNL A   1      44.499  25.380  28.525  1.00  0.00     0.074 A 
ATOM     37  C   UNL A   1      42.082  25.810  28.251  1.00  0.00     0.049 A 
ATOM     38  N   UNL A   1      44.901  26.505  29.060  1.00  0.00    -0.248 NA
ATOM     39  C   UNL A   1      45.581  24.417  28.262  1.00  0.00     0.031 C 
ATOM     40  C   UNL A   1      40.703  25.537  27.845  1.00  0.00     0.029 A 
ATOM     41  N   UNL A   1      42.045  27.097  28.723  1.00  0.00    -0.354 N 
ATOM     42  C   UNL A   1      46.275  26.375  29.220  1.00  0.00     0.074 A 
ATOM     43  C   UNL A   1      46.636  25.058  28.743  1.00  0.00     0.031 C 
ATOM     44  C   UNL A   1      39.955  26.627  28.084  1.00  0.00     0.029 A 
ATOM     45  C   UNL A   1      40.790  27.654  28.701  1.00  0.00     0.049 A 
ATOM     46  H   UNL A   1      42.841  27.576  29.048  1.00  0.00     0.167 HD
ATOM     47  C   UNL A   1      47.156  27.273  29.721  1.00  0.00     0.031 A 
ATOM     48  C   UNL A   1      40.358  28.848  29.150  1.00  0.00     0.031 A 
ATOM     49  C   UNL A   1      46.794  28.583  30.196  1.00  0.00     0.049 A 
ATOM     50  C   UNL A   1      41.346  29.800  29.768  1.00  0.00     0.074 A 
ATOM     51  C   UNL A   1      47.613  29.566  30.723  1.00  0.00     0.029 A 
ATOM     52  N   UNL A   1      45.504  29.092  30.198  1.00  0.00    -0.354 N 
ATOM     53  N   UNL A   1      42.641  29.662  29.927  1.00  0.00    -0.248 NA
ATOM     54  C   UNL A   1      40.812  31.077  30.263  1.00  0.00     0.031 C 
ATOM     55  C   UNL A   1      46.810  30.649  31.097  1.00  0.00     0.029 A 
ATOM     56  C   UNL A   1      45.502  30.367  30.739  1.00  0.00     0.049 A 
ATOM     57  H   UNL A   1      44.708  28.618  29.866  1.00  0.00     0.167 HD
ATOM     58  C   UNL A   1      43.080  30.846  30.508  1.00  0.00     0.074 A 
ATOM     59  C   UNL A   1      41.916  31.695  30.659  1.00  0.00     0.031 C 
ATOM     60  C   UNL A   1      44.335  31.200  30.879  1.00  0.00     0.031 A 
BRANCH  47  61
ATOM     61  C   UNL A   1      48.594  26.846  29.829  1.00  0.00    -0.014 A 
ATOM     62  C   UNL A   1      49.519  27.104  28.806  1.00  0.00     0.009 A 
ATOM     63  C   UNL A   1      49.035  26.195  30.992  1.00  0.00     0.009 A 
ATOM     64  C   UNL A   1      50.847  26.689  28.931  1.00  0.00     0.001 A 
ATOM     65  C   UNL A   1      50.368  25.807  31.128  1.00  0.00     0.001 A 
ATOM     66  C   UNL A   1      51.271  26.046  30.094  1.00  0.00     0.000 A 
ENDBRANCH  47  61
BRANCH  48  67
ATOM     67  C   UNL A   1      38.917  29.202  29.064  1.00  0.00    -0.014 A 
ATOM     68  C   UNL A   1      38.059  29.007  30.159  1.00  0.00     0.009 A 
ATOM     69  C   UNL A   1      38.384  29.718  27.871  1.00  0.00     0.009 A 
ATOM     70  C   UNL A   1      36.697  29.297  30.051  1.00  0.00     0.001 A 
ATOM     71  C   UNL A   1      37.029  30.037  27.777  1.00  0.00     0.001 A 
ATOM     72  C   UNL A   1      36.183  29.815  28.862  1.00  0.00     0.000 A 
ENDBRANCH  48  67
BRANCH  60  73
ATOM     73  C   UNL A   1      44.521  32.586  31.433  1.00  0.00    -0.014 A 
ATOM     74  C   UNL A   1      44.423  32.849  32.809  1.00  0.00     0.009 A 
ATOM     75  C   UNL A   1      44.825  33.642  30.559  1.00  0.00     0.009 A 
ATOM     76  C   UNL A   1      44.583  34.151  33.290  1.00  0.00     0.001 A 
ATOM     77  C   UNL A   1      45.016  34.936  31.048  1.00  0.00     0.001 A 
ATOM     78  C   UNL A   1      44.883  35.190  32.411  1.00  0.00     0.000 A 
ENDBRANCH  60  73
ENDBRANCH  34  35
ENDBRANCH  27  29
ENDBRANCH  26  27
ENDBRANCH  25  26
ENDBRANCH   1  25
TORSDOF 17
ENDMDL
MODEL 2
REMARK VINA RESULT:      -9.9      1.761      7.121
REMARK SMILES CC(C)(C)OC(=O)N[C@H](Cc1ccc(N=[N+]=[N-])cc1)C(=O)OCCOC(=O)c1ccc(-c2c3nc(c(-c4ccccc4)c4ccc([nH]4)c(-c4ccccc4)c4nc(c(-c5ccccc5)c5ccc2[nH]5)C=C4)C=C3)cc1
REMARK SMILES IDX 23 1 22 2 20 3 21 4 9 5 8 6 6 7 7 8 5 10 2 11 1 12 3 13 4 14
REMARK SMILES IDX 10 15 11 16 12 17 19 18 13 19 18 20 14 21 15 22 16 23 17 24
REMARK SMILES IDX 24 25 25 26 26 27 27 28 28 29 29 30 75 31 30 32 74 33 31 34
REMARK SMILES IDX 32 35 33 36 68 37 34 38 73 39 67 40 69 41 35 42 72 43 66 44
REMARK SMILES IDX 65 45 36 47 58 48 43 49 57 50 44 51 47 52 56 53 70 54 45 55
REMARK SMILES IDX 46 56 55 58 71 59 48 60 37 61 38 62 42 63 39 64 41 65 40 66
REMARK SMILES IDX 59 67 60 68 64 69 61 70 63 71 62 72 49 73 50 74 54 75 51 76
REMARK SMILES IDX 53 77 52 78
REMARK H PARENT 8 9 69 46 47 57
REMARK Flexibility Score: inf
ROOT
ATOM      1  C   UNL A   1      32.968  27.318  25.595  1.00  0.00     0.274 C 
ENDROOT
BRANCH   1   2
ATOM      2  O   UNL A   1      33.512  26.014  25.311  1.00  0.00    -0.461 OA
BRANCH   2   3
ATOM      3  C   UNL A   1      33.079  25.440  24.156  1.00  0.00     0.329 C 
ATOM      4  O   UNL A   1      32.407  26.028  23.313  1.00  0.00    -0.250 OA
BRANCH   3   5
ATOM      5  C   UNL A   1      33.460  23.951  24.030  1.00  0.00     0.199 C 
BRANCH   5   6
ATOM      6  N   UNL A   1      34.545  23.710  23.071  1.00  0.00    -0.308 N 
ATOM      7  C   UNL A   1      35.843  23.406  23.348  1.00  0.00     0.408 C 
ATOM      8  O   UNL A   1      36.588  22.985  22.475  1.00  0.00    -0.225 OA
ATOM      9  H   UNL A   1      34.308  23.776  22.118  1.00  0.00     0.168 HD
BRANCH   7  10
ATOM     10  O   UNL A   1      36.185  23.696  24.614  1.00  0.00    -0.444 OA
BRANCH  10  11
ATOM     11  C   UNL A   1      36.555  22.668  25.561  1.00  0.00     0.106 C 
ATOM     12  C   UNL A   1      35.612  22.872  26.758  1.00  0.00     0.056 C 
ATOM     13  C   UNL A   1      37.995  22.886  26.037  1.00  0.00     0.056 C 
ATOM     14  C   UNL A   1      36.331  21.268  24.990  1.00  0.00     0.056 C 
ENDBRANCH  10  11
ENDBRANCH   7  10
ENDBRANCH   5   6
BRANCH   5  15
ATOM     15  C   UNL A   1      32.182  23.108  23.766  1.00  0.00     0.072 C 
BRANCH  15  16
ATOM     16  C   UNL A   1      32.353  21.612  23.900  1.00  0.00    -0.045 A 
ATOM     17  C   UNL A   1      32.166  20.748  22.818  1.00  0.00     0.004 A 
ATOM     18  C   UNL A   1      32.702  21.067  25.143  1.00  0.00     0.004 A 
ATOM     19  C   UNL A   1      32.269  19.363  23.001  1.00  0.00     0.010 A 
ATOM     20  C   UNL A   1      32.769  19.686  25.327  1.00  0.00     0.010 A 
ATOM     21  C   UNL A   1      32.539  18.810  24.259  1.00  0.00     0.038 A 
BRANCH  21  22
ATOM     22  N   UNL A   1      32.591  17.406  24.351  1.00  0.00    -0.061 NA
ATOM     23  N   UNL A   1      33.410  16.842  23.596  1.00  0.00     0.005 N 
ATOM     24  N   UNL A   1      34.148  16.324  22.903  1.00  0.00    -0.003 NA
ENDBRANCH  21  22
ENDBRANCH  15  16
ENDBRANCH   5  15
ENDBRANCH   3   5
ENDBRANCH   2   3
ENDBRANCH   1   2
BRANCH   1  25
ATOM     25  C   UNL A   1      33.698  28.052  26.731  1.00  0.00     0.275 C 
BRANCH  25  26
ATOM     26  O   UNL A   1      34.179  29.358  26.347  1.00  0.00    -0.458 OA
BRANCH  26  27
ATOM     27  C   UNL A   1      34.433  30.198  27.380  1.00  0.00     0.338 C 
ATOM     28  O   UNL A   1      33.638  30.959  27.910  1.00  0.00    -0.246 OA
BRANCH  27  29
ATOM     29  C   UNL A   1      35.774  29.955  27.948  1.00  0.00     0.060 A 
ATOM     30  C   UNL A   1      36.866  30.069  27.079  1.00  0.00     0.016 A 
ATOM     31  C   UNL A   1      35.967  29.540  29.265  1.00  0.00     0.016 A 
ATOM     32  C   UNL A   1      38.150  29.758  27.508  1.00  0.00     0.010 A 
ATOM     33  C   UNL A   1      37.260  29.209  29.694  1.00  0.00     0.010 A 
ATOM     34  C   UNL A   1      38.353  29.296  28.811  1.00  0.00    -0.014 A 
BRANCH  34  35
ATOM     35  C   UNL A   1      39.696  28.794  29.187  1.00  0.00     0.031 A 
ATOM     36  C   UNL A   1      40.579  29.641  30.061  1.00  0.00     0.074 A 
ATOM     37  C   UNL A   1      40.093  27.563  28.817  1.00  0.00     0.049 A 
ATOM     38  N   UNL A   1      41.794  29.408  30.486  1.00  0.00    -0.248 NA
ATOM     39  C   UNL A   1      40.014  30.921  30.520  1.00  0.00     0.031 C 
ATOM     40  C   UNL A   1      39.297  26.616  28.036  1.00  0.00     0.029 A 
ATOM     41  N   UNL A   1      41.266  26.896  29.061  1.00  0.00    -0.354 N 
ATOM     42  C   UNL A   1      42.148  30.520  31.240  1.00  0.00     0.074 A 
ATOM     43  C   UNL A   1      41.028  31.434  31.201  1.00  0.00     0.031 C 
ATOM     44  C   UNL A   1      40.005  25.487  27.868  1.00  0.00     0.029 A 
ATOM     45  C   UNL A   1      41.318  25.649  28.486  1.00  0.00     0.049 A 
ATOM     46  H   UNL A   1      42.001  27.273  29.597  1.00  0.00     0.167 HD
ATOM     47  C   UNL A   1      43.304  30.757  31.905  1.00  0.00     0.031 A 
ATOM     48  C   UNL A   1      42.320  24.751  28.443  1.00  0.00     0.031 A 
ATOM     49  C   UNL A   1      44.417  29.844  31.943  1.00  0.00     0.049 A 
ATOM     50  C   UNL A   1      43.621  25.070  29.131  1.00  0.00     0.074 A 
ATOM     51  C   UNL A   1      45.633  29.993  32.587  1.00  0.00     0.029 A 
ATOM     52  N   UNL A   1      44.448  28.611  31.309  1.00  0.00    -0.354 N 
ATOM     53  N   UNL A   1      43.950  26.129  29.829  1.00  0.00    -0.248 NA
ATOM     54  C   UNL A   1      44.686  24.061  29.028  1.00  0.00     0.031 C 
ATOM     55  C   UNL A   1      46.421  28.874  32.297  1.00  0.00     0.029 A 
ATOM     56  C   UNL A   1      45.670  27.999  31.529  1.00  0.00     0.049 A 
ATOM     57  H   UNL A   1      43.711  28.229  30.781  1.00  0.00     0.167 HD
ATOM     58  C   UNL A   1      45.246  25.901  30.277  1.00  0.00     0.074 A 
ATOM     59  C   UNL A   1      45.635  24.597  29.783  1.00  0.00     0.031 C 
ATOM     60  C   UNL A   1      46.041  26.698  31.033  1.00  0.00     0.031 A 
BRANCH  47  61
ATOM     61  C   UNL A   1      43.441  32.081  32.604  1.00  0.00    -0.014 A 
ATOM     62  C   UNL A   1      43.068  32.248  33.946  1.00  0.00     0.009 A 
ATOM     63  C   UNL A   1      43.980  33.175  31.909  1.00  0.00     0.009 A 
ATOM     64  C   UNL A   1      43.201  33.492  34.568  1.00  0.00     0.001 A 
ATOM     65  C   UNL A   1      44.140  34.410  32.540  1.00  0.00     0.001 A 
ATOM     66  C   UNL A   1      43.740  34.570  33.866  1.00  0.00     0.000 A 
ENDBRANCH  47  61
BRANCH  48  67
ATOM     67  C   UNL A   1      42.150  23.476  27.697  1.00  0.00    -0.014 A 
ATOM     68  C   UNL A   1      41.599  22.344  28.318  1.00  0.00     0.009 A 
ATOM     69  C   UNL A   1      42.561  23.379  26.357  1.00  0.00     0.009 A 
ATOM     70  C   UNL A   1      41.490  21.138  27.623  1.00  0.00     0.001 A 
ATOM     71  C   UNL A   1      42.420  22.182  25.655  1.00  0.00     0.001 A 
ATOM     72  C   UNL A   1      41.896  21.058  26.291  1.00  0.00     0.000 A 
ENDBRANCH  48  67
BRANCH  60  73
ATOM     73  C   UNL A   1      47.390  26.156  31.417  1.00  0.00    -0.014 A 
ATOM     74  C   UNL A   1      48.487  26.224  30.544  1.00  0.00     0.009 A 
ATOM     75  C   UNL A   1      47.567  25.588  32.689  1.00  0.00     0.009 A 
ATOM     76  C   UNL A   1      49.723  25.694  30.923  1.00  0.00     0.001 A 
ATOM     77  C   UNL A   1      48.812  25.089  33.077  1.00  0.00     0.001 A 
ATOM     78  C   UNL A   1      49.885  25.131  32.189  1.00  0.00     0.000 A 
ENDBRANCH  60  73
ENDBRANCH  34  35
ENDBRANCH  27  29
ENDBRANCH  26  27
ENDBRANCH  25  26
ENDBRANCH   1  25
TORSDOF 17
ENDMDL
MODEL 3
REMARK VINA RESULT:      -9.9      2.486      3.372
REMARK SMILES CC(C)(C)OC(=O)N[C@H](Cc1ccc(N=[N+]=[N-])cc1)C(=O)OCCOC(=O)c1ccc(-c2c3nc(c(-c4ccccc4)c4ccc([nH]4)c(-c4ccccc4)c4nc(c(-c5ccccc5)c5ccc2[nH]5)C=C4)C=C3)cc1
REMARK SMILES IDX 23 1 22 2 20 3 21 4 9 5 8 6 6 7 7 8 5 10 2 11 1 12 3 13 4 14
REMARK SMILES IDX 10 15 11 16 12 17 19 18 13 19 18 20 14 21 15 22 16 23 17 24
REMARK SMILES IDX 24 25 25 26 26 27 27 28 28 29 29 30 75 31 30 32 74 33 31 34
REMARK SMILES IDX 32 35 33 36 68 37 34 38 73 39 67 40 69 41 35 42 72 43 66 44
REMARK SMILES IDX 65 45 36 47 58 48 43 49 57 50 44 51 47 52 56 53 70 54 45 55
REMARK SMILES IDX 46 56 55 58 71 59 48 60 37 61 38 62 42 63 39 64 41 65 40 66
REMARK SMILES IDX 59 67 60 68 64 69 61 70 63 71 62 72 49 73 50 74 54 75 51 76
REMARK SMILES IDX 53 77 52 78
REMARK H PARENT 8 9 69 46 47 57
REMARK Flexibility Score: inf
ROOT
ATOM      1  C   UNL A   1      36.725  22.321  23.808  1.00  0.00     0.274 C 
ENDROOT
BRANCH   1   2
ATOM      2  O   UNL A   1      36.032  23.311  24.592  1.00  0.00    -0.461 OA
BRANCH   2   3
ATOM      3  C   UNL A   1      34.718  23.051  24.830  1.00  0.00     0.329 C 
ATOM      4  O   UNL A   1      34.214  23.055  25.950  1.00  0.00    -0.250 OA
BRANCH   3   5
ATOM      5  C   UNL A   1      33.924  22.689  23.559  1.00  0.00     0.199 C 
BRANCH   5   6
ATOM      6  N   UNL A   1      33.578  23.856  22.738  1.00  0.00    -0.308 N 
ATOM      7  C   UNL A   1      33.068  25.045  23.162  1.00  0.00     0.408 C 
ATOM      8  O   UNL A   1      33.057  26.021  22.425  1.00  0.00    -0.225 OA
ATOM      9  H   UNL A   1      33.732  23.770  21.770  1.00  0.00     0.168 HD
BRANCH   7  10
ATOM     10  O   UNL A   1      32.539  24.973  24.394  1.00  0.00    -0.444 OA
BRANCH  10  11
ATOM     11  C   UNL A   1      31.110  25.009  24.618  1.00  0.00     0.106 C 
ATOM     12  C   UNL A   1      30.792  26.484  24.912  1.00  0.00     0.056 C 
ATOM     13  C   UNL A   1      30.752  24.179  25.855  1.00  0.00     0.056 C 
ATOM     14  C   UNL A   1      30.335  24.576  23.374  1.00  0.00     0.056 C 
ENDBRANCH  10  11
ENDBRANCH   7  10
ENDBRANCH   5   6
BRANCH   5  15
ATOM     15  C   UNL A   1      32.708  21.800  23.940  1.00  0.00     0.072 C 
BRANCH  15  16
ATOM     16  C   UNL A   1      32.949  20.309  23.873  1.00  0.00    -0.045 A 
ATOM     17  C   UNL A   1      33.895  19.677  24.684  1.00  0.00     0.004 A 
ATOM     18  C   UNL A   1      32.212  19.531  22.970  1.00  0.00     0.004 A 
ATOM     19  C   UNL A   1      34.135  18.304  24.543  1.00  0.00     0.010 A 
ATOM     20  C   UNL A   1      32.478  18.172  22.810  1.00  0.00     0.010 A 
ATOM     21  C   UNL A   1      33.457  17.538  23.586  1.00  0.00     0.038 A 
BRANCH  21  22
ATOM     22  N   UNL A   1      33.788  16.173  23.497  1.00  0.00    -0.061 NA
ATOM     23  N   UNL A   1      34.529  15.734  24.401  1.00  0.00     0.005 N 
ATOM     24  N   UNL A   1      35.210  15.332  25.218  1.00  0.00    -0.003 NA
ENDBRANCH  21  22
ENDBRANCH  15  16
ENDBRANCH   5  15
ENDBRANCH   3   5
ENDBRANCH   2   3
ENDBRANCH   1   2
BRANCH   1  25
ATOM     25  C   UNL A   1      37.337  21.191  24.651  1.00  0.00     0.275 C 
BRANCH  25  26
ATOM     26  O   UNL A   1      37.735  21.618  25.972  1.00  0.00    -0.458 OA
BRANCH  26  27
ATOM     27  C   UNL A   1      39.060  21.504  26.232  1.00  0.00     0.338 C 
ATOM     28  O   UNL A   1      39.784  20.569  25.922  1.00  0.00    -0.246 OA
BRANCH  27  29
ATOM     29  C   UNL A   1      39.607  22.759  26.785  1.00  0.00     0.060 A 
ATOM     30  C   UNL A   1      39.097  23.958  26.274  1.00  0.00     0.016 A 
ATOM     31  C   UNL A   1      40.650  22.779  27.710  1.00  0.00     0.016 A 
ATOM     32  C   UNL A   1      39.627  25.180  26.666  1.00  0.00     0.010 A 
ATOM     33  C   UNL A   1      41.198  24.011  28.093  1.00  0.00     0.010 A 
ATOM     34  C   UNL A   1      40.704  25.215  27.557  1.00  0.00    -0.014 A 
BRANCH  34  35
ATOM     35  C   UNL A   1      41.372  26.513  27.814  1.00  0.00     0.031 A 
ATOM     36  C   UNL A   1      42.710  26.786  27.186  1.00  0.00     0.074 A 
ATOM     37  C   UNL A   1      40.755  27.467  28.534  1.00  0.00     0.049 A 
ATOM     38  N   UNL A   1      43.478  27.839  27.298  1.00  0.00    -0.248 NA
ATOM     39  C   UNL A   1      43.253  25.733  26.313  1.00  0.00     0.031 C 
ATOM     40  C   UNL A   1      39.423  27.352  29.128  1.00  0.00     0.029 A 
ATOM     41  N   UNL A   1      41.169  28.728  28.878  1.00  0.00    -0.354 N 
ATOM     42  C   UNL A   1      44.605  27.566  26.532  1.00  0.00     0.074 A 
ATOM     43  C   UNL A   1      44.429  26.243  25.975  1.00  0.00     0.031 C 
ATOM     44  C   UNL A   1      39.128  28.499  29.762  1.00  0.00     0.029 A 
ATOM     45  C   UNL A   1      40.266  29.408  29.659  1.00  0.00     0.049 A 
ATOM     46  H   UNL A   1      42.030  29.110  28.594  1.00  0.00     0.167 HD
ATOM     47  C   UNL A   1      45.689  28.348  26.314  1.00  0.00     0.031 A 
ATOM     48  C   UNL A   1      40.358  30.617  30.245  1.00  0.00     0.031 A 
ATOM     49  C   UNL A   1      45.862  29.664  26.871  1.00  0.00     0.049 A 
ATOM     50  C   UNL A   1      41.605  31.437  30.045  1.00  0.00     0.074 A 
ATOM     51  C   UNL A   1      46.925  30.535  26.711  1.00  0.00     0.029 A 
ATOM     52  N   UNL A   1      44.945  30.299  27.695  1.00  0.00    -0.354 N 
ATOM     53  N   UNL A   1      42.669  31.163  29.330  1.00  0.00    -0.248 NA
ATOM     54  C   UNL A   1      41.657  32.737  30.729  1.00  0.00     0.031 C 
ATOM     55  C   UNL A   1      46.676  31.675  27.483  1.00  0.00     0.029 A 
ATOM     56  C   UNL A   1      45.428  31.541  28.069  1.00  0.00     0.049 A 
ATOM     57  H   UNL A   1      44.079  29.922  27.973  1.00  0.00     0.167 HD
ATOM     58  C   UNL A   1      43.502  32.270  29.450  1.00  0.00     0.074 A 
ATOM     59  C   UNL A   1      42.812  33.222  30.295  1.00  0.00     0.031 C 
ATOM     60  C   UNL A   1      44.727  32.479  28.908  1.00  0.00     0.031 A 
BRANCH  47  61
ATOM     61  C   UNL A   1      46.799  27.775  25.476  1.00  0.00    -0.014 A 
ATOM     62  C   UNL A   1      47.819  26.992  26.038  1.00  0.00     0.009 A 
ATOM     63  C   UNL A   1      46.805  28.003  24.091  1.00  0.00     0.009 A 
ATOM     64  C   UNL A   1      48.840  26.479  25.236  1.00  0.00     0.001 A 
ATOM     65  C   UNL A   1      47.810  27.465  23.286  1.00  0.00     0.001 A 
ATOM     66  C   UNL A   1      48.832  26.712  23.861  1.00  0.00     0.000 A 
ENDBRANCH  47  61
BRANCH  48  67
ATOM     67  C   UNL A   1      39.252  31.117  31.104  1.00  0.00    -0.014 A 
ATOM     68  C   UNL A   1      39.207  30.809  32.473  1.00  0.00     0.009 A 
ATOM     69  C   UNL A   1      38.219  31.890  30.551  1.00  0.00     0.009 A 
ATOM     70  C   UNL A   1      38.138  31.242  33.261  1.00  0.00     0.001 A 
ATOM     71  C   UNL A   1      37.169  32.348  31.347  1.00  0.00     0.001 A 
ATOM     72  C   UNL A   1      37.122  32.014  32.699  1.00  0.00     0.000 A 
ENDBRANCH  48  67
BRANCH  60  73
ATOM     73  C   UNL A   1      45.372  33.813  29.166  1.00  0.00    -0.014 A 
ATOM     74  C   UNL A   1      45.148  34.915  28.325  1.00  0.00     0.009 A 
ATOM     75  C   UNL A   1      46.201  33.972  30.288  1.00  0.00     0.009 A 
ATOM     76  C   UNL A   1      45.777  36.136  28.581  1.00  0.00     0.001 A 
ATOM     77  C   UNL A   1      46.801  35.203  30.559  1.00  0.00     0.001 A 
ATOM     78  C   UNL A   1      46.598  36.279  29.698  1.00  0.00     0.000 A 
ENDBRANCH  60  73
ENDBRANCH  34  35
ENDBRANCH  27  29
ENDBRANCH  26  27
ENDBRANCH  25  26
ENDBRANCH   1  25
TORSDOF 17
ENDMDL
