MODEL 1
REMARK VINA RESULT:      -9.6      0.000      0.000
REMARK SMILES CC(=O)N1CCC[C@H]1COCC(=O)OCCOC(=O)c1ccc(-c2c3nc(c(-c4ccccc4)c4ccc([nH]4)c(-c4ccccc4)c4nc(c(-c5ccccc5)c5ccc2[nH]5)C=C4)C=C3)cc1
REMARK SMILES IDX 15 1 14 2 12 3 13 4 11 5 10 6 9 7 8 8 4 9 5 10 6 11 7 12
REMARK SMILES IDX 2 13 1 14 3 15 16 16 17 17 18 18 19 19 20 20 21 21 67 22
REMARK SMILES IDX 22 23 66 24 23 25 24 26 25 27 60 28 26 29 65 30 59 31 61 32
REMARK SMILES IDX 27 33 64 34 58 35 57 36 28 38 50 39 35 40 49 41 36 42 39 43
REMARK SMILES IDX 48 44 62 45 37 46 38 47 47 49 63 50 40 51 29 52 30 53 34 54
REMARK SMILES IDX 31 55 33 56 32 57 51 58 52 59 56 60 53 61 55 62 54 63 41 64
REMARK SMILES IDX 42 65 46 66 43 67 45 68 44 69
REMARK H PARENT 61 37 39 48
REMARK Flexibility Score: inf
ROOT
ATOM      1  C   UNL A   1      35.221  20.332  24.997  1.00  0.00     0.274 C 
ENDROOT
BRANCH   1   2
ATOM      2  O   UNL A   1      34.358  19.245  24.606  1.00  0.00    -0.460 OA
BRANCH   2   3
ATOM      3  C   UNL A   1      33.032  19.537  24.584  1.00  0.00     0.332 C 
ATOM      4  O   UNL A   1      32.162  18.894  25.165  1.00  0.00    -0.250 OA
BRANCH   3   5
ATOM      5  C   UNL A   1      32.698  20.796  23.781  1.00  0.00     0.282 C 
BRANCH   5   6
ATOM      6  O   UNL A   1      31.823  21.784  24.281  1.00  0.00    -0.368 OA
BRANCH   6   7
ATOM      7  C   UNL A   1      31.711  22.959  23.482  1.00  0.00     0.186 C 
BRANCH   7   8
ATOM      8  C   UNL A   1      32.223  24.294  24.100  1.00  0.00     0.111 C 
ATOM      9  N   UNL A   1      32.257  24.410  25.561  1.00  0.00    -0.338 N 
ATOM     10  C   UNL A   1      33.604  24.677  26.039  1.00  0.00     0.120 C 
ATOM     11  C   UNL A   1      34.273  25.328  24.845  1.00  0.00     0.024 C 
ATOM     12  C   UNL A   1      33.670  24.580  23.665  1.00  0.00     0.029 C 
BRANCH   9  13
ATOM     13  C   UNL A   1      31.097  24.575  26.292  1.00  0.00     0.219 C 
ATOM     14  C   UNL A   1      30.158  25.657  25.821  1.00  0.00     0.114 C 
ATOM     15  O   UNL A   1      30.812  23.871  27.259  1.00  0.00    -0.275 OA
ENDBRANCH   9  13
ENDBRANCH   7   8
ENDBRANCH   6   7
ENDBRANCH   5   6
ENDBRANCH   3   5
ENDBRANCH   2   3
ENDBRANCH   1   2
BRANCH   1  16
ATOM     16  C   UNL A   1      36.691  19.920  24.939  1.00  0.00     0.275 C 
BRANCH  16  17
ATOM     17  O   UNL A   1      37.544  21.074  25.050  1.00  0.00    -0.458 OA
BRANCH  17  18
ATOM     18  C   UNL A   1      38.727  20.863  25.666  1.00  0.00     0.338 C 
ATOM     19  O   UNL A   1      39.349  19.814  25.742  1.00  0.00    -0.246 OA
BRANCH  18  20
ATOM     20  C   UNL A   1      39.228  22.107  26.280  1.00  0.00     0.060 A 
ATOM     21  C   UNL A   1      38.622  23.335  26.012  1.00  0.00     0.016 A 
ATOM     22  C   UNL A   1      40.425  22.058  27.000  1.00  0.00     0.016 A 
ATOM     23  C   UNL A   1      39.268  24.518  26.386  1.00  0.00     0.010 A 
ATOM     24  C   UNL A   1      41.024  23.240  27.440  1.00  0.00     0.010 A 
ATOM     25  C   UNL A   1      40.482  24.489  27.095  1.00  0.00    -0.014 A 
BRANCH  25  26
ATOM     26  C   UNL A   1      41.208  25.746  27.440  1.00  0.00     0.031 A 
ATOM     27  C   UNL A   1      40.605  26.757  28.390  1.00  0.00     0.074 A 
ATOM     28  C   UNL A   1      42.423  25.998  26.914  1.00  0.00     0.049 A 
ATOM     29  N   UNL A   1      41.041  27.951  28.712  1.00  0.00    -0.248 NA
ATOM     30  C   UNL A   1      39.355  26.379  29.068  1.00  0.00     0.031 C 
ATOM     31  C   UNL A   1      43.163  25.112  26.014  1.00  0.00     0.029 A 
ATOM     32  N   UNL A   1      43.257  27.080  27.072  1.00  0.00    -0.354 N 
ATOM     33  C   UNL A   1      40.104  28.477  29.594  1.00  0.00     0.074 A 
ATOM     34  C   UNL A   1      39.077  27.472  29.767  1.00  0.00     0.031 C 
ATOM     35  C   UNL A   1      44.356  25.661  25.740  1.00  0.00     0.029 A 
ATOM     36  C   UNL A   1      44.435  26.973  26.374  1.00  0.00     0.049 A 
ATOM     37  H   UNL A   1      43.031  27.857  27.633  1.00  0.00     0.167 HD
ATOM     38  C   UNL A   1      40.088  29.688  30.202  1.00  0.00     0.031 A 
ATOM     39  C   UNL A   1      45.451  27.841  26.220  1.00  0.00     0.031 A 
ATOM     40  C   UNL A   1      41.103  30.695  30.061  1.00  0.00     0.049 A 
ATOM     41  C   UNL A   1      45.374  29.204  26.838  1.00  0.00     0.074 A 
ATOM     42  C   UNL A   1      41.169  31.943  30.659  1.00  0.00     0.029 A 
ATOM     43  N   UNL A   1      42.229  30.574  29.266  1.00  0.00    -0.354 N 
ATOM     44  N   UNL A   1      44.452  29.701  27.623  1.00  0.00    -0.248 NA
ATOM     45  C   UNL A   1      46.463  30.137  26.517  1.00  0.00     0.031 C 
ATOM     46  C   UNL A   1      42.318  32.593  30.195  1.00  0.00     0.029 A 
ATOM     47  C   UNL A   1      42.983  31.734  29.337  1.00  0.00     0.049 A 
ATOM     48  H   UNL A   1      42.460  29.781  28.730  1.00  0.00     0.167 HD
ATOM     49  C   UNL A   1      44.843  31.007  27.883  1.00  0.00     0.074 A 
ATOM     50  C   UNL A   1      46.099  31.219  27.193  1.00  0.00     0.031 C 
ATOM     51  C   UNL A   1      44.212  31.948  28.624  1.00  0.00     0.031 A 
BRANCH  38  52
ATOM     52  C   UNL A   1      38.899  30.018  31.059  1.00  0.00    -0.014 A 
ATOM     53  C   UNL A   1      38.901  29.760  32.438  1.00  0.00     0.009 A 
ATOM     54  C   UNL A   1      37.790  30.658  30.483  1.00  0.00     0.009 A 
ATOM     55  C   UNL A   1      37.804  30.126  33.222  1.00  0.00     0.001 A 
ATOM     56  C   UNL A   1      36.703  31.035  31.273  1.00  0.00     0.001 A 
ATOM     57  C   UNL A   1      36.708  30.766  32.640  1.00  0.00     0.000 A 
ENDBRANCH  38  52
BRANCH  39  58
ATOM     58  C   UNL A   1      46.618  27.458  25.386  1.00  0.00    -0.014 A 
ATOM     59  C   UNL A   1      46.712  27.896  24.058  1.00  0.00     0.009 A 
ATOM     60  C   UNL A   1      47.650  26.674  25.924  1.00  0.00     0.009 A 
ATOM     61  C   UNL A   1      47.823  27.556  23.283  1.00  0.00     0.001 A 
ATOM     62  C   UNL A   1      48.768  26.355  25.154  1.00  0.00     0.001 A 
ATOM     63  C   UNL A   1      48.853  26.793  23.834  1.00  0.00     0.000 A 
ENDBRANCH  39  58
BRANCH  51  64
ATOM     64  C   UNL A   1      44.865  33.294  28.715  1.00  0.00    -0.014 A 
ATOM     65  C   UNL A   1      44.545  34.308  27.798  1.00  0.00     0.009 A 
ATOM     66  C   UNL A   1      45.790  33.560  29.735  1.00  0.00     0.009 A 
ATOM     67  C   UNL A   1      45.163  35.557  27.886  1.00  0.00     0.001 A 
ATOM     68  C   UNL A   1      46.393  34.815  29.830  1.00  0.00     0.001 A 
ATOM     69  C   UNL A   1      46.086  35.810  28.902  1.00  0.00     0.000 A 
ENDBRANCH  51  64
ENDBRANCH  25  26
ENDBRANCH  18  20
ENDBRANCH  17  18
ENDBRANCH  16  17
ENDBRANCH   1  16
TORSDOF 15
ENDMDL
MODEL 2
REMARK VINA RESULT:      -9.5      4.402      8.708
REMARK SMILES CC(=O)N1CCC[C@H]1COCC(=O)OCCOC(=O)c1ccc(-c2c3nc(c(-c4ccccc4)c4ccc([nH]4)c(-c4ccccc4)c4nc(c(-c5ccccc5)c5ccc2[nH]5)C=C4)C=C3)cc1
REMARK SMILES IDX 15 1 14 2 12 3 13 4 11 5 10 6 9 7 8 8 4 9 5 10 6 11 7 12
REMARK SMILES IDX 2 13 1 14 3 15 16 16 17 17 18 18 19 19 20 20 21 21 67 22
REMARK SMILES IDX 22 23 66 24 23 25 24 26 25 27 60 28 26 29 65 30 59 31 61 32
REMARK SMILES IDX 27 33 64 34 58 35 57 36 28 38 50 39 35 40 49 41 36 42 39 43
REMARK SMILES IDX 48 44 62 45 37 46 38 47 47 49 63 50 40 51 29 52 30 53 34 54
REMARK SMILES IDX 31 55 33 56 32 57 51 58 52 59 56 60 53 61 55 62 54 63 41 64
REMARK SMILES IDX 42 65 46 66 43 67 45 68 44 69
REMARK H PARENT 61 37 39 48
REMARK Flexibility Score: inf
ROOT
ATOM      1  C   UNL A   1      42.098  20.253  26.958  1.00  0.00     0.274 C 
ENDROOT
BRANCH   1   2
ATOM      2  O   UNL A   1      42.501  19.002  26.365  1.00  0.00    -0.460 OA
BRANCH   2   3
ATOM      3  C   UNL A   1      43.584  19.071  25.547  1.00  0.00     0.332 C 
ATOM      4  O   UNL A   1      44.148  18.102  25.046  1.00  0.00    -0.250 OA
BRANCH   3   5
ATOM      5  C   UNL A   1      44.039  20.503  25.258  1.00  0.00     0.282 C 
BRANCH   5   6
ATOM      6  O   UNL A   1      45.401  20.871  25.299  1.00  0.00    -0.368 OA
BRANCH   6   7
ATOM      7  C   UNL A   1      45.670  22.144  25.881  1.00  0.00     0.186 C 
BRANCH   7   8
ATOM      8  C   UNL A   1      44.487  23.152  25.971  1.00  0.00     0.111 C 
ATOM      9  N   UNL A   1      44.529  24.176  27.021  1.00  0.00    -0.338 N 
ATOM     10  C   UNL A   1      44.495  25.514  26.456  1.00  0.00     0.120 C 
ATOM     11  C   UNL A   1      43.817  25.309  25.115  1.00  0.00     0.024 C 
ATOM     12  C   UNL A   1      44.352  23.956  24.667  1.00  0.00     0.029 C 
BRANCH   9  13
ATOM     13  C   UNL A   1      44.288  23.854  28.342  1.00  0.00     0.219 C 
ATOM     14  C   UNL A   1      42.875  23.457  28.687  1.00  0.00     0.114 C 
ATOM     15  O   UNL A   1      45.170  23.855  29.200  1.00  0.00    -0.275 OA
ENDBRANCH   9  13
ENDBRANCH   7   8
ENDBRANCH   6   7
ENDBRANCH   5   6
ENDBRANCH   3   5
ENDBRANCH   2   3
ENDBRANCH   1   2
BRANCH   1  16
ATOM     16  C   UNL A   1      40.800  20.766  26.338  1.00  0.00     0.275 C 
BRANCH  16  17
ATOM     17  O   UNL A   1      40.778  22.205  26.331  1.00  0.00    -0.458 OA
BRANCH  17  18
ATOM     18  C   UNL A   1      39.551  22.766  26.359  1.00  0.00     0.338 C 
ATOM     19  O   UNL A   1      38.492  22.254  26.028  1.00  0.00    -0.246 OA
BRANCH  18  20
ATOM     20  C   UNL A   1      39.618  24.151  26.862  1.00  0.00     0.060 A 
ATOM     21  C   UNL A   1      40.298  25.141  26.153  1.00  0.00     0.016 A 
ATOM     22  C   UNL A   1      39.135  24.415  28.146  1.00  0.00     0.016 A 
ATOM     23  C   UNL A   1      40.574  26.365  26.770  1.00  0.00     0.010 A 
ATOM     24  C   UNL A   1      39.345  25.669  28.727  1.00  0.00     0.010 A 
ATOM     25  C   UNL A   1      40.110  26.644  28.069  1.00  0.00    -0.014 A 
BRANCH  25  26
ATOM     26  C   UNL A   1      40.456  27.922  28.757  1.00  0.00     0.031 A 
ATOM     27  C   UNL A   1      41.833  28.141  29.344  1.00  0.00     0.074 A 
ATOM     28  C   UNL A   1      39.544  28.909  28.860  1.00  0.00     0.049 A 
ATOM     29  N   UNL A   1      42.271  29.139  30.072  1.00  0.00    -0.248 NA
ATOM     30  C   UNL A   1      42.850  27.112  29.075  1.00  0.00     0.031 C 
ATOM     31  C   UNL A   1      38.186  28.876  28.316  1.00  0.00     0.029 A 
ATOM     32  N   UNL A   1      39.631  30.146  29.455  1.00  0.00    -0.354 N 
ATOM     33  C   UNL A   1      43.593  28.839  30.380  1.00  0.00     0.074 A 
ATOM     34  C   UNL A   1      43.894  27.570  29.752  1.00  0.00     0.031 C 
ATOM     35  C   UNL A   1      37.586  30.051  28.558  1.00  0.00     0.029 A 
ATOM     36  C   UNL A   1      38.483  30.890  29.347  1.00  0.00     0.049 A 
ATOM     37  H   UNL A   1      40.441  30.466  29.915  1.00  0.00     0.167 HD
ATOM     38  C   UNL A   1      44.480  29.546  31.122  1.00  0.00     0.031 A 
ATOM     39  C   UNL A   1      38.160  32.094  29.853  1.00  0.00     0.031 A 
ATOM     40  C   UNL A   1      44.211  30.816  31.740  1.00  0.00     0.049 A 
ATOM     41  C   UNL A   1      39.129  32.820  30.737  1.00  0.00     0.074 A 
ATOM     42  C   UNL A   1      45.064  31.605  32.494  1.00  0.00     0.029 A 
ATOM     43  N   UNL A   1      43.000  31.482  31.678  1.00  0.00    -0.354 N 
ATOM     44  N   UNL A   1      40.355  32.492  31.059  1.00  0.00    -0.248 NA
ATOM     45  C   UNL A   1      38.654  34.067  31.353  1.00  0.00     0.031 C 
ATOM     46  C   UNL A   1      44.355  32.733  32.922  1.00  0.00     0.029 A 
ATOM     47  C   UNL A   1      43.074  32.661  32.402  1.00  0.00     0.049 A 
ATOM     48  H   UNL A   1      42.205  31.166  31.192  1.00  0.00     0.167 HD
ATOM     49  C   UNL A   1      40.795  33.484  31.924  1.00  0.00     0.074 A 
ATOM     50  C   UNL A   1      39.715  34.441  32.057  1.00  0.00     0.031 C 
ATOM     51  C   UNL A   1      41.988  33.588  32.556  1.00  0.00     0.031 A 
BRANCH  38  52
ATOM     52  C   UNL A   1      45.835  28.938  31.348  1.00  0.00    -0.014 A 
ATOM     53  C   UNL A   1      46.070  28.060  32.417  1.00  0.00     0.009 A 
ATOM     54  C   UNL A   1      46.869  29.198  30.435  1.00  0.00     0.009 A 
ATOM     55  C   UNL A   1      47.325  27.467  32.574  1.00  0.00     0.001 A 
ATOM     56  C   UNL A   1      48.116  28.591  30.587  1.00  0.00     0.001 A 
ATOM     57  C   UNL A   1      48.345  27.729  31.658  1.00  0.00     0.000 A 
ENDBRANCH  38  52
BRANCH  39  58
ATOM     58  C   UNL A   1      36.819  32.666  29.578  1.00  0.00    -0.014 A 
ATOM     59  C   UNL A   1      36.578  33.363  28.386  1.00  0.00     0.009 A 
ATOM     60  C   UNL A   1      35.771  32.494  30.495  1.00  0.00     0.009 A 
ATOM     61  C   UNL A   1      35.309  33.878  28.117  1.00  0.00     0.001 A 
ATOM     62  C   UNL A   1      34.498  32.991  30.213  1.00  0.00     0.001 A 
ATOM     63  C   UNL A   1      34.269  33.685  29.026  1.00  0.00     0.000 A 
ENDBRANCH  39  58
BRANCH  51  64
ATOM     64  C   UNL A   1      42.180  34.771  33.457  1.00  0.00    -0.014 A 
ATOM     65  C   UNL A   1      41.749  34.732  34.792  1.00  0.00     0.009 A 
ATOM     66  C   UNL A   1      42.815  35.926  32.976  1.00  0.00     0.009 A 
ATOM     67  C   UNL A   1      41.926  35.840  35.621  1.00  0.00     0.001 A 
ATOM     68  C   UNL A   1      43.006  37.026  33.813  1.00  0.00     0.001 A 
ATOM     69  C   UNL A   1      42.555  36.986  35.132  1.00  0.00     0.000 A 
ENDBRANCH  51  64
ENDBRANCH  25  26
ENDBRANCH  18  20
ENDBRANCH  17  18
ENDBRANCH  16  17
ENDBRANCH   1  16
TORSDOF 15
ENDMDL
MODEL 3
REMARK VINA RESULT:      -9.4      4.404      9.394
REMARK SMILES CC(=O)N1CCC[C@H]1COCC(=O)OCCOC(=O)c1ccc(-c2c3nc(c(-c4ccccc4)c4ccc([nH]4)c(-c4ccccc4)c4nc(c(-c5ccccc5)c5ccc2[nH]5)C=C4)C=C3)cc1
REMARK SMILES IDX 15 1 14 2 12 3 13 4 11 5 10 6 9 7 8 8 4 9 5 10 6 11 7 12
REMARK SMILES IDX 2 13 1 14 3 15 16 16 17 17 18 18 19 19 20 20 21 21 67 22
REMARK SMILES IDX 22 23 66 24 23 25 24 26 25 27 60 28 26 29 65 30 59 31 61 32
REMARK SMILES IDX 27 33 64 34 58 35 57 36 28 38 50 39 35 40 49 41 36 42 39 43
REMARK SMILES IDX 48 44 62 45 37 46 38 47 47 49 63 50 40 51 29 52 30 53 34 54
REMARK SMILES IDX 31 55 33 56 32 57 51 58 52 59 56 60 53 61 55 62 54 63 41 64
REMARK SMILES IDX 42 65 46 66 43 67 45 68 44 69
REMARK H PARENT 61 37 39 48
REMARK Flexibility Score: inf
ROOT
ATOM      1  C   UNL A   1      33.687  36.061  31.662  1.00  0.00     0.274 C 
ENDROOT
BRANCH   1   2
ATOM      2  O   UNL A   1      32.735  35.439  30.777  1.00  0.00    -0.460 OA
BRANCH   2   3
ATOM      3  C   UNL A   1      32.921  35.692  29.455  1.00  0.00     0.332 C 
ATOM      4  O   UNL A   1      32.874  36.806  28.941  1.00  0.00    -0.250 OA
BRANCH   3   5
ATOM      5  C   UNL A   1      33.242  34.441  28.635  1.00  0.00     0.282 C 
BRANCH   5   6
ATOM      6  O   UNL A   1      34.323  33.596  28.964  1.00  0.00    -0.368 OA
BRANCH   6   7
ATOM      7  C   UNL A   1      34.755  32.725  27.921  1.00  0.00     0.186 C 
BRANCH   7   8
ATOM      8  C   UNL A   1      34.613  31.194  28.165  1.00  0.00     0.111 C 
ATOM      9  N   UNL A   1      33.905  30.396  27.158  1.00  0.00    -0.338 N 
ATOM     10  C   UNL A   1      34.759  29.355  26.612  1.00  0.00     0.120 C 
ATOM     11  C   UNL A   1      35.776  29.126  27.713  1.00  0.00     0.024 C 
ATOM     12  C   UNL A   1      35.994  30.525  28.272  1.00  0.00     0.029 C 
BRANCH   9  13
ATOM     13  C   UNL A   1      32.530  30.454  27.039  1.00  0.00     0.219 C 
ATOM     14  C   UNL A   1      31.786  29.157  27.241  1.00  0.00     0.114 C 
ATOM     15  O   UNL A   1      31.924  31.499  26.812  1.00  0.00    -0.275 OA
ENDBRANCH   9  13
ENDBRANCH   7   8
ENDBRANCH   6   7
ENDBRANCH   5   6
ENDBRANCH   3   5
ENDBRANCH   2   3
ENDBRANCH   1   2
BRANCH   1  16
ATOM     16  C   UNL A   1      34.388  35.024  32.538  1.00  0.00     0.275 C 
BRANCH  16  17
ATOM     17  O   UNL A   1      35.267  34.204  31.745  1.00  0.00    -0.458 OA
BRANCH  17  18
ATOM     18  C   UNL A   1      35.832  33.164  32.394  1.00  0.00     0.338 C 
ATOM     19  O   UNL A   1      35.376  32.545  33.344  1.00  0.00    -0.246 OA
BRANCH  18  20
ATOM     20  C   UNL A   1      37.140  32.825  31.805  1.00  0.00     0.060 A 
ATOM     21  C   UNL A   1      37.441  33.159  30.484  1.00  0.00     0.016 A 
ATOM     22  C   UNL A   1      38.009  32.012  32.537  1.00  0.00     0.016 A 
ATOM     23  C   UNL A   1      38.567  32.600  29.871  1.00  0.00     0.010 A 
ATOM     24  C   UNL A   1      39.174  31.521  31.943  1.00  0.00     0.010 A 
ATOM     25  C   UNL A   1      39.444  31.765  30.587  1.00  0.00    -0.014 A 
BRANCH  25  26
ATOM     26  C   UNL A   1      40.610  31.114  29.922  1.00  0.00     0.031 A 
ATOM     27  C   UNL A   1      41.926  31.844  29.771  1.00  0.00     0.074 A 
ATOM     28  C   UNL A   1      40.511  29.856  29.449  1.00  0.00     0.049 A 
ATOM     29  N   UNL A   1      43.005  31.477  29.123  1.00  0.00    -0.248 NA
ATOM     30  C   UNL A   1      42.050  33.151  30.438  1.00  0.00     0.031 C 
ATOM     31  C   UNL A   1      39.328  28.999  29.547  1.00  0.00     0.029 A 
ATOM     32  N   UNL A   1      41.433  29.073  28.796  1.00  0.00    -0.354 N 
ATOM     33  C   UNL A   1      43.914  32.519  29.269  1.00  0.00     0.074 A 
ATOM     34  C   UNL A   1      43.268  33.532  30.076  1.00  0.00     0.031 C 
ATOM     35  C   UNL A   1      39.611  27.798  29.022  1.00  0.00     0.029 A 
ATOM     36  C   UNL A   1      40.963  27.824  28.472  1.00  0.00     0.049 A 
ATOM     37  H   UNL A   1      42.343  29.379  28.581  1.00  0.00     0.167 HD
ATOM     38  C   UNL A   1      45.171  32.632  28.774  1.00  0.00     0.031 A 
ATOM     39  C   UNL A   1      41.530  26.819  27.780  1.00  0.00     0.031 A 
ATOM     40  C   UNL A   1      45.840  31.634  27.986  1.00  0.00     0.049 A 
ATOM     41  C   UNL A   1      42.889  26.999  27.175  1.00  0.00     0.074 A 
ATOM     42  C   UNL A   1      47.123  31.667  27.461  1.00  0.00     0.029 A 
ATOM     43  N   UNL A   1      45.285  30.425  27.607  1.00  0.00    -0.354 N 
ATOM     44  N   UNL A   1      43.709  28.014  27.280  1.00  0.00    -0.248 NA
ATOM     45  C   UNL A   1      43.384  25.906  26.326  1.00  0.00     0.031 C 
ATOM     46  C   UNL A   1      47.328  30.491  26.731  1.00  0.00     0.029 A 
ATOM     47  C   UNL A   1      46.187  29.714  26.833  1.00  0.00     0.049 A 
ATOM     48  H   UNL A   1      44.382  30.116  27.851  1.00  0.00     0.167 HD
ATOM     49  C   UNL A   1      44.812  27.688  26.504  1.00  0.00     0.074 A 
ATOM     50  C   UNL A   1      44.570  26.370  25.954  1.00  0.00     0.031 C 
ATOM     51  C   UNL A   1      45.926  28.421  26.264  1.00  0.00     0.031 A 
BRANCH  38  52
ATOM     52  C   UNL A   1      45.906  33.916  29.037  1.00  0.00    -0.014 A 
ATOM     53  C   UNL A   1      45.788  35.013  28.170  1.00  0.00     0.009 A 
ATOM     54  C   UNL A   1      46.672  34.046  30.206  1.00  0.00     0.009 A 
ATOM     55  C   UNL A   1      46.439  36.213  28.465  1.00  0.00     0.001 A 
ATOM     56  C   UNL A   1      47.308  35.251  30.504  1.00  0.00     0.001 A 
ATOM     57  C   UNL A   1      47.195  36.333  29.632  1.00  0.00     0.000 A 
ENDBRANCH  38  52
BRANCH  39  58
ATOM     58  C   UNL A   1      40.774  25.559  27.572  1.00  0.00    -0.014 A 
ATOM     59  C   UNL A   1      39.667  25.532  26.713  1.00  0.00     0.009 A 
ATOM     60  C   UNL A   1      41.174  24.376  28.211  1.00  0.00     0.009 A 
ATOM     61  C   UNL A   1      38.972  24.340  26.499  1.00  0.00     0.001 A 
ATOM     62  C   UNL A   1      40.492  23.182  27.977  1.00  0.00     0.001 A 
ATOM     63  C   UNL A   1      39.391  23.165  27.124  1.00  0.00     0.000 A 
ENDBRANCH  39  58
BRANCH  51  64
ATOM     64  C   UNL A   1      46.957  27.817  25.360  1.00  0.00    -0.014 A 
ATOM     65  C   UNL A   1      46.903  28.025  23.973  1.00  0.00     0.009 A 
ATOM     66  C   UNL A   1      48.003  27.051  25.897  1.00  0.00     0.009 A 
ATOM     67  C   UNL A   1      47.864  27.454  23.138  1.00  0.00     0.001 A 
ATOM     68  C   UNL A   1      48.971  26.495  25.060  1.00  0.00     0.001 A 
ATOM     69  C   UNL A   1      48.898  26.690  23.681  1.00  0.00     0.000 A 
ENDBRANCH  51  64
ENDBRANCH  25  26
ENDBRANCH  18  20
ENDBRANCH  17  18
ENDBRANCH  16  17
ENDBRANCH   1  16
TORSDOF 15
ENDMDL
