MODEL 1
REMARK VINA RESULT:     -11.2      0.000      0.000
REMARK SMILES O=C(OCCOC(=O)c1cccn1CC(=O)N1CCc2ccccc2C1)c1ccc(-c2c3nc(c(-c4ccccc4)c4ccc([nH]4)c(-c4ccccc4)c4nc(c(-c5ccccc5)c5ccc2[nH]5)C=C4)C=C3)cc1
REMARK SMILES IDX 5 1 4 2 3 3 2 4 1 5 27 6 28 7 74 8 29 9 73 10 30 11 31 12
REMARK SMILES IDX 32 13 67 14 33 15 72 16 66 17 68 18 34 19 71 20 65 21 64 22
REMARK SMILES IDX 35 24 57 25 42 26 56 27 43 28 46 29 55 30 69 31 44 32 45 33
REMARK SMILES IDX 54 35 70 36 47 37 36 38 37 39 41 40 38 41 40 42 39 43 58 44
REMARK SMILES IDX 59 45 63 46 60 47 62 48 61 49 48 50 49 51 53 52 50 53 52 54
REMARK SMILES IDX 51 55 6 56 7 57 8 58 9 59 10 60 13 61 11 62 12 63 14 64
REMARK SMILES IDX 15 65 16 66 17 67 18 68 26 69 19 70 25 71 20 72 24 73 21 74
REMARK SMILES IDX 23 75 22 76
REMARK H PARENT 68 23 46 34
REMARK Flexibility Score: inf
ROOT
ATOM      1  C   UNL A   1      33.683  30.185  27.481  1.00  0.00     0.275 C 
ENDROOT
BRANCH   1   2
ATOM      2  C   UNL A   1      34.810  31.265  27.616  1.00  0.00     0.275 C 
BRANCH   2   3
ATOM      3  O   UNL A   1      35.542  31.453  28.814  1.00  0.00    -0.458 OA
BRANCH   3   4
ATOM      4  C   UNL A   1      36.854  31.400  28.633  1.00  0.00     0.338 C 
ATOM      5  O   UNL A   1      37.575  32.370  28.771  1.00  0.00    -0.246 OA
BRANCH   4   6
ATOM      6  C   UNL A   1      37.284  30.009  28.376  1.00  0.00     0.060 A 
ATOM      7  C   UNL A   1      37.505  29.119  29.412  1.00  0.00     0.016 A 
ATOM      8  C   UNL A   1      37.922  29.806  27.183  1.00  0.00     0.016 A 
ATOM      9  C   UNL A   1      38.653  28.336  29.363  1.00  0.00     0.010 A 
ATOM     10  C   UNL A   1      39.157  29.245  27.212  1.00  0.00     0.010 A 
ATOM     11  C   UNL A   1      39.598  28.603  28.356  1.00  0.00    -0.014 A 
BRANCH  11  12
ATOM     12  C   UNL A   1      41.264  28.296  28.399  1.00  0.00     0.031 A 
ATOM     13  C   UNL A   1      40.820  26.482  28.258  1.00  0.00     0.074 A 
ATOM     14  C   UNL A   1      42.842  29.271  28.570  1.00  0.00     0.049 A 
ATOM     15  N   UNL A   1      41.330  25.460  28.918  1.00  0.00    -0.248 NA
ATOM     16  C   UNL A   1      39.729  25.936  27.360  1.00  0.00     0.031 C 
ATOM     17  C   UNL A   1      43.329  30.893  28.759  1.00  0.00     0.029 A 
ATOM     18  N   UNL A   1      44.370  28.959  28.767  1.00  0.00    -0.354 N 
ATOM     19  C   UNL A   1      40.974  24.307  28.238  1.00  0.00     0.074 A 
ATOM     20  C   UNL A   1      39.818  24.613  27.477  1.00  0.00     0.031 C 
ATOM     21  C   UNL A   1      44.534  31.082  29.338  1.00  0.00     0.029 A 
ATOM     22  C   UNL A   1      45.182  29.833  29.521  1.00  0.00     0.049 A 
ATOM     23  H   UNL A   1      44.763  28.151  28.365  1.00  0.00     0.167 HD
ATOM     24  C   UNL A   1      41.803  23.250  28.063  1.00  0.00     0.031 A 
ATOM     25  C   UNL A   1      46.276  29.521  30.286  1.00  0.00     0.031 A 
ATOM     26  C   UNL A   1      43.074  23.359  28.705  1.00  0.00     0.049 A 
ATOM     27  C   UNL A   1      46.401  28.049  30.213  1.00  0.00     0.074 A 
ATOM     28  C   UNL A   1      43.584  23.034  29.936  1.00  0.00     0.029 A 
ATOM     29  N   UNL A   1      44.109  23.837  27.935  1.00  0.00    -0.354 N 
ATOM     30  N   UNL A   1      46.799  27.361  29.185  1.00  0.00    -0.248 NA
ATOM     31  C   UNL A   1      45.787  27.293  31.301  1.00  0.00     0.031 C 
ATOM     32  C   UNL A   1      44.969  23.337  29.884  1.00  0.00     0.029 A 
ATOM     33  C   UNL A   1      45.180  24.110  28.747  1.00  0.00     0.049 A 
ATOM     34  H   UNL A   1      44.084  23.963  26.958  1.00  0.00     0.167 HD
ATOM     35  C   UNL A   1      46.300  26.091  29.399  1.00  0.00     0.074 A 
ATOM     36  C   UNL A   1      45.755  26.089  30.750  1.00  0.00     0.031 C 
ATOM     37  C   UNL A   1      46.084  25.181  28.408  1.00  0.00     0.031 A 
BRANCH  24  38
ATOM     38  C   UNL A   1      41.703  22.176  27.021  1.00  0.00    -0.014 A 
ATOM     39  C   UNL A   1      40.657  21.248  27.194  1.00  0.00     0.009 A 
ATOM     40  C   UNL A   1      42.779  21.816  26.196  1.00  0.00     0.009 A 
ATOM     41  C   UNL A   1      40.742  19.959  26.675  1.00  0.00     0.001 A 
ATOM     42  C   UNL A   1      42.839  20.535  25.635  1.00  0.00     0.001 A 
ATOM     43  C   UNL A   1      41.843  19.598  25.909  1.00  0.00     0.000 A 
ENDBRANCH  24  38
BRANCH  25  44
ATOM     44  C   UNL A   1      47.148  30.245  31.288  1.00  0.00    -0.014 A 
ATOM     45  C   UNL A   1      48.537  30.371  31.199  1.00  0.00     0.009 A 
ATOM     46  C   UNL A   1      46.560  30.822  32.449  1.00  0.00     0.009 A 
ATOM     47  C   UNL A   1      49.277  31.074  32.179  1.00  0.00     0.001 A 
ATOM     48  C   UNL A   1      47.283  31.541  33.411  1.00  0.00     0.001 A 
ATOM     49  C   UNL A   1      48.651  31.673  33.272  1.00  0.00     0.000 A 
ENDBRANCH  25  44
BRANCH  37  50
ATOM     50  C   UNL A   1      46.505  25.602  27.017  1.00  0.00    -0.014 A 
ATOM     51  C   UNL A   1      47.799  25.347  26.545  1.00  0.00     0.009 A 
ATOM     52  C   UNL A   1      45.675  26.373  26.187  1.00  0.00     0.009 A 
ATOM     53  C   UNL A   1      48.242  25.861  25.315  1.00  0.00     0.001 A 
ATOM     54  C   UNL A   1      46.115  26.913  24.971  1.00  0.00     0.001 A 
ATOM     55  C   UNL A   1      47.406  26.656  24.534  1.00  0.00     0.000 A 
ENDBRANCH  37  50
ENDBRANCH  11  12
ENDBRANCH   4   6
ENDBRANCH   3   4
ENDBRANCH   2   3
ENDBRANCH   1   2
BRANCH   1  56
ATOM     56  O   UNL A   1      32.990  30.078  26.208  1.00  0.00    -0.457 OA
BRANCH  56  57
ATOM     57  C   UNL A   1      31.975  29.125  26.110  1.00  0.00     0.355 C 
ATOM     58  O   UNL A   1      31.492  28.521  27.057  1.00  0.00    -0.244 OA
BRANCH  57  59
ATOM     59  C   UNL A   1      31.538  28.998  24.719  1.00  0.00     0.128 A 
ATOM     60  C   UNL A   1      30.477  29.718  24.171  1.00  0.00     0.035 A 
ATOM     61  N   UNL A   1      31.992  28.113  23.705  1.00  0.00    -0.333 N 
ATOM     62  C   UNL A   1      30.363  29.396  22.808  1.00  0.00     0.020 A 
ATOM     63  C   UNL A   1      31.341  28.468  22.529  1.00  0.00     0.087 A 
BRANCH  61  64
ATOM     64  C   UNL A   1      32.859  26.874  23.817  1.00  0.00     0.222 C 
BRANCH  64  65
ATOM     65  C   UNL A   1      32.143  25.436  23.868  1.00  0.00     0.242 C 
ATOM     66  O   UNL A   1      31.307  25.182  22.983  1.00  0.00    -0.273 OA
BRANCH  65  67
ATOM     67  N   UNL A   1      32.421  24.410  24.825  1.00  0.00    -0.336 N 
ATOM     68  C   UNL A   1      31.733  23.112  24.907  1.00  0.00     0.124 C 
ATOM     69  C   UNL A   1      33.533  24.592  25.797  1.00  0.00     0.155 C 
ATOM     70  C   UNL A   1      32.511  21.775  25.221  1.00  0.00     0.057 C 
ATOM     71  C   UNL A   1      34.627  23.561  25.595  1.00  0.00    -0.025 A 
ATOM     72  C   UNL A   1      34.024  21.867  25.241  1.00  0.00    -0.041 A 
ATOM     73  C   UNL A   1      36.430  23.918  25.651  1.00  0.00     0.006 A 
ATOM     74  C   UNL A   1      35.249  20.474  24.972  1.00  0.00     0.004 A 
ATOM     75  C   UNL A   1      37.677  22.546  25.364  1.00  0.00     0.000 A 
ATOM     76  C   UNL A   1      37.077  20.817  25.005  1.00  0.00     0.000 A 
ENDBRANCH  65  67
ENDBRANCH  64  65
ENDBRANCH  61  64
ENDBRANCH  57  59
ENDBRANCH  56  57
ENDBRANCH   1  56
TORSDOF 14
ENDMDL
MODEL 2
REMARK VINA RESULT:     -11.1      3.755      8.786
REMARK SMILES O=C(OCCOC(=O)c1cccn1CC(=O)N1CCc2ccccc2C1)c1ccc(-c2c3nc(c(-c4ccccc4)c4ccc([nH]4)c(-c4ccccc4)c4nc(c(-c5ccccc5)c5ccc2[nH]5)C=C4)C=C3)cc1
REMARK SMILES IDX 5 1 4 2 3 3 2 4 1 5 27 6 28 7 74 8 29 9 73 10 30 11 31 12
REMARK SMILES IDX 32 13 67 14 33 15 72 16 66 17 68 18 34 19 71 20 65 21 64 22
REMARK SMILES IDX 35 24 57 25 42 26 56 27 43 28 46 29 55 30 69 31 44 32 45 33
REMARK SMILES IDX 54 35 70 36 47 37 36 38 37 39 41 40 38 41 40 42 39 43 58 44
REMARK SMILES IDX 59 45 63 46 60 47 62 48 61 49 48 50 49 51 53 52 50 53 52 54
REMARK SMILES IDX 51 55 6 56 7 57 8 58 9 59 10 60 13 61 11 62 12 63 14 64
REMARK SMILES IDX 15 65 16 66 17 67 18 68 26 69 19 70 25 71 20 72 24 73 21 74
REMARK SMILES IDX 23 75 22 76
REMARK H PARENT 68 23 46 34
REMARK Flexibility Score: inf
ROOT
ATOM      1  C   UNL A   1      38.173  22.401  25.432  1.00  0.00     0.275 C 
ENDROOT
BRANCH   1   2
ATOM      2  C   UNL A   1      39.460  22.022  26.240  1.00  0.00     0.275 C 
BRANCH   2   3
ATOM      3  O   UNL A   1      39.841  22.702  27.424  1.00  0.00    -0.458 OA
BRANCH   3   4
ATOM      4  C   UNL A   1      40.686  23.700  27.198  1.00  0.00     0.338 C 
ATOM      5  O   UNL A   1      41.864  23.520  26.958  1.00  0.00    -0.246 OA
BRANCH   4   6
ATOM      6  C   UNL A   1      39.963  24.989  27.162  1.00  0.00     0.060 A 
ATOM      7  C   UNL A   1      40.513  26.107  26.561  1.00  0.00     0.016 A 
ATOM      8  C   UNL A   1      39.024  25.160  28.142  1.00  0.00     0.016 A 
ATOM      9  C   UNL A   1      40.431  27.318  27.241  1.00  0.00     0.010 A 
ATOM     10  C   UNL A   1      39.130  26.253  28.938  1.00  0.00     0.010 A 
ATOM     11  C   UNL A   1      39.942  27.308  28.559  1.00  0.00    -0.014 A 
BRANCH  11  12
ATOM     12  C   UNL A   1      40.288  28.415  29.795  1.00  0.00     0.031 A 
ATOM     13  C   UNL A   1      38.995  29.522  29.013  1.00  0.00     0.074 A 
ATOM     14  C   UNL A   1      41.452  28.545  31.244  1.00  0.00     0.049 A 
ATOM     15  N   UNL A   1      39.051  30.822  28.798  1.00  0.00    -0.248 NA
ATOM     16  C   UNL A   1      37.674  29.032  28.457  1.00  0.00     0.031 C 
ATOM     17  C   UNL A   1      42.683  27.627  31.981  1.00  0.00     0.029 A 
ATOM     18  N   UNL A   1      41.873  29.645  32.285  1.00  0.00    -0.354 N 
ATOM     19  C   UNL A   1      37.760  31.258  28.552  1.00  0.00     0.074 A 
ATOM     20  C   UNL A   1      37.019  30.136  28.104  1.00  0.00     0.031 C 
ATOM     21  C   UNL A   1      43.588  28.325  32.699  1.00  0.00     0.029 A 
ATOM     22  C   UNL A   1      43.192  29.685  32.784  1.00  0.00     0.049 A 
ATOM     23  H   UNL A   1      41.213  30.309  32.591  1.00  0.00     0.167 HD
ATOM     24  C   UNL A   1      37.257  32.425  29.022  1.00  0.00     0.031 A 
ATOM     25  C   UNL A   1      43.914  30.781  33.177  1.00  0.00     0.031 A 
ATOM     26  C   UNL A   1      38.183  33.243  29.738  1.00  0.00     0.049 A 
ATOM     27  C   UNL A   1      43.039  31.944  32.912  1.00  0.00     0.074 A 
ATOM     28  C   UNL A   1      39.077  34.231  29.414  1.00  0.00     0.029 A 
ATOM     29  N   UNL A   1      38.184  33.110  31.108  1.00  0.00    -0.354 N 
ATOM     30  N   UNL A   1      41.978  32.277  33.584  1.00  0.00    -0.248 NA
ATOM     31  C   UNL A   1      43.242  32.630  31.639  1.00  0.00     0.031 C 
ATOM     32  C   UNL A   1      39.624  34.689  30.639  1.00  0.00     0.029 A 
ATOM     33  C   UNL A   1      39.274  33.765  31.618  1.00  0.00     0.049 A 
ATOM     34  H   UNL A   1      37.510  32.622  31.635  1.00  0.00     0.167 HD
ATOM     35  C   UNL A   1      41.253  33.076  32.722  1.00  0.00     0.074 A 
ATOM     36  C   UNL A   1      42.114  33.321  31.572  1.00  0.00     0.031 C 
ATOM     37  C   UNL A   1      39.909  33.278  32.818  1.00  0.00     0.031 A 
BRANCH  24  38
ATOM     38  C   UNL A   1      35.813  32.792  29.194  1.00  0.00    -0.014 A 
ATOM     39  C   UNL A   1      35.114  33.107  28.012  1.00  0.00     0.009 A 
ATOM     40  C   UNL A   1      35.283  33.233  30.416  1.00  0.00     0.009 A 
ATOM     41  C   UNL A   1      34.002  33.945  28.032  1.00  0.00     0.001 A 
ATOM     42  C   UNL A   1      34.135  34.035  30.437  1.00  0.00     0.001 A 
ATOM     43  C   UNL A   1      33.523  34.422  29.245  1.00  0.00     0.000 A 
ENDBRANCH  24  38
BRANCH  25  44
ATOM     44  C   UNL A   1      45.352  31.063  33.551  1.00  0.00    -0.014 A 
ATOM     45  C   UNL A   1      45.769  31.639  34.755  1.00  0.00     0.009 A 
ATOM     46  C   UNL A   1      46.392  30.777  32.624  1.00  0.00     0.009 A 
ATOM     47  C   UNL A   1      47.140  31.861  35.029  1.00  0.00     0.001 A 
ATOM     48  C   UNL A   1      47.754  30.971  32.897  1.00  0.00     0.001 A 
ATOM     49  C   UNL A   1      48.130  31.512  34.112  1.00  0.00     0.000 A 
ENDBRANCH  25  44
BRANCH  37  50
ATOM     50  C   UNL A   1      39.225  32.632  34.004  1.00  0.00    -0.014 A 
ATOM     51  C   UNL A   1      38.910  33.375  35.149  1.00  0.00     0.009 A 
ATOM     52  C   UNL A   1      38.989  31.250  34.068  1.00  0.00     0.009 A 
ATOM     53  C   UNL A   1      38.410  32.755  36.307  1.00  0.00     0.001 A 
ATOM     54  C   UNL A   1      38.515  30.617  35.226  1.00  0.00     0.001 A 
ATOM     55  C   UNL A   1      38.226  31.375  36.350  1.00  0.00     0.000 A 
ENDBRANCH  37  50
ENDBRANCH  11  12
ENDBRANCH   4   6
ENDBRANCH   3   4
ENDBRANCH   2   3
ENDBRANCH   1   2
BRANCH   1  56
ATOM     56  O   UNL A   1      36.987  21.580  25.614  1.00  0.00    -0.457 OA
BRANCH  56  57
ATOM     57  C   UNL A   1      35.778  22.242  25.832  1.00  0.00     0.355 C 
ATOM     58  O   UNL A   1      35.651  23.265  26.491  1.00  0.00    -0.244 OA
BRANCH  57  59
ATOM     59  C   UNL A   1      34.699  21.564  25.113  1.00  0.00     0.128 A 
ATOM     60  C   UNL A   1      34.451  20.194  25.199  1.00  0.00     0.035 A 
ATOM     61  N   UNL A   1      33.782  22.082  24.159  1.00  0.00    -0.333 N 
ATOM     62  C   UNL A   1      33.316  19.888  24.429  1.00  0.00     0.020 A 
ATOM     63  C   UNL A   1      32.883  21.064  23.859  1.00  0.00     0.087 A 
BRANCH  61  64
ATOM     64  C   UNL A   1      33.805  23.399  23.407  1.00  0.00     0.222 C 
BRANCH  64  65
ATOM     65  C   UNL A   1      32.758  24.543  23.828  1.00  0.00     0.242 C 
ATOM     66  O   UNL A   1      31.853  24.226  24.620  1.00  0.00    -0.273 OA
BRANCH  65  67
ATOM     67  N   UNL A   1      32.810  25.906  23.399  1.00  0.00    -0.336 N 
ATOM     68  C   UNL A   1      31.801  26.575  22.562  1.00  0.00     0.124 C 
ATOM     69  C   UNL A   1      33.917  26.783  23.866  1.00  0.00     0.155 C 
ATOM     70  C   UNL A   1      31.347  28.062  22.832  1.00  0.00     0.057 C 
ATOM     71  C   UNL A   1      33.404  27.928  24.719  1.00  0.00    -0.025 A 
ATOM     72  C   UNL A   1      31.856  28.699  24.110  1.00  0.00    -0.041 A 
ATOM     73  C   UNL A   1      34.198  28.523  26.266  1.00  0.00     0.006 A 
ATOM     74  C   UNL A   1      31.092  30.131  25.046  1.00  0.00     0.004 A 
ATOM     75  C   UNL A   1      33.442  29.942  27.234  1.00  0.00     0.000 A 
ATOM     76  C   UNL A   1      31.869  30.736  26.625  1.00  0.00     0.000 A 
ENDBRANCH  65  67
ENDBRANCH  64  65
ENDBRANCH  61  64
ENDBRANCH  57  59
ENDBRANCH  56  57
ENDBRANCH   1  56
TORSDOF 14
ENDMDL
MODEL 3
REMARK VINA RESULT:     -11.1      2.659      7.191
REMARK SMILES O=C(OCCOC(=O)c1cccn1CC(=O)N1CCc2ccccc2C1)c1ccc(-c2c3nc(c(-c4ccccc4)c4ccc([nH]4)c(-c4ccccc4)c4nc(c(-c5ccccc5)c5ccc2[nH]5)C=C4)C=C3)cc1
REMARK SMILES IDX 5 1 4 2 3 3 2 4 1 5 27 6 28 7 74 8 29 9 73 10 30 11 31 12
REMARK SMILES IDX 32 13 67 14 33 15 72 16 66 17 68 18 34 19 71 20 65 21 64 22
REMARK SMILES IDX 35 24 57 25 42 26 56 27 43 28 46 29 55 30 69 31 44 32 45 33
REMARK SMILES IDX 54 35 70 36 47 37 36 38 37 39 41 40 38 41 40 42 39 43 58 44
REMARK SMILES IDX 59 45 63 46 60 47 62 48 61 49 48 50 49 51 53 52 50 53 52 54
REMARK SMILES IDX 51 55 6 56 7 57 8 58 9 59 10 60 13 61 11 62 12 63 14 64
REMARK SMILES IDX 15 65 16 66 17 67 18 68 26 69 19 70 25 71 20 72 24 73 21 74
REMARK SMILES IDX 23 75 22 76
REMARK H PARENT 68 23 46 34
REMARK Flexibility Score: inf
ROOT
ATOM      1  C   UNL A   1      37.684  23.448  25.373  1.00  0.00     0.275 C 
ENDROOT
BRANCH   1   2
ATOM      2  C   UNL A   1      38.220  21.996  25.613  1.00  0.00     0.275 C 
BRANCH   2   3
ATOM      3  O   UNL A   1      39.356  21.729  26.418  1.00  0.00    -0.458 OA
BRANCH   3   4
ATOM      4  C   UNL A   1      39.954  20.588  26.105  1.00  0.00     0.338 C 
ATOM      5  O   UNL A   1      39.415  19.726  25.437  1.00  0.00    -0.246 OA
BRANCH   4   6
ATOM      6  C   UNL A   1      41.358  20.597  26.569  1.00  0.00     0.060 A 
ATOM      7  C   UNL A   1      41.671  20.667  27.915  1.00  0.00     0.016 A 
ATOM      8  C   UNL A   1      42.273  21.038  25.654  1.00  0.00     0.016 A 
ATOM      9  C   UNL A   1      42.673  21.549  28.305  1.00  0.00     0.010 A 
ATOM     10  C   UNL A   1      43.078  22.071  26.009  1.00  0.00     0.010 A 
ATOM     11  C   UNL A   1      43.195  22.430  27.341  1.00  0.00    -0.014 A 
BRANCH  11  12
ATOM     12  C   UNL A   1      43.904  23.946  27.607  1.00  0.00     0.031 A 
ATOM     13  C   UNL A   1      42.167  24.644  27.553  1.00  0.00     0.074 A 
ATOM     14  C   UNL A   1      45.617  24.651  27.804  1.00  0.00     0.049 A 
ATOM     15  N   UNL A   1      41.742  25.736  26.947  1.00  0.00    -0.248 NA
ATOM     16  C   UNL A   1      40.961  23.984  28.187  1.00  0.00     0.031 C 
ATOM     17  C   UNL A   1      47.232  24.107  27.808  1.00  0.00     0.029 A 
ATOM     18  N   UNL A   1      46.270  26.079  27.892  1.00  0.00    -0.354 N 
ATOM     19  C   UNL A   1      40.500  26.048  27.477  1.00  0.00     0.074 A 
ATOM     20  C   UNL A   1      39.964  24.850  28.013  1.00  0.00     0.031 C 
ATOM     21  C   UNL A   1      48.164  25.028  27.488  1.00  0.00     0.029 A 
ATOM     22  C   UNL A   1      47.558  26.305  27.363  1.00  0.00     0.049 A 
ATOM     23  H   UNL A   1      45.778  26.818  28.316  1.00  0.00     0.167 HD
ATOM     24  C   UNL A   1      40.094  27.311  27.749  1.00  0.00     0.031 A 
ATOM     25  C   UNL A   1      48.054  27.457  26.810  1.00  0.00     0.031 A 
ATOM     26  C   UNL A   1      41.010  28.340  27.375  1.00  0.00     0.049 A 
ATOM     27  C   UNL A   1      46.928  28.416  26.820  1.00  0.00     0.074 A 
ATOM     28  C   UNL A   1      41.237  29.092  26.251  1.00  0.00     0.029 A 
ATOM     29  N   UNL A   1      41.861  28.788  28.359  1.00  0.00    -0.354 N 
ATOM     30  N   UNL A   1      46.435  29.011  27.865  1.00  0.00    -0.248 NA
ATOM     31  C   UNL A   1      46.145  28.507  25.591  1.00  0.00     0.031 C 
ATOM     32  C   UNL A   1      42.263  30.011  26.590  1.00  0.00     0.029 A 
ATOM     33  C   UNL A   1      42.822  29.583  27.790  1.00  0.00     0.049 A 
ATOM     34  H   UNL A   1      41.790  28.572  29.318  1.00  0.00     0.167 HD
ATOM     35  C   UNL A   1      45.162  29.389  27.484  1.00  0.00     0.074 A 
ATOM     36  C   UNL A   1      45.068  29.123  26.055  1.00  0.00     0.031 C 
ATOM     37  C   UNL A   1      44.146  29.630  28.359  1.00  0.00     0.031 A 
BRANCH  24  38
ATOM     38  C   UNL A   1      39.003  27.735  28.688  1.00  0.00    -0.014 A 
ATOM     39  C   UNL A   1      38.199  28.807  28.251  1.00  0.00     0.009 A 
ATOM     40  C   UNL A   1      39.022  27.435  30.058  1.00  0.00     0.009 A 
ATOM     41  C   UNL A   1      37.545  29.635  29.159  1.00  0.00     0.001 A 
ATOM     42  C   UNL A   1      38.322  28.240  30.965  1.00  0.00     0.001 A 
ATOM     43  C   UNL A   1      37.621  29.360  30.518  1.00  0.00     0.000 A 
ENDBRANCH  24  38
BRANCH  25  44
ATOM     44  C   UNL A   1      49.296  27.850  26.041  1.00  0.00    -0.014 A 
ATOM     45  C   UNL A   1      49.744  27.233  24.870  1.00  0.00     0.009 A 
ATOM     46  C   UNL A   1      50.127  28.897  26.530  1.00  0.00     0.009 A 
ATOM     47  C   UNL A   1      50.915  27.671  24.208  1.00  0.00     0.001 A 
ATOM     48  C   UNL A   1      51.275  29.353  25.867  1.00  0.00     0.001 A 
ATOM     49  C   UNL A   1      51.668  28.740  24.694  1.00  0.00     0.000 A 
ENDBRANCH  25  44
BRANCH  37  50
ATOM     50  C   UNL A   1      44.501  29.544  29.828  1.00  0.00    -0.014 A 
ATOM     51  C   UNL A   1      44.522  28.314  30.497  1.00  0.00     0.009 A 
ATOM     52  C   UNL A   1      44.698  30.690  30.616  1.00  0.00     0.009 A 
ATOM     53  C   UNL A   1      44.707  28.242  31.888  1.00  0.00     0.001 A 
ATOM     54  C   UNL A   1      44.857  30.631  32.007  1.00  0.00     0.001 A 
ATOM     55  C   UNL A   1      44.860  29.400  32.645  1.00  0.00     0.000 A 
ENDBRANCH  37  50
ENDBRANCH  11  12
ENDBRANCH   4   6
ENDBRANCH   3   4
ENDBRANCH   2   3
ENDBRANCH   1   2
BRANCH   1  56
ATOM     56  O   UNL A   1      36.294  23.606  24.978  1.00  0.00    -0.457 OA
BRANCH  56  57
ATOM     57  C   UNL A   1      35.902  23.024  23.772  1.00  0.00     0.355 C 
ATOM     58  O   UNL A   1      36.500  23.145  22.711  1.00  0.00    -0.244 OA
BRANCH  57  59
ATOM     59  C   UNL A   1      34.705  22.207  23.974  1.00  0.00     0.128 A 
ATOM     60  C   UNL A   1      34.657  21.099  24.820  1.00  0.00     0.035 A 
ATOM     61  N   UNL A   1      33.438  22.283  23.336  1.00  0.00    -0.333 N 
ATOM     62  C   UNL A   1      33.350  20.582  24.820  1.00  0.00     0.020 A 
ATOM     63  C   UNL A   1      32.607  21.361  23.963  1.00  0.00     0.087 A 
BRANCH  61  64
ATOM     64  C   UNL A   1      33.024  23.040  22.089  1.00  0.00     0.222 C 
BRANCH  64  65
ATOM     65  C   UNL A   1      32.892  24.640  22.169  1.00  0.00     0.242 C 
ATOM     66  O   UNL A   1      33.764  25.314  21.593  1.00  0.00    -0.273 OA
BRANCH  65  67
ATOM     67  N   UNL A   1      31.830  25.349  22.812  1.00  0.00    -0.336 N 
ATOM     68  C   UNL A   1      30.842  24.757  23.728  1.00  0.00     0.124 C 
ATOM     69  C   UNL A   1      31.710  26.820  22.629  1.00  0.00     0.155 C 
ATOM     70  C   UNL A   1      30.353  25.509  25.027  1.00  0.00     0.057 C 
ATOM     71  C   UNL A   1      31.900  27.565  23.937  1.00  0.00    -0.025 A 
ATOM     72  C   UNL A   1      31.094  26.781  25.385  1.00  0.00    -0.041 A 
ATOM     73  C   UNL A   1      32.873  29.112  24.133  1.00  0.00     0.006 A 
ATOM     74  C   UNL A   1      31.227  27.579  27.076  1.00  0.00     0.004 A 
ATOM     75  C   UNL A   1      33.040  29.919  25.819  1.00  0.00     0.000 A 
ATOM     76  C   UNL A   1      32.223  29.133  27.300  1.00  0.00     0.000 A 
ENDBRANCH  65  67
ENDBRANCH  64  65
ENDBRANCH  61  64
ENDBRANCH  57  59
ENDBRANCH  56  57
ENDBRANCH   1  56
TORSDOF 14
ENDMDL
