MODEL 1
REMARK VINA RESULT:     -10.6      0.000      0.000
REMARK SMILES C[C@]([NH3+])(C(=O)N1[C@@H](C(=O)OCCOC(=O)c2ccc(-c3c4nc(c(-c5ccccc5)c5ccc([nH]5)c(-c5ccccc5)c5nc(c(-c6ccccc6)c6ccc3[nH]6)C=C5)C=C4)cc2)C[C@H]2CCCC[C@@H]21)C(F)(F)F
REMARK SMILES IDX 11 1 10 2 8 3 9 4 7 5 6 6 70 7 64 8 65 9 69 10 66 11 68 12
REMARK SMILES IDX 67 13 4 14 5 15 2 16 1 17 71 18 72 19 73 20 74 21 3 22 12 26
REMARK SMILES IDX 13 27 14 28 15 29 16 30 17 31 63 32 18 33 62 34 19 35 20 36
REMARK SMILES IDX 21 37 56 38 22 39 61 40 55 41 57 42 23 43 60 44 54 45 53 46
REMARK SMILES IDX 24 48 46 49 31 50 45 51 32 52 35 53 44 54 58 55 33 56 34 57
REMARK SMILES IDX 43 59 59 60 36 61 25 62 26 63 30 64 27 65 29 66 28 67 47 68
REMARK SMILES IDX 48 69 52 70 49 71 51 72 50 73 37 74 38 75 42 76 39 77 41 78
REMARK SMILES IDX 40 79
REMARK H PARENT 3 23 3 24 3 25 57 47 35 58
REMARK Flexibility Score: inf
ROOT
ATOM      1  C   UNL A   1      35.567  23.192  23.873  1.00  0.00     0.274 C 
ENDROOT
BRANCH   1   2
ATOM      2  O   UNL A   1      34.434  22.914  23.027  1.00  0.00    -0.461 OA
BRANCH   2   3
ATOM      3  C   UNL A   1      33.713  23.966  22.551  1.00  0.00     0.329 C 
ATOM      4  O   UNL A   1      33.294  24.036  21.401  1.00  0.00    -0.250 OA
BRANCH   3   5
ATOM      5  C   UNL A   1      33.461  25.055  23.633  1.00  0.00     0.196 C 
ATOM      6  N   UNL A   1      32.053  24.998  24.081  1.00  0.00    -0.320 N 
ATOM      7  C   UNL A   1      31.326  26.092  23.470  1.00  0.00     0.089 C 
ATOM      8  C   UNL A   1      33.652  26.501  23.113  1.00  0.00     0.043 C 
ATOM      9  C   UNL A   1      32.377  27.203  23.551  1.00  0.00     0.014 C 
ATOM     10  C   UNL A   1      30.044  26.594  24.126  1.00  0.00     0.025 C 
ATOM     11  C   UNL A   1      31.959  28.422  22.753  1.00  0.00     0.006 C 
ATOM     12  C   UNL A   1      29.558  27.858  23.404  1.00  0.00     0.002 C 
ATOM     13  C   UNL A   1      30.632  28.948  23.307  1.00  0.00     0.000 C 
BRANCH   6  14
ATOM     14  C   UNL A   1      31.431  23.937  24.722  1.00  0.00     0.294 C 
ATOM     15  O   UNL A   1      30.653  23.223  24.085  1.00  0.00    -0.267 OA
BRANCH  14  16
ATOM     16  C   UNL A   1      31.496  23.849  26.270  1.00  0.00     0.267 C 
ATOM     17  C   UNL A   1      30.283  23.016  26.730  1.00  0.00     0.100 C 
BRANCH  16  18
ATOM     18  C   UNL A   1      32.792  23.076  26.638  1.00  0.00     0.453 C 
ATOM     19  F   UNL A   1      32.714  22.460  27.838  1.00  0.00    -0.164 F 
ATOM     20  F   UNL A   1      32.984  22.081  25.721  1.00  0.00    -0.164 F 
ATOM     21  F   UNL A   1      33.908  23.834  26.607  1.00  0.00    -0.164 F 
ENDBRANCH  16  18
BRANCH  16  22
ATOM     22  N   UNL A   1      31.385  25.192  26.946  1.00  0.00    -0.337 N 
ATOM     23  H   UNL A   1      32.094  25.265  27.674  1.00  0.00     0.345 HD
ATOM     24  H   UNL A   1      30.458  25.288  27.362  1.00  0.00     0.345 HD
ATOM     25  H   UNL A   1      31.526  25.932  26.257  1.00  0.00     0.345 HD
ENDBRANCH  16  22
ENDBRANCH  14  16
ENDBRANCH   6  14
ENDBRANCH   3   5
ENDBRANCH   2   3
ENDBRANCH   1   2
BRANCH   1  26
ATOM     26  C   UNL A   1      36.156  21.884  24.406  1.00  0.00     0.275 C 
BRANCH  26  27
ATOM     27  O   UNL A   1      36.755  22.079  25.702  1.00  0.00    -0.458 OA
BRANCH  27  28
ATOM     28  C   UNL A   1      38.043  21.678  25.797  1.00  0.00     0.338 C 
ATOM     29  O   UNL A   1      38.537  20.646  25.376  1.00  0.00    -0.246 OA
BRANCH  28  30
ATOM     30  C   UNL A   1      38.860  22.782  26.318  1.00  0.00     0.060 A 
ATOM     31  C   UNL A   1      38.365  24.069  26.126  1.00  0.00     0.016 A 
ATOM     32  C   UNL A   1      40.114  22.588  26.896  1.00  0.00     0.016 A 
ATOM     33  C   UNL A   1      39.116  25.178  26.484  1.00  0.00     0.010 A 
ATOM     34  C   UNL A   1      40.869  23.707  27.276  1.00  0.00     0.010 A 
ATOM     35  C   UNL A   1      40.376  25.008  27.063  1.00  0.00    -0.014 A 
BRANCH  35  36
ATOM     36  C   UNL A   1      41.178  26.214  27.369  1.00  0.00     0.031 A 
ATOM     37  C   UNL A   1      40.660  27.223  28.351  1.00  0.00     0.074 A 
ATOM     38  C   UNL A   1      42.414  26.350  26.852  1.00  0.00     0.049 A 
ATOM     39  N   UNL A   1      41.175  28.373  28.702  1.00  0.00    -0.248 NA
ATOM     40  C   UNL A   1      39.406  26.884  29.044  1.00  0.00     0.031 C 
ATOM     41  C   UNL A   1      43.080  25.382  25.979  1.00  0.00     0.029 A 
ATOM     42  N   UNL A   1      43.338  27.350  27.010  1.00  0.00    -0.354 N 
ATOM     43  C   UNL A   1      40.297  28.910  29.632  1.00  0.00     0.074 A 
ATOM     44  C   UNL A   1      39.215  27.962  29.793  1.00  0.00     0.031 C 
ATOM     45  C   UNL A   1      44.316  25.825  25.697  1.00  0.00     0.029 A 
ATOM     46  C   UNL A   1      44.501  27.137  26.311  1.00  0.00     0.049 A 
ATOM     47  H   UNL A   1      43.184  28.146  27.570  1.00  0.00     0.167 HD
ATOM     48  C   UNL A   1      40.381  30.092  30.287  1.00  0.00     0.031 A 
ATOM     49  C   UNL A   1      45.579  27.927  26.151  1.00  0.00     0.031 A 
ATOM     50  C   UNL A   1      41.454  31.035  30.124  1.00  0.00     0.049 A 
ATOM     51  C   UNL A   1      45.599  29.281  26.801  1.00  0.00     0.074 A 
ATOM     52  C   UNL A   1      41.600  32.285  30.699  1.00  0.00     0.029 A 
ATOM     53  N   UNL A   1      42.571  30.823  29.333  1.00  0.00    -0.354 N 
ATOM     54  N   UNL A   1      44.716  29.823  27.606  1.00  0.00    -0.248 NA
ATOM     55  C   UNL A   1      46.753  30.140  26.504  1.00  0.00     0.031 C 
ATOM     56  C   UNL A   1      42.793  32.846  30.226  1.00  0.00     0.029 A 
ATOM     57  C   UNL A   1      43.407  31.925  29.393  1.00  0.00     0.049 A 
ATOM     58  H   UNL A   1      42.744  30.011  28.804  1.00  0.00     0.167 HD
ATOM     59  C   UNL A   1      45.213  31.080  27.919  1.00  0.00     0.074 A 
ATOM     60  C   UNL A   1      46.482  31.215  27.234  1.00  0.00     0.031 C 
ATOM     61  C   UNL A   1      44.664  32.042  28.701  1.00  0.00     0.031 A 
BRANCH  48  62
ATOM     62  C   UNL A   1      39.244  30.451  31.198  1.00  0.00    -0.014 A 
ATOM     63  C   UNL A   1      39.264  30.113  32.560  1.00  0.00     0.009 A 
ATOM     64  C   UNL A   1      38.140  31.150  30.684  1.00  0.00     0.009 A 
ATOM     65  C   UNL A   1      38.187  30.447  33.383  1.00  0.00     0.001 A 
ATOM     66  C   UNL A   1      37.076  31.501  31.515  1.00  0.00     0.001 A 
ATOM     67  C   UNL A   1      37.096  31.142  32.862  1.00  0.00     0.000 A 
ENDBRANCH  48  62
BRANCH  49  68
ATOM     68  C   UNL A   1      46.704  27.483  25.288  1.00  0.00    -0.014 A 
ATOM     69  C   UNL A   1      46.780  27.886  23.947  1.00  0.00     0.009 A 
ATOM     70  C   UNL A   1      47.706  26.647  25.805  1.00  0.00     0.009 A 
ATOM     71  C   UNL A   1      47.831  27.447  23.138  1.00  0.00     0.001 A 
ATOM     72  C   UNL A   1      48.768  26.231  25.001  1.00  0.00     0.001 A 
ATOM     73  C   UNL A   1      48.826  26.626  23.666  1.00  0.00     0.000 A 
ENDBRANCH  49  68
BRANCH  61  74
ATOM     74  C   UNL A   1      45.446  33.310  28.874  1.00  0.00    -0.014 A 
ATOM     75  C   UNL A   1      46.403  33.438  29.892  1.00  0.00     0.009 A 
ATOM     76  C   UNL A   1      45.250  34.376  27.983  1.00  0.00     0.009 A 
ATOM     77  C   UNL A   1      47.131  34.621  30.029  1.00  0.00     0.001 A 
ATOM     78  C   UNL A   1      45.994  35.549  28.109  1.00  0.00     0.001 A 
ATOM     79  C   UNL A   1      46.929  35.673  29.136  1.00  0.00     0.000 A 
ENDBRANCH  61  74
ENDBRANCH  35  36
ENDBRANCH  28  30
ENDBRANCH  27  28
ENDBRANCH  26  27
ENDBRANCH   1  26
TORSDOF 15
ENDMDL
MODEL 2
REMARK VINA RESULT:     -10.6      3.272      6.651
REMARK SMILES C[C@]([NH3+])(C(=O)N1[C@@H](C(=O)OCCOC(=O)c2ccc(-c3c4nc(c(-c5ccccc5)c5ccc([nH]5)c(-c5ccccc5)c5nc(c(-c6ccccc6)c6ccc3[nH]6)C=C5)C=C4)cc2)C[C@H]2CCCC[C@@H]21)C(F)(F)F
REMARK SMILES IDX 11 1 10 2 8 3 9 4 7 5 6 6 70 7 64 8 65 9 69 10 66 11 68 12
REMARK SMILES IDX 67 13 4 14 5 15 2 16 1 17 71 18 72 19 73 20 74 21 3 22 12 26
REMARK SMILES IDX 13 27 14 28 15 29 16 30 17 31 63 32 18 33 62 34 19 35 20 36
REMARK SMILES IDX 21 37 56 38 22 39 61 40 55 41 57 42 23 43 60 44 54 45 53 46
REMARK SMILES IDX 24 48 46 49 31 50 45 51 32 52 35 53 44 54 58 55 33 56 34 57
REMARK SMILES IDX 43 59 59 60 36 61 25 62 26 63 30 64 27 65 29 66 28 67 47 68
REMARK SMILES IDX 48 69 52 70 49 71 51 72 50 73 37 74 38 75 42 76 39 77 41 78
REMARK SMILES IDX 40 79
REMARK H PARENT 3 23 3 24 3 25 57 47 35 58
REMARK Flexibility Score: inf
ROOT
ATOM      1  C   UNL A   1      38.064  20.944  25.358  1.00  0.00     0.274 C 
ENDROOT
BRANCH   1   2
ATOM      2  O   UNL A   1      37.154  20.980  24.242  1.00  0.00    -0.461 OA
BRANCH   2   3
ATOM      3  C   UNL A   1      36.054  21.777  24.333  1.00  0.00     0.329 C 
ATOM      4  O   UNL A   1      35.807  22.684  23.547  1.00  0.00    -0.250 OA
BRANCH   3   5
ATOM      5  C   UNL A   1      35.137  21.394  25.530  1.00  0.00     0.196 C 
ATOM      6  N   UNL A   1      33.803  20.995  25.030  1.00  0.00    -0.320 N 
ATOM      7  C   UNL A   1      32.876  22.084  25.263  1.00  0.00     0.089 C 
ATOM      8  C   UNL A   1      34.861  22.568  26.500  1.00  0.00     0.043 C 
ATOM      9  C   UNL A   1      33.348  22.559  26.641  1.00  0.00     0.014 C 
ATOM     10  C   UNL A   1      31.382  21.786  25.343  1.00  0.00     0.025 C 
ATOM     11  C   UNL A   1      32.689  23.868  27.031  1.00  0.00     0.006 C 
ATOM     12  C   UNL A   1      30.627  23.052  25.770  1.00  0.00     0.002 C 
ATOM     13  C   UNL A   1      31.171  23.671  27.063  1.00  0.00     0.000 C 
BRANCH   6  14
ATOM     14  C   UNL A   1      33.516  19.915  24.209  1.00  0.00     0.294 C 
ATOM     15  O   UNL A   1      33.179  20.122  23.041  1.00  0.00    -0.267 OA
BRANCH  14  16
ATOM     16  C   UNL A   1      33.341  18.511  24.844  1.00  0.00     0.267 C 
ATOM     17  C   UNL A   1      32.113  17.859  24.180  1.00  0.00     0.100 C 
BRANCH  16  18
ATOM     18  C   UNL A   1      34.600  17.675  24.479  1.00  0.00     0.453 C 
ATOM     19  F   UNL A   1      35.753  18.340  24.700  1.00  0.00    -0.164 F 
ATOM     20  F   UNL A   1      34.643  16.574  25.288  1.00  0.00    -0.164 F 
ATOM     21  F   UNL A   1      34.597  17.209  23.213  1.00  0.00    -0.164 F 
ENDBRANCH  16  18
BRANCH  16  22
ATOM     22  N   UNL A   1      33.062  18.560  26.325  1.00  0.00    -0.337 N 
ATOM     23  H   UNL A   1      33.351  19.465  26.695  1.00  0.00     0.345 HD
ATOM     24  H   UNL A   1      33.583  17.819  26.794  1.00  0.00     0.345 HD
ATOM     25  H   UNL A   1      32.063  18.429  26.487  1.00  0.00     0.345 HD
ENDBRANCH  16  22
ENDBRANCH  14  16
ENDBRANCH   6  14
ENDBRANCH   3   5
ENDBRANCH   2   3
ENDBRANCH   1   2
BRANCH   1  26
ATOM     26  C   UNL A   1      39.017  19.755  25.220  1.00  0.00     0.275 C 
BRANCH  26  27
ATOM     27  O   UNL A   1      39.866  19.637  26.378  1.00  0.00    -0.458 OA
BRANCH  27  28
ATOM     28  C   UNL A   1      41.191  19.738  26.122  1.00  0.00     0.338 C 
ATOM     29  O   UNL A   1      41.885  18.979  25.469  1.00  0.00    -0.246 OA
BRANCH  28  30
ATOM     30  C   UNL A   1      41.678  21.045  26.583  1.00  0.00     0.060 A 
ATOM     31  C   UNL A   1      41.618  21.286  27.953  1.00  0.00     0.016 A 
ATOM     32  C   UNL A   1      42.095  22.047  25.709  1.00  0.00     0.016 A 
ATOM     33  C   UNL A   1      41.951  22.528  28.470  1.00  0.00     0.010 A 
ATOM     34  C   UNL A   1      42.450  23.300  26.230  1.00  0.00     0.010 A 
ATOM     35  C   UNL A   1      42.370  23.548  27.613  1.00  0.00    -0.014 A 
BRANCH  35  36
ATOM     36  C   UNL A   1      42.651  24.882  28.191  1.00  0.00     0.031 A 
ATOM     37  C   UNL A   1      44.062  25.265  28.528  1.00  0.00     0.074 A 
ATOM     38  C   UNL A   1      41.661  25.786  28.311  1.00  0.00     0.049 A 
ATOM     39  N   UNL A   1      44.507  26.351  29.104  1.00  0.00    -0.248 NA
ATOM     40  C   UNL A   1      45.113  24.305  28.153  1.00  0.00     0.031 C 
ATOM     41  C   UNL A   1      40.269  25.579  27.908  1.00  0.00     0.029 A 
ATOM     42  N   UNL A   1      41.684  27.072  28.787  1.00  0.00    -0.354 N 
ATOM     43  C   UNL A   1      45.883  26.196  29.187  1.00  0.00     0.074 A 
ATOM     44  C   UNL A   1      46.203  24.911  28.604  1.00  0.00     0.031 C 
ATOM     45  C   UNL A   1      39.577  26.708  28.131  1.00  0.00     0.029 A 
ATOM     46  C   UNL A   1      40.457  27.689  28.756  1.00  0.00     0.049 A 
ATOM     47  H   UNL A   1      42.501  27.512  29.118  1.00  0.00     0.167 HD
ATOM     48  C   UNL A   1      46.798  27.046  29.710  1.00  0.00     0.031 A 
ATOM     49  C   UNL A   1      40.078  28.896  29.217  1.00  0.00     0.031 A 
ATOM     50  C   UNL A   1      46.479  28.322  30.293  1.00  0.00     0.049 A 
ATOM     51  C   UNL A   1      41.092  29.775  29.892  1.00  0.00     0.074 A 
ATOM     52  C   UNL A   1      47.328  29.230  30.901  1.00  0.00     0.029 A 
ATOM     53  N   UNL A   1      45.209  28.874  30.328  1.00  0.00    -0.354 N 
ATOM     54  N   UNL A   1      42.379  29.579  30.053  1.00  0.00    -0.248 NA
ATOM     55  C   UNL A   1      40.596  31.033  30.468  1.00  0.00     0.031 C 
ATOM     56  C   UNL A   1      46.563  30.318  31.338  1.00  0.00     0.029 A 
ATOM     57  C   UNL A   1      45.247  30.105  30.959  1.00  0.00     0.049 A 
ATOM     58  H   UNL A   1      44.399  28.452  29.961  1.00  0.00     0.167 HD
ATOM     59  C   UNL A   1      42.848  30.690  30.738  1.00  0.00     0.074 A 
ATOM     60  C   UNL A   1      41.713  31.567  30.947  1.00  0.00     0.031 C 
ATOM     61  C   UNL A   1      44.106  30.960  31.162  1.00  0.00     0.031 A 
BRANCH  48  62
ATOM     62  C   UNL A   1      48.227  26.589  29.725  1.00  0.00    -0.014 A 
ATOM     63  C   UNL A   1      48.728  25.794  30.768  1.00  0.00     0.009 A 
ATOM     64  C   UNL A   1      49.080  26.950  28.671  1.00  0.00     0.009 A 
ATOM     65  C   UNL A   1      50.065  25.392  30.766  1.00  0.00     0.001 A 
ATOM     66  C   UNL A   1      50.410  26.528  28.661  1.00  0.00     0.001 A 
ATOM     67  C   UNL A   1      50.904  25.757  29.712  1.00  0.00     0.000 A 
ENDBRANCH  48  62
BRANCH  49  68
ATOM     68  C   UNL A   1      38.658  29.319  29.110  1.00  0.00    -0.014 A 
ATOM     69  C   UNL A   1      38.181  29.938  27.946  1.00  0.00     0.009 A 
ATOM     70  C   UNL A   1      37.775  29.109  30.181  1.00  0.00     0.009 A 
ATOM     71  C   UNL A   1      36.848  30.350  27.863  1.00  0.00     0.001 A 
ATOM     72  C   UNL A   1      36.438  29.499  30.085  1.00  0.00     0.001 A 
ATOM     73  C   UNL A   1      35.977  30.125  28.929  1.00  0.00     0.000 A 
ENDBRANCH  49  68
BRANCH  61  74
ATOM     74  C   UNL A   1      44.324  32.264  31.870  1.00  0.00    -0.014 A 
ATOM     75  C   UNL A   1      44.303  32.340  33.271  1.00  0.00     0.009 A 
ATOM     76  C   UNL A   1      44.592  33.424  31.127  1.00  0.00     0.009 A 
ATOM     77  C   UNL A   1      44.522  33.560  33.913  1.00  0.00     0.001 A 
ATOM     78  C   UNL A   1      44.832  34.637  31.773  1.00  0.00     0.001 A 
ATOM     79  C   UNL A   1      44.790  34.705  33.164  1.00  0.00     0.000 A 
ENDBRANCH  61  74
ENDBRANCH  35  36
ENDBRANCH  28  30
ENDBRANCH  27  28
ENDBRANCH  26  27
ENDBRANCH   1  26
TORSDOF 15
ENDMDL
MODEL 3
REMARK VINA RESULT:     -10.4      4.854      7.743
REMARK SMILES C[C@]([NH3+])(C(=O)N1[C@@H](C(=O)OCCOC(=O)c2ccc(-c3c4nc(c(-c5ccccc5)c5ccc([nH]5)c(-c5ccccc5)c5nc(c(-c6ccccc6)c6ccc3[nH]6)C=C5)C=C4)cc2)C[C@H]2CCCC[C@@H]21)C(F)(F)F
REMARK SMILES IDX 11 1 10 2 8 3 9 4 7 5 6 6 70 7 64 8 65 9 69 10 66 11 68 12
REMARK SMILES IDX 67 13 4 14 5 15 2 16 1 17 71 18 72 19 73 20 74 21 3 22 12 26
REMARK SMILES IDX 13 27 14 28 15 29 16 30 17 31 63 32 18 33 62 34 19 35 20 36
REMARK SMILES IDX 21 37 56 38 22 39 61 40 55 41 57 42 23 43 60 44 54 45 53 46
REMARK SMILES IDX 24 48 46 49 31 50 45 51 32 52 35 53 44 54 58 55 33 56 34 57
REMARK SMILES IDX 43 59 59 60 36 61 25 62 26 63 30 64 27 65 29 66 28 67 47 68
REMARK SMILES IDX 48 69 52 70 49 71 51 72 50 73 37 74 38 75 42 76 39 77 41 78
REMARK SMILES IDX 40 79
REMARK H PARENT 3 23 3 24 3 25 57 47 35 58
REMARK Flexibility Score: inf
ROOT
ATOM      1  C   UNL A   1      32.262  31.664  27.188  1.00  0.00     0.274 C 
ENDROOT
BRANCH   1   2
ATOM      2  O   UNL A   1      31.399  31.078  26.194  1.00  0.00    -0.461 OA
BRANCH   2   3
ATOM      3  C   UNL A   1      31.639  29.796  25.807  1.00  0.00     0.329 C 
ATOM      4  O   UNL A   1      31.560  28.833  26.562  1.00  0.00    -0.250 OA
BRANCH   3   5
ATOM      5  C   UNL A   1      32.004  29.686  24.299  1.00  0.00     0.196 C 
ATOM      6  N   UNL A   1      30.969  28.902  23.590  1.00  0.00    -0.320 N 
ATOM      7  C   UNL A   1      31.484  27.572  23.340  1.00  0.00     0.089 C 
ATOM      8  C   UNL A   1      33.326  28.925  24.034  1.00  0.00     0.043 C 
ATOM      9  C   UNL A   1      32.936  27.900  22.981  1.00  0.00     0.014 C 
ATOM     10  C   UNL A   1      30.886  26.741  22.209  1.00  0.00     0.025 C 
ATOM     11  C   UNL A   1      33.785  26.647  22.900  1.00  0.00     0.006 C 
ATOM     12  C   UNL A   1      31.705  25.457  22.024  1.00  0.00     0.002 C 
ATOM     13  C   UNL A   1      33.203  25.720  21.829  1.00  0.00     0.000 C 
BRANCH   6  14
ATOM     14  C   UNL A   1      29.631  29.239  23.445  1.00  0.00     0.294 C 
ATOM     15  O   UNL A   1      28.774  28.550  24.005  1.00  0.00    -0.267 OA
BRANCH  14  16
ATOM     16  C   UNL A   1      29.227  30.275  22.364  1.00  0.00     0.267 C 
ATOM     17  C   UNL A   1      27.967  29.734  21.661  1.00  0.00     0.100 C 
BRANCH  16  18
ATOM     18  C   UNL A   1      28.853  31.592  23.099  1.00  0.00     0.453 C 
ATOM     19  F   UNL A   1      29.169  32.697  22.391  1.00  0.00    -0.164 F 
ATOM     20  F   UNL A   1      27.497  31.631  23.265  1.00  0.00    -0.164 F 
ATOM     21  F   UNL A   1      29.384  31.698  24.336  1.00  0.00    -0.164 F 
ENDBRANCH  16  18
BRANCH  16  22
ATOM     22  N   UNL A   1      30.278  30.460  21.298  1.00  0.00    -0.337 N 
ATOM     23  H   UNL A   1      31.196  30.530  21.735  1.00  0.00     0.345 HD
ATOM     24  H   UNL A   1      30.084  31.314  20.775  1.00  0.00     0.345 HD
ATOM     25  H   UNL A   1      30.262  29.661  20.664  1.00  0.00     0.345 HD
ENDBRANCH  16  22
ENDBRANCH  14  16
ENDBRANCH   6  14
ENDBRANCH   3   5
ENDBRANCH   2   3
ENDBRANCH   1   2
BRANCH   1  26
ATOM     26  C   UNL A   1      32.285  33.186  27.030  1.00  0.00     0.275 C 
BRANCH  26  27
ATOM     27  O   UNL A   1      32.185  33.838  28.312  1.00  0.00    -0.458 OA
BRANCH  27  28
ATOM     28  C   UNL A   1      33.176  34.720  28.578  1.00  0.00     0.338 C 
ATOM     29  O   UNL A   1      33.081  35.924  28.741  1.00  0.00    -0.246 OA
BRANCH  28  30
ATOM     30  C   UNL A   1      34.418  33.987  28.860  1.00  0.00     0.060 A 
ATOM     31  C   UNL A   1      34.402  33.134  29.961  1.00  0.00     0.016 A 
ATOM     32  C   UNL A   1      35.593  34.184  28.138  1.00  0.00     0.016 A 
ATOM     33  C   UNL A   1      35.556  32.485  30.371  1.00  0.00     0.010 A 
ATOM     34  C   UNL A   1      36.759  33.516  28.540  1.00  0.00     0.010 A 
ATOM     35  C   UNL A   1      36.747  32.670  29.664  1.00  0.00    -0.014 A 
BRANCH  35  36
ATOM     36  C   UNL A   1      37.974  32.016  30.171  1.00  0.00     0.031 A 
ATOM     37  C   UNL A   1      38.706  32.610  31.338  1.00  0.00     0.074 A 
ATOM     38  C   UNL A   1      38.370  30.836  29.658  1.00  0.00     0.049 A 
ATOM     39  N   UNL A   1      39.832  32.231  31.885  1.00  0.00    -0.248 NA
ATOM     40  C   UNL A   1      38.080  33.773  31.987  1.00  0.00     0.031 C 
ATOM     41  C   UNL A   1      37.677  30.095  28.602  1.00  0.00     0.029 A 
ATOM     42  N   UNL A   1      39.441  30.042  29.978  1.00  0.00    -0.354 N 
ATOM     43  C   UNL A   1      40.066  33.124  32.922  1.00  0.00     0.074 A 
ATOM     44  C   UNL A   1      38.966  34.065  32.930  1.00  0.00     0.031 C 
ATOM     45  C   UNL A   1      38.329  28.943  28.378  1.00  0.00     0.029 A 
ATOM     46  C   UNL A   1      39.519  28.898  29.222  1.00  0.00     0.049 A 
ATOM     47  H   UNL A   1      40.092  30.269  30.681  1.00  0.00     0.167 HD
ATOM     48  C   UNL A   1      41.108  33.160  33.785  1.00  0.00     0.031 A 
ATOM     49  C   UNL A   1      40.464  27.940  29.186  1.00  0.00     0.031 A 
ATOM     50  C   UNL A   1      42.203  32.228  33.775  1.00  0.00     0.049 A 
ATOM     51  C   UNL A   1      41.667  28.063  30.078  1.00  0.00     0.074 A 
ATOM     52  C   UNL A   1      43.334  32.215  34.571  1.00  0.00     0.029 A 
ATOM     53  N   UNL A   1      42.294  31.134  32.930  1.00  0.00    -0.354 N 
ATOM     54  N   UNL A   1      41.927  28.966  30.993  1.00  0.00    -0.248 NA
ATOM     55  C   UNL A   1      42.715  27.045  29.919  1.00  0.00     0.031 C 
ATOM     56  C   UNL A   1      44.130  31.130  34.182  1.00  0.00     0.029 A 
ATOM     57  C   UNL A   1      43.468  30.444  33.175  1.00  0.00     0.049 A 
ATOM     58  H   UNL A   1      41.623  30.883  32.254  1.00  0.00     0.167 HD
ATOM     59  C   UNL A   1      43.162  28.621  31.523  1.00  0.00     0.074 A 
ATOM     60  C   UNL A   1      43.591  27.416  30.844  1.00  0.00     0.031 C 
ATOM     61  C   UNL A   1      43.880  29.250  32.485  1.00  0.00     0.031 A 
BRANCH  48  62
ATOM     62  C   UNL A   1      41.136  34.287  34.775  1.00  0.00    -0.014 A 
ATOM     63  C   UNL A   1      40.569  34.152  36.052  1.00  0.00     0.009 A 
ATOM     64  C   UNL A   1      41.753  35.499  34.427  1.00  0.00     0.009 A 
ATOM     65  C   UNL A   1      40.597  35.220  36.950  1.00  0.00     0.001 A 
ATOM     66  C   UNL A   1      41.798  36.557  35.335  1.00  0.00     0.001 A 
ATOM     67  C   UNL A   1      41.213  36.420  36.593  1.00  0.00     0.000 A 
ENDBRANCH  48  62
BRANCH  49  68
ATOM     68  C   UNL A   1      40.343  26.812  28.227  1.00  0.00    -0.014 A 
ATOM     69  C   UNL A   1      39.652  25.644  28.580  1.00  0.00     0.009 A 
ATOM     70  C   UNL A   1      40.927  26.899  26.954  1.00  0.00     0.009 A 
ATOM     71  C   UNL A   1      39.560  24.580  27.678  1.00  0.00     0.001 A 
ATOM     72  C   UNL A   1      40.813  25.844  26.047  1.00  0.00     0.001 A 
ATOM     73  C   UNL A   1      40.135  24.683  26.412  1.00  0.00     0.000 A 
ENDBRANCH  49  68
BRANCH  61  74
ATOM     74  C   UNL A   1      45.190  28.631  32.874  1.00  0.00    -0.014 A 
ATOM     75  C   UNL A   1      45.257  27.635  33.861  1.00  0.00     0.009 A 
ATOM     76  C   UNL A   1      46.367  29.021  32.217  1.00  0.00     0.009 A 
ATOM     77  C   UNL A   1      46.483  27.060  34.199  1.00  0.00     0.001 A 
ATOM     78  C   UNL A   1      47.588  28.429  32.542  1.00  0.00     0.001 A 
ATOM     79  C   UNL A   1      47.645  27.455  33.538  1.00  0.00     0.000 A 
ENDBRANCH  61  74
ENDBRANCH  35  36
ENDBRANCH  28  30
ENDBRANCH  27  28
ENDBRANCH  26  27
ENDBRANCH   1  26
TORSDOF 15
ENDMDL
