MODEL 1
REMARK VINA RESULT:      -9.6      0.000      0.000
REMARK SMILES CC(C)([NH2+]C[C@@H]1COc2ccccc21)C(=O)OCCOC(=O)c1ccc(-c2c3nc(c(-c4ccccc4)c4ccc([nH]4)c(-c4ccccc4)c4nc(c(-c5ccccc5)c5ccc2[nH]5)C=C4)C=C3)cc1
REMARK SMILES IDX 18 1 17 2 15 3 16 4 2 5 1 6 3 7 4 8 5 11 6 12 7 13 14 14
REMARK SMILES IDX 8 15 9 16 13 17 10 18 12 19 11 20 19 21 20 22 21 23 22 24
REMARK SMILES IDX 23 25 24 26 70 27 25 28 69 29 26 30 27 31 28 32 63 33 29 34
REMARK SMILES IDX 68 35 62 36 64 37 30 38 67 39 61 40 60 41 31 43 53 44 38 45
REMARK SMILES IDX 52 46 39 47 42 48 51 49 65 50 40 51 41 52 50 54 66 55 43 56
REMARK SMILES IDX 32 57 33 58 37 59 34 60 36 61 35 62 54 63 55 64 59 65 56 66
REMARK SMILES IDX 58 67 57 68 44 69 45 70 49 71 46 72 48 73 47 74
REMARK H PARENT 4 9 4 10 64 42 42 53
REMARK Flexibility Score: inf
ROOT
ATOM      1  C   UNL A   1      33.980  34.486  28.634  1.00  0.00     0.274 C 
ENDROOT
BRANCH   1   2
ATOM      2  O   UNL A   1      33.181  34.640  29.827  1.00  0.00    -0.457 OA
BRANCH   2   3
ATOM      3  C   UNL A   1      33.076  35.896  30.333  1.00  0.00     0.367 C 
ATOM      4  O   UNL A   1      32.570  36.830  29.711  1.00  0.00    -0.245 OA
BRANCH   3   5
ATOM      5  C   UNL A   1      33.630  36.083  31.770  1.00  0.00     0.188 C 
ATOM      6  C   UNL A   1      32.749  35.255  32.732  1.00  0.00     0.092 C 
ATOM      7  C   UNL A   1      33.409  37.552  32.154  1.00  0.00     0.092 C 
BRANCH   5   8
ATOM      8  N   UNL A   1      34.989  35.572  32.060  1.00  0.00    -0.332 N 
ATOM      9  H   UNL A   1      35.377  36.207  32.758  1.00  0.00     0.347 HD
ATOM     10  H   UNL A   1      35.376  35.520  31.118  1.00  0.00     0.347 HD
BRANCH   8  11
ATOM     11  C   UNL A   1      35.280  34.230  32.547  1.00  0.00     0.273 C 
BRANCH  11  12
ATOM     12  C   UNL A   1      36.712  33.683  32.649  1.00  0.00     0.116 C 
ATOM     13  C   UNL A   1      37.628  34.354  33.682  1.00  0.00     0.244 C 
ATOM     14  C   UNL A   1      37.544  33.796  31.429  1.00  0.00     0.006 A 
ATOM     15  O   UNL A   1      38.915  34.652  33.082  1.00  0.00    -0.492 OA
ATOM     16  C   UNL A   1      38.770  34.349  31.756  1.00  0.00     0.123 A 
ATOM     17  C   UNL A   1      37.257  33.416  30.128  1.00  0.00     0.008 A 
ATOM     18  C   UNL A   1      39.725  34.608  30.794  1.00  0.00     0.047 A 
ATOM     19  C   UNL A   1      38.210  33.666  29.140  1.00  0.00     0.001 A 
ATOM     20  C   UNL A   1      39.433  34.271  29.469  1.00  0.00     0.004 A 
ENDBRANCH  11  12
ENDBRANCH   8  11
ENDBRANCH   5   8
ENDBRANCH   3   5
ENDBRANCH   2   3
ENDBRANCH   1   2
BRANCH   1  21
ATOM     21  C   UNL A   1      33.741  33.125  27.995  1.00  0.00     0.275 C 
BRANCH  21  22
ATOM     22  O   UNL A   1      34.727  32.203  28.482  1.00  0.00    -0.458 OA
BRANCH  22  23
ATOM     23  C   UNL A   1      34.657  30.953  27.978  1.00  0.00     0.338 C 
ATOM     24  O   UNL A   1      33.742  30.440  27.361  1.00  0.00    -0.246 OA
BRANCH  23  25
ATOM     25  C   UNL A   1      35.916  30.256  28.275  1.00  0.00     0.060 A 
ATOM     26  C   UNL A   1      36.088  29.653  29.520  1.00  0.00     0.016 A 
ATOM     27  C   UNL A   1      36.969  30.302  27.367  1.00  0.00     0.016 A 
ATOM     28  C   UNL A   1      37.339  29.192  29.911  1.00  0.00     0.010 A 
ATOM     29  C   UNL A   1      38.192  29.728  27.714  1.00  0.00     0.010 A 
ATOM     30  C   UNL A   1      38.402  29.200  29.003  1.00  0.00    -0.014 A 
BRANCH  30  31
ATOM     31  C   UNL A   1      39.744  28.691  29.387  1.00  0.00     0.031 A 
ATOM     32  C   UNL A   1      40.671  29.573  30.174  1.00  0.00     0.074 A 
ATOM     33  C   UNL A   1      40.151  27.461  29.014  1.00  0.00     0.049 A 
ATOM     34  N   UNL A   1      41.966  29.479  30.335  1.00  0.00    -0.248 NA
ATOM     35  C   UNL A   1      40.061  30.729  30.853  1.00  0.00     0.031 C 
ATOM     36  C   UNL A   1      39.333  26.459  28.328  1.00  0.00     0.029 A 
ATOM     37  N   UNL A   1      41.372  26.850  29.155  1.00  0.00    -0.354 N 
ATOM     38  C   UNL A   1      42.335  30.603  31.064  1.00  0.00     0.074 A 
ATOM     39  C   UNL A   1      41.127  31.354  31.331  1.00  0.00     0.031 C 
ATOM     40  C   UNL A   1      40.066  25.353  28.127  1.00  0.00     0.029 A 
ATOM     41  C   UNL A   1      41.431  25.609  28.569  1.00  0.00     0.049 A 
ATOM     42  H   UNL A   1      42.131  27.261  29.630  1.00  0.00     0.167 HD
ATOM     43  C   UNL A   1      43.575  30.980  31.452  1.00  0.00     0.031 A 
ATOM     44  C   UNL A   1      42.478  24.794  28.344  1.00  0.00     0.031 A 
ATOM     45  C   UNL A   1      44.761  30.200  31.218  1.00  0.00     0.049 A 
ATOM     46  C   UNL A   1      43.852  25.251  28.735  1.00  0.00     0.074 A 
ATOM     47  C   UNL A   1      46.070  30.491  31.561  1.00  0.00     0.029 A 
ATOM     48  N   UNL A   1      44.774  28.961  30.596  1.00  0.00    -0.354 N 
ATOM     49  N   UNL A   1      44.212  26.363  29.330  1.00  0.00    -0.248 NA
ATOM     50  C   UNL A   1      44.967  24.358  28.396  1.00  0.00     0.031 C 
ATOM     51  C   UNL A   1      46.880  29.439  31.119  1.00  0.00     0.029 A 
ATOM     52  C   UNL A   1      46.067  28.476  30.539  1.00  0.00     0.049 A 
ATOM     53  H   UNL A   1      43.980  28.495  30.247  1.00  0.00     0.167 HD
ATOM     54  C   UNL A   1      45.593  26.299  29.445  1.00  0.00     0.074 A 
ATOM     55  C   UNL A   1      46.005  25.033  28.873  1.00  0.00     0.031 C 
ATOM     56  C   UNL A   1      46.448  27.210  29.970  1.00  0.00     0.031 A 
BRANCH  43  57
ATOM     57  C   UNL A   1      43.717  32.319  32.118  1.00  0.00    -0.014 A 
ATOM     58  C   UNL A   1      43.869  33.500  31.377  1.00  0.00     0.009 A 
ATOM     59  C   UNL A   1      43.677  32.394  33.520  1.00  0.00     0.009 A 
ATOM     60  C   UNL A   1      44.008  34.728  32.030  1.00  0.00     0.001 A 
ATOM     61  C   UNL A   1      43.794  33.624  34.168  1.00  0.00     0.001 A 
ATOM     62  C   UNL A   1      43.968  34.789  33.424  1.00  0.00     0.000 A 
ENDBRANCH  43  57
BRANCH  44  63
ATOM     63  C   UNL A   1      42.272  23.503  27.639  1.00  0.00    -0.014 A 
ATOM     64  C   UNL A   1      41.811  22.376  28.336  1.00  0.00     0.009 A 
ATOM     65  C   UNL A   1      42.514  23.395  26.259  1.00  0.00     0.009 A 
ATOM     66  C   UNL A   1      41.607  21.167  27.667  1.00  0.00     0.001 A 
ATOM     67  C   UNL A   1      42.280  22.194  25.588  1.00  0.00     0.001 A 
ATOM     68  C   UNL A   1      41.833  21.079  26.294  1.00  0.00     0.000 A 
ENDBRANCH  44  63
BRANCH  56  69
ATOM     69  C   UNL A   1      47.902  26.849  29.983  1.00  0.00    -0.014 A 
ATOM     70  C   UNL A   1      48.454  26.104  31.036  1.00  0.00     0.009 A 
ATOM     71  C   UNL A   1      48.718  27.224  28.905  1.00  0.00     0.009 A 
ATOM     72  C   UNL A   1      49.806  25.760  31.018  1.00  0.00     0.001 A 
ATOM     73  C   UNL A   1      50.065  26.860  28.881  1.00  0.00     0.001 A 
ATOM     74  C   UNL A   1      50.609  26.134  29.940  1.00  0.00     0.000 A 
ENDBRANCH  56  69
ENDBRANCH  30  31
ENDBRANCH  23  25
ENDBRANCH  22  23
ENDBRANCH  21  22
ENDBRANCH   1  21
TORSDOF 14
ENDMDL
MODEL 2
REMARK VINA RESULT:      -9.3      4.576      9.470
REMARK SMILES CC(C)([NH2+]C[C@@H]1COc2ccccc21)C(=O)OCCOC(=O)c1ccc(-c2c3nc(c(-c4ccccc4)c4ccc([nH]4)c(-c4ccccc4)c4nc(c(-c5ccccc5)c5ccc2[nH]5)C=C4)C=C3)cc1
REMARK SMILES IDX 18 1 17 2 15 3 16 4 2 5 1 6 3 7 4 8 5 11 6 12 7 13 14 14
REMARK SMILES IDX 8 15 9 16 13 17 10 18 12 19 11 20 19 21 20 22 21 23 22 24
REMARK SMILES IDX 23 25 24 26 70 27 25 28 69 29 26 30 27 31 28 32 63 33 29 34
REMARK SMILES IDX 68 35 62 36 64 37 30 38 67 39 61 40 60 41 31 43 53 44 38 45
REMARK SMILES IDX 52 46 39 47 42 48 51 49 65 50 40 51 41 52 50 54 66 55 43 56
REMARK SMILES IDX 32 57 33 58 37 59 34 60 36 61 35 62 54 63 55 64 59 65 56 66
REMARK SMILES IDX 58 67 57 68 44 69 45 70 49 71 46 72 48 73 47 74
REMARK H PARENT 4 9 4 10 64 42 42 53
REMARK Flexibility Score: inf
ROOT
ATOM      1  C   UNL A   1      31.771  28.448  26.797  1.00  0.00     0.274 C 
ENDROOT
BRANCH   1   2
ATOM      2  O   UNL A   1      32.241  27.452  25.862  1.00  0.00    -0.457 OA
BRANCH   2   3
ATOM      3  C   UNL A   1      31.701  26.210  25.974  1.00  0.00     0.367 C 
ATOM      4  O   UNL A   1      30.671  25.980  26.608  1.00  0.00    -0.245 OA
BRANCH   3   5
ATOM      5  C   UNL A   1      32.466  25.084  25.231  1.00  0.00     0.188 C 
ATOM      6  C   UNL A   1      33.560  24.543  26.178  1.00  0.00     0.092 C 
ATOM      7  C   UNL A   1      33.209  25.738  24.058  1.00  0.00     0.092 C 
BRANCH   5   8
ATOM      8  N   UNL A   1      31.717  23.857  24.873  1.00  0.00    -0.332 N 
ATOM      9  H   UNL A   1      30.737  24.136  24.833  1.00  0.00     0.347 HD
ATOM     10  H   UNL A   1      32.057  23.213  25.587  1.00  0.00     0.347 HD
BRANCH   8  11
ATOM     11  C   UNL A   1      31.950  23.070  23.668  1.00  0.00     0.273 C 
BRANCH  11  12
ATOM     12  C   UNL A   1      32.826  21.808  23.665  1.00  0.00     0.116 C 
ATOM     13  C   UNL A   1      32.582  20.805  24.800  1.00  0.00     0.244 C 
ATOM     14  C   UNL A   1      34.285  22.024  23.797  1.00  0.00     0.006 A 
ATOM     15  O   UNL A   1      33.847  20.399  25.381  1.00  0.00    -0.492 OA
ATOM     16  C   UNL A   1      34.787  21.193  24.783  1.00  0.00     0.123 A 
ATOM     17  C   UNL A   1      35.119  22.870  23.085  1.00  0.00     0.008 A 
ATOM     18  C   UNL A   1      36.118  21.222  25.143  1.00  0.00     0.047 A 
ATOM     19  C   UNL A   1      36.470  22.914  23.432  1.00  0.00     0.001 A 
ATOM     20  C   UNL A   1      36.965  22.103  24.465  1.00  0.00     0.004 A 
ENDBRANCH  11  12
ENDBRANCH   8  11
ENDBRANCH   5   8
ENDBRANCH   3   5
ENDBRANCH   2   3
ENDBRANCH   1   2
BRANCH   1  21
ATOM     21  C   UNL A   1      31.699  29.818  26.135  1.00  0.00     0.275 C 
BRANCH  21  22
ATOM     22  O   UNL A   1      33.020  30.375  26.073  1.00  0.00    -0.458 OA
BRANCH  22  23
ATOM     23  C   UNL A   1      33.298  31.321  26.995  1.00  0.00     0.338 C 
ATOM     24  O   UNL A   1      32.601  32.253  27.352  1.00  0.00    -0.246 OA
BRANCH  23  25
ATOM     25  C   UNL A   1      34.629  31.050  27.558  1.00  0.00     0.060 A 
ATOM     26  C   UNL A   1      34.975  29.744  27.898  1.00  0.00     0.016 A 
ATOM     27  C   UNL A   1      35.485  32.105  27.858  1.00  0.00     0.016 A 
ATOM     28  C   UNL A   1      36.124  29.492  28.638  1.00  0.00     0.010 A 
ATOM     29  C   UNL A   1      36.698  31.836  28.494  1.00  0.00     0.010 A 
ATOM     30  C   UNL A   1      37.014  30.532  28.923  1.00  0.00    -0.014 A 
BRANCH  30  31
ATOM     31  C   UNL A   1      38.262  30.287  29.692  1.00  0.00     0.031 A 
ATOM     32  C   UNL A   1      39.366  29.480  29.070  1.00  0.00     0.074 A 
ATOM     33  C   UNL A   1      38.403  30.754  30.948  1.00  0.00     0.049 A 
ATOM     34  N   UNL A   1      40.375  28.877  29.643  1.00  0.00    -0.248 NA
ATOM     35  C   UNL A   1      39.315  29.314  27.607  1.00  0.00     0.031 C 
ATOM     36  C   UNL A   1      37.460  31.625  31.651  1.00  0.00     0.029 A 
ATOM     37  N   UNL A   1      39.405  30.544  31.864  1.00  0.00    -0.354 N 
ATOM     38  C   UNL A   1      41.031  28.195  28.625  1.00  0.00     0.074 A 
ATOM     39  C   UNL A   1      40.319  28.475  27.397  1.00  0.00     0.031 C 
ATOM     40  C   UNL A   1      37.935  31.893  32.877  1.00  0.00     0.029 A 
ATOM     41  C   UNL A   1      39.156  31.126  33.084  1.00  0.00     0.049 A 
ATOM     42  H   UNL A   1      40.220  30.029  31.667  1.00  0.00     0.167 HD
ATOM     43  C   UNL A   1      42.116  27.391  28.719  1.00  0.00     0.031 A 
ATOM     44  C   UNL A   1      39.797  31.001  34.261  1.00  0.00     0.031 A 
ATOM     45  C   UNL A   1      42.839  27.158  29.941  1.00  0.00     0.049 A 
ATOM     46  C   UNL A   1      40.965  30.065  34.358  1.00  0.00     0.074 A 
ATOM     47  C   UNL A   1      43.947  26.356  30.150  1.00  0.00     0.029 A 
ATOM     48  N   UNL A   1      42.534  27.749  31.156  1.00  0.00    -0.354 N 
ATOM     49  N   UNL A   1      41.519  29.340  33.417  1.00  0.00    -0.248 NA
ATOM     50  C   UNL A   1      41.577  29.907  35.684  1.00  0.00     0.031 C 
ATOM     51  C   UNL A   1      44.294  26.439  31.504  1.00  0.00     0.029 A 
ATOM     52  C   UNL A   1      43.426  27.325  32.124  1.00  0.00     0.049 A 
ATOM     53  H   UNL A   1      41.791  28.378  31.310  1.00  0.00     0.167 HD
ATOM     54  C   UNL A   1      42.550  28.646  34.034  1.00  0.00     0.074 A 
ATOM     55  C   UNL A   1      42.555  29.049  35.426  1.00  0.00     0.031 C 
ATOM     56  C   UNL A   1      43.412  27.748  33.499  1.00  0.00     0.031 A 
BRANCH  43  57
ATOM     57  C   UNL A   1      42.547  26.662  27.479  1.00  0.00    -0.014 A 
ATOM     58  C   UNL A   1      43.496  27.199  26.597  1.00  0.00     0.009 A 
ATOM     59  C   UNL A   1      42.000  25.398  27.204  1.00  0.00     0.009 A 
ATOM     60  C   UNL A   1      43.865  26.496  25.447  1.00  0.00     0.001 A 
ATOM     61  C   UNL A   1      42.389  24.688  26.067  1.00  0.00     0.001 A 
ATOM     62  C   UNL A   1      43.314  25.242  25.184  1.00  0.00     0.000 A 
ENDBRANCH  43  57
BRANCH  44  63
ATOM     63  C   UNL A   1      39.287  31.717  35.459  1.00  0.00    -0.014 A 
ATOM     64  C   UNL A   1      38.326  31.122  36.290  1.00  0.00     0.009 A 
ATOM     65  C   UNL A   1      39.777  32.992  35.791  1.00  0.00     0.009 A 
ATOM     66  C   UNL A   1      37.859  31.794  37.423  1.00  0.00     0.001 A 
ATOM     67  C   UNL A   1      39.329  33.648  36.939  1.00  0.00     0.001 A 
ATOM     68  C   UNL A   1      38.366  33.051  37.750  1.00  0.00     0.000 A 
ENDBRANCH  44  63
BRANCH  56  69
ATOM     69  C   UNL A   1      44.452  27.176  34.415  1.00  0.00    -0.014 A 
ATOM     70  C   UNL A   1      45.681  27.823  34.608  1.00  0.00     0.009 A 
ATOM     71  C   UNL A   1      44.177  25.997  35.124  1.00  0.00     0.009 A 
ATOM     72  C   UNL A   1      46.627  27.285  35.481  1.00  0.00     0.001 A 
ATOM     73  C   UNL A   1      45.117  25.473  36.012  1.00  0.00     0.001 A 
ATOM     74  C   UNL A   1      46.343  26.114  36.185  1.00  0.00     0.000 A 
ENDBRANCH  56  69
ENDBRANCH  30  31
ENDBRANCH  23  25
ENDBRANCH  22  23
ENDBRANCH  21  22
ENDBRANCH   1  21
TORSDOF 14
ENDMDL
MODEL 3
REMARK VINA RESULT:      -9.3      4.048      8.140
REMARK SMILES CC(C)([NH2+]C[C@@H]1COc2ccccc21)C(=O)OCCOC(=O)c1ccc(-c2c3nc(c(-c4ccccc4)c4ccc([nH]4)c(-c4ccccc4)c4nc(c(-c5ccccc5)c5ccc2[nH]5)C=C4)C=C3)cc1
REMARK SMILES IDX 18 1 17 2 15 3 16 4 2 5 1 6 3 7 4 8 5 11 6 12 7 13 14 14
REMARK SMILES IDX 8 15 9 16 13 17 10 18 12 19 11 20 19 21 20 22 21 23 22 24
REMARK SMILES IDX 23 25 24 26 70 27 25 28 69 29 26 30 27 31 28 32 63 33 29 34
REMARK SMILES IDX 68 35 62 36 64 37 30 38 67 39 61 40 60 41 31 43 53 44 38 45
REMARK SMILES IDX 52 46 39 47 42 48 51 49 65 50 40 51 41 52 50 54 66 55 43 56
REMARK SMILES IDX 32 57 33 58 37 59 34 60 36 61 35 62 54 63 55 64 59 65 56 66
REMARK SMILES IDX 58 67 57 68 44 69 45 70 49 71 46 72 48 73 47 74
REMARK H PARENT 4 9 4 10 64 42 42 53
REMARK Flexibility Score: inf
ROOT
ATOM      1  C   UNL A   1      36.518  22.642  23.482  1.00  0.00     0.274 C 
ENDROOT
BRANCH   1   2
ATOM      2  O   UNL A   1      35.931  23.753  24.194  1.00  0.00    -0.457 OA
BRANCH   2   3
ATOM      3  C   UNL A   1      34.690  24.142  23.800  1.00  0.00     0.367 C 
ATOM      4  O   UNL A   1      34.322  24.123  22.625  1.00  0.00    -0.245 OA
BRANCH   3   5
ATOM      5  C   UNL A   1      33.746  24.607  24.939  1.00  0.00     0.188 C 
ATOM      6  C   UNL A   1      33.662  23.470  25.983  1.00  0.00     0.092 C 
ATOM      7  C   UNL A   1      32.340  24.734  24.339  1.00  0.00     0.092 C 
BRANCH   5   8
ATOM      8  N   UNL A   1      34.168  25.764  25.760  1.00  0.00    -0.332 N 
ATOM      9  H   UNL A   1      35.175  25.846  25.621  1.00  0.00     0.347 HD
ATOM     10  H   UNL A   1      33.777  25.506  26.666  1.00  0.00     0.347 HD
BRANCH   8  11
ATOM     11  C   UNL A   1      33.641  27.115  25.614  1.00  0.00     0.273 C 
BRANCH  11  12
ATOM     12  C   UNL A   1      33.157  27.945  26.813  1.00  0.00     0.116 C 
ATOM     13  C   UNL A   1      31.779  28.605  26.674  1.00  0.00     0.244 C 
ATOM     14  C   UNL A   1      33.988  29.116  27.176  1.00  0.00     0.006 A 
ATOM     15  O   UNL A   1      31.851  29.992  27.094  1.00  0.00    -0.492 OA
ATOM     16  C   UNL A   1      33.179  30.230  27.318  1.00  0.00     0.123 A 
ATOM     17  C   UNL A   1      35.353  29.194  27.394  1.00  0.00     0.008 A 
ATOM     18  C   UNL A   1      33.704  31.471  27.612  1.00  0.00     0.047 A 
ATOM     19  C   UNL A   1      35.906  30.440  27.695  1.00  0.00     0.001 A 
ATOM     20  C   UNL A   1      35.086  31.576  27.790  1.00  0.00     0.004 A 
ENDBRANCH  11  12
ENDBRANCH   8  11
ENDBRANCH   5   8
ENDBRANCH   3   5
ENDBRANCH   2   3
ENDBRANCH   1   2
BRANCH   1  21
ATOM     21  C   UNL A   1      36.673  21.435  24.397  1.00  0.00     0.275 C 
BRANCH  21  22
ATOM     22  O   UNL A   1      37.181  21.875  25.665  1.00  0.00    -0.458 OA
BRANCH  22  23
ATOM     23  C   UNL A   1      38.454  21.521  25.939  1.00  0.00     0.338 C 
ATOM     24  O   UNL A   1      38.998  20.451  25.736  1.00  0.00    -0.246 OA
BRANCH  23  25
ATOM     25  C   UNL A   1      39.144  22.673  26.534  1.00  0.00     0.060 A 
ATOM     26  C   UNL A   1      38.662  23.958  26.296  1.00  0.00     0.016 A 
ATOM     27  C   UNL A   1      40.335  22.488  27.229  1.00  0.00     0.016 A 
ATOM     28  C   UNL A   1      39.417  25.069  26.649  1.00  0.00     0.010 A 
ATOM     29  C   UNL A   1      41.033  23.605  27.692  1.00  0.00     0.010 A 
ATOM     30  C   UNL A   1      40.601  24.908  27.376  1.00  0.00    -0.014 A 
BRANCH  30  31
ATOM     31  C   UNL A   1      41.416  26.080  27.787  1.00  0.00     0.031 A 
ATOM     32  C   UNL A   1      40.832  27.091  28.733  1.00  0.00     0.074 A 
ATOM     33  C   UNL A   1      42.660  26.262  27.302  1.00  0.00     0.049 A 
ATOM     34  N   UNL A   1      41.212  28.319  28.969  1.00  0.00    -0.248 NA
ATOM     35  C   UNL A   1      39.648  26.666  29.499  1.00  0.00     0.031 C 
ATOM     36  C   UNL A   1      43.395  25.325  26.449  1.00  0.00     0.029 A 
ATOM     37  N   UNL A   1      43.525  27.318  27.453  1.00  0.00    -0.354 N 
ATOM     38  C   UNL A   1      40.269  28.840  29.848  1.00  0.00     0.074 A 
ATOM     39  C   UNL A   1      39.312  27.789  30.118  1.00  0.00     0.031 C 
ATOM     40  C   UNL A   1      44.603  25.835  26.171  1.00  0.00     0.029 A 
ATOM     41  C   UNL A   1      44.686  27.178  26.731  1.00  0.00     0.049 A 
ATOM     42  H   UNL A   1      43.333  28.097  28.023  1.00  0.00     0.167 HD
ATOM     43  C   UNL A   1      40.203  30.090  30.361  1.00  0.00     0.031 A 
ATOM     44  C   UNL A   1      45.676  28.056  26.485  1.00  0.00     0.031 A 
ATOM     45  C   UNL A   1      41.187  31.111  30.118  1.00  0.00     0.049 A 
ATOM     46  C   UNL A   1      45.560  29.452  27.018  1.00  0.00     0.074 A 
ATOM     47  C   UNL A   1      41.214  32.415  30.581  1.00  0.00     0.029 A 
ATOM     48  N   UNL A   1      42.332  30.930  29.359  1.00  0.00    -0.354 N 
ATOM     49  N   UNL A   1      44.614  29.973  27.763  1.00  0.00    -0.248 NA
ATOM     50  C   UNL A   1      46.629  30.390  26.654  1.00  0.00     0.031 C 
ATOM     51  C   UNL A   1      42.363  33.033  30.076  1.00  0.00     0.029 A 
ATOM     52  C   UNL A   1      43.070  32.099  29.333  1.00  0.00     0.049 A 
ATOM     53  H   UNL A   1      42.583  30.093  28.905  1.00  0.00     0.167 HD
ATOM     54  C   UNL A   1      44.978  31.297  27.962  1.00  0.00     0.074 A 
ATOM     55  C   UNL A   1      46.239  31.495  27.276  1.00  0.00     0.031 C 
ATOM     56  C   UNL A   1      44.324  32.267  28.647  1.00  0.00     0.031 A 
BRANCH  43  57
ATOM     57  C   UNL A   1      38.997  30.438  31.187  1.00  0.00    -0.014 A 
ATOM     58  C   UNL A   1      38.967  30.235  32.574  1.00  0.00     0.009 A 
ATOM     59  C   UNL A   1      37.875  30.999  30.556  1.00  0.00     0.009 A 
ATOM     60  C   UNL A   1      37.823  30.560  33.308  1.00  0.00     0.001 A 
ATOM     61  C   UNL A   1      36.743  31.344  31.296  1.00  0.00     0.001 A 
ATOM     62  C   UNL A   1      36.714  31.117  32.670  1.00  0.00     0.000 A 
ENDBRANCH  43  57
BRANCH  44  63
ATOM     63  C   UNL A   1      46.818  27.658  25.621  1.00  0.00    -0.014 A 
ATOM     64  C   UNL A   1      47.929  26.999  26.168  1.00  0.00     0.009 A 
ATOM     65  C   UNL A   1      46.793  27.916  24.240  1.00  0.00     0.009 A 
ATOM     66  C   UNL A   1      48.995  26.616  25.350  1.00  0.00     0.001 A 
ATOM     67  C   UNL A   1      47.847  27.505  23.422  1.00  0.00     0.001 A 
ATOM     68  C   UNL A   1      48.949  26.862  23.979  1.00  0.00     0.000 A 
ENDBRANCH  44  63
BRANCH  56  69
ATOM     69  C   UNL A   1      44.983  33.611  28.717  1.00  0.00    -0.014 A 
ATOM     70  C   UNL A   1      44.623  34.640  27.833  1.00  0.00     0.009 A 
ATOM     71  C   UNL A   1      45.944  33.861  29.707  1.00  0.00     0.009 A 
ATOM     72  C   UNL A   1      45.234  35.891  27.929  1.00  0.00     0.001 A 
ATOM     73  C   UNL A   1      46.538  35.118  29.812  1.00  0.00     0.001 A 
ATOM     74  C   UNL A   1      46.187  36.130  28.920  1.00  0.00     0.000 A 
ENDBRANCH  56  69
ENDBRANCH  30  31
ENDBRANCH  23  25
ENDBRANCH  22  23
ENDBRANCH  21  22
ENDBRANCH   1  21
TORSDOF 14
ENDMDL
