MODEL 1
REMARK VINA RESULT:     -11.4      0.000      0.000
REMARK SMILES C[C@H]1[C@@H](C(=O)OCCOC(=O)c2ccc(-c3c4nc(c(-c5ccccc5)c5ccc([nH]5)c(-c5ccccc5)c5nc(c(-c6ccccc6)c6ccc3[nH]6)C=C5)C=C4)cc2)CC[N@@H+]1Cc1cc(F)c(F)c(F)c1
REMARK SMILES IDX 7 1 6 2 4 3 5 4 3 5 1 6 2 7 62 8 60 9 61 10 63 12 64 13
REMARK SMILES IDX 65 14 72 15 66 16 70 17 67 18 68 19 71 20 69 21 8 22 9 23
REMARK SMILES IDX 10 24 11 25 12 26 13 27 59 28 14 29 58 30 15 31 16 32 17 33
REMARK SMILES IDX 52 34 18 35 57 36 51 37 53 38 19 39 56 40 50 41 49 42 20 44
REMARK SMILES IDX 42 45 27 46 41 47 28 48 31 49 40 50 54 51 29 52 30 53 39 55
REMARK SMILES IDX 55 56 32 57 21 58 22 59 26 60 23 61 25 62 24 63 43 64 44 65
REMARK SMILES IDX 48 66 45 67 47 68 46 69 33 70 34 71 38 72 35 73 37 74 36 75
REMARK H PARENT 62 11 53 43 31 54
REMARK Flexibility Score: inf
ROOT
ATOM      1  C   UNL A   1      32.527  27.599  25.453  1.00  0.00     0.274 C 
ENDROOT
BRANCH   1   2
ATOM      2  O   UNL A   1      31.458  26.792  24.918  1.00  0.00    -0.462 OA
BRANCH   2   3
ATOM      3  C   UNL A   1      30.997  25.776  25.690  1.00  0.00     0.315 C 
ATOM      4  O   UNL A   1      29.954  25.804  26.332  1.00  0.00    -0.252 OA
BRANCH   3   5
ATOM      5  C   UNL A   1      31.864  24.536  25.598  1.00  0.00     0.162 C 
ATOM      6  C   UNL A   1      30.646  23.857  23.392  1.00  0.00     0.076 C 
ATOM      7  C   UNL A   1      31.888  23.752  24.280  1.00  0.00     0.195 C 
ATOM      8  N   UNL A   1      32.027  22.342  24.681  1.00  0.00    -0.328 N 
ATOM      9  C   UNL A   1      31.529  23.520  26.685  1.00  0.00     0.083 C 
ATOM     10  C   UNL A   1      31.384  22.187  25.980  1.00  0.00     0.263 C 
ATOM     11  H   UNL A   1      31.543  21.770  23.990  1.00  0.00     0.348 HD
BRANCH   8  12
ATOM     12  C   UNL A   1      33.350  21.735  24.547  1.00  0.00     0.299 C 
BRANCH  12  13
ATOM     13  C   UNL A   1      33.430  20.263  24.204  1.00  0.00     0.012 A 
ATOM     14  C   UNL A   1      34.469  19.472  24.721  1.00  0.00     0.052 A 
ATOM     15  C   UNL A   1      32.510  19.666  23.326  1.00  0.00     0.052 A 
ATOM     16  C   UNL A   1      34.575  18.126  24.368  1.00  0.00     0.162 A 
ATOM     17  C   UNL A   1      32.623  18.315  22.997  1.00  0.00     0.162 A 
ATOM     18  F   UNL A   1      35.589  17.402  24.862  1.00  0.00    -0.204 F 
ATOM     19  C   UNL A   1      33.655  17.544  23.510  1.00  0.00     0.194 A 
ATOM     20  F   UNL A   1      31.723  17.769  22.167  1.00  0.00    -0.204 F 
ATOM     21  F   UNL A   1      33.766  16.251  23.176  1.00  0.00    -0.200 F 
ENDBRANCH  12  13
ENDBRANCH   8  12
ENDBRANCH   3   5
ENDBRANCH   2   3
ENDBRANCH   1   2
BRANCH   1  22
ATOM     22  C   UNL A   1      32.022  29.027  25.620  1.00  0.00     0.275 C 
BRANCH  22  23
ATOM     23  O   UNL A   1      33.161  29.902  25.708  1.00  0.00    -0.458 OA
BRANCH  23  24
ATOM     24  C   UNL A   1      33.114  30.826  26.693  1.00  0.00     0.338 C 
ATOM     25  O   UNL A   1      32.228  31.631  26.921  1.00  0.00    -0.246 OA
BRANCH  24  26
ATOM     26  C   UNL A   1      34.338  30.735  27.509  1.00  0.00     0.060 A 
ATOM     27  C   UNL A   1      35.141  31.858  27.733  1.00  0.00     0.016 A 
ATOM     28  C   UNL A   1      34.737  29.479  27.964  1.00  0.00     0.016 A 
ATOM     29  C   UNL A   1      36.381  31.710  28.357  1.00  0.00     0.010 A 
ATOM     30  C   UNL A   1      35.932  29.353  28.671  1.00  0.00     0.010 A 
ATOM     31  C   UNL A   1      36.777  30.462  28.858  1.00  0.00    -0.014 A 
BRANCH  31  32
ATOM     32  C   UNL A   1      38.053  30.276  29.599  1.00  0.00     0.031 A 
ATOM     33  C   UNL A   1      39.146  29.426  29.013  1.00  0.00     0.074 A 
ATOM     34  C   UNL A   1      38.200  30.788  30.837  1.00  0.00     0.049 A 
ATOM     35  N   UNL A   1      40.166  28.864  29.607  1.00  0.00    -0.248 NA
ATOM     36  C   UNL A   1      39.065  29.155  27.568  1.00  0.00     0.031 C 
ATOM     37  C   UNL A   1      37.251  31.672  31.516  1.00  0.00     0.029 A 
ATOM     38  N   UNL A   1      39.202  30.607  31.758  1.00  0.00    -0.354 N 
ATOM     39  C   UNL A   1      40.813  28.122  28.626  1.00  0.00     0.074 A 
ATOM     40  C   UNL A   1      40.078  28.316  27.394  1.00  0.00     0.031 C 
ATOM     41  C   UNL A   1      37.716  31.960  32.739  1.00  0.00     0.029 A 
ATOM     42  C   UNL A   1      38.944  31.208  32.966  1.00  0.00     0.049 A 
ATOM     43  H   UNL A   1      40.024  30.098  31.571  1.00  0.00     0.167 HD
ATOM     44  C   UNL A   1      41.911  27.338  28.750  1.00  0.00     0.031 A 
ATOM     45  C   UNL A   1      39.580  31.114  34.148  1.00  0.00     0.031 A 
ATOM     46  C   UNL A   1      42.657  27.178  29.969  1.00  0.00     0.049 A 
ATOM     47  C   UNL A   1      40.767  30.208  34.276  1.00  0.00     0.074 A 
ATOM     48  C   UNL A   1      43.789  26.413  30.195  1.00  0.00     0.029 A 
ATOM     49  N   UNL A   1      42.355  27.810  31.165  1.00  0.00    -0.354 N 
ATOM     50  N   UNL A   1      41.327  29.452  33.364  1.00  0.00    -0.248 NA
ATOM     51  C   UNL A   1      41.394  30.123  35.603  1.00  0.00     0.031 C 
ATOM     52  C   UNL A   1      44.155  26.560  31.538  1.00  0.00     0.029 A 
ATOM     53  C   UNL A   1      43.273  27.445  32.135  1.00  0.00     0.049 A 
ATOM     54  H   UNL A   1      41.599  28.424  31.304  1.00  0.00     0.167 HD
ATOM     55  C   UNL A   1      42.382  28.814  34.001  1.00  0.00     0.074 A 
ATOM     56  C   UNL A   1      42.388  29.275  35.373  1.00  0.00     0.031 C 
ATOM     57  C   UNL A   1      43.265  27.921  33.492  1.00  0.00     0.031 A 
BRANCH  44  58
ATOM     58  C   UNL A   1      42.347  26.555  27.545  1.00  0.00    -0.014 A 
ATOM     59  C   UNL A   1      41.812  25.291  27.258  1.00  0.00     0.009 A 
ATOM     60  C   UNL A   1      43.276  27.120  26.655  1.00  0.00     0.009 A 
ATOM     61  C   UNL A   1      42.220  24.596  26.116  1.00  0.00     0.001 A 
ATOM     62  C   UNL A   1      43.665  26.434  25.504  1.00  0.00     0.001 A 
ATOM     63  C   UNL A   1      43.141  25.170  25.238  1.00  0.00     0.000 A 
ENDBRANCH  44  58
BRANCH  45  64
ATOM     64  C   UNL A   1      39.053  31.857  35.322  1.00  0.00    -0.014 A 
ATOM     65  C   UNL A   1      39.316  33.225  35.472  1.00  0.00     0.009 A 
ATOM     66  C   UNL A   1      38.255  31.206  36.276  1.00  0.00     0.009 A 
ATOM     67  C   UNL A   1      38.794  33.928  36.560  1.00  0.00     0.001 A 
ATOM     68  C   UNL A   1      37.713  31.917  37.347  1.00  0.00     0.001 A 
ATOM     69  C   UNL A   1      37.987  33.276  37.491  1.00  0.00     0.000 A 
ENDBRANCH  45  64
BRANCH  57  70
ATOM     70  C   UNL A   1      44.336  27.420  34.414  1.00  0.00    -0.014 A 
ATOM     71  C   UNL A   1      44.236  26.163  35.025  1.00  0.00     0.009 A 
ATOM     72  C   UNL A   1      45.481  28.201  34.633  1.00  0.00     0.009 A 
ATOM     73  C   UNL A   1      45.257  25.704  35.858  1.00  0.00     0.001 A 
ATOM     74  C   UNL A   1      46.507  27.732  35.452  1.00  0.00     0.001 A 
ATOM     75  C   UNL A   1      46.393  26.486  36.068  1.00  0.00     0.000 A 
ENDBRANCH  57  70
ENDBRANCH  31  32
ENDBRANCH  24  26
ENDBRANCH  23  24
ENDBRANCH  22  23
ENDBRANCH   1  22
TORSDOF 13
ENDMDL
MODEL 2
REMARK VINA RESULT:     -11.3      3.899      7.156
REMARK SMILES C[C@H]1[C@@H](C(=O)OCCOC(=O)c2ccc(-c3c4nc(c(-c5ccccc5)c5ccc([nH]5)c(-c5ccccc5)c5nc(c(-c6ccccc6)c6ccc3[nH]6)C=C5)C=C4)cc2)CC[N@@H+]1Cc1cc(F)c(F)c(F)c1
REMARK SMILES IDX 7 1 6 2 4 3 5 4 3 5 1 6 2 7 62 8 60 9 61 10 63 12 64 13
REMARK SMILES IDX 65 14 72 15 66 16 70 17 67 18 68 19 71 20 69 21 8 22 9 23
REMARK SMILES IDX 10 24 11 25 12 26 13 27 59 28 14 29 58 30 15 31 16 32 17 33
REMARK SMILES IDX 52 34 18 35 57 36 51 37 53 38 19 39 56 40 50 41 49 42 20 44
REMARK SMILES IDX 42 45 27 46 41 47 28 48 31 49 40 50 54 51 29 52 30 53 39 55
REMARK SMILES IDX 55 56 32 57 21 58 22 59 26 60 23 61 25 62 24 63 43 64 44 65
REMARK SMILES IDX 48 66 45 67 47 68 46 69 33 70 34 71 38 72 35 73 37 74 36 75
REMARK H PARENT 62 11 53 43 31 54
REMARK Flexibility Score: inf
ROOT
ATOM      1  C   UNL A   1      31.948  29.669  26.917  1.00  0.00     0.274 C 
ENDROOT
BRANCH   1   2
ATOM      2  O   UNL A   1      32.634  28.498  26.429  1.00  0.00    -0.462 OA
BRANCH   2   3
ATOM      3  C   UNL A   1      32.011  27.302  26.578  1.00  0.00     0.315 C 
ATOM      4  O   UNL A   1      31.028  27.109  27.284  1.00  0.00    -0.252 OA
BRANCH   3   5
ATOM      5  C   UNL A   1      32.600  26.225  25.689  1.00  0.00     0.162 C 
ATOM      6  C   UNL A   1      30.861  26.815  23.836  1.00  0.00     0.076 C 
ATOM      7  C   UNL A   1      32.215  26.205  24.205  1.00  0.00     0.195 C 
ATOM      8  N   UNL A   1      32.172  24.778  23.844  1.00  0.00    -0.328 N 
ATOM      9  C   UNL A   1      32.310  24.823  26.217  1.00  0.00     0.083 C 
ATOM     10  C   UNL A   1      31.785  24.033  25.036  1.00  0.00     0.263 C 
ATOM     11  H   UNL A   1      31.462  24.659  23.121  1.00  0.00     0.348 HD
BRANCH   8  12
ATOM     12  C   UNL A   1      33.307  24.241  23.096  1.00  0.00     0.299 C 
BRANCH  12  13
ATOM     13  C   UNL A   1      34.379  23.496  23.861  1.00  0.00     0.012 A 
ATOM     14  C   UNL A   1      34.287  22.105  24.032  1.00  0.00     0.052 A 
ATOM     15  C   UNL A   1      35.455  24.173  24.460  1.00  0.00     0.052 A 
ATOM     16  C   UNL A   1      35.247  21.420  24.778  1.00  0.00     0.162 A 
ATOM     17  C   UNL A   1      36.413  23.469  25.189  1.00  0.00     0.162 A 
ATOM     18  F   UNL A   1      35.122  20.096  24.941  1.00  0.00    -0.204 F 
ATOM     19  C   UNL A   1      36.311  22.096  25.355  1.00  0.00     0.194 A 
ATOM     20  F   UNL A   1      37.435  24.140  25.738  1.00  0.00    -0.204 F 
ATOM     21  F   UNL A   1      37.227  21.430  26.071  1.00  0.00    -0.200 F 
ENDBRANCH  12  13
ENDBRANCH   8  12
ENDBRANCH   3   5
ENDBRANCH   2   3
ENDBRANCH   1   2
BRANCH   1  22
ATOM     22  C   UNL A   1      32.972  30.775  27.141  1.00  0.00     0.275 C 
BRANCH  22  23
ATOM     23  O   UNL A   1      34.226  30.165  27.499  1.00  0.00    -0.458 OA
BRANCH  23  24
ATOM     24  C   UNL A   1      34.932  30.800  28.461  1.00  0.00     0.338 C 
ATOM     25  O   UNL A   1      34.592  31.765  29.123  1.00  0.00    -0.246 OA
BRANCH  24  26
ATOM     26  C   UNL A   1      36.241  30.144  28.621  1.00  0.00     0.060 A 
ATOM     27  C   UNL A   1      36.648  29.639  29.861  1.00  0.00     0.016 A 
ATOM     28  C   UNL A   1      37.113  30.133  27.534  1.00  0.00     0.016 A 
ATOM     29  C   UNL A   1      37.956  29.183  30.028  1.00  0.00     0.010 A 
ATOM     30  C   UNL A   1      38.388  29.588  27.681  1.00  0.00     0.010 A 
ATOM     31  C   UNL A   1      38.832  29.125  28.934  1.00  0.00    -0.014 A 
BRANCH  31  32
ATOM     32  C   UNL A   1      40.207  28.573  29.049  1.00  0.00     0.031 A 
ATOM     33  C   UNL A   1      41.362  29.488  29.347  1.00  0.00     0.074 A 
ATOM     34  C   UNL A   1      40.439  27.270  28.796  1.00  0.00     0.049 A 
ATOM     35  N   UNL A   1      42.642  29.294  29.161  1.00  0.00    -0.248 NA
ATOM     36  C   UNL A   1      41.028  30.808  29.908  1.00  0.00     0.031 C 
ATOM     37  C   UNL A   1      39.417  26.252  28.544  1.00  0.00     0.029 A 
ATOM     38  N   UNL A   1      41.624  26.587  28.679  1.00  0.00    -0.354 N 
ATOM     39  C   UNL A   1      43.262  30.484  29.520  1.00  0.00     0.074 A 
ATOM     40  C   UNL A   1      42.219  31.392  29.948  1.00  0.00     0.031 C 
ATOM     41  C   UNL A   1      40.017  25.077  28.308  1.00  0.00     0.029 A 
ATOM     42  C   UNL A   1      41.461  25.277  28.298  1.00  0.00     0.049 A 
ATOM     43  H   UNL A   1      42.504  26.994  28.853  1.00  0.00     0.167 HD
ATOM     44  C   UNL A   1      44.579  30.794  29.479  1.00  0.00     0.031 A 
ATOM     45  C   UNL A   1      42.361  24.355  27.914  1.00  0.00     0.031 A 
ATOM     46  C   UNL A   1      45.614  29.874  29.086  1.00  0.00     0.049 A 
ATOM     47  C   UNL A   1      43.811  24.728  27.833  1.00  0.00     0.074 A 
ATOM     48  C   UNL A   1      46.981  30.089  29.019  1.00  0.00     0.029 A 
ATOM     49  N   UNL A   1      45.397  28.559  28.709  1.00  0.00    -0.354 N 
ATOM     50  N   UNL A   1      44.380  25.878  28.103  1.00  0.00    -0.248 NA
ATOM     51  C   UNL A   1      44.739  23.686  27.373  1.00  0.00     0.031 C 
ATOM     52  C   UNL A   1      47.587  28.910  28.574  1.00  0.00     0.029 A 
ATOM     53  C   UNL A   1      46.601  27.952  28.401  1.00  0.00     0.049 A 
ATOM     54  H   UNL A   1      44.516  28.122  28.666  1.00  0.00     0.167 HD
ATOM     55  C   UNL A   1      45.734  25.693  27.859  1.00  0.00     0.074 A 
ATOM     56  C   UNL A   1      45.902  24.321  27.428  1.00  0.00     0.031 C 
ATOM     57  C   UNL A   1      46.747  26.584  27.980  1.00  0.00     0.031 A 
BRANCH  44  58
ATOM     58  C   UNL A   1      44.976  32.200  29.826  1.00  0.00    -0.014 A 
ATOM     59  C   UNL A   1      45.358  32.555  31.128  1.00  0.00     0.009 A 
ATOM     60  C   UNL A   1      45.015  33.174  28.816  1.00  0.00     0.009 A 
ATOM     61  C   UNL A   1      45.745  33.867  31.416  1.00  0.00     0.001 A 
ATOM     62  C   UNL A   1      45.423  34.478  29.101  1.00  0.00     0.001 A 
ATOM     63  C   UNL A   1      45.782  34.825  30.402  1.00  0.00     0.000 A 
ENDBRANCH  44  58
BRANCH  45  64
ATOM     64  C   UNL A   1      41.896  23.003  27.511  1.00  0.00    -0.014 A 
ATOM     65  C   UNL A   1      41.414  22.774  26.216  1.00  0.00     0.009 A 
ATOM     66  C   UNL A   1      41.968  21.928  28.413  1.00  0.00     0.009 A 
ATOM     67  C   UNL A   1      41.007  21.495  25.831  1.00  0.00     0.001 A 
ATOM     68  C   UNL A   1      41.585  20.646  28.017  1.00  0.00     0.001 A 
ATOM     69  C   UNL A   1      41.100  20.431  26.729  1.00  0.00     0.000 A 
ENDBRANCH  45  64
BRANCH  57  70
ATOM     70  C   UNL A   1      48.130  26.089  27.683  1.00  0.00    -0.014 A 
ATOM     71  C   UNL A   1      48.687  26.220  26.403  1.00  0.00     0.009 A 
ATOM     72  C   UNL A   1      48.899  25.525  28.712  1.00  0.00     0.009 A 
ATOM     73  C   UNL A   1      49.987  25.777  26.155  1.00  0.00     0.001 A 
ATOM     74  C   UNL A   1      50.204  25.100  28.465  1.00  0.00     0.001 A 
ATOM     75  C   UNL A   1      50.745  25.221  27.186  1.00  0.00     0.000 A 
ENDBRANCH  57  70
ENDBRANCH  31  32
ENDBRANCH  24  26
ENDBRANCH  23  24
ENDBRANCH  22  23
ENDBRANCH   1  22
TORSDOF 13
ENDMDL
MODEL 3
REMARK VINA RESULT:     -11.2      3.966      7.166
REMARK SMILES C[C@H]1[C@@H](C(=O)OCCOC(=O)c2ccc(-c3c4nc(c(-c5ccccc5)c5ccc([nH]5)c(-c5ccccc5)c5nc(c(-c6ccccc6)c6ccc3[nH]6)C=C5)C=C4)cc2)CC[N@@H+]1Cc1cc(F)c(F)c(F)c1
REMARK SMILES IDX 7 1 6 2 4 3 5 4 3 5 1 6 2 7 62 8 60 9 61 10 63 12 64 13
REMARK SMILES IDX 65 14 72 15 66 16 70 17 67 18 68 19 71 20 69 21 8 22 9 23
REMARK SMILES IDX 10 24 11 25 12 26 13 27 59 28 14 29 58 30 15 31 16 32 17 33
REMARK SMILES IDX 52 34 18 35 57 36 51 37 53 38 19 39 56 40 50 41 49 42 20 44
REMARK SMILES IDX 42 45 27 46 41 47 28 48 31 49 40 50 54 51 29 52 30 53 39 55
REMARK SMILES IDX 55 56 32 57 21 58 22 59 26 60 23 61 25 62 24 63 43 64 44 65
REMARK SMILES IDX 48 66 45 67 47 68 46 69 33 70 34 71 38 72 35 73 37 74 36 75
REMARK H PARENT 62 11 53 43 31 54
REMARK Flexibility Score: inf
ROOT
ATOM      1  C   UNL A   1      32.021  29.075  26.929  1.00  0.00     0.274 C 
ENDROOT
BRANCH   1   2
ATOM      2  O   UNL A   1      32.045  28.849  25.505  1.00  0.00    -0.462 OA
BRANCH   2   3
ATOM      3  C   UNL A   1      31.256  27.861  25.017  1.00  0.00     0.315 C 
ATOM      4  O   UNL A   1      30.374  28.019  24.181  1.00  0.00    -0.252 OA
BRANCH   3   5
ATOM      5  C   UNL A   1      31.646  26.492  25.540  1.00  0.00     0.162 C 
ATOM      6  C   UNL A   1      33.386  26.260  23.609  1.00  0.00     0.076 C 
ATOM      7  C   UNL A   1      32.929  25.842  25.008  1.00  0.00     0.195 C 
ATOM      8  N   UNL A   1      32.631  24.399  24.964  1.00  0.00    -0.328 N 
ATOM      9  C   UNL A   1      30.539  25.463  25.340  1.00  0.00     0.083 C 
ATOM     10  C   UNL A   1      31.202  24.252  24.718  1.00  0.00     0.263 C 
ATOM     11  H   UNL A   1      33.155  23.995  24.188  1.00  0.00     0.348 HD
BRANCH   8  12
ATOM     12  C   UNL A   1      33.185  23.568  26.031  1.00  0.00     0.299 C 
BRANCH  12  13
ATOM     13  C   UNL A   1      34.559  22.969  25.829  1.00  0.00     0.012 A 
ATOM     14  C   UNL A   1      35.703  23.781  25.909  1.00  0.00     0.052 A 
ATOM     15  C   UNL A   1      34.726  21.612  25.507  1.00  0.00     0.052 A 
ATOM     16  C   UNL A   1      36.969  23.244  25.676  1.00  0.00     0.162 A 
ATOM     17  C   UNL A   1      36.002  21.089  25.292  1.00  0.00     0.162 A 
ATOM     18  F   UNL A   1      38.039  24.048  25.739  1.00  0.00    -0.204 F 
ATOM     19  C   UNL A   1      37.123  21.900  25.370  1.00  0.00     0.194 A 
ATOM     20  F   UNL A   1      36.131  19.787  24.999  1.00  0.00    -0.204 F 
ATOM     21  F   UNL A   1      38.343  21.393  25.146  1.00  0.00    -0.200 F 
ENDBRANCH  12  13
ENDBRANCH   8  12
ENDBRANCH   3   5
ENDBRANCH   2   3
ENDBRANCH   1   2
BRANCH   1  22
ATOM     22  C   UNL A   1      32.860  30.308  27.241  1.00  0.00     0.275 C 
BRANCH  22  23
ATOM     23  O   UNL A   1      34.055  29.883  27.921  1.00  0.00    -0.458 OA
BRANCH  23  24
ATOM     24  C   UNL A   1      35.007  30.829  28.079  1.00  0.00     0.338 C 
ATOM     25  O   UNL A   1      34.868  32.039  28.056  1.00  0.00    -0.246 OA
BRANCH  24  26
ATOM     26  C   UNL A   1      36.311  30.179  28.299  1.00  0.00     0.060 A 
ATOM     27  C   UNL A   1      36.669  29.686  29.558  1.00  0.00     0.016 A 
ATOM     28  C   UNL A   1      37.227  30.164  27.248  1.00  0.00     0.016 A 
ATOM     29  C   UNL A   1      37.971  29.238  29.782  1.00  0.00     0.010 A 
ATOM     30  C   UNL A   1      38.497  29.626  27.452  1.00  0.00     0.010 A 
ATOM     31  C   UNL A   1      38.891  29.175  28.725  1.00  0.00    -0.014 A 
BRANCH  31  32
ATOM     32  C   UNL A   1      40.263  28.630  28.902  1.00  0.00     0.031 A 
ATOM     33  C   UNL A   1      41.400  29.552  29.246  1.00  0.00     0.074 A 
ATOM     34  C   UNL A   1      40.512  27.327  28.662  1.00  0.00     0.049 A 
ATOM     35  N   UNL A   1      42.687  29.363  29.116  1.00  0.00    -0.248 NA
ATOM     36  C   UNL A   1      41.035  30.871  29.789  1.00  0.00     0.031 C 
ATOM     37  C   UNL A   1      39.507  26.304  28.369  1.00  0.00     0.029 A 
ATOM     38  N   UNL A   1      41.704  26.650  28.599  1.00  0.00    -0.354 N 
ATOM     39  C   UNL A   1      43.285  30.557  29.499  1.00  0.00     0.074 A 
ATOM     40  C   UNL A   1      42.220  31.461  29.879  1.00  0.00     0.031 C 
ATOM     41  C   UNL A   1      40.122  25.131  28.163  1.00  0.00     0.029 A 
ATOM     42  C   UNL A   1      41.564  25.338  28.215  1.00  0.00     0.049 A 
ATOM     43  H   UNL A   1      42.574  27.062  28.809  1.00  0.00     0.167 HD
ATOM     44  C   UNL A   1      44.602  30.873  29.514  1.00  0.00     0.031 A 
ATOM     45  C   UNL A   1      42.484  24.419  27.872  1.00  0.00     0.031 A 
ATOM     46  C   UNL A   1      45.657  29.958  29.168  1.00  0.00     0.049 A 
ATOM     47  C   UNL A   1      43.934  24.800  27.853  1.00  0.00     0.074 A 
ATOM     48  C   UNL A   1      47.024  30.179  29.161  1.00  0.00     0.029 A 
ATOM     49  N   UNL A   1      45.462  28.640  28.786  1.00  0.00    -0.354 N 
ATOM     50  N   UNL A   1      44.486  25.953  28.144  1.00  0.00    -0.248 NA
ATOM     51  C   UNL A   1      44.886  23.761  27.436  1.00  0.00     0.031 C 
ATOM     52  C   UNL A   1      47.655  29.001  28.745  1.00  0.00     0.029 A 
ATOM     53  C   UNL A   1      46.682  28.039  28.532  1.00  0.00     0.049 A 
ATOM     54  H   UNL A   1      44.586  28.199  28.707  1.00  0.00     0.167 HD
ATOM     55  C   UNL A   1      45.850  25.774  27.959  1.00  0.00     0.074 A 
ATOM     56  C   UNL A   1      46.043  24.402  27.540  1.00  0.00     0.031 C 
ATOM     57  C   UNL A   1      46.852  26.671  28.121  1.00  0.00     0.031 A 
BRANCH  44  58
ATOM     58  C   UNL A   1      44.976  32.282  29.874  1.00  0.00    -0.014 A 
ATOM     59  C   UNL A   1      45.010  33.302  28.912  1.00  0.00     0.009 A 
ATOM     60  C   UNL A   1      45.252  32.601  31.214  1.00  0.00     0.009 A 
ATOM     61  C   UNL A   1      45.340  34.609  29.282  1.00  0.00     0.001 A 
ATOM     62  C   UNL A   1      45.559  33.910  31.584  1.00  0.00     0.001 A 
ATOM     63  C   UNL A   1      45.609  34.913  30.617  1.00  0.00     0.000 A 
ENDBRANCH  44  58
BRANCH  45  64
ATOM     64  C   UNL A   1      42.043  23.064  27.454  1.00  0.00    -0.014 A 
ATOM     65  C   UNL A   1      41.653  22.118  28.410  1.00  0.00     0.009 A 
ATOM     66  C   UNL A   1      41.977  22.726  26.092  1.00  0.00     0.009 A 
ATOM     67  C   UNL A   1      41.209  20.855  28.012  1.00  0.00     0.001 A 
ATOM     68  C   UNL A   1      41.508  21.473  25.697  1.00  0.00     0.001 A 
ATOM     69  C   UNL A   1      41.129  20.537  26.656  1.00  0.00     0.000 A 
ENDBRANCH  45  64
BRANCH  57  70
ATOM     70  C   UNL A   1      48.250  26.181  27.886  1.00  0.00    -0.014 A 
ATOM     71  C   UNL A   1      49.003  25.617  28.924  1.00  0.00     0.009 A 
ATOM     72  C   UNL A   1      48.797  26.245  26.595  1.00  0.00     0.009 A 
ATOM     73  C   UNL A   1      50.292  25.142  28.677  1.00  0.00     0.001 A 
ATOM     74  C   UNL A   1      50.078  25.753  26.349  1.00  0.00     0.001 A 
ATOM     75  C   UNL A   1      50.827  25.207  27.390  1.00  0.00     0.000 A 
ENDBRANCH  57  70
ENDBRANCH  31  32
ENDBRANCH  24  26
ENDBRANCH  23  24
ENDBRANCH  22  23
ENDBRANCH   1  22
TORSDOF 13
ENDMDL
