MODEL 1
REMARK VINA RESULT:     -11.8      0.000      0.000
REMARK SMILES CC[C@H](C(=O)OCCOC(=O)c1ccc(-c2c3nc(c(-c4ccccc4)c4ccc([nH]4)c(-c4ccccc4)c4nc(c(-c5ccccc5)c5ccc2[nH]5)C=C4)C=C3)cc1)N1C(=O)/C(=C/c2ccc(-c3ccc(C)cc3Br)o2)SC1=S
REMARK SMILES IDX 7 1 6 2 4 3 5 4 3 5 2 6 1 7 60 8 61 9 79 10 62 11 63 12
REMARK SMILES IDX 78 13 80 14 64 15 65 16 66 17 77 18 67 19 68 20 69 21 70 22
REMARK SMILES IDX 75 23 71 24 74 25 76 26 72 27 73 28 8 29 9 30 10 31 11 32
REMARK SMILES IDX 12 33 13 34 59 35 14 36 58 37 15 38 16 39 17 40 52 41 18 42
REMARK SMILES IDX 57 43 51 44 53 45 19 46 56 47 50 48 49 49 20 51 42 52 27 53
REMARK SMILES IDX 41 54 28 55 31 56 40 57 54 58 29 59 30 60 39 62 55 63 32 64
REMARK SMILES IDX 21 65 22 66 26 67 23 68 25 69 24 70 43 71 44 72 48 73 45 74
REMARK SMILES IDX 47 75 46 76 33 77 34 78 38 79 35 80 37 81 36 82
REMARK H PARENT 53 50 31 61
REMARK Flexibility Score: inf
ROOT
ATOM      1  C   UNL A   1      31.511  32.124  26.685  1.00  0.00     0.274 C 
ENDROOT
BRANCH   1   2
ATOM      2  O   UNL A   1      31.367  30.693  26.745  1.00  0.00    -0.461 OA
BRANCH   2   3
ATOM      3  C   UNL A   1      32.059  29.980  25.819  1.00  0.00     0.329 C 
ATOM      4  O   UNL A   1      33.256  30.120  25.581  1.00  0.00    -0.250 OA
BRANCH   3   5
ATOM      5  C   UNL A   1      31.192  28.951  25.078  1.00  0.00     0.201 C 
BRANCH   5   6
ATOM      6  C   UNL A   1      30.751  29.286  23.647  1.00  0.00     0.034 C 
ATOM      7  C   UNL A   1      29.717  30.409  23.614  1.00  0.00     0.007 C 
ENDBRANCH   5   6
BRANCH   5   8
ATOM      8  N   UNL A   1      31.855  27.631  25.165  1.00  0.00    -0.278 N 
ATOM      9  C   UNL A   1      31.549  26.791  26.223  1.00  0.00     0.267 C 
ATOM     10  C   UNL A   1      32.863  27.206  24.325  1.00  0.00     0.149 C 
ATOM     11  O   UNL A   1      30.826  27.063  27.171  1.00  0.00    -0.268 OA
ATOM     12  C   UNL A   1      32.273  25.504  26.089  1.00  0.00     0.084 C 
ATOM     13  S   UNL A   1      33.448  25.629  24.842  1.00  0.00    -0.054 SA
ATOM     14  S   UNL A   1      33.525  28.004  23.017  1.00  0.00    -0.052 S 
ATOM     15  C   UNL A   1      31.971  24.449  26.857  1.00  0.00     0.068 C 
BRANCH  15  16
ATOM     16  C   UNL A   1      32.751  23.262  26.879  1.00  0.00     0.128 A 
ATOM     17  C   UNL A   1      33.640  22.850  27.864  1.00  0.00     0.051 A 
ATOM     18  O   UNL A   1      32.693  22.270  25.921  1.00  0.00    -0.457 OA
ATOM     19  C   UNL A   1      34.146  21.591  27.492  1.00  0.00     0.051 A 
ATOM     20  C   UNL A   1      33.561  21.283  26.286  1.00  0.00     0.135 A 
BRANCH  20  21
ATOM     21  C   UNL A   1      33.684  20.122  25.418  1.00  0.00     0.031 A 
ATOM     22  C   UNL A   1      32.540  19.328  25.226  1.00  0.00     0.013 A 
ATOM     23  C   UNL A   1      34.899  19.682  24.873  1.00  0.00     0.029 A 
ATOM     24  C   UNL A   1      32.610  18.113  24.540  1.00  0.00     0.004 A 
ATOM     25  C   UNL A   1      34.968  18.459  24.186  1.00  0.00     0.019 A 
ATOM     26  Br  UNL A   1      36.527  20.643  25.095  1.00  0.00    -0.050 Br
ATOM     27  C   UNL A   1      33.829  17.660  24.031  1.00  0.00    -0.050 A 
ATOM     28  C   UNL A   1      33.905  16.318  23.363  1.00  0.00     0.044 C 
ENDBRANCH  20  21
ENDBRANCH  15  16
ENDBRANCH   5   8
ENDBRANCH   3   5
ENDBRANCH   2   3
ENDBRANCH   1   2
BRANCH   1  29
ATOM     29  C   UNL A   1      32.685  32.620  27.536  1.00  0.00     0.275 C 
BRANCH  29  30
ATOM     30  O   UNL A   1      32.578  34.023  27.844  1.00  0.00    -0.458 OA
BRANCH  30  31
ATOM     31  C   UNL A   1      33.152  34.395  29.013  1.00  0.00     0.338 C 
ATOM     32  O   UNL A   1      32.639  35.043  29.910  1.00  0.00    -0.246 OA
BRANCH  31  33
ATOM     33  C   UNL A   1      34.471  33.759  29.163  1.00  0.00     0.060 A 
ATOM     34  C   UNL A   1      34.650  32.907  30.259  1.00  0.00     0.016 A 
ATOM     35  C   UNL A   1      35.532  34.030  28.297  1.00  0.00     0.016 A 
ATOM     36  C   UNL A   1      35.885  32.321  30.497  1.00  0.00     0.010 A 
ATOM     37  C   UNL A   1      36.782  33.448  28.544  1.00  0.00     0.010 A 
ATOM     38  C   UNL A   1      36.964  32.600  29.650  1.00  0.00    -0.014 A 
BRANCH  38  39
ATOM     39  C   UNL A   1      38.286  32.026  29.978  1.00  0.00     0.031 A 
ATOM     40  C   UNL A   1      39.204  32.747  30.920  1.00  0.00     0.074 A 
ATOM     41  C   UNL A   1      38.627  30.823  29.481  1.00  0.00     0.049 A 
ATOM     42  N   UNL A   1      40.378  32.384  31.367  1.00  0.00    -0.248 NA
ATOM     43  C   UNL A   1      38.737  34.045  31.428  1.00  0.00     0.031 C 
ATOM     44  C   UNL A   1      37.796  30.012  28.590  1.00  0.00     0.029 A 
ATOM     45  N   UNL A   1      39.755  30.069  29.671  1.00  0.00    -0.354 N 
ATOM     46  C   UNL A   1      40.797  33.412  32.202  1.00  0.00     0.074 A 
ATOM     47  C   UNL A   1      39.760  34.422  32.182  1.00  0.00     0.031 C 
ATOM     48  C   UNL A   1      38.440  28.865  28.321  1.00  0.00     0.029 A 
ATOM     49  C   UNL A   1      39.735  28.875  28.996  1.00  0.00     0.049 A 
ATOM     50  H   UNL A   1      40.506  30.356  30.239  1.00  0.00     0.167 HD
ATOM     51  C   UNL A   1      41.941  33.503  32.920  1.00  0.00     0.031 A 
ATOM     52  C   UNL A   1      40.661  27.903  28.922  1.00  0.00     0.031 A 
ATOM     53  C   UNL A   1      42.974  32.501  32.930  1.00  0.00     0.049 A 
ATOM     54  C   UNL A   1      41.939  28.047  29.697  1.00  0.00     0.074 A 
ATOM     55  C   UNL A   1      44.168  32.498  33.631  1.00  0.00     0.029 A 
ATOM     56  N   UNL A   1      42.936  31.323  32.201  1.00  0.00    -0.354 N 
ATOM     57  N   UNL A   1      42.319  29.018  30.492  1.00  0.00    -0.248 NA
ATOM     58  C   UNL A   1      42.913  26.954  29.570  1.00  0.00     0.031 C 
ATOM     59  C   UNL A   1      44.874  31.338  33.289  1.00  0.00     0.029 A 
ATOM     60  C   UNL A   1      44.096  30.595  32.415  1.00  0.00     0.049 A 
ATOM     61  H   UNL A   1      42.196  31.044  31.615  1.00  0.00     0.167 HD
ATOM     62  C   UNL A   1      43.566  28.646  30.975  1.00  0.00     0.074 A 
ATOM     63  C   UNL A   1      43.869  27.352  30.399  1.00  0.00     0.031 C 
ATOM     64  C   UNL A   1      44.387  29.316  31.821  1.00  0.00     0.031 A 
BRANCH  51  65
ATOM     65  C   UNL A   1      42.150  34.756  33.721  1.00  0.00    -0.014 A 
ATOM     66  C   UNL A   1      41.702  34.859  35.048  1.00  0.00     0.009 A 
ATOM     67  C   UNL A   1      42.823  35.844  33.144  1.00  0.00     0.009 A 
ATOM     68  C   UNL A   1      41.896  36.041  35.768  1.00  0.00     0.001 A 
ATOM     69  C   UNL A   1      43.036  37.014  33.874  1.00  0.00     0.001 A 
ATOM     70  C   UNL A   1      42.564  37.115  35.182  1.00  0.00     0.000 A 
ENDBRANCH  51  65
BRANCH  52  71
ATOM     71  C   UNL A   1      40.411  26.709  28.075  1.00  0.00    -0.014 A 
ATOM     72  C   UNL A   1      39.653  25.632  28.556  1.00  0.00     0.009 A 
ATOM     73  C   UNL A   1      40.929  26.649  26.770  1.00  0.00     0.009 A 
ATOM     74  C   UNL A   1      39.432  24.511  27.753  1.00  0.00     0.001 A 
ATOM     75  C   UNL A   1      40.685  25.538  25.962  1.00  0.00     0.001 A 
ATOM     76  C   UNL A   1      39.943  24.467  26.456  1.00  0.00     0.000 A 
ENDBRANCH  52  71
BRANCH  64  77
ATOM     77  C   UNL A   1      45.680  28.644  32.184  1.00  0.00    -0.014 A 
ATOM     78  C   UNL A   1      46.854  28.882  31.453  1.00  0.00     0.009 A 
ATOM     79  C   UNL A   1      45.726  27.769  33.280  1.00  0.00     0.009 A 
ATOM     80  C   UNL A   1      48.040  28.225  31.787  1.00  0.00     0.001 A 
ATOM     81  C   UNL A   1      46.919  27.134  33.629  1.00  0.00     0.001 A 
ATOM     82  C   UNL A   1      48.071  27.354  32.876  1.00  0.00     0.000 A 
ENDBRANCH  64  77
ENDBRANCH  38  39
ENDBRANCH  31  33
ENDBRANCH  30  31
ENDBRANCH  29  30
ENDBRANCH   1  29
TORSDOF 15
ENDMDL
MODEL 2
REMARK VINA RESULT:     -11.6      0.714      5.748
REMARK SMILES CC[C@H](C(=O)OCCOC(=O)c1ccc(-c2c3nc(c(-c4ccccc4)c4ccc([nH]4)c(-c4ccccc4)c4nc(c(-c5ccccc5)c5ccc2[nH]5)C=C4)C=C3)cc1)N1C(=O)/C(=C/c2ccc(-c3ccc(C)cc3Br)o2)SC1=S
REMARK SMILES IDX 7 1 6 2 4 3 5 4 3 5 2 6 1 7 60 8 61 9 79 10 62 11 63 12
REMARK SMILES IDX 78 13 80 14 64 15 65 16 66 17 77 18 67 19 68 20 69 21 70 22
REMARK SMILES IDX 75 23 71 24 74 25 76 26 72 27 73 28 8 29 9 30 10 31 11 32
REMARK SMILES IDX 12 33 13 34 59 35 14 36 58 37 15 38 16 39 17 40 52 41 18 42
REMARK SMILES IDX 57 43 51 44 53 45 19 46 56 47 50 48 49 49 20 51 42 52 27 53
REMARK SMILES IDX 41 54 28 55 31 56 40 57 54 58 29 59 30 60 39 62 55 63 32 64
REMARK SMILES IDX 21 65 22 66 26 67 23 68 25 69 24 70 43 71 44 72 48 73 45 74
REMARK SMILES IDX 47 75 46 76 33 77 34 78 38 79 35 80 37 81 36 82
REMARK H PARENT 53 50 31 61
REMARK Flexibility Score: inf
ROOT
ATOM      1  C   UNL A   1      31.293  32.080  26.462  1.00  0.00     0.274 C 
ENDROOT
BRANCH   1   2
ATOM      2  O   UNL A   1      31.129  30.651  26.527  1.00  0.00    -0.461 OA
BRANCH   2   3
ATOM      3  C   UNL A   1      31.934  29.917  25.716  1.00  0.00     0.329 C 
ATOM      4  O   UNL A   1      33.155  30.040  25.646  1.00  0.00    -0.250 OA
BRANCH   3   5
ATOM      5  C   UNL A   1      31.165  28.887  24.875  1.00  0.00     0.201 C 
BRANCH   5   6
ATOM      6  C   UNL A   1      30.867  29.240  23.411  1.00  0.00     0.034 C 
ATOM      7  C   UNL A   1      29.452  29.785  23.229  1.00  0.00     0.007 C 
ENDBRANCH   5   6
BRANCH   5   8
ATOM      8  N   UNL A   1      31.837  27.577  25.009  1.00  0.00    -0.278 N 
ATOM      9  C   UNL A   1      31.463  26.729  26.038  1.00  0.00     0.267 C 
ATOM     10  C   UNL A   1      32.913  27.169  24.248  1.00  0.00     0.149 C 
ATOM     11  O   UNL A   1      30.667  26.987  26.929  1.00  0.00    -0.268 OA
ATOM     12  C   UNL A   1      32.214  25.452  25.957  1.00  0.00     0.084 C 
ATOM     13  S   UNL A   1      33.479  25.598  24.804  1.00  0.00    -0.054 SA
ATOM     14  S   UNL A   1      33.662  27.981  22.996  1.00  0.00    -0.052 S 
ATOM     15  C   UNL A   1      31.869  24.391  26.697  1.00  0.00     0.068 C 
BRANCH  15  16
ATOM     16  C   UNL A   1      32.661  23.215  26.775  1.00  0.00     0.128 A 
ATOM     17  C   UNL A   1      33.495  22.822  27.817  1.00  0.00     0.051 A 
ATOM     18  O   UNL A   1      32.675  22.215  25.824  1.00  0.00    -0.457 OA
ATOM     19  C   UNL A   1      34.039  21.567  27.486  1.00  0.00     0.051 A 
ATOM     20  C   UNL A   1      33.532  21.243  26.249  1.00  0.00     0.135 A 
BRANCH  20  21
ATOM     21  C   UNL A   1      33.722  20.077  25.400  1.00  0.00     0.031 A 
ATOM     22  C   UNL A   1      32.613  19.241  25.181  1.00  0.00     0.013 A 
ATOM     23  C   UNL A   1      34.969  19.673  24.899  1.00  0.00     0.029 A 
ATOM     24  C   UNL A   1      32.747  18.023  24.513  1.00  0.00     0.004 A 
ATOM     25  C   UNL A   1      35.101  18.446  24.230  1.00  0.00     0.019 A 
ATOM     26  Br  UNL A   1      36.555  20.692  25.161  1.00  0.00    -0.050 Br
ATOM     27  C   UNL A   1      33.996  17.606  24.048  1.00  0.00    -0.050 A 
ATOM     28  C   UNL A   1      34.140  16.261  23.399  1.00  0.00     0.044 C 
ENDBRANCH  20  21
ENDBRANCH  15  16
ENDBRANCH   5   8
ENDBRANCH   3   5
ENDBRANCH   2   3
ENDBRANCH   1   2
BRANCH   1  29
ATOM     29  C   UNL A   1      32.185  32.608  27.590  1.00  0.00     0.275 C 
BRANCH  29  30
ATOM     30  O   UNL A   1      32.572  33.980  27.380  1.00  0.00    -0.458 OA
BRANCH  30  31
ATOM     31  C   UNL A   1      33.106  34.593  28.463  1.00  0.00     0.338 C 
ATOM     32  O   UNL A   1      32.593  35.470  29.138  1.00  0.00    -0.246 OA
BRANCH  31  33
ATOM     33  C   UNL A   1      34.365  33.939  28.856  1.00  0.00     0.060 A 
ATOM     34  C   UNL A   1      34.311  33.041  29.927  1.00  0.00     0.016 A 
ATOM     35  C   UNL A   1      35.583  34.236  28.243  1.00  0.00     0.016 A 
ATOM     36  C   UNL A   1      35.469  32.433  30.392  1.00  0.00     0.010 A 
ATOM     37  C   UNL A   1      36.753  33.632  28.718  1.00  0.00     0.010 A 
ATOM     38  C   UNL A   1      36.701  32.737  29.801  1.00  0.00    -0.014 A 
BRANCH  38  39
ATOM     39  C   UNL A   1      37.925  32.137  30.370  1.00  0.00     0.031 A 
ATOM     40  C   UNL A   1      38.461  30.853  29.811  1.00  0.00     0.074 A 
ATOM     41  C   UNL A   1      38.591  32.788  31.342  1.00  0.00     0.049 A 
ATOM     42  N   UNL A   1      39.544  30.197  30.141  1.00  0.00    -0.248 NA
ATOM     43  C   UNL A   1      37.677  30.226  28.736  1.00  0.00     0.031 C 
ATOM     44  C   UNL A   1      38.187  34.064  31.933  1.00  0.00     0.029 A 
ATOM     45  N   UNL A   1      39.756  32.468  31.989  1.00  0.00    -0.354 N 
ATOM     46  C   UNL A   1      39.567  29.075  29.323  1.00  0.00     0.074 A 
ATOM     47  C   UNL A   1      38.381  29.128  28.497  1.00  0.00     0.031 C 
ATOM     48  C   UNL A   1      39.099  34.427  32.849  1.00  0.00     0.029 A 
ATOM     49  C   UNL A   1      40.132  33.397  32.928  1.00  0.00     0.049 A 
ATOM     50  H   UNL A   1      40.274  31.654  31.798  1.00  0.00     0.167 HD
ATOM     51  C   UNL A   1      40.496  28.091  29.267  1.00  0.00     0.031 A 
ATOM     52  C   UNL A   1      41.185  33.410  33.764  1.00  0.00     0.031 A 
ATOM     53  C   UNL A   1      41.671  28.035  30.097  1.00  0.00     0.049 A 
ATOM     54  C   UNL A   1      42.179  32.286  33.709  1.00  0.00     0.074 A 
ATOM     55  C   UNL A   1      42.675  27.083  30.110  1.00  0.00     0.029 A 
ATOM     56  N   UNL A   1      41.996  28.973  31.065  1.00  0.00    -0.354 N 
ATOM     57  N   UNL A   1      42.197  31.236  32.923  1.00  0.00    -0.248 NA
ATOM     58  C   UNL A   1      43.304  32.354  34.651  1.00  0.00     0.031 C 
ATOM     59  C   UNL A   1      43.585  27.420  31.120  1.00  0.00     0.029 A 
ATOM     60  C   UNL A   1      43.174  28.611  31.699  1.00  0.00     0.049 A 
ATOM     61  H   UNL A   1      41.468  29.778  31.273  1.00  0.00     0.167 HD
ATOM     62  C   UNL A   1      43.343  30.529  33.262  1.00  0.00     0.074 A 
ATOM     63  C   UNL A   1      44.003  31.280  34.310  1.00  0.00     0.031 C 
ATOM     64  C   UNL A   1      43.808  29.362  32.751  1.00  0.00     0.031 A 
BRANCH  51  65
ATOM     65  C   UNL A   1      40.249  26.970  28.299  1.00  0.00    -0.014 A 
ATOM     66  C   UNL A   1      39.525  25.826  28.672  1.00  0.00     0.009 A 
ATOM     67  C   UNL A   1      40.734  27.068  26.985  1.00  0.00     0.009 A 
ATOM     68  C   UNL A   1      39.320  24.790  27.757  1.00  0.00     0.001 A 
ATOM     69  C   UNL A   1      40.507  26.043  26.067  1.00  0.00     0.001 A 
ATOM     70  C   UNL A   1      39.809  24.901  26.456  1.00  0.00     0.000 A 
ENDBRANCH  51  65
BRANCH  52  71
ATOM     71  C   UNL A   1      41.346  34.526  34.729  1.00  0.00    -0.014 A 
ATOM     72  C   UNL A   1      40.786  34.452  36.013  1.00  0.00     0.009 A 
ATOM     73  C   UNL A   1      42.074  35.672  34.369  1.00  0.00     0.009 A 
ATOM     74  C   UNL A   1      40.936  35.512  36.910  1.00  0.00     0.001 A 
ATOM     75  C   UNL A   1      42.244  36.718  35.276  1.00  0.00     0.001 A 
ATOM     76  C   UNL A   1      41.669  36.640  36.544  1.00  0.00     0.000 A 
ENDBRANCH  52  71
BRANCH  64  77
ATOM     77  C   UNL A   1      45.102  28.845  33.311  1.00  0.00    -0.014 A 
ATOM     78  C   UNL A   1      45.121  27.958  34.399  1.00  0.00     0.009 A 
ATOM     79  C   UNL A   1      46.318  29.242  32.734  1.00  0.00     0.009 A 
ATOM     80  C   UNL A   1      46.335  27.512  34.924  1.00  0.00     0.001 A 
ATOM     81  C   UNL A   1      47.529  28.773  33.244  1.00  0.00     0.001 A 
ATOM     82  C   UNL A   1      47.537  27.917  34.344  1.00  0.00     0.000 A 
ENDBRANCH  64  77
ENDBRANCH  38  39
ENDBRANCH  31  33
ENDBRANCH  30  31
ENDBRANCH  29  30
ENDBRANCH   1  29
TORSDOF 15
ENDMDL
MODEL 3
REMARK VINA RESULT:     -11.3      3.508      9.461
REMARK SMILES CC[C@H](C(=O)OCCOC(=O)c1ccc(-c2c3nc(c(-c4ccccc4)c4ccc([nH]4)c(-c4ccccc4)c4nc(c(-c5ccccc5)c5ccc2[nH]5)C=C4)C=C3)cc1)N1C(=O)/C(=C/c2ccc(-c3ccc(C)cc3Br)o2)SC1=S
REMARK SMILES IDX 7 1 6 2 4 3 5 4 3 5 2 6 1 7 60 8 61 9 79 10 62 11 63 12
REMARK SMILES IDX 78 13 80 14 64 15 65 16 66 17 77 18 67 19 68 20 69 21 70 22
REMARK SMILES IDX 75 23 71 24 74 25 76 26 72 27 73 28 8 29 9 30 10 31 11 32
REMARK SMILES IDX 12 33 13 34 59 35 14 36 58 37 15 38 16 39 17 40 52 41 18 42
REMARK SMILES IDX 57 43 51 44 53 45 19 46 56 47 50 48 49 49 20 51 42 52 27 53
REMARK SMILES IDX 41 54 28 55 31 56 40 57 54 58 29 59 30 60 39 62 55 63 32 64
REMARK SMILES IDX 21 65 22 66 26 67 23 68 25 69 24 70 43 71 44 72 48 73 45 74
REMARK SMILES IDX 47 75 46 76 33 77 34 78 38 79 35 80 37 81 36 82
REMARK H PARENT 53 50 31 61
REMARK Flexibility Score: inf
ROOT
ATOM      1  C   UNL A   1      35.890  20.484  25.039  1.00  0.00     0.274 C 
ENDROOT
BRANCH   1   2
ATOM      2  O   UNL A   1      35.464  21.386  26.077  1.00  0.00    -0.461 OA
BRANCH   2   3
ATOM      3  C   UNL A   1      34.128  21.441  26.314  1.00  0.00     0.329 C 
ATOM      4  O   UNL A   1      33.593  21.140  27.378  1.00  0.00    -0.250 OA
BRANCH   3   5
ATOM      5  C   UNL A   1      33.321  21.934  25.102  1.00  0.00     0.201 C 
BRANCH   5   6
ATOM      6  C   UNL A   1      32.164  21.054  24.610  1.00  0.00     0.034 C 
ATOM      7  C   UNL A   1      32.631  19.648  24.237  1.00  0.00     0.007 C 
ENDBRANCH   5   6
BRANCH   5   8
ATOM      8  N   UNL A   1      32.896  23.327  25.358  1.00  0.00    -0.278 N 
ATOM      9  C   UNL A   1      33.749  24.365  25.023  1.00  0.00     0.267 C 
ATOM     10  C   UNL A   1      31.742  23.681  26.026  1.00  0.00     0.149 C 
ATOM     11  O   UNL A   1      34.890  24.249  24.599  1.00  0.00    -0.268 OA
ATOM     12  C   UNL A   1      33.109  25.673  25.305  1.00  0.00     0.084 C 
ATOM     13  S   UNL A   1      31.672  25.430  26.214  1.00  0.00    -0.054 SA
ATOM     14  S   UNL A   1      30.552  22.683  26.637  1.00  0.00    -0.052 S 
ATOM     15  C   UNL A   1      33.637  26.820  24.858  1.00  0.00     0.068 C 
BRANCH  15  16
ATOM     16  C   UNL A   1      33.154  28.096  25.250  1.00  0.00     0.128 A 
ATOM     17  C   UNL A   1      31.955  28.698  24.883  1.00  0.00     0.051 A 
ATOM     18  O   UNL A   1      33.794  28.937  26.138  1.00  0.00    -0.457 OA
ATOM     19  C   UNL A   1      31.871  29.936  25.548  1.00  0.00     0.051 A 
ATOM     20  C   UNL A   1      33.026  30.055  26.286  1.00  0.00     0.135 A 
BRANCH  20  21
ATOM     21  C   UNL A   1      33.503  31.102  27.176  1.00  0.00     0.031 A 
ATOM     22  C   UNL A   1      32.752  32.287  27.249  1.00  0.00     0.013 A 
ATOM     23  C   UNL A   1      34.727  31.046  27.859  1.00  0.00     0.029 A 
ATOM     24  C   UNL A   1      33.221  33.398  27.954  1.00  0.00     0.004 A 
ATOM     25  C   UNL A   1      35.198  32.164  28.564  1.00  0.00     0.019 A 
ATOM     26  Br  UNL A   1      35.858  29.515  27.808  1.00  0.00    -0.050 Br
ATOM     27  C   UNL A   1      34.458  33.352  28.602  1.00  0.00    -0.050 A 
ATOM     28  C   UNL A   1      34.985  34.576  29.291  1.00  0.00     0.044 C 
ENDBRANCH  20  21
ENDBRANCH  15  16
ENDBRANCH   5   8
ENDBRANCH   3   5
ENDBRANCH   2   3
ENDBRANCH   1   2
BRANCH   1  29
ATOM     29  C   UNL A   1      37.397  20.577  24.779  1.00  0.00     0.275 C 
BRANCH  29  30
ATOM     30  O   UNL A   1      37.994  21.708  25.443  1.00  0.00    -0.458 OA
BRANCH  30  31
ATOM     31  C   UNL A   1      39.128  21.433  26.130  1.00  0.00     0.338 C 
ATOM     32  O   UNL A   1      39.691  20.355  26.215  1.00  0.00    -0.246 OA
BRANCH  31  33
ATOM     33  C   UNL A   1      39.728  22.673  26.650  1.00  0.00     0.060 A 
ATOM     34  C   UNL A   1      39.245  23.881  26.135  1.00  0.00     0.016 A 
ATOM     35  C   UNL A   1      40.777  22.665  27.570  1.00  0.00     0.016 A 
ATOM     36  C   UNL A   1      39.805  25.086  26.535  1.00  0.00     0.010 A 
ATOM     37  C   UNL A   1      41.351  23.879  27.965  1.00  0.00     0.010 A 
ATOM     38  C   UNL A   1      40.873  25.093  27.440  1.00  0.00    -0.014 A 
BRANCH  38  39
ATOM     39  C   UNL A   1      41.501  26.386  27.782  1.00  0.00     0.031 A 
ATOM     40  C   UNL A   1      42.817  26.766  27.170  1.00  0.00     0.074 A 
ATOM     41  C   UNL A   1      40.850  27.246  28.587  1.00  0.00     0.049 A 
ATOM     42  N   UNL A   1      43.502  27.872  27.307  1.00  0.00    -0.248 NA
ATOM     43  C   UNL A   1      43.442  25.771  26.286  1.00  0.00     0.031 C 
ATOM     44  C   UNL A   1      39.547  27.001  29.205  1.00  0.00     0.029 A 
ATOM     45  N   UNL A   1      41.194  28.504  29.008  1.00  0.00    -0.354 N 
ATOM     46  C   UNL A   1      44.644  27.704  26.534  1.00  0.00     0.074 A 
ATOM     47  C   UNL A   1      44.570  26.382  25.950  1.00  0.00     0.031 C 
ATOM     48  C   UNL A   1      39.194  28.083  29.917  1.00  0.00     0.029 A 
ATOM     49  C   UNL A   1      40.257  29.080  29.828  1.00  0.00     0.049 A 
ATOM     50  H   UNL A   1      42.031  28.951  28.747  1.00  0.00     0.167 HD
ATOM     51  C   UNL A   1      45.661  28.575  26.332  1.00  0.00     0.031 A 
ATOM     52  C   UNL A   1      40.260  30.275  30.446  1.00  0.00     0.031 A 
ATOM     53  C   UNL A   1      45.737  29.886  26.922  1.00  0.00     0.049 A 
ATOM     54  C   UNL A   1      41.419  31.206  30.236  1.00  0.00     0.074 A 
ATOM     55  C   UNL A   1      46.723  30.845  26.772  1.00  0.00     0.029 A 
ATOM     56  N   UNL A   1      44.788  30.419  27.780  1.00  0.00    -0.354 N 
ATOM     57  N   UNL A   1      42.488  31.042  29.494  1.00  0.00    -0.248 NA
ATOM     58  C   UNL A   1      41.367  32.493  30.942  1.00  0.00     0.031 C 
ATOM     59  C   UNL A   1      46.393  31.942  27.577  1.00  0.00     0.029 A 
ATOM     60  C   UNL A   1      45.175  31.685  28.187  1.00  0.00     0.049 A 
ATOM     61  H   UNL A   1      43.960  29.965  28.061  1.00  0.00     0.167 HD
ATOM     62  C   UNL A   1      43.226  32.210  29.629  1.00  0.00     0.074 A 
ATOM     63  C   UNL A   1      42.473  33.081  30.507  1.00  0.00     0.031 C 
ATOM     64  C   UNL A   1      44.421  32.532  29.074  1.00  0.00     0.031 A 
BRANCH  51  65
ATOM     65  C   UNL A   1      46.796  28.113  25.464  1.00  0.00    -0.014 A 
ATOM     66  C   UNL A   1      46.734  28.208  24.064  1.00  0.00     0.009 A 
ATOM     67  C   UNL A   1      47.956  27.591  26.058  1.00  0.00     0.009 A 
ATOM     68  C   UNL A   1      47.797  27.758  23.278  1.00  0.00     0.001 A 
ATOM     69  C   UNL A   1      49.026  27.166  25.271  1.00  0.00     0.001 A 
ATOM     70  C   UNL A   1      48.942  27.240  23.882  1.00  0.00     0.000 A 
ENDBRANCH  51  65
BRANCH  52  71
ATOM     71  C   UNL A   1      39.127  30.652  31.328  1.00  0.00    -0.014 A 
ATOM     72  C   UNL A   1      38.010  31.327  30.813  1.00  0.00     0.009 A 
ATOM     73  C   UNL A   1      39.157  30.329  32.694  1.00  0.00     0.009 A 
ATOM     74  C   UNL A   1      36.954  31.685  31.654  1.00  0.00     0.001 A 
ATOM     75  C   UNL A   1      38.089  30.665  33.526  1.00  0.00     0.001 A 
ATOM     76  C   UNL A   1      36.991  31.349  33.007  1.00  0.00     0.000 A 
ENDBRANCH  52  71
BRANCH  64  77
ATOM     77  C   UNL A   1      44.969  33.894  29.391  1.00  0.00    -0.014 A 
ATOM     78  C   UNL A   1      45.875  34.086  30.446  1.00  0.00     0.009 A 
ATOM     79  C   UNL A   1      44.582  34.998  28.616  1.00  0.00     0.009 A 
ATOM     80  C   UNL A   1      46.350  35.364  30.744  1.00  0.00     0.001 A 
ATOM     81  C   UNL A   1      45.080  36.270  28.899  1.00  0.00     0.001 A 
ATOM     82  C   UNL A   1      45.955  36.454  29.968  1.00  0.00     0.000 A 
ENDBRANCH  64  77
ENDBRANCH  38  39
ENDBRANCH  31  33
ENDBRANCH  30  31
ENDBRANCH  29  30
ENDBRANCH   1  29
TORSDOF 15
ENDMDL
