MODEL 1
REMARK VINA RESULT:     -10.1      0.000      0.000
REMARK SMILES CC1(C)[C@@H](C(=O)OCCOC(=O)c2ccc(-c3c4nc(c(-c5ccccc5)c5ccc([nH]5)c(-c5ccccc5)c5nc(c(-c6ccccc6)c6ccc3[nH]6)C=C5)C=C4)cc2)[C@@H]1C(=O)N1CC[NH+](CCO)CC1
REMARK SMILES IDX 8 1 7 2 5 3 6 4 4 5 1 6 2 7 3 8 61 9 62 10 63 11 64 12 65 13
REMARK SMILES IDX 72 14 66 15 71 16 67 17 68 19 69 20 70 21 9 23 10 24 11 25
REMARK SMILES IDX 12 26 13 27 14 28 60 29 15 30 59 31 16 32 17 33 18 34 53 35
REMARK SMILES IDX 19 36 58 37 52 38 54 39 20 40 57 41 51 42 50 43 21 45 43 46
REMARK SMILES IDX 28 47 42 48 29 49 32 50 41 51 55 52 30 53 31 54 40 56 56 57
REMARK SMILES IDX 33 58 22 59 23 60 27 61 24 62 26 63 25 64 44 65 45 66 49 67
REMARK SMILES IDX 46 68 48 69 47 70 34 71 35 72 39 73 36 74 38 75 37 76
REMARK H PARENT 67 18 70 22 54 44 32 55
REMARK Flexibility Score: inf
ROOT
ATOM      1  C   UNL A   1      38.845  21.483  25.420  1.00  0.00     0.274 C 
ENDROOT
BRANCH   1   2
ATOM      2  O   UNL A   1      37.604  21.729  26.104  1.00  0.00    -0.462 OA
BRANCH   2   3
ATOM      3  C   UNL A   1      37.182  23.019  26.069  1.00  0.00     0.310 C 
ATOM      4  O   UNL A   1      37.898  24.007  26.192  1.00  0.00    -0.252 OA
BRANCH   3   5
ATOM      5  C   UNL A   1      35.760  23.127  25.679  1.00  0.00     0.118 C 
ATOM      6  C   UNL A   1      36.363  22.959  23.131  1.00  0.00     0.013 C 
ATOM      7  C   UNL A   1      35.324  23.042  24.221  1.00  0.00    -0.009 C 
ATOM      8  C   UNL A   1      34.096  22.210  23.913  1.00  0.00     0.013 C 
ATOM      9  C   UNL A   1      35.191  24.356  25.013  1.00  0.00     0.100 C 
BRANCH   9  10
ATOM     10  C   UNL A   1      33.806  24.825  25.302  1.00  0.00     0.227 C 
ATOM     11  O   UNL A   1      33.270  24.476  26.347  1.00  0.00    -0.275 OA
ATOM     12  N   UNL A   1      33.304  25.801  24.462  1.00  0.00    -0.331 N 
ATOM     13  C   UNL A   1      32.469  26.836  25.049  1.00  0.00     0.181 C 
ATOM     14  C   UNL A   1      33.147  25.587  23.026  1.00  0.00     0.181 C 
ATOM     15  C   UNL A   1      32.535  28.140  24.235  1.00  0.00     0.284 C 
ATOM     16  C   UNL A   1      33.081  26.899  22.216  1.00  0.00     0.284 C 
ATOM     17  N   UNL A   1      32.291  27.999  22.795  1.00  0.00    -0.330 N 
ATOM     18  H   UNL A   1      32.648  28.855  22.372  1.00  0.00     0.348 HD
BRANCH  17  19
ATOM     19  C   UNL A   1      30.892  28.076  22.364  1.00  0.00     0.290 C 
BRANCH  19  20
ATOM     20  C   UNL A   1      30.159  29.428  22.387  1.00  0.00     0.217 C 
BRANCH  20  21
ATOM     21  O   UNL A   1      30.387  30.209  21.217  1.00  0.00    -0.391 OA
ATOM     22  H   UNL A   1      30.796  29.655  20.534  1.00  0.00     0.210 HD
ENDBRANCH  20  21
ENDBRANCH  19  20
ENDBRANCH  17  19
ENDBRANCH   9  10
ENDBRANCH   3   5
ENDBRANCH   2   3
ENDBRANCH   1   2
BRANCH   1  23
ATOM     23  C   UNL A   1      39.265  20.009  25.516  1.00  0.00     0.275 C 
BRANCH  23  24
ATOM     24  O   UNL A   1      40.296  19.785  26.500  1.00  0.00    -0.458 OA
BRANCH  24  25
ATOM     25  C   UNL A   1      41.562  19.981  26.061  1.00  0.00     0.338 C 
ATOM     26  O   UNL A   1      42.176  19.294  25.262  1.00  0.00    -0.246 OA
BRANCH  25  27
ATOM     27  C   UNL A   1      42.099  21.245  26.590  1.00  0.00     0.060 A 
ATOM     28  C   UNL A   1      42.137  21.421  27.976  1.00  0.00     0.016 A 
ATOM     29  C   UNL A   1      42.462  22.288  25.741  1.00  0.00     0.016 A 
ATOM     30  C   UNL A   1      42.520  22.639  28.528  1.00  0.00     0.010 A 
ATOM     31  C   UNL A   1      42.856  23.512  26.294  1.00  0.00     0.010 A 
ATOM     32  C   UNL A   1      42.873  23.698  27.690  1.00  0.00    -0.014 A 
BRANCH  32  33
ATOM     33  C   UNL A   1      43.208  25.024  28.261  1.00  0.00     0.031 A 
ATOM     34  C   UNL A   1      42.115  26.027  28.493  1.00  0.00     0.074 A 
ATOM     35  C   UNL A   1      44.484  25.332  28.555  1.00  0.00     0.049 A 
ATOM     36  N   UNL A   1      42.207  27.287  28.833  1.00  0.00    -0.248 NA
ATOM     37  C   UNL A   1      40.736  25.548  28.312  1.00  0.00     0.031 C 
ATOM     38  C   UNL A   1      45.624  24.422  28.442  1.00  0.00     0.029 A 
ATOM     39  N   UNL A   1      45.036  26.509  28.993  1.00  0.00    -0.354 N 
ATOM     40  C   UNL A   1      40.902  27.760  28.878  1.00  0.00     0.074 A 
ATOM     41  C   UNL A   1      40.038  26.656  28.513  1.00  0.00     0.031 C 
ATOM     42  C   UNL A   1      46.743  25.080  28.787  1.00  0.00     0.029 A 
ATOM     43  C   UNL A   1      46.405  26.469  29.087  1.00  0.00     0.049 A 
ATOM     44  H   UNL A   1      44.501  27.306  29.218  1.00  0.00     0.167 HD
ATOM     45  C   UNL A   1      40.466  29.004  29.189  1.00  0.00     0.031 A 
ATOM     46  C   UNL A   1      47.291  27.450  29.341  1.00  0.00     0.031 A 
ATOM     47  C   UNL A   1      41.333  30.097  29.542  1.00  0.00     0.049 A 
ATOM     48  C   UNL A   1      46.789  28.847  29.589  1.00  0.00     0.074 A 
ATOM     49  C   UNL A   1      40.989  31.394  29.881  1.00  0.00     0.029 A 
ATOM     50  N   UNL A   1      42.717  30.023  29.595  1.00  0.00    -0.354 N 
ATOM     51  N   UNL A   1      45.554  29.288  29.624  1.00  0.00    -0.248 NA
ATOM     52  C   UNL A   1      47.803  29.882  29.835  1.00  0.00     0.031 C 
ATOM     53  C   UNL A   1      42.168  32.121  30.076  1.00  0.00     0.029 A 
ATOM     54  C   UNL A   1      43.242  31.258  29.935  1.00  0.00     0.049 A 
ATOM     55  H   UNL A   1      43.246  29.212  29.417  1.00  0.00     0.167 HD
ATOM     56  C   UNL A   1      45.642  30.640  29.936  1.00  0.00     0.074 A 
ATOM     57  C   UNL A   1      47.050  30.944  30.085  1.00  0.00     0.031 C 
ATOM     58  C   UNL A   1      44.646  31.544  30.094  1.00  0.00     0.031 A 
BRANCH  45  59
ATOM     59  C   UNL A   1      38.986  29.262  29.113  1.00  0.00    -0.014 A 
ATOM     60  C   UNL A   1      38.368  29.657  27.918  1.00  0.00     0.009 A 
ATOM     61  C   UNL A   1      38.192  29.070  30.256  1.00  0.00     0.009 A 
ATOM     62  C   UNL A   1      36.990  29.889  27.877  1.00  0.00     0.001 A 
ATOM     63  C   UNL A   1      36.813  29.272  30.205  1.00  0.00     0.001 A 
ATOM     64  C   UNL A   1      36.214  29.691  29.018  1.00  0.00     0.000 A 
ENDBRANCH  45  59
BRANCH  46  65
ATOM     65  C   UNL A   1      48.749  27.158  29.340  1.00  0.00    -0.014 A 
ATOM     66  C   UNL A   1      49.404  26.780  30.522  1.00  0.00     0.009 A 
ATOM     67  C   UNL A   1      49.498  27.270  28.157  1.00  0.00     0.009 A 
ATOM     68  C   UNL A   1      50.781  26.549  30.524  1.00  0.00     0.001 A 
ATOM     69  C   UNL A   1      50.869  27.005  28.156  1.00  0.00     0.001 A 
ATOM     70  C   UNL A   1      51.512  26.656  29.341  1.00  0.00     0.000 A 
ENDBRANCH  46  65
BRANCH  58  71
ATOM     71  C   UNL A   1      45.028  32.936  30.515  1.00  0.00    -0.014 A 
ATOM     72  C   UNL A   1      45.176  33.286  31.865  1.00  0.00     0.009 A 
ATOM     73  C   UNL A   1      45.307  33.898  29.529  1.00  0.00     0.009 A 
ATOM     74  C   UNL A   1      45.570  34.578  32.219  1.00  0.00     0.001 A 
ATOM     75  C   UNL A   1      45.732  35.178  29.886  1.00  0.00     0.001 A 
ATOM     76  C   UNL A   1      45.855  35.520  31.231  1.00  0.00     0.000 A 
ENDBRANCH  58  71
ENDBRANCH  32  33
ENDBRANCH  25  27
ENDBRANCH  24  25
ENDBRANCH  23  24
ENDBRANCH   1  23
TORSDOF 15
ENDMDL
MODEL 2
REMARK VINA RESULT:     -10.0      2.274      7.932
REMARK SMILES CC1(C)[C@@H](C(=O)OCCOC(=O)c2ccc(-c3c4nc(c(-c5ccccc5)c5ccc([nH]5)c(-c5ccccc5)c5nc(c(-c6ccccc6)c6ccc3[nH]6)C=C5)C=C4)cc2)[C@@H]1C(=O)N1CC[NH+](CCO)CC1
REMARK SMILES IDX 8 1 7 2 5 3 6 4 4 5 1 6 2 7 3 8 61 9 62 10 63 11 64 12 65 13
REMARK SMILES IDX 72 14 66 15 71 16 67 17 68 19 69 20 70 21 9 23 10 24 11 25
REMARK SMILES IDX 12 26 13 27 14 28 60 29 15 30 59 31 16 32 17 33 18 34 53 35
REMARK SMILES IDX 19 36 58 37 52 38 54 39 20 40 57 41 51 42 50 43 21 45 43 46
REMARK SMILES IDX 28 47 42 48 29 49 32 50 41 51 55 52 30 53 31 54 40 56 56 57
REMARK SMILES IDX 33 58 22 59 23 60 27 61 24 62 26 63 25 64 44 65 45 66 49 67
REMARK SMILES IDX 46 68 48 69 47 70 34 71 35 72 39 73 36 74 38 75 37 76
REMARK H PARENT 67 18 70 22 54 44 32 55
REMARK Flexibility Score: inf
ROOT
ATOM      1  C   UNL A   1      32.748  29.782  25.810  1.00  0.00     0.274 C 
ENDROOT
BRANCH   1   2
ATOM      2  O   UNL A   1      31.491  29.142  26.100  1.00  0.00    -0.462 OA
BRANCH   2   3
ATOM      3  C   UNL A   1      31.598  27.897  26.629  1.00  0.00     0.310 C 
ATOM      4  O   UNL A   1      31.032  27.502  27.642  1.00  0.00    -0.252 OA
BRANCH   3   5
ATOM      5  C   UNL A   1      32.347  26.980  25.743  1.00  0.00     0.118 C 
ATOM      6  C   UNL A   1      30.141  26.203  24.552  1.00  0.00     0.013 C 
ATOM      7  C   UNL A   1      31.645  26.167  24.660  1.00  0.00    -0.009 C 
ATOM      8  C   UNL A   1      32.320  26.091  23.306  1.00  0.00     0.013 C 
ATOM      9  C   UNL A   1      32.279  25.479  25.883  1.00  0.00     0.100 C 
BRANCH   9  10
ATOM     10  C   UNL A   1      33.470  24.621  25.623  1.00  0.00     0.227 C 
ATOM     11  O   UNL A   1      34.580  25.138  25.609  1.00  0.00    -0.275 OA
ATOM     12  N   UNL A   1      33.252  23.256  25.630  1.00  0.00    -0.331 N 
ATOM     13  C   UNL A   1      34.286  22.407  26.199  1.00  0.00     0.181 C 
ATOM     14  C   UNL A   1      32.332  22.610  24.697  1.00  0.00     0.181 C 
ATOM     15  C   UNL A   1      33.698  21.095  26.745  1.00  0.00     0.284 C 
ATOM     16  C   UNL A   1      31.840  21.230  25.181  1.00  0.00     0.284 C 
ATOM     17  N   UNL A   1      32.839  20.352  25.815  1.00  0.00    -0.330 N 
ATOM     18  H   UNL A   1      32.311  19.698  26.393  1.00  0.00     0.348 HD
BRANCH  17  19
ATOM     19  C   UNL A   1      33.514  19.405  24.924  1.00  0.00     0.290 C 
BRANCH  19  20
ATOM     20  C   UNL A   1      32.687  18.393  24.115  1.00  0.00     0.217 C 
BRANCH  20  21
ATOM     21  O   UNL A   1      31.855  17.571  24.929  1.00  0.00    -0.391 OA
ATOM     22  H   UNL A   1      31.146  17.192  24.387  1.00  0.00     0.210 HD
ENDBRANCH  20  21
ENDBRANCH  19  20
ENDBRANCH  17  19
ENDBRANCH   9  10
ENDBRANCH   3   5
ENDBRANCH   2   3
ENDBRANCH   1   2
BRANCH   1  23
ATOM     23  C   UNL A   1      33.152  30.768  26.916  1.00  0.00     0.275 C 
BRANCH  23  24
ATOM     24  O   UNL A   1      33.878  30.135  27.990  1.00  0.00    -0.458 OA
BRANCH  24  25
ATOM     25  C   UNL A   1      34.785  30.924  28.613  1.00  0.00     0.338 C 
ATOM     26  O   UNL A   1      34.575  31.992  29.162  1.00  0.00    -0.246 OA
BRANCH  25  27
ATOM     27  C   UNL A   1      36.098  30.258  28.660  1.00  0.00     0.060 A 
ATOM     28  C   UNL A   1      36.529  29.731  29.880  1.00  0.00     0.016 A 
ATOM     29  C   UNL A   1      36.942  30.245  27.552  1.00  0.00     0.016 A 
ATOM     30  C   UNL A   1      37.809  29.201  30.013  1.00  0.00     0.010 A 
ATOM     31  C   UNL A   1      38.227  29.704  27.681  1.00  0.00     0.010 A 
ATOM     32  C   UNL A   1      38.671  29.193  28.915  1.00  0.00    -0.014 A 
BRANCH  32  33
ATOM     33  C   UNL A   1      40.063  28.704  29.062  1.00  0.00     0.031 A 
ATOM     34  C   UNL A   1      41.139  29.653  29.502  1.00  0.00     0.074 A 
ATOM     35  C   UNL A   1      40.362  27.421  28.786  1.00  0.00     0.049 A 
ATOM     36  N   UNL A   1      42.434  29.474  29.544  1.00  0.00    -0.248 NA
ATOM     37  C   UNL A   1      40.697  30.983  29.951  1.00  0.00     0.031 C 
ATOM     38  C   UNL A   1      39.397  26.385  28.417  1.00  0.00     0.029 A 
ATOM     39  N   UNL A   1      41.573  26.778  28.757  1.00  0.00    -0.354 N 
ATOM     40  C   UNL A   1      42.965  30.676  29.993  1.00  0.00     0.074 A 
ATOM     41  C   UNL A   1      41.853  31.582  30.195  1.00  0.00     0.031 C 
ATOM     42  C   UNL A   1      40.056  25.239  28.184  1.00  0.00     0.029 A 
ATOM     43  C   UNL A   1      41.489  25.476  28.327  1.00  0.00     0.049 A 
ATOM     44  H   UNL A   1      42.420  27.208  29.017  1.00  0.00     0.167 HD
ATOM     45  C   UNL A   1      44.263  30.996  30.212  1.00  0.00     0.031 A 
ATOM     46  C   UNL A   1      42.460  24.588  28.041  1.00  0.00     0.031 A 
ATOM     47  C   UNL A   1      45.363  30.091  30.001  1.00  0.00     0.049 A 
ATOM     48  C   UNL A   1      43.900  24.998  28.199  1.00  0.00     0.074 A 
ATOM     49  C   UNL A   1      46.714  30.316  30.200  1.00  0.00     0.029 A 
ATOM     50  N   UNL A   1      45.238  28.791  29.536  1.00  0.00    -0.354 N 
ATOM     51  N   UNL A   1      44.395  26.137  28.618  1.00  0.00    -0.248 NA
ATOM     52  C   UNL A   1      44.916  23.996  27.846  1.00  0.00     0.031 C 
ATOM     53  C   UNL A   1      47.410  29.174  29.794  1.00  0.00     0.029 A 
ATOM     54  C   UNL A   1      46.489  28.210  29.417  1.00  0.00     0.049 A 
ATOM     55  H   UNL A   1      44.385  28.346  29.323  1.00  0.00     0.167 HD
ATOM     56  C   UNL A   1      45.775  25.975  28.619  1.00  0.00     0.074 A 
ATOM     57  C   UNL A   1      46.038  24.626  28.162  1.00  0.00     0.031 C 
ATOM     58  C   UNL A   1      46.736  26.861  28.975  1.00  0.00     0.031 A 
BRANCH  45  59
ATOM     59  C   UNL A   1      44.569  32.399  30.658  1.00  0.00    -0.014 A 
ATOM     60  C   UNL A   1      44.762  33.439  29.737  1.00  0.00     0.009 A 
ATOM     61  C   UNL A   1      44.629  32.689  32.031  1.00  0.00     0.009 A 
ATOM     62  C   UNL A   1      45.044  34.734  30.181  1.00  0.00     0.001 A 
ATOM     63  C   UNL A   1      44.879  33.989  32.472  1.00  0.00     0.001 A 
ATOM     64  C   UNL A   1      45.096  35.008  31.547  1.00  0.00     0.000 A 
ENDBRANCH  45  59
BRANCH  46  65
ATOM     65  C   UNL A   1      42.107  23.234  27.539  1.00  0.00    -0.014 A 
ATOM     66  C   UNL A   1      42.109  22.958  26.163  1.00  0.00     0.009 A 
ATOM     67  C   UNL A   1      41.751  22.212  28.434  1.00  0.00     0.009 A 
ATOM     68  C   UNL A   1      41.734  21.697  25.694  1.00  0.00     0.001 A 
ATOM     69  C   UNL A   1      41.409  20.942  27.964  1.00  0.00     0.001 A 
ATOM     70  C   UNL A   1      41.390  20.689  26.594  1.00  0.00     0.000 A 
ENDBRANCH  46  65
BRANCH  58  71
ATOM     71  C   UNL A   1      48.163  26.387  28.954  1.00  0.00    -0.014 A 
ATOM     72  C   UNL A   1      48.773  25.829  30.087  1.00  0.00     0.009 A 
ATOM     73  C   UNL A   1      48.887  26.444  27.751  1.00  0.00     0.009 A 
ATOM     74  C   UNL A   1      50.088  25.364  30.023  1.00  0.00     0.001 A 
ATOM     75  C   UNL A   1      50.190  25.948  27.681  1.00  0.00     0.001 A 
ATOM     76  C   UNL A   1      50.792  25.416  28.819  1.00  0.00     0.000 A 
ENDBRANCH  58  71
ENDBRANCH  32  33
ENDBRANCH  25  27
ENDBRANCH  24  25
ENDBRANCH  23  24
ENDBRANCH   1  23
TORSDOF 15
ENDMDL
MODEL 3
REMARK VINA RESULT:      -9.9      1.227      1.816
REMARK SMILES CC1(C)[C@@H](C(=O)OCCOC(=O)c2ccc(-c3c4nc(c(-c5ccccc5)c5ccc([nH]5)c(-c5ccccc5)c5nc(c(-c6ccccc6)c6ccc3[nH]6)C=C5)C=C4)cc2)[C@@H]1C(=O)N1CC[NH+](CCO)CC1
REMARK SMILES IDX 8 1 7 2 5 3 6 4 4 5 1 6 2 7 3 8 61 9 62 10 63 11 64 12 65 13
REMARK SMILES IDX 72 14 66 15 71 16 67 17 68 19 69 20 70 21 9 23 10 24 11 25
REMARK SMILES IDX 12 26 13 27 14 28 60 29 15 30 59 31 16 32 17 33 18 34 53 35
REMARK SMILES IDX 19 36 58 37 52 38 54 39 20 40 57 41 51 42 50 43 21 45 43 46
REMARK SMILES IDX 28 47 42 48 29 49 32 50 41 51 55 52 30 53 31 54 40 56 56 57
REMARK SMILES IDX 33 58 22 59 23 60 27 61 24 62 26 63 25 64 44 65 45 66 49 67
REMARK SMILES IDX 46 68 48 69 47 70 34 71 35 72 39 73 36 74 38 75 37 76
REMARK H PARENT 67 18 70 22 54 44 32 55
REMARK Flexibility Score: inf
ROOT
ATOM      1  C   UNL A   1      37.701  20.475  24.659  1.00  0.00     0.274 C 
ENDROOT
BRANCH   1   2
ATOM      2  O   UNL A   1      36.546  19.859  25.257  1.00  0.00    -0.462 OA
BRANCH   2   3
ATOM      3  C   UNL A   1      35.361  20.434  24.926  1.00  0.00     0.310 C 
ATOM      4  O   UNL A   1      34.259  19.906  25.026  1.00  0.00    -0.252 OA
BRANCH   3   5
ATOM      5  C   UNL A   1      35.515  21.866  24.589  1.00  0.00     0.118 C 
ATOM      6  C   UNL A   1      34.689  22.597  26.970  1.00  0.00     0.013 C 
ATOM      7  C   UNL A   1      35.240  22.960  25.614  1.00  0.00    -0.009 C 
ATOM      8  C   UNL A   1      36.224  24.111  25.679  1.00  0.00     0.013 C 
ATOM      9  C   UNL A   1      34.335  22.782  24.380  1.00  0.00     0.100 C 
BRANCH   9  10
ATOM     10  C   UNL A   1      34.370  23.872  23.364  1.00  0.00     0.227 C 
ATOM     11  O   UNL A   1      35.133  23.769  22.412  1.00  0.00    -0.275 OA
ATOM     12  N   UNL A   1      33.375  24.827  23.459  1.00  0.00    -0.331 N 
ATOM     13  C   UNL A   1      32.821  25.355  22.223  1.00  0.00     0.181 C 
ATOM     14  C   UNL A   1      33.210  25.664  24.645  1.00  0.00     0.181 C 
ATOM     15  C   UNL A   1      31.375  25.843  22.418  1.00  0.00     0.284 C 
ATOM     16  C   UNL A   1      31.794  26.265  24.776  1.00  0.00     0.284 C 
ATOM     17  N   UNL A   1      31.166  26.764  23.541  1.00  0.00    -0.330 N 
ATOM     18  H   UNL A   1      30.161  26.759  23.715  1.00  0.00     0.348 HD
BRANCH  17  19
ATOM     19  C   UNL A   1      31.360  28.188  23.256  1.00  0.00     0.290 C 
BRANCH  19  20
ATOM     20  C   UNL A   1      30.372  28.925  22.337  1.00  0.00     0.217 C 
BRANCH  20  21
ATOM     21  O   UNL A   1      30.945  30.062  21.696  1.00  0.00    -0.391 OA
ATOM     22  H   UNL A   1      30.488  30.864  21.990  1.00  0.00     0.210 HD
ENDBRANCH  20  21
ENDBRANCH  19  20
ENDBRANCH  17  19
ENDBRANCH   9  10
ENDBRANCH   3   5
ENDBRANCH   2   3
ENDBRANCH   1   2
BRANCH   1  23
ATOM     23  C   UNL A   1      38.882  20.537  25.638  1.00  0.00     0.275 C 
BRANCH  23  24
ATOM     24  O   UNL A   1      39.658  19.321  25.653  1.00  0.00    -0.458 OA
BRANCH  24  25
ATOM     25  C   UNL A   1      40.973  19.482  25.932  1.00  0.00     0.338 C 
ATOM     26  O   UNL A   1      41.881  18.713  25.663  1.00  0.00    -0.246 OA
BRANCH  25  27
ATOM     27  C   UNL A   1      41.215  20.810  26.519  1.00  0.00     0.060 A 
ATOM     28  C   UNL A   1      41.710  21.821  25.690  1.00  0.00     0.016 A 
ATOM     29  C   UNL A   1      41.061  21.036  27.885  1.00  0.00     0.016 A 
ATOM     30  C   UNL A   1      42.072  23.058  26.215  1.00  0.00     0.010 A 
ATOM     31  C   UNL A   1      41.415  22.283  28.414  1.00  0.00     0.010 A 
ATOM     32  C   UNL A   1      41.936  23.294  27.584  1.00  0.00    -0.014 A 
BRANCH  32  33
ATOM     33  C   UNL A   1      42.389  24.578  28.169  1.00  0.00     0.031 A 
ATOM     34  C   UNL A   1      41.394  25.677  28.404  1.00  0.00     0.074 A 
ATOM     35  C   UNL A   1      43.687  24.763  28.473  1.00  0.00     0.049 A 
ATOM     36  N   UNL A   1      41.601  26.920  28.756  1.00  0.00    -0.248 NA
ATOM     37  C   UNL A   1      39.977  25.331  28.210  1.00  0.00     0.031 C 
ATOM     38  C   UNL A   1      44.738  23.752  28.358  1.00  0.00     0.029 A 
ATOM     39  N   UNL A   1      44.343  25.880  28.926  1.00  0.00    -0.354 N 
ATOM     40  C   UNL A   1      40.346  27.512  28.797  1.00  0.00     0.074 A 
ATOM     41  C   UNL A   1      39.385  26.498  28.418  1.00  0.00     0.031 C 
ATOM     42  C   UNL A   1      45.911  24.299  28.716  1.00  0.00     0.029 A 
ATOM     43  C   UNL A   1      45.703  25.711  29.026  1.00  0.00     0.049 A 
ATOM     44  H   UNL A   1      43.884  26.721  29.154  1.00  0.00     0.167 HD
ATOM     45  C   UNL A   1      40.026  28.790  29.117  1.00  0.00     0.031 A 
ATOM     46  C   UNL A   1      46.674  26.603  29.295  1.00  0.00     0.031 A 
ATOM     47  C   UNL A   1      40.989  29.794  29.486  1.00  0.00     0.049 A 
ATOM     48  C   UNL A   1      46.303  28.038  29.552  1.00  0.00     0.074 A 
ATOM     49  C   UNL A   1      40.765  31.114  29.834  1.00  0.00     0.029 A 
ATOM     50  N   UNL A   1      42.359  29.590  29.545  1.00  0.00    -0.354 N 
ATOM     51  N   UNL A   1      45.115  28.593  29.584  1.00  0.00    -0.248 NA
ATOM     52  C   UNL A   1      47.408  28.971  29.814  1.00  0.00     0.031 C 
ATOM     53  C   UNL A   1      42.005  31.726  30.043  1.00  0.00     0.029 A 
ATOM     54  C   UNL A   1      42.995  30.767  29.900  1.00  0.00     0.049 A 
ATOM     55  H   UNL A   1      42.812  28.734  29.363  1.00  0.00     0.167 HD
ATOM     56  C   UNL A   1      45.327  29.927  29.909  1.00  0.00     0.074 A 
ATOM     57  C   UNL A   1      46.757  30.097  30.069  1.00  0.00     0.031 C 
ATOM     58  C   UNL A   1      44.419  30.919  30.069  1.00  0.00     0.031 A 
BRANCH  45  59
ATOM     59  C   UNL A   1      38.577  29.185  29.036  1.00  0.00    -0.014 A 
ATOM     60  C   UNL A   1      37.732  29.122  30.154  1.00  0.00     0.009 A 
ATOM     61  C   UNL A   1      38.060  29.665  27.821  1.00  0.00     0.009 A 
ATOM     62  C   UNL A   1      36.390  29.497  30.048  1.00  0.00     0.001 A 
ATOM     63  C   UNL A   1      36.728  30.069  27.727  1.00  0.00     0.001 A 
ATOM     64  C   UNL A   1      35.891  29.975  28.837  1.00  0.00     0.000 A 
ENDBRANCH  45  59
BRANCH  46  65
ATOM     65  C   UNL A   1      48.098  26.175  29.299  1.00  0.00    -0.014 A 
ATOM     66  C   UNL A   1      48.706  25.723  30.480  1.00  0.00     0.009 A 
ATOM     67  C   UNL A   1      48.864  26.231  28.122  1.00  0.00     0.009 A 
ATOM     68  C   UNL A   1      50.056  25.364  30.489  1.00  0.00     0.001 A 
ATOM     69  C   UNL A   1      50.204  25.839  28.127  1.00  0.00     0.001 A 
ATOM     70  C   UNL A   1      50.802  25.417  29.312  1.00  0.00     0.000 A 
ENDBRANCH  46  65
BRANCH  58  71
ATOM     71  C   UNL A   1      44.927  32.266  30.505  1.00  0.00    -0.014 A 
ATOM     72  C   UNL A   1      45.098  32.589  31.859  1.00  0.00     0.009 A 
ATOM     73  C   UNL A   1      45.302  33.206  29.530  1.00  0.00     0.009 A 
ATOM     74  C   UNL A   1      45.608  33.836  32.227  1.00  0.00     0.001 A 
ATOM     75  C   UNL A   1      45.842  34.437  29.900  1.00  0.00     0.001 A 
ATOM     76  C   UNL A   1      45.987  34.755  31.249  1.00  0.00     0.000 A 
ENDBRANCH  58  71
ENDBRANCH  32  33
ENDBRANCH  25  27
ENDBRANCH  24  25
ENDBRANCH  23  24
ENDBRANCH   1  23
TORSDOF 15
ENDMDL
