MODEL 1
REMARK VINA RESULT:     -12.3      0.000      0.000
REMARK SMILES Cc1cccc(-c2cc(C[C@]3(C(=O)OCCOC(=O)c4ccc(-c5c6nc(c(-c7ccccc7)c7ccc([nH]7)c(-c7ccccc7)c7nc(c(-c8ccccc8)c8ccc5[nH]8)C=C7)C=C6)cc4)CCCN(C(=O)C(C)C)C3)on2)c1
REMARK SMILES IDX 15 1 14 2 12 3 13 4 11 5 68 6 77 7 69 8 71 9 70 10 10 11
REMARK SMILES IDX 9 12 7 13 8 14 79 15 78 16 6 17 1 18 2 19 3 20 80 21 4 22
REMARK SMILES IDX 5 23 72 24 73 25 74 26 75 27 76 28 16 29 17 30 18 31 19 32
REMARK SMILES IDX 20 33 21 34 67 35 22 36 66 37 23 38 24 39 25 40 60 41 26 42
REMARK SMILES IDX 65 43 59 44 61 45 27 46 64 47 58 48 57 49 28 51 50 52 35 53
REMARK SMILES IDX 49 54 36 55 39 56 48 57 62 58 37 59 38 60 47 62 63 63 40 64
REMARK SMILES IDX 29 65 30 66 34 67 31 68 33 69 32 70 51 71 52 72 56 73 53 74
REMARK SMILES IDX 55 75 54 76 41 77 42 78 46 79 43 80 45 81 44 82
REMARK H PARENT 61 50 39 61
REMARK Flexibility Score: inf
ROOT
ATOM      1  C   UNL A   1      32.439  30.671  26.693  1.00  0.00     0.274 C 
ENDROOT
BRANCH   1   2
ATOM      2  O   UNL A   1      32.602  29.970  25.439  1.00  0.00    -0.462 OA
BRANCH   2   3
ATOM      3  C   UNL A   1      33.104  28.705  25.614  1.00  0.00     0.314 C 
ATOM      4  O   UNL A   1      34.228  28.515  26.072  1.00  0.00    -0.252 OA
BRANCH   3   5
ATOM      5  C   UNL A   1      32.243  27.562  25.022  1.00  0.00     0.093 C 
ATOM      6  C   UNL A   1      30.941  28.274  24.555  1.00  0.00     0.023 C 
ATOM      7  C   UNL A   1      33.114  27.030  23.842  1.00  0.00     0.138 C 
ATOM      8  C   UNL A   1      30.308  27.723  23.280  1.00  0.00     0.023 C 
ATOM      9  N   UNL A   1      32.322  26.511  22.746  1.00  0.00    -0.341 N 
ATOM     10  C   UNL A   1      31.376  27.483  22.226  1.00  0.00     0.119 C 
BRANCH   5  11
ATOM     11  C   UNL A   1      31.980  26.409  26.041  1.00  0.00     0.099 C 
BRANCH  11  12
ATOM     12  C   UNL A   1      32.910  25.216  26.069  1.00  0.00     0.138 A 
ATOM     13  C   UNL A   1      34.511  23.642  26.092  1.00  0.00     0.114 A 
ATOM     14  C   UNL A   1      34.255  25.018  25.810  1.00  0.00     0.077 A 
ATOM     15  N   UNL A   1      33.385  23.064  26.544  1.00  0.00    -0.080 NA
ATOM     16  O   UNL A   1      32.406  24.045  26.550  1.00  0.00    -0.361 OA
BRANCH  13  17
ATOM     17  C   UNL A   1      35.735  22.858  25.849  1.00  0.00     0.004 A 
ATOM     18  C   UNL A   1      39.541  22.930  26.329  1.00  0.00     0.044 C 
ATOM     19  C   UNL A   1      38.157  22.512  25.921  1.00  0.00    -0.050 A 
ATOM     20  C   UNL A   1      38.010  21.277  25.275  1.00  0.00     0.003 A 
ATOM     21  C   UNL A   1      37.018  23.311  26.186  1.00  0.00     0.014 A 
ATOM     22  C   UNL A   1      36.746  20.812  24.951  1.00  0.00     0.001 A 
ATOM     23  C   UNL A   1      35.629  21.589  25.264  1.00  0.00     0.010 A 
ENDBRANCH  13  17
ENDBRANCH  11  12
ENDBRANCH   5  11
BRANCH   9  24
ATOM     24  C   UNL A   1      32.535  25.213  22.329  1.00  0.00     0.225 C 
ATOM     25  O   UNL A   1      33.112  24.977  21.260  1.00  0.00    -0.275 OA
BRANCH  24  26
ATOM     26  C   UNL A   1      32.034  24.031  23.150  1.00  0.00     0.072 C 
ATOM     27  C   UNL A   1      30.524  23.937  23.325  1.00  0.00     0.018 C 
ATOM     28  C   UNL A   1      32.652  22.733  22.659  1.00  0.00     0.018 C 
ENDBRANCH  24  26
ENDBRANCH   9  24
ENDBRANCH   3   5
ENDBRANCH   2   3
ENDBRANCH   1   2
BRANCH   1  29
ATOM     29  C   UNL A   1      31.965  32.126  26.593  1.00  0.00     0.275 C 
BRANCH  29  30
ATOM     30  O   UNL A   1      31.998  32.961  27.775  1.00  0.00    -0.458 OA
BRANCH  30  31
ATOM     31  C   UNL A   1      32.962  33.817  28.178  1.00  0.00     0.338 C 
ATOM     32  O   UNL A   1      32.744  35.008  28.365  1.00  0.00    -0.246 OA
BRANCH  31  33
ATOM     33  C   UNL A   1      34.284  33.257  28.473  1.00  0.00     0.060 A 
ATOM     34  C   UNL A   1      35.399  33.935  27.967  1.00  0.00     0.016 A 
ATOM     35  C   UNL A   1      34.424  32.144  29.299  1.00  0.00     0.016 A 
ATOM     36  C   UNL A   1      36.673  33.571  28.378  1.00  0.00     0.010 A 
ATOM     37  C   UNL A   1      35.684  31.809  29.750  1.00  0.00     0.010 A 
ATOM     38  C   UNL A   1      36.803  32.519  29.286  1.00  0.00    -0.014 A 
BRANCH  38  39
ATOM     39  C   UNL A   1      38.077  31.852  29.480  1.00  0.00     0.031 A 
ATOM     40  C   UNL A   1      38.444  30.582  28.834  1.00  0.00     0.074 A 
ATOM     41  C   UNL A   1      38.870  32.538  30.325  1.00  0.00     0.049 A 
ATOM     42  N   UNL A   1      39.277  29.741  29.347  1.00  0.00    -0.248 NA
ATOM     43  C   UNL A   1      37.874  30.117  27.571  1.00  0.00     0.031 C 
ATOM     44  C   UNL A   1      40.270  32.382  30.658  1.00  0.00     0.029 A 
ATOM     45  N   UNL A   1      38.393  33.465  31.259  1.00  0.00    -0.354 N 
ATOM     46  C   UNL A   1      39.583  28.823  28.366  1.00  0.00     0.074 A 
ATOM     47  C   UNL A   1      38.589  29.007  27.339  1.00  0.00     0.031 C 
ATOM     48  C   UNL A   1      40.483  32.967  31.855  1.00  0.00     0.029 A 
ATOM     49  C   UNL A   1      39.176  33.341  32.396  1.00  0.00     0.049 A 
ATOM     50  H   UNL A   1      37.641  34.088  31.132  1.00  0.00     0.167 HD
ATOM     51  C   UNL A   1      40.773  28.161  28.421  1.00  0.00     0.031 A 
ATOM     52  C   UNL A   1      38.616  32.814  33.526  1.00  0.00     0.031 A 
ATOM     53  C   UNL A   1      41.522  28.554  29.606  1.00  0.00     0.049 A 
ATOM     54  C   UNL A   1      39.329  31.553  33.946  1.00  0.00     0.074 A 
ATOM     55  C   UNL A   1      42.482  29.536  29.791  1.00  0.00     0.029 A 
ATOM     56  N   UNL A   1      41.047  28.211  30.863  1.00  0.00    -0.354 N 
ATOM     57  N   UNL A   1      39.822  30.673  33.119  1.00  0.00    -0.248 NA
ATOM     58  C   UNL A   1      39.592  31.238  35.343  1.00  0.00     0.031 C 
ATOM     59  C   UNL A   1      42.536  29.834  31.175  1.00  0.00     0.029 A 
ATOM     60  C   UNL A   1      41.628  29.015  31.824  1.00  0.00     0.049 A 
ATOM     61  H   UNL A   1      40.391  27.499  31.044  1.00  0.00     0.167 HD
ATOM     62  C   UNL A   1      40.563  29.763  33.833  1.00  0.00     0.074 A 
ATOM     63  C   UNL A   1      40.355  30.139  35.221  1.00  0.00     0.031 C 
ATOM     64  C   UNL A   1      41.335  28.808  33.233  1.00  0.00     0.031 A 
BRANCH  51  65
ATOM     65  C   UNL A   1      41.401  27.486  27.228  1.00  0.00    -0.014 A 
ATOM     66  C   UNL A   1      41.563  26.085  27.240  1.00  0.00     0.009 A 
ATOM     67  C   UNL A   1      41.888  28.158  26.096  1.00  0.00     0.009 A 
ATOM     68  C   UNL A   1      42.248  25.401  26.230  1.00  0.00     0.001 A 
ATOM     69  C   UNL A   1      42.594  27.480  25.087  1.00  0.00     0.001 A 
ATOM     70  C   UNL A   1      42.785  26.103  25.161  1.00  0.00     0.000 A 
ENDBRANCH  51  65
BRANCH  52  71
ATOM     71  C   UNL A   1      37.149  33.061  33.736  1.00  0.00    -0.014 A 
ATOM     72  C   UNL A   1      36.734  34.229  34.417  1.00  0.00     0.009 A 
ATOM     73  C   UNL A   1      36.154  32.285  33.120  1.00  0.00     0.009 A 
ATOM     74  C   UNL A   1      35.398  34.649  34.409  1.00  0.00     0.001 A 
ATOM     75  C   UNL A   1      34.809  32.696  33.133  1.00  0.00     0.001 A 
ATOM     76  C   UNL A   1      34.436  33.885  33.760  1.00  0.00     0.000 A 
ENDBRANCH  52  71
BRANCH  64  77
ATOM     77  C   UNL A   1      42.003  27.626  33.897  1.00  0.00    -0.014 A 
ATOM     78  C   UNL A   1      41.404  26.801  34.853  1.00  0.00     0.009 A 
ATOM     79  C   UNL A   1      43.284  27.224  33.439  1.00  0.00     0.009 A 
ATOM     80  C   UNL A   1      42.058  25.666  35.350  1.00  0.00     0.001 A 
ATOM     81  C   UNL A   1      43.916  26.065  33.889  1.00  0.00     0.001 A 
ATOM     82  C   UNL A   1      43.304  25.290  34.858  1.00  0.00     0.000 A 
ENDBRANCH  64  77
ENDBRANCH  38  39
ENDBRANCH  31  33
ENDBRANCH  30  31
ENDBRANCH  29  30
ENDBRANCH   1  29
TORSDOF 16
ENDMDL
MODEL 2
REMARK VINA RESULT:     -12.1      1.874      4.656
REMARK SMILES Cc1cccc(-c2cc(C[C@]3(C(=O)OCCOC(=O)c4ccc(-c5c6nc(c(-c7ccccc7)c7ccc([nH]7)c(-c7ccccc7)c7nc(c(-c8ccccc8)c8ccc5[nH]8)C=C7)C=C6)cc4)CCCN(C(=O)C(C)C)C3)on2)c1
REMARK SMILES IDX 15 1 14 2 12 3 13 4 11 5 68 6 77 7 69 8 71 9 70 10 10 11
REMARK SMILES IDX 9 12 7 13 8 14 79 15 78 16 6 17 1 18 2 19 3 20 80 21 4 22
REMARK SMILES IDX 5 23 72 24 73 25 74 26 75 27 76 28 16 29 17 30 18 31 19 32
REMARK SMILES IDX 20 33 21 34 67 35 22 36 66 37 23 38 24 39 25 40 60 41 26 42
REMARK SMILES IDX 65 43 59 44 61 45 27 46 64 47 58 48 57 49 28 51 50 52 35 53
REMARK SMILES IDX 49 54 36 55 39 56 48 57 62 58 37 59 38 60 47 62 63 63 40 64
REMARK SMILES IDX 29 65 30 66 34 67 31 68 33 69 32 70 51 71 52 72 56 73 53 74
REMARK SMILES IDX 55 75 54 76 41 77 42 78 46 79 43 80 45 81 44 82
REMARK H PARENT 61 50 39 61
REMARK Flexibility Score: inf
ROOT
ATOM      1  C   UNL A   1      32.250  29.423  27.121  1.00  0.00     0.274 C 
ENDROOT
BRANCH   1   2
ATOM      2  O   UNL A   1      32.661  28.307  26.301  1.00  0.00    -0.462 OA
BRANCH   2   3
ATOM      3  C   UNL A   1      31.815  27.233  26.424  1.00  0.00     0.314 C 
ATOM      4  O   UNL A   1      31.054  27.120  27.382  1.00  0.00    -0.252 OA
BRANCH   3   5
ATOM      5  C   UNL A   1      32.023  26.102  25.389  1.00  0.00     0.093 C 
ATOM      6  C   UNL A   1      33.220  26.596  24.525  1.00  0.00     0.023 C 
ATOM      7  C   UNL A   1      32.370  24.864  26.273  1.00  0.00     0.138 C 
ATOM      8  C   UNL A   1      34.177  25.511  24.041  1.00  0.00     0.023 C 
ATOM      9  N   UNL A   1      33.262  23.931  25.614  1.00  0.00    -0.341 N 
ATOM     10  C   UNL A   1      34.499  24.552  25.174  1.00  0.00     0.119 C 
BRANCH   5  11
ATOM     11  C   UNL A   1      30.742  25.802  24.548  1.00  0.00     0.099 C 
BRANCH  11  12
ATOM     12  C   UNL A   1      29.946  26.953  23.972  1.00  0.00     0.138 A 
ATOM     13  C   UNL A   1      29.022  28.760  23.011  1.00  0.00     0.114 A 
ATOM     14  C   UNL A   1      30.263  28.178  23.412  1.00  0.00     0.077 A 
ATOM     15  N   UNL A   1      28.023  27.901  23.276  1.00  0.00    -0.080 NA
ATOM     16  O   UNL A   1      28.601  26.778  23.848  1.00  0.00    -0.361 OA
BRANCH  13  17
ATOM     17  C   UNL A   1      28.756  30.115  22.497  1.00  0.00     0.004 A 
ATOM     18  C   UNL A   1      29.190  33.831  23.348  1.00  0.00     0.044 C 
ATOM     19  C   UNL A   1      28.795  32.557  22.657  1.00  0.00    -0.050 A 
ATOM     20  C   UNL A   1      28.140  32.658  21.423  1.00  0.00     0.003 A 
ATOM     21  C   UNL A   1      29.082  31.282  23.202  1.00  0.00     0.014 A 
ATOM     22  C   UNL A   1      27.827  31.512  20.710  1.00  0.00     0.001 A 
ATOM     23  C   UNL A   1      28.161  30.264  21.238  1.00  0.00     0.010 A 
ENDBRANCH  13  17
ENDBRANCH  11  12
ENDBRANCH   5  11
BRANCH   9  24
ATOM     24  C   UNL A   1      32.865  22.617  25.478  1.00  0.00     0.225 C 
ATOM     25  O   UNL A   1      32.527  21.951  26.464  1.00  0.00    -0.275 OA
BRANCH  24  26
ATOM     26  C   UNL A   1      32.868  21.933  24.117  1.00  0.00     0.072 C 
ATOM     27  C   UNL A   1      32.624  20.429  24.129  1.00  0.00     0.018 C 
ATOM     28  C   UNL A   1      31.964  22.668  23.142  1.00  0.00     0.018 C 
ENDBRANCH  24  26
ENDBRANCH   9  24
ENDBRANCH   3   5
ENDBRANCH   2   3
ENDBRANCH   1   2
BRANCH   1  29
ATOM     29  C   UNL A   1      32.649  30.815  26.613  1.00  0.00     0.275 C 
BRANCH  29  30
ATOM     30  O   UNL A   1      32.449  31.963  27.472  1.00  0.00    -0.458 OA
BRANCH  30  31
ATOM     31  C   UNL A   1      33.335  32.918  27.824  1.00  0.00     0.338 C 
ATOM     32  O   UNL A   1      33.034  34.105  27.876  1.00  0.00    -0.246 OA
BRANCH  31  33
ATOM     33  C   UNL A   1      34.674  32.482  28.234  1.00  0.00     0.060 A 
ATOM     34  C   UNL A   1      35.759  33.272  27.838  1.00  0.00     0.016 A 
ATOM     35  C   UNL A   1      34.845  31.373  29.059  1.00  0.00     0.016 A 
ATOM     36  C   UNL A   1      37.020  33.024  28.361  1.00  0.00     0.010 A 
ATOM     37  C   UNL A   1      36.086  31.152  29.621  1.00  0.00     0.010 A 
ATOM     38  C   UNL A   1      37.168  31.974  29.268  1.00  0.00    -0.014 A 
BRANCH  38  39
ATOM     39  C   UNL A   1      38.478  31.427  29.571  1.00  0.00     0.031 A 
ATOM     40  C   UNL A   1      38.982  30.156  29.029  1.00  0.00     0.074 A 
ATOM     41  C   UNL A   1      39.164  32.227  30.411  1.00  0.00     0.049 A 
ATOM     42  N   UNL A   1      39.848  29.420  29.639  1.00  0.00    -0.248 NA
ATOM     43  C   UNL A   1      38.524  29.569  27.771  1.00  0.00     0.031 C 
ATOM     44  C   UNL A   1      40.550  32.208  30.826  1.00  0.00     0.029 A 
ATOM     45  N   UNL A   1      38.561  33.165  31.256  1.00  0.00    -0.354 N 
ATOM     46  C   UNL A   1      40.283  28.473  28.737  1.00  0.00     0.074 A 
ATOM     47  C   UNL A   1      39.338  28.511  27.649  1.00  0.00     0.031 C 
ATOM     48  C   UNL A   1      40.646  32.880  31.993  1.00  0.00     0.029 A 
ATOM     49  C   UNL A   1      39.284  33.176  32.439  1.00  0.00     0.049 A 
ATOM     50  H   UNL A   1      37.770  33.714  31.050  1.00  0.00     0.167 HD
ATOM     51  C   UNL A   1      41.516  27.916  28.897  1.00  0.00     0.031 A 
ATOM     52  C   UNL A   1      38.703  32.672  33.569  1.00  0.00     0.031 A 
ATOM     53  C   UNL A   1      42.162  28.441  30.092  1.00  0.00     0.049 A 
ATOM     54  C   UNL A   1      39.489  31.503  34.107  1.00  0.00     0.074 A 
ATOM     55  C   UNL A   1      43.028  29.508  30.263  1.00  0.00     0.029 A 
ATOM     56  N   UNL A   1      41.643  28.136  31.342  1.00  0.00    -0.354 N 
ATOM     57  N   UNL A   1      40.098  30.619  33.366  1.00  0.00    -0.248 NA
ATOM     58  C   UNL A   1      39.695  31.296  35.533  1.00  0.00     0.031 C 
ATOM     59  C   UNL A   1      42.978  29.893  31.626  1.00  0.00     0.029 A 
ATOM     60  C   UNL A   1      42.102  29.041  32.278  1.00  0.00     0.049 A 
ATOM     61  H   UNL A   1      41.037  27.384  31.533  1.00  0.00     0.167 HD
ATOM     62  C   UNL A   1      40.866  29.818  34.175  1.00  0.00     0.074 A 
ATOM     63  C   UNL A   1      40.550  30.258  35.524  1.00  0.00     0.031 C 
ATOM     64  C   UNL A   1      41.746  28.896  33.680  1.00  0.00     0.031 A 
BRANCH  51  65
ATOM     65  C   UNL A   1      42.264  27.225  27.785  1.00  0.00    -0.014 A 
ATOM     66  C   UNL A   1      42.606  25.865  27.932  1.00  0.00     0.009 A 
ATOM     67  C   UNL A   1      42.695  27.851  26.605  1.00  0.00     0.009 A 
ATOM     68  C   UNL A   1      43.406  25.189  27.004  1.00  0.00     0.001 A 
ATOM     69  C   UNL A   1      43.515  27.184  25.678  1.00  0.00     0.001 A 
ATOM     70  C   UNL A   1      43.881  25.857  25.884  1.00  0.00     0.000 A 
ENDBRANCH  51  65
BRANCH  52  71
ATOM     71  C   UNL A   1      37.212  32.809  33.685  1.00  0.00    -0.014 A 
ATOM     72  C   UNL A   1      36.671  33.839  34.489  1.00  0.00     0.009 A 
ATOM     73  C   UNL A   1      36.320  32.084  32.880  1.00  0.00     0.009 A 
ATOM     74  C   UNL A   1      35.315  34.185  34.427  1.00  0.00     0.001 A 
ATOM     75  C   UNL A   1      34.954  32.417  32.836  1.00  0.00     0.001 A 
ATOM     76  C   UNL A   1      34.458  33.478  33.593  1.00  0.00     0.000 A 
ENDBRANCH  52  71
BRANCH  64  77
ATOM     77  C   UNL A   1      42.466  27.816  34.454  1.00  0.00    -0.014 A 
ATOM     78  C   UNL A   1      43.810  27.864  34.834  1.00  0.00     0.009 A 
ATOM     79  C   UNL A   1      41.713  26.723  34.955  1.00  0.00     0.009 A 
ATOM     80  C   UNL A   1      44.379  26.865  35.634  1.00  0.00     0.001 A 
ATOM     81  C   UNL A   1      42.260  25.755  35.797  1.00  0.00     0.001 A 
ATOM     82  C   UNL A   1      43.602  25.821  36.129  1.00  0.00     0.000 A 
ENDBRANCH  64  77
ENDBRANCH  38  39
ENDBRANCH  31  33
ENDBRANCH  30  31
ENDBRANCH  29  30
ENDBRANCH   1  29
TORSDOF 16
ENDMDL
MODEL 3
REMARK VINA RESULT:     -12.0      2.435      5.608
REMARK SMILES Cc1cccc(-c2cc(C[C@]3(C(=O)OCCOC(=O)c4ccc(-c5c6nc(c(-c7ccccc7)c7ccc([nH]7)c(-c7ccccc7)c7nc(c(-c8ccccc8)c8ccc5[nH]8)C=C7)C=C6)cc4)CCCN(C(=O)C(C)C)C3)on2)c1
REMARK SMILES IDX 15 1 14 2 12 3 13 4 11 5 68 6 77 7 69 8 71 9 70 10 10 11
REMARK SMILES IDX 9 12 7 13 8 14 79 15 78 16 6 17 1 18 2 19 3 20 80 21 4 22
REMARK SMILES IDX 5 23 72 24 73 25 74 26 75 27 76 28 16 29 17 30 18 31 19 32
REMARK SMILES IDX 20 33 21 34 67 35 22 36 66 37 23 38 24 39 25 40 60 41 26 42
REMARK SMILES IDX 65 43 59 44 61 45 27 46 64 47 58 48 57 49 28 51 50 52 35 53
REMARK SMILES IDX 49 54 36 55 39 56 48 57 62 58 37 59 38 60 47 62 63 63 40 64
REMARK SMILES IDX 29 65 30 66 34 67 31 68 33 69 32 70 51 71 52 72 56 73 53 74
REMARK SMILES IDX 55 75 54 76 41 77 42 78 46 79 43 80 45 81 44 82
REMARK H PARENT 61 50 39 61
REMARK Flexibility Score: inf
ROOT
ATOM      1  C   UNL A   1      33.099  28.768  27.175  1.00  0.00     0.274 C 
ENDROOT
BRANCH   1   2
ATOM      2  O   UNL A   1      33.494  27.433  26.785  1.00  0.00    -0.462 OA
BRANCH   2   3
ATOM      3  C   UNL A   1      32.415  26.647  26.462  1.00  0.00     0.314 C 
ATOM      4  O   UNL A   1      31.333  26.776  27.027  1.00  0.00    -0.252 OA
BRANCH   3   5
ATOM      5  C   UNL A   1      32.713  25.481  25.489  1.00  0.00     0.093 C 
ATOM      6  C   UNL A   1      34.266  25.459  25.389  1.00  0.00     0.023 C 
ATOM      7  C   UNL A   1      32.124  24.239  26.226  1.00  0.00     0.138 C 
ATOM      8  C   UNL A   1      34.899  24.077  25.258  1.00  0.00     0.023 C 
ATOM      9  N   UNL A   1      32.845  23.015  25.936  1.00  0.00    -0.341 N 
ATOM     10  C   UNL A   1      34.262  23.112  26.242  1.00  0.00     0.119 C 
BRANCH   5  11
ATOM     11  C   UNL A   1      32.012  25.649  24.104  1.00  0.00     0.099 C 
BRANCH  11  12
ATOM     12  C   UNL A   1      31.571  27.026  23.658  1.00  0.00     0.138 A 
ATOM     13  C   UNL A   1      30.675  29.024  23.160  1.00  0.00     0.114 A 
ATOM     14  C   UNL A   1      30.387  27.740  23.716  1.00  0.00     0.077 A 
ATOM     15  N   UNL A   1      31.977  29.084  22.835  1.00  0.00    -0.080 NA
ATOM     16  O   UNL A   1      32.531  27.857  23.165  1.00  0.00    -0.361 OA
BRANCH  13  17
ATOM     17  C   UNL A   1      29.749  30.125  22.841  1.00  0.00     0.004 A 
ATOM     18  C   UNL A   1      27.906  31.801  19.923  1.00  0.00     0.044 C 
ATOM     19  C   UNL A   1      28.438  31.496  21.294  1.00  0.00    -0.050 A 
ATOM     20  C   UNL A   1      28.012  32.304  22.356  1.00  0.00     0.003 A 
ATOM     21  C   UNL A   1      29.326  30.419  21.537  1.00  0.00     0.014 A 
ATOM     22  C   UNL A   1      28.411  32.013  23.650  1.00  0.00     0.001 A 
ATOM     23  C   UNL A   1      29.246  30.919  23.880  1.00  0.00     0.010 A 
ENDBRANCH  13  17
ENDBRANCH  11  12
ENDBRANCH   5  11
BRANCH   9  24
ATOM     24  C   UNL A   1      32.149  21.940  25.424  1.00  0.00     0.225 C 
ATOM     25  O   UNL A   1      31.058  21.605  25.901  1.00  0.00    -0.275 OA
BRANCH  24  26
ATOM     26  C   UNL A   1      32.717  21.108  24.281  1.00  0.00     0.072 C 
ATOM     27  C   UNL A   1      32.476  19.606  24.369  1.00  0.00     0.018 C 
ATOM     28  C   UNL A   1      32.315  21.692  22.937  1.00  0.00     0.018 C 
ENDBRANCH  24  26
ENDBRANCH   9  24
ENDBRANCH   3   5
ENDBRANCH   2   3
ENDBRANCH   1   2
BRANCH   1  29
ATOM     29  C   UNL A   1      34.072  29.893  26.802  1.00  0.00     0.275 C 
BRANCH  29  30
ATOM     30  O   UNL A   1      34.180  31.047  27.668  1.00  0.00    -0.458 OA
BRANCH  30  31
ATOM     31  C   UNL A   1      35.004  31.238  28.721  1.00  0.00     0.338 C 
ATOM     32  O   UNL A   1      34.679  31.908  29.695  1.00  0.00    -0.246 OA
BRANCH  31  33
ATOM     33  C   UNL A   1      36.293  30.540  28.707  1.00  0.00     0.060 A 
ATOM     34  C   UNL A   1      36.543  29.626  29.738  1.00  0.00     0.016 A 
ATOM     35  C   UNL A   1      37.194  30.718  27.660  1.00  0.00     0.016 A 
ATOM     36  C   UNL A   1      37.650  28.793  29.667  1.00  0.00     0.010 A 
ATOM     37  C   UNL A   1      38.269  29.859  27.559  1.00  0.00     0.010 A 
ATOM     38  C   UNL A   1      38.496  28.905  28.563  1.00  0.00    -0.014 A 
BRANCH  38  39
ATOM     39  C   UNL A   1      39.836  28.348  28.589  1.00  0.00     0.031 A 
ATOM     40  C   UNL A   1      40.162  26.972  28.184  1.00  0.00     0.074 A 
ATOM     41  C   UNL A   1      40.736  29.249  29.033  1.00  0.00     0.049 A 
ATOM     42  N   UNL A   1      41.163  26.312  28.659  1.00  0.00    -0.248 NA
ATOM     43  C   UNL A   1      39.363  26.191  27.242  1.00  0.00     0.031 C 
ATOM     44  C   UNL A   1      42.183  29.226  29.041  1.00  0.00     0.029 A 
ATOM     45  N   UNL A   1      40.401  30.360  29.815  1.00  0.00    -0.354 N 
ATOM     46  C   UNL A   1      41.321  25.192  27.872  1.00  0.00     0.074 A 
ATOM     47  C   UNL A   1      40.105  25.083  27.105  1.00  0.00     0.031 C 
ATOM     48  C   UNL A   1      42.609  30.095  29.981  1.00  0.00     0.029 A 
ATOM     49  C   UNL A   1      41.431  30.547  30.724  1.00  0.00     0.049 A 
ATOM     50  H   UNL A   1      39.586  30.907  29.735  1.00  0.00     0.167 HD
ATOM     51  C   UNL A   1      42.547  24.604  27.787  1.00  0.00     0.031 A 
ATOM     52  C   UNL A   1      41.195  30.295  32.046  1.00  0.00     0.031 A 
ATOM     53  C   UNL A   1      43.507  25.301  28.630  1.00  0.00     0.049 A 
ATOM     54  C   UNL A   1      42.097  29.202  32.560  1.00  0.00     0.074 A 
ATOM     55  C   UNL A   1      44.390  26.331  28.343  1.00  0.00     0.029 A 
ATOM     56  N   UNL A   1      43.366  25.263  30.009  1.00  0.00    -0.354 N 
ATOM     57  N   UNL A   1      42.467  28.162  31.863  1.00  0.00    -0.248 NA
ATOM     58  C   UNL A   1      42.700  29.250  33.884  1.00  0.00     0.031 C 
ATOM     59  C   UNL A   1      44.731  26.962  29.565  1.00  0.00     0.029 A 
ATOM     60  C   UNL A   1      44.074  26.298  30.587  1.00  0.00     0.049 A 
ATOM     61  H   UNL A   1      42.836  24.596  30.503  1.00  0.00     0.167 HD
ATOM     62  C   UNL A   1      43.432  27.482  32.565  1.00  0.00     0.074 A 
ATOM     63  C   UNL A   1      43.514  28.181  33.837  1.00  0.00     0.031 C 
ATOM     64  C   UNL A   1      44.132  26.435  32.033  1.00  0.00     0.031 A 
BRANCH  51  65
ATOM     65  C   UNL A   1      42.945  23.677  26.666  1.00  0.00    -0.014 A 
ATOM     66  C   UNL A   1      42.921  22.285  26.887  1.00  0.00     0.009 A 
ATOM     67  C   UNL A   1      43.389  24.099  25.403  1.00  0.00     0.009 A 
ATOM     68  C   UNL A   1      43.395  21.368  25.942  1.00  0.00     0.001 A 
ATOM     69  C   UNL A   1      43.884  23.185  24.457  1.00  0.00     0.001 A 
ATOM     70  C   UNL A   1      43.899  21.820  24.732  1.00  0.00     0.000 A 
ENDBRANCH  51  65
BRANCH  52  71
ATOM     71  C   UNL A   1      39.798  30.537  32.545  1.00  0.00    -0.014 A 
ATOM     72  C   UNL A   1      39.191  31.795  32.323  1.00  0.00     0.009 A 
ATOM     73  C   UNL A   1      38.987  29.510  33.052  1.00  0.00     0.009 A 
ATOM     74  C   UNL A   1      37.819  31.995  32.518  1.00  0.00     0.001 A 
ATOM     75  C   UNL A   1      37.613  29.719  33.270  1.00  0.00     0.001 A 
ATOM     76  C   UNL A   1      37.028  30.952  32.985  1.00  0.00     0.000 A 
ENDBRANCH  52  71
BRANCH  64  77
ATOM     77  C   UNL A   1      45.039  25.476  32.769  1.00  0.00    -0.014 A 
ATOM     78  C   UNL A   1      46.350  25.757  33.161  1.00  0.00     0.009 A 
ATOM     79  C   UNL A   1      44.501  24.244  33.221  1.00  0.00     0.009 A 
ATOM     80  C   UNL A   1      47.094  24.848  33.925  1.00  0.00     0.001 A 
ATOM     81  C   UNL A   1      45.217  23.360  34.028  1.00  0.00     0.001 A 
ATOM     82  C   UNL A   1      46.524  23.659  34.372  1.00  0.00     0.000 A 
ENDBRANCH  64  77
ENDBRANCH  38  39
ENDBRANCH  31  33
ENDBRANCH  30  31
ENDBRANCH  29  30
ENDBRANCH   1  29
TORSDOF 16
ENDMDL
