MODEL 1
REMARK VINA RESULT:      -9.4      0.000      0.000
REMARK SMILES Cc1c(C)c2c(c(C)c1O)CC[C@@](C)(C(=O)OCCOC(=O)c1ccc(-c3c4nc(c(-c5ccccc5)c5ccc([nH]5)c(-c5ccccc5)c5nc(c(-c6ccccc6)c6ccc3[nH]6)C=C5)C=C4)cc1)O2
REMARK SMILES IDX 19 1 18 2 17 3 15 4 16 5 13 6 1 7 2 8 3 9 9 10 4 11 5 12
REMARK SMILES IDX 7 13 6 14 71 15 8 16 11 17 12 18 14 19 10 20 20 22 21 23
REMARK SMILES IDX 22 24 23 25 24 26 70 27 25 28 69 29 26 30 27 31 28 32 63 33
REMARK SMILES IDX 29 34 68 35 62 36 64 37 30 38 67 39 61 40 60 41 31 43 53 44
REMARK SMILES IDX 38 45 52 46 39 47 42 48 51 49 65 50 40 51 41 52 50 54 66 55
REMARK SMILES IDX 43 56 32 57 33 58 37 59 34 60 36 61 35 62 54 63 55 64 59 65
REMARK SMILES IDX 56 66 58 67 57 68 44 69 45 70 49 71 46 72 48 73 47 74
REMARK H PARENT 10 21 64 42 42 53
REMARK Flexibility Score: inf
ROOT
ATOM      1  C   UNL A   1      43.026  18.866  25.066  1.00  0.00     0.275 C 
ENDROOT
BRANCH   1   2
ATOM      2  C   UNL A   1      44.511  19.176  25.254  1.00  0.00     0.274 C 
BRANCH   2   3
ATOM      3  O   UNL A   1      44.996  20.055  24.218  1.00  0.00    -0.459 OA
BRANCH   3   4
ATOM      4  C   UNL A   1      45.976  20.938  24.571  1.00  0.00     0.350 C 
ATOM      5  O   UNL A   1      47.175  20.684  24.512  1.00  0.00    -0.247 OA
BRANCH   4   6
ATOM      6  C   UNL A   1      45.395  22.266  25.110  1.00  0.00     0.203 C 
ATOM      7  C   UNL A   1      48.220  27.749  25.894  1.00  0.00     0.049 C 
ATOM      8  C   UNL A   1      47.069  26.796  25.679  1.00  0.00    -0.002 A 
ATOM      9  C   UNL A   1      47.292  25.403  25.540  1.00  0.00    -0.002 A 
ATOM     10  C   UNL A   1      45.753  27.280  25.564  1.00  0.00     0.122 A 
ATOM     11  C   UNL A   1      48.687  24.845  25.695  1.00  0.00     0.049 C 
ATOM     12  C   UNL A   1      46.204  24.542  25.271  1.00  0.00     0.127 A 
ATOM     13  C   UNL A   1      44.666  26.425  25.319  1.00  0.00    -0.002 A 
ATOM     14  C   UNL A   1      44.907  25.051  25.105  1.00  0.00     0.001 A 
ATOM     15  O   UNL A   1      46.491  23.202  25.168  1.00  0.00    -0.475 OA
ATOM     16  C   UNL A   1      43.263  26.975  25.246  1.00  0.00     0.049 C 
ATOM     17  C   UNL A   1      43.777  24.134  24.717  1.00  0.00     0.044 C 
ATOM     18  C   UNL A   1      44.294  22.804  24.198  1.00  0.00     0.065 C 
ATOM     19  C   UNL A   1      44.925  21.965  26.540  1.00  0.00     0.069 C 
BRANCH  10  20
ATOM     20  O   UNL A   1      45.468  28.617  25.678  1.00  0.00    -0.507 OA
ATOM     21  H   UNL A   1      44.974  28.930  26.411  1.00  0.00     0.293 HD
ENDBRANCH  10  20
ENDBRANCH   4   6
ENDBRANCH   3   4
ENDBRANCH   2   3
ENDBRANCH   1   2
BRANCH   1  22
ATOM     22  O   UNL A   1      42.329  19.020  26.315  1.00  0.00    -0.458 OA
BRANCH  22  23
ATOM     23  C   UNL A   1      41.165  19.706  26.264  1.00  0.00     0.338 C 
ATOM     24  O   UNL A   1      40.085  19.323  25.855  1.00  0.00    -0.246 OA
BRANCH  23  25
ATOM     25  C   UNL A   1      41.379  21.029  26.867  1.00  0.00     0.060 A 
ATOM     26  C   UNL A   1      41.221  22.152  26.060  1.00  0.00     0.016 A 
ATOM     27  C   UNL A   1      41.822  21.159  28.183  1.00  0.00     0.016 A 
ATOM     28  C   UNL A   1      41.536  23.410  26.554  1.00  0.00     0.010 A 
ATOM     29  C   UNL A   1      42.104  22.435  28.691  1.00  0.00     0.010 A 
ATOM     30  C   UNL A   1      41.984  23.570  27.870  1.00  0.00    -0.014 A 
BRANCH  30  31
ATOM     31  C   UNL A   1      42.413  24.918  28.318  1.00  0.00     0.031 A 
ATOM     32  C   UNL A   1      41.384  25.993  28.532  1.00  0.00     0.074 A 
ATOM     33  C   UNL A   1      43.696  25.150  28.657  1.00  0.00     0.049 A 
ATOM     34  N   UNL A   1      41.556  27.246  28.872  1.00  0.00    -0.248 NA
ATOM     35  C   UNL A   1      39.977  25.605  28.355  1.00  0.00     0.031 C 
ATOM     36  C   UNL A   1      44.774  24.159  28.620  1.00  0.00     0.029 A 
ATOM     37  N   UNL A   1      44.301  26.281  29.144  1.00  0.00    -0.354 N 
ATOM     38  C   UNL A   1      40.284  27.800  28.917  1.00  0.00     0.074 A 
ATOM     39  C   UNL A   1      39.350  26.754  28.563  1.00  0.00     0.031 C 
ATOM     40  C   UNL A   1      45.891  24.710  29.121  1.00  0.00     0.029 A 
ATOM     41  C   UNL A   1      45.631  26.110  29.443  1.00  0.00     0.049 A 
ATOM     42  H   UNL A   1      43.827  27.135  29.268  1.00  0.00     0.167 HD
ATOM     43  C   UNL A   1      39.924  29.069  29.227  1.00  0.00     0.031 A 
ATOM     44  C   UNL A   1      46.544  26.986  29.903  1.00  0.00     0.031 A 
ATOM     45  C   UNL A   1      40.848  30.108  29.595  1.00  0.00     0.049 A 
ATOM     46  C   UNL A   1      46.143  28.416  30.127  1.00  0.00     0.074 A 
ATOM     47  C   UNL A   1      40.583  31.439  29.871  1.00  0.00     0.029 A 
ATOM     48  N   UNL A   1      42.212  29.928  29.753  1.00  0.00    -0.354 N 
ATOM     49  N   UNL A   1      44.953  28.960  30.054  1.00  0.00    -0.248 NA
ATOM     50  C   UNL A   1      47.219  29.360  30.464  1.00  0.00     0.031 C 
ATOM     51  C   UNL A   1      41.797  32.072  30.162  1.00  0.00     0.029 A 
ATOM     52  C   UNL A   1      42.807  31.125  30.110  1.00  0.00     0.049 A 
ATOM     53  H   UNL A   1      42.687  29.074  29.628  1.00  0.00     0.167 HD
ATOM     54  C   UNL A   1      45.135  30.307  30.336  1.00  0.00     0.074 A 
ATOM     55  C   UNL A   1      46.546  30.495  30.604  1.00  0.00     0.031 C 
ATOM     56  C   UNL A   1      44.213  31.299  30.360  1.00  0.00     0.031 A 
BRANCH  43  57
ATOM     57  C   UNL A   1      38.465  29.410  29.135  1.00  0.00    -0.014 A 
ATOM     58  C   UNL A   1      37.871  29.748  27.909  1.00  0.00     0.009 A 
ATOM     59  C   UNL A   1      37.672  29.371  30.292  1.00  0.00     0.009 A 
ATOM     60  C   UNL A   1      36.513  30.069  27.851  1.00  0.00     0.001 A 
ATOM     61  C   UNL A   1      36.311  29.670  30.227  1.00  0.00     0.001 A 
ATOM     62  C   UNL A   1      35.734  30.027  29.008  1.00  0.00     0.000 A 
ENDBRANCH  43  57
BRANCH  44  63
ATOM     63  C   UNL A   1      47.941  26.542  30.150  1.00  0.00    -0.014 A 
ATOM     64  C   UNL A   1      48.892  26.584  29.118  1.00  0.00     0.009 A 
ATOM     65  C   UNL A   1      48.332  26.083  31.417  1.00  0.00     0.009 A 
ATOM     66  C   UNL A   1      50.206  26.173  29.353  1.00  0.00     0.001 A 
ATOM     67  C   UNL A   1      49.653  25.697  31.655  1.00  0.00     0.001 A 
ATOM     68  C   UNL A   1      50.587  25.738  30.623  1.00  0.00     0.000 A 
ENDBRANCH  44  63
BRANCH  56  69
ATOM     69  C   UNL A   1      44.698  32.681  30.691  1.00  0.00    -0.014 A 
ATOM     70  C   UNL A   1      44.821  33.098  32.025  1.00  0.00     0.009 A 
ATOM     71  C   UNL A   1      45.096  33.548  29.662  1.00  0.00     0.009 A 
ATOM     72  C   UNL A   1      45.318  34.369  32.322  1.00  0.00     0.001 A 
ATOM     73  C   UNL A   1      45.612  34.809  29.963  1.00  0.00     0.001 A 
ATOM     74  C   UNL A   1      45.718  35.220  31.291  1.00  0.00     0.000 A 
ENDBRANCH  56  69
ENDBRANCH  30  31
ENDBRANCH  23  25
ENDBRANCH  22  23
ENDBRANCH   1  22
TORSDOF 12
ENDMDL
MODEL 2
REMARK VINA RESULT:      -9.4      4.892     10.564
REMARK SMILES Cc1c(C)c2c(c(C)c1O)CC[C@@](C)(C(=O)OCCOC(=O)c1ccc(-c3c4nc(c(-c5ccccc5)c5ccc([nH]5)c(-c5ccccc5)c5nc(c(-c6ccccc6)c6ccc3[nH]6)C=C5)C=C4)cc1)O2
REMARK SMILES IDX 19 1 18 2 17 3 15 4 16 5 13 6 1 7 2 8 3 9 9 10 4 11 5 12
REMARK SMILES IDX 7 13 6 14 71 15 8 16 11 17 12 18 14 19 10 20 20 22 21 23
REMARK SMILES IDX 22 24 23 25 24 26 70 27 25 28 69 29 26 30 27 31 28 32 63 33
REMARK SMILES IDX 29 34 68 35 62 36 64 37 30 38 67 39 61 40 60 41 31 43 53 44
REMARK SMILES IDX 38 45 52 46 39 47 42 48 51 49 65 50 40 51 41 52 50 54 66 55
REMARK SMILES IDX 43 56 32 57 33 58 37 59 34 60 36 61 35 62 54 63 55 64 59 65
REMARK SMILES IDX 56 66 58 67 57 68 44 69 45 70 49 71 46 72 48 73 47 74
REMARK H PARENT 10 21 64 42 42 53
REMARK Flexibility Score: inf
ROOT
ATOM      1  C   UNL A   1      33.569  33.299  27.915  1.00  0.00     0.275 C 
ENDROOT
BRANCH   1   2
ATOM      2  C   UNL A   1      33.626  34.181  29.163  1.00  0.00     0.274 C 
BRANCH   2   3
ATOM      3  O   UNL A   1      34.100  33.438  30.305  1.00  0.00    -0.459 OA
BRANCH   3   4
ATOM      4  C   UNL A   1      34.255  34.134  31.469  1.00  0.00     0.350 C 
ATOM      5  O   UNL A   1      33.437  34.944  31.893  1.00  0.00    -0.247 OA
BRANCH   4   6
ATOM      6  C   UNL A   1      35.609  33.827  32.154  1.00  0.00     0.203 C 
ATOM      7  C   UNL A   1      41.376  34.644  29.979  1.00  0.00     0.049 C 
ATOM      8  C   UNL A   1      40.289  34.491  31.016  1.00  0.00    -0.002 A 
ATOM      9  C   UNL A   1      38.932  34.349  30.634  1.00  0.00    -0.002 A 
ATOM     10  C   UNL A   1      40.600  34.536  32.387  1.00  0.00     0.122 A 
ATOM     11  C   UNL A   1      38.566  34.260  29.172  1.00  0.00     0.049 C 
ATOM     12  C   UNL A   1      37.928  34.278  31.627  1.00  0.00     0.127 A 
ATOM     13  C   UNL A   1      39.608  34.442  33.377  1.00  0.00    -0.002 A 
ATOM     14  C   UNL A   1      38.253  34.379  32.988  1.00  0.00     0.001 A 
ATOM     15  O   UNL A   1      36.636  34.121  31.186  1.00  0.00    -0.475 OA
ATOM     16  C   UNL A   1      39.984  34.449  34.839  1.00  0.00     0.049 C 
ATOM     17  C   UNL A   1      37.163  34.404  34.027  1.00  0.00     0.044 C 
ATOM     18  C   UNL A   1      35.807  34.682  33.405  1.00  0.00     0.065 C 
ATOM     19  C   UNL A   1      35.604  32.318  32.429  1.00  0.00     0.069 C 
BRANCH  10  20
ATOM     20  O   UNL A   1      41.892  34.681  32.825  1.00  0.00    -0.507 OA
ATOM     21  H   UNL A   1      42.507  33.982  32.711  1.00  0.00     0.293 HD
ENDBRANCH  10  20
ENDBRANCH   4   6
ENDBRANCH   3   4
ENDBRANCH   2   3
ENDBRANCH   1   2
BRANCH   1  22
ATOM     22  O   UNL A   1      34.795  32.559  27.780  1.00  0.00    -0.458 OA
BRANCH  22  23
ATOM     23  C   UNL A   1      34.704  31.223  27.962  1.00  0.00     0.338 C 
ATOM     24  O   UNL A   1      33.803  30.478  27.622  1.00  0.00    -0.246 OA
BRANCH  23  25
ATOM     25  C   UNL A   1      35.940  30.755  28.605  1.00  0.00     0.060 A 
ATOM     26  C   UNL A   1      37.155  31.223  28.113  1.00  0.00     0.016 A 
ATOM     27  C   UNL A   1      35.907  29.794  29.616  1.00  0.00     0.016 A 
ATOM     28  C   UNL A   1      38.345  30.711  28.608  1.00  0.00     0.010 A 
ATOM     29  C   UNL A   1      37.112  29.304  30.138  1.00  0.00     0.010 A 
ATOM     30  C   UNL A   1      38.343  29.745  29.619  1.00  0.00    -0.014 A 
BRANCH  30  31
ATOM     31  C   UNL A   1      39.636  29.146  30.037  1.00  0.00     0.031 A 
ATOM     32  C   UNL A   1      40.327  29.656  31.270  1.00  0.00     0.074 A 
ATOM     33  C   UNL A   1      40.128  28.068  29.397  1.00  0.00     0.049 A 
ATOM     34  N   UNL A   1      41.483  29.305  31.776  1.00  0.00    -0.248 NA
ATOM     35  C   UNL A   1      39.621  30.688  32.045  1.00  0.00     0.031 C 
ATOM     36  C   UNL A   1      39.493  27.392  28.265  1.00  0.00     0.029 A 
ATOM     37  N   UNL A   1      41.256  27.323  29.639  1.00  0.00    -0.354 N 
ATOM     38  C   UNL A   1      41.654  30.092  32.906  1.00  0.00     0.074 A 
ATOM     39  C   UNL A   1      40.492  30.946  33.010  1.00  0.00     0.031 C 
ATOM     40  C   UNL A   1      40.208  26.300  27.950  1.00  0.00     0.029 A 
ATOM     41  C   UNL A   1      41.390  26.241  28.805  1.00  0.00     0.049 A 
ATOM     42  H   UNL A   1      41.907  27.545  30.343  1.00  0.00     0.167 HD
ATOM     43  C   UNL A   1      42.688  30.104  33.780  1.00  0.00     0.031 A 
ATOM     44  C   UNL A   1      42.366  25.315  28.722  1.00  0.00     0.031 A 
ATOM     45  C   UNL A   1      43.840  29.246  33.689  1.00  0.00     0.049 A 
ATOM     46  C   UNL A   1      43.558  25.422  29.628  1.00  0.00     0.074 A 
ATOM     47  C   UNL A   1      44.964  29.223  34.496  1.00  0.00     0.029 A 
ATOM     48  N   UNL A   1      44.003  28.249  32.742  1.00  0.00    -0.354 N 
ATOM     49  N   UNL A   1      43.766  26.248  30.624  1.00  0.00    -0.248 NA
ATOM     50  C   UNL A   1      44.666  24.489  29.377  1.00  0.00     0.031 C 
ATOM     51  C   UNL A   1      45.826  28.232  34.012  1.00  0.00     0.029 A 
ATOM     52  C   UNL A   1      45.217  27.612  32.934  1.00  0.00     0.049 A 
ATOM     53  H   UNL A   1      43.353  28.027  32.036  1.00  0.00     0.167 HD
ATOM     54  C   UNL A   1      45.025  25.936  31.119  1.00  0.00     0.074 A 
ATOM     55  C   UNL A   1      45.525  24.830  30.329  1.00  0.00     0.031 C 
ATOM     56  C   UNL A   1      45.707  26.522  32.132  1.00  0.00     0.031 A 
BRANCH  43  57
ATOM     57  C   UNL A   1      42.637  31.114  34.890  1.00  0.00    -0.014 A 
ATOM     58  C   UNL A   1      43.292  32.350  34.782  1.00  0.00     0.009 A 
ATOM     59  C   UNL A   1      41.903  30.828  36.051  1.00  0.00     0.009 A 
ATOM     60  C   UNL A   1      43.236  33.270  35.832  1.00  0.00     0.001 A 
ATOM     61  C   UNL A   1      41.830  31.757  37.089  1.00  0.00     0.001 A 
ATOM     62  C   UNL A   1      42.502  32.974  36.982  1.00  0.00     0.000 A 
ENDBRANCH  43  57
BRANCH  44  63
ATOM     63  C   UNL A   1      42.272  24.226  27.716  1.00  0.00    -0.014 A 
ATOM     64  C   UNL A   1      41.619  23.024  28.030  1.00  0.00     0.009 A 
ATOM     65  C   UNL A   1      42.826  24.384  26.436  1.00  0.00     0.009 A 
ATOM     66  C   UNL A   1      41.524  22.003  27.081  1.00  0.00     0.001 A 
ATOM     67  C   UNL A   1      42.708  23.372  25.481  1.00  0.00     0.001 A 
ATOM     68  C   UNL A   1      42.062  22.181  25.806  1.00  0.00     0.000 A 
ENDBRANCH  44  63
BRANCH  56  69
ATOM     69  C   UNL A   1      47.069  25.978  32.450  1.00  0.00    -0.014 A 
ATOM     70  C   UNL A   1      47.248  25.048  33.484  1.00  0.00     0.009 A 
ATOM     71  C   UNL A   1      48.171  26.351  31.665  1.00  0.00     0.009 A 
ATOM     72  C   UNL A   1      48.512  24.513  33.740  1.00  0.00     0.001 A 
ATOM     73  C   UNL A   1      49.429  25.799  31.910  1.00  0.00     0.001 A 
ATOM     74  C   UNL A   1      49.599  24.885  32.949  1.00  0.00     0.000 A 
ENDBRANCH  56  69
ENDBRANCH  30  31
ENDBRANCH  23  25
ENDBRANCH  22  23
ENDBRANCH   1  22
TORSDOF 12
ENDMDL
MODEL 3
REMARK VINA RESULT:      -9.4      4.320      9.554
REMARK SMILES Cc1c(C)c2c(c(C)c1O)CC[C@@](C)(C(=O)OCCOC(=O)c1ccc(-c3c4nc(c(-c5ccccc5)c5ccc([nH]5)c(-c5ccccc5)c5nc(c(-c6ccccc6)c6ccc3[nH]6)C=C5)C=C4)cc1)O2
REMARK SMILES IDX 19 1 18 2 17 3 15 4 16 5 13 6 1 7 2 8 3 9 9 10 4 11 5 12
REMARK SMILES IDX 7 13 6 14 71 15 8 16 11 17 12 18 14 19 10 20 20 22 21 23
REMARK SMILES IDX 22 24 23 25 24 26 70 27 25 28 69 29 26 30 27 31 28 32 63 33
REMARK SMILES IDX 29 34 68 35 62 36 64 37 30 38 67 39 61 40 60 41 31 43 53 44
REMARK SMILES IDX 38 45 52 46 39 47 42 48 51 49 65 50 40 51 41 52 50 54 66 55
REMARK SMILES IDX 43 56 32 57 33 58 37 59 34 60 36 61 35 62 54 63 55 64 59 65
REMARK SMILES IDX 56 66 58 67 57 68 44 69 45 70 49 71 46 72 48 73 47 74
REMARK H PARENT 10 21 64 42 42 53
REMARK Flexibility Score: inf
ROOT
ATOM      1  C   UNL A   1      33.231  29.098  26.271  1.00  0.00     0.275 C 
ENDROOT
BRANCH   1   2
ATOM      2  C   UNL A   1      33.566  27.860  25.438  1.00  0.00     0.274 C 
BRANCH   2   3
ATOM      3  O   UNL A   1      33.557  26.667  26.250  1.00  0.00    -0.459 OA
BRANCH   3   4
ATOM      4  C   UNL A   1      32.392  25.957  26.284  1.00  0.00     0.350 C 
ATOM      5  O   UNL A   1      31.362  26.361  26.815  1.00  0.00    -0.247 OA
BRANCH   4   6
ATOM      6  C   UNL A   1      32.543  24.561  25.632  1.00  0.00     0.203 C 
ATOM      7  C   UNL A   1      37.629  21.030  25.063  1.00  0.00     0.049 C 
ATOM      8  C   UNL A   1      36.154  21.341  25.152  1.00  0.00    -0.002 A 
ATOM      9  C   UNL A   1      35.699  22.666  25.362  1.00  0.00    -0.002 A 
ATOM     10  C   UNL A   1      35.201  20.308  25.078  1.00  0.00     0.122 A 
ATOM     11  C   UNL A   1      36.690  23.804  25.410  1.00  0.00     0.049 C 
ATOM     12  C   UNL A   1      34.316  22.918  25.511  1.00  0.00     0.127 A 
ATOM     13  C   UNL A   1      33.825  20.556  25.203  1.00  0.00    -0.002 A 
ATOM     14  C   UNL A   1      33.386  21.867  25.489  1.00  0.00     0.001 A 
ATOM     15  O   UNL A   1      33.945  24.229  25.692  1.00  0.00    -0.475 OA
ATOM     16  C   UNL A   1      32.830  19.429  25.073  1.00  0.00     0.049 C 
ATOM     17  C   UNL A   1      31.929  22.139  25.751  1.00  0.00     0.044 C 
ATOM     18  C   UNL A   1      31.722  23.508  26.374  1.00  0.00     0.065 C 
ATOM     19  C   UNL A   1      32.139  24.742  24.163  1.00  0.00     0.069 C 
BRANCH  10  20
ATOM     20  O   UNL A   1      35.574  19.001  24.886  1.00  0.00    -0.507 OA
ATOM     21  H   UNL A   1      36.386  18.803  24.461  1.00  0.00     0.293 HD
ENDBRANCH  10  20
ENDBRANCH   4   6
ENDBRANCH   3   4
ENDBRANCH   2   3
ENDBRANCH   1   2
BRANCH   1  22
ATOM     22  O   UNL A   1      33.952  29.062  27.516  1.00  0.00    -0.458 OA
BRANCH  22  23
ATOM     23  C   UNL A   1      34.524  30.224  27.902  1.00  0.00     0.338 C 
ATOM     24  O   UNL A   1      34.009  31.323  27.990  1.00  0.00    -0.246 OA
BRANCH  23  25
ATOM     25  C   UNL A   1      35.916  29.951  28.287  1.00  0.00     0.060 A 
ATOM     26  C   UNL A   1      36.914  30.165  27.341  1.00  0.00     0.016 A 
ATOM     27  C   UNL A   1      36.226  29.399  29.530  1.00  0.00     0.016 A 
ATOM     28  C   UNL A   1      38.223  29.801  27.620  1.00  0.00     0.010 A 
ATOM     29  C   UNL A   1      37.555  29.065  29.823  1.00  0.00     0.010 A 
ATOM     30  C   UNL A   1      38.562  29.244  28.858  1.00  0.00    -0.014 A 
BRANCH  30  31
ATOM     31  C   UNL A   1      39.953  28.769  29.069  1.00  0.00     0.031 A 
ATOM     32  C   UNL A   1      40.903  29.592  29.892  1.00  0.00     0.074 A 
ATOM     33  C   UNL A   1      40.330  27.548  28.641  1.00  0.00     0.049 A 
ATOM     34  N   UNL A   1      42.169  29.379  30.153  1.00  0.00    -0.248 NA
ATOM     35  C   UNL A   1      40.357  30.808  30.514  1.00  0.00     0.031 C 
ATOM     36  C   UNL A   1      39.469  26.592  27.942  1.00  0.00     0.029 A 
ATOM     37  N   UNL A   1      41.525  26.885  28.771  1.00  0.00    -0.354 N 
ATOM     38  C   UNL A   1      42.575  30.448  30.941  1.00  0.00     0.074 A 
ATOM     39  C   UNL A   1      41.428  31.312  31.109  1.00  0.00     0.031 C 
ATOM     40  C   UNL A   1      40.145  25.446  27.760  1.00  0.00     0.029 A 
ATOM     41  C   UNL A   1      41.507  25.612  28.258  1.00  0.00     0.049 A 
ATOM     42  H   UNL A   1      42.319  27.285  29.194  1.00  0.00     0.167 HD
ATOM     43  C   UNL A   1      43.795  30.689  31.477  1.00  0.00     0.031 A 
ATOM     44  C   UNL A   1      42.484  24.687  28.178  1.00  0.00     0.031 A 
ATOM     45  C   UNL A   1      44.934  29.824  31.325  1.00  0.00     0.049 A 
ATOM     46  C   UNL A   1      43.859  25.026  28.676  1.00  0.00     0.074 A 
ATOM     47  C   UNL A   1      46.227  30.011  31.784  1.00  0.00     0.029 A 
ATOM     48  N   UNL A   1      44.911  28.601  30.676  1.00  0.00    -0.354 N 
ATOM     49  N   UNL A   1      44.263  26.094  29.320  1.00  0.00    -0.248 NA
ATOM     50  C   UNL A   1      44.921  24.045  28.408  1.00  0.00     0.031 C 
ATOM     51  C   UNL A   1      46.995  28.913  31.380  1.00  0.00     0.029 A 
ATOM     52  C   UNL A   1      46.170  28.026  30.709  1.00  0.00     0.049 A 
ATOM     53  H   UNL A   1      44.117  28.201  30.253  1.00  0.00     0.167 HD
ATOM     54  C   UNL A   1      45.623  25.915  29.534  1.00  0.00     0.074 A 
ATOM     55  C   UNL A   1      45.972  24.626  28.972  1.00  0.00     0.031 C 
ATOM     56  C   UNL A   1      46.504  26.750  30.134  1.00  0.00     0.031 A 
BRANCH  43  57
ATOM     57  C   UNL A   1      43.967  31.968  32.244  1.00  0.00    -0.014 A 
ATOM     58  C   UNL A   1      43.722  32.030  33.624  1.00  0.00     0.009 A 
ATOM     59  C   UNL A   1      44.400  33.122  31.574  1.00  0.00     0.009 A 
ATOM     60  C   UNL A   1      43.881  33.235  34.313  1.00  0.00     0.001 A 
ATOM     61  C   UNL A   1      44.580  34.318  32.269  1.00  0.00     0.001 A 
ATOM     62  C   UNL A   1      44.314  34.375  33.636  1.00  0.00     0.000 A 
ENDBRANCH  43  57
BRANCH  44  63
ATOM     63  C   UNL A   1      42.203  23.362  27.567  1.00  0.00    -0.014 A 
ATOM     64  C   UNL A   1      42.603  23.088  26.250  1.00  0.00     0.009 A 
ATOM     65  C   UNL A   1      41.542  22.363  28.299  1.00  0.00     0.009 A 
ATOM     66  C   UNL A   1      42.345  21.839  25.679  1.00  0.00     0.001 A 
ATOM     67  C   UNL A   1      41.308  21.107  27.734  1.00  0.00     0.001 A 
ATOM     68  C   UNL A   1      41.705  20.848  26.424  1.00  0.00     0.000 A 
ENDBRANCH  44  63
BRANCH  56  69
ATOM     69  C   UNL A   1      47.933  26.298  30.220  1.00  0.00    -0.014 A 
ATOM     70  C   UNL A   1      48.440  25.739  31.403  1.00  0.00     0.009 A 
ATOM     71  C   UNL A   1      48.759  26.373  29.089  1.00  0.00     0.009 A 
ATOM     72  C   UNL A   1      49.757  25.279  31.456  1.00  0.00     0.001 A 
ATOM     73  C   UNL A   1      50.068  25.893  29.139  1.00  0.00     0.001 A 
ATOM     74  C   UNL A   1      50.567  25.351  30.323  1.00  0.00     0.000 A 
ENDBRANCH  56  69
ENDBRANCH  30  31
ENDBRANCH  23  25
ENDBRANCH  22  23
ENDBRANCH   1  22
TORSDOF 12
ENDMDL
