MODEL 1
REMARK VINA RESULT:     -10.1      0.000      0.000
REMARK SMILES O=C(OCCOC(=O)c1ccc(CNC(=O)C2(c3ccccc3)CC2)o1)c1ccc(-c2c3nc(c(-c4ccccc4)c4ccc([nH]4)c(-c4ccccc4)c4nc(c(-c5ccccc5)c5ccc2[nH]5)C=C4)C=C3)cc1
REMARK SMILES IDX 5 1 4 2 3 3 2 4 1 5 27 6 28 7 74 8 29 9 73 10 30 11 31 12
REMARK SMILES IDX 32 13 67 14 33 15 72 16 66 17 68 18 34 19 71 20 65 21 64 22
REMARK SMILES IDX 35 24 57 25 42 26 56 27 43 28 46 29 55 30 69 31 44 32 45 33
REMARK SMILES IDX 54 35 70 36 47 37 36 38 37 39 41 40 38 41 40 42 39 43 58 44
REMARK SMILES IDX 59 45 63 46 60 47 62 48 61 49 48 50 49 51 53 52 50 53 52 54
REMARK SMILES IDX 51 55 6 56 7 57 8 58 9 59 10 60 26 61 11 62 12 63 13 64
REMARK SMILES IDX 14 65 15 66 16 68 17 69 24 70 25 71 18 72 19 73 23 74 20 75
REMARK SMILES IDX 22 76 21 77
REMARK H PARENT 68 23 46 34 14 67
REMARK Flexibility Score: inf
ROOT
ATOM      1  C   UNL A   1      40.579  19.863  26.277  1.00  0.00     0.275 C 
ENDROOT
BRANCH   1   2
ATOM      2  C   UNL A   1      40.415  21.383  26.253  1.00  0.00     0.275 C 
BRANCH   2   3
ATOM      3  O   UNL A   1      39.045  21.805  26.133  1.00  0.00    -0.458 OA
BRANCH   3   4
ATOM      4  C   UNL A   1      38.577  23.073  26.075  1.00  0.00     0.338 C 
ATOM      5  O   UNL A   1      37.721  23.382  25.251  1.00  0.00    -0.246 OA
BRANCH   4   6
ATOM      6  C   UNL A   1      39.213  24.178  26.847  1.00  0.00     0.060 A 
ATOM      7  C   UNL A   1      38.984  24.442  28.197  1.00  0.00     0.016 A 
ATOM      8  C   UNL A   1      39.975  25.099  26.105  1.00  0.00     0.016 A 
ATOM      9  C   UNL A   1      39.523  25.584  28.800  1.00  0.00     0.010 A 
ATOM     10  C   UNL A   1      40.504  26.250  26.699  1.00  0.00     0.010 A 
ATOM     11  C   UNL A   1      40.262  26.508  28.050  1.00  0.00    -0.014 A 
BRANCH  11  12
ATOM     12  C   UNL A   1      40.640  27.798  28.672  1.00  0.00     0.031 A 
ATOM     13  C   UNL A   1      42.082  28.056  29.003  1.00  0.00     0.074 A 
ATOM     14  C   UNL A   1      39.723  28.760  28.870  1.00  0.00     0.049 A 
ATOM     15  N   UNL A   1      42.657  29.177  29.356  1.00  0.00    -0.248 NA
ATOM     16  C   UNL A   1      42.997  26.908  28.909  1.00  0.00     0.031 C 
ATOM     17  C   UNL A   1      38.297  28.639  28.578  1.00  0.00     0.029 A 
ATOM     18  N   UNL A   1      39.861  30.039  29.346  1.00  0.00    -0.354 N 
ATOM     19  C   UNL A   1      44.007  28.880  29.486  1.00  0.00     0.074 A 
ATOM     20  C   UNL A   1      44.156  27.462  29.232  1.00  0.00     0.031 C 
ATOM     21  C   UNL A   1      37.687  29.797  28.881  1.00  0.00     0.029 A 
ATOM     22  C   UNL A   1      38.685  30.747  29.369  1.00  0.00     0.049 A 
ATOM     23  H   UNL A   1      40.721  30.415  29.643  1.00  0.00     0.167 HD
ATOM     24  C   UNL A   1      45.035  29.714  29.764  1.00  0.00     0.031 A 
ATOM     25  C   UNL A   1      38.443  32.024  29.714  1.00  0.00     0.031 A 
ATOM     26  C   UNL A   1      44.889  31.113  30.055  1.00  0.00     0.049 A 
ATOM     27  C   UNL A   1      39.593  32.918  30.086  1.00  0.00     0.074 A 
ATOM     28  C   UNL A   1      45.871  32.045  30.343  1.00  0.00     0.029 A 
ATOM     29  N   UNL A   1      43.675  31.778  30.110  1.00  0.00    -0.354 N 
ATOM     30  N   UNL A   1      40.875  32.644  30.117  1.00  0.00    -0.248 NA
ATOM     31  C   UNL A   1      39.264  34.308  30.437  1.00  0.00     0.031 C 
ATOM     32  C   UNL A   1      45.245  33.269  30.605  1.00  0.00     0.029 A 
ATOM     33  C   UNL A   1      43.877  33.104  30.448  1.00  0.00     0.049 A 
ATOM     34  H   UNL A   1      42.798  31.368  29.935  1.00  0.00     0.167 HD
ATOM     35  C   UNL A   1      41.507  33.833  30.452  1.00  0.00     0.074 A 
ATOM     36  C   UNL A   1      40.470  34.830  30.617  1.00  0.00     0.031 C 
ATOM     37  C   UNL A   1      42.832  34.081  30.599  1.00  0.00     0.031 A 
BRANCH  24  38
ATOM     38  C   UNL A   1      46.407  29.109  29.768  1.00  0.00    -0.014 A 
ATOM     39  C   UNL A   1      47.114  28.937  28.566  1.00  0.00     0.009 A 
ATOM     40  C   UNL A   1      46.992  28.693  30.971  1.00  0.00     0.009 A 
ATOM     41  C   UNL A   1      48.367  28.322  28.567  1.00  0.00     0.001 A 
ATOM     42  C   UNL A   1      48.254  28.094  30.970  1.00  0.00     0.001 A 
ATOM     43  C   UNL A   1      48.935  27.901  29.768  1.00  0.00     0.000 A 
ENDBRANCH  24  38
BRANCH  25  44
ATOM     44  C   UNL A   1      37.058  32.554  29.670  1.00  0.00    -0.014 A 
ATOM     45  C   UNL A   1      36.555  33.144  28.500  1.00  0.00     0.009 A 
ATOM     46  C   UNL A   1      36.232  32.475  30.802  1.00  0.00     0.009 A 
ATOM     47  C   UNL A   1      35.259  33.660  28.472  1.00  0.00     0.001 A 
ATOM     48  C   UNL A   1      34.931  32.977  30.764  1.00  0.00     0.001 A 
ATOM     49  C   UNL A   1      34.446  33.575  29.602  1.00  0.00     0.000 A 
ENDBRANCH  25  44
BRANCH  37  50
ATOM     50  C   UNL A   1      43.231  35.491  30.918  1.00  0.00    -0.014 A 
ATOM     51  C   UNL A   1      43.398  35.914  32.244  1.00  0.00     0.009 A 
ATOM     52  C   UNL A   1      43.475  36.396  29.874  1.00  0.00     0.009 A 
ATOM     53  C   UNL A   1      43.779  37.229  32.519  1.00  0.00     0.001 A 
ATOM     54  C   UNL A   1      43.873  37.704  30.151  1.00  0.00     0.001 A 
ATOM     55  C   UNL A   1      44.018  38.121  31.473  1.00  0.00     0.000 A 
ENDBRANCH  37  50
ENDBRANCH  11  12
ENDBRANCH   4   6
ENDBRANCH   3   4
ENDBRANCH   2   3
ENDBRANCH   1   2
BRANCH   1  56
ATOM     56  O   UNL A   1      41.595  19.413  25.371  1.00  0.00    -0.456 OA
BRANCH  56  57
ATOM     57  C   UNL A   1      42.704  18.890  25.982  1.00  0.00     0.374 C 
ATOM     58  O   UNL A   1      42.681  18.024  26.845  1.00  0.00    -0.242 OA
BRANCH  57  59
ATOM     59  C   UNL A   1      43.891  19.455  25.391  1.00  0.00     0.211 A 
ATOM     60  C   UNL A   1      45.196  19.016  25.283  1.00  0.00     0.058 A 
ATOM     61  O   UNL A   1      43.791  20.705  24.850  1.00  0.00    -0.452 OA
ATOM     62  C   UNL A   1      45.928  20.058  24.655  1.00  0.00     0.048 A 
ATOM     63  C   UNL A   1      45.034  21.086  24.438  1.00  0.00     0.124 A 
BRANCH  63  64
ATOM     64  C   UNL A   1      45.172  22.475  23.922  1.00  0.00     0.191 C 
BRANCH  64  65
ATOM     65  N   UNL A   1      46.311  23.112  24.539  1.00  0.00    -0.348 N 
ATOM     66  C   UNL A   1      46.340  24.084  25.499  1.00  0.00     0.231 C 
ATOM     67  H   UNL A   1      47.191  22.801  24.226  1.00  0.00     0.163 HD
ATOM     68  O   UNL A   1      47.413  24.464  25.959  1.00  0.00    -0.274 OA
BRANCH  66  69
ATOM     69  C   UNL A   1      45.050  24.689  25.995  1.00  0.00     0.074 C 
ATOM     70  C   UNL A   1      44.960  26.222  25.895  1.00  0.00     0.023 C 
ATOM     71  C   UNL A   1      44.116  25.378  25.004  1.00  0.00     0.023 C 
BRANCH  69  72
ATOM     72  C   UNL A   1      44.473  24.073  27.268  1.00  0.00    -0.032 A 
ATOM     73  C   UNL A   1      43.119  23.695  27.329  1.00  0.00     0.005 A 
ATOM     74  C   UNL A   1      45.249  23.872  28.423  1.00  0.00     0.005 A 
ATOM     75  C   UNL A   1      42.565  23.140  28.484  1.00  0.00     0.000 A 
ATOM     76  C   UNL A   1      44.696  23.328  29.586  1.00  0.00     0.000 A 
ATOM     77  C   UNL A   1      43.354  22.960  29.614  1.00  0.00     0.000 A 
ENDBRANCH  69  72
ENDBRANCH  66  69
ENDBRANCH  64  65
ENDBRANCH  63  64
ENDBRANCH  57  59
ENDBRANCH  56  57
ENDBRANCH   1  56
TORSDOF 15
ENDMDL
MODEL 2
REMARK VINA RESULT:     -10.1      1.208      6.146
REMARK SMILES O=C(OCCOC(=O)c1ccc(CNC(=O)C2(c3ccccc3)CC2)o1)c1ccc(-c2c3nc(c(-c4ccccc4)c4ccc([nH]4)c(-c4ccccc4)c4nc(c(-c5ccccc5)c5ccc2[nH]5)C=C4)C=C3)cc1
REMARK SMILES IDX 5 1 4 2 3 3 2 4 1 5 27 6 28 7 74 8 29 9 73 10 30 11 31 12
REMARK SMILES IDX 32 13 67 14 33 15 72 16 66 17 68 18 34 19 71 20 65 21 64 22
REMARK SMILES IDX 35 24 57 25 42 26 56 27 43 28 46 29 55 30 69 31 44 32 45 33
REMARK SMILES IDX 54 35 70 36 47 37 36 38 37 39 41 40 38 41 40 42 39 43 58 44
REMARK SMILES IDX 59 45 63 46 60 47 62 48 61 49 48 50 49 51 53 52 50 53 52 54
REMARK SMILES IDX 51 55 6 56 7 57 8 58 9 59 10 60 26 61 11 62 12 63 13 64
REMARK SMILES IDX 14 65 15 66 16 68 17 69 24 70 25 71 18 72 19 73 23 74 20 75
REMARK SMILES IDX 22 76 21 77
REMARK H PARENT 68 23 46 34 14 67
REMARK Flexibility Score: inf
ROOT
ATOM      1  C   UNL A   1      41.385  19.835  26.612  1.00  0.00     0.275 C 
ENDROOT
BRANCH   1   2
ATOM      2  C   UNL A   1      40.098  20.563  26.227  1.00  0.00     0.275 C 
BRANCH   2   3
ATOM      3  O   UNL A   1      40.232  21.996  26.227  1.00  0.00    -0.458 OA
BRANCH   3   4
ATOM      4  C   UNL A   1      39.242  22.915  26.296  1.00  0.00     0.338 C 
ATOM      5  O   UNL A   1      38.147  22.687  25.789  1.00  0.00    -0.246 OA
BRANCH   4   6
ATOM      6  C   UNL A   1      39.491  24.298  26.794  1.00  0.00     0.060 A 
ATOM      7  C   UNL A   1      40.212  25.274  26.106  1.00  0.00     0.016 A 
ATOM      8  C   UNL A   1      39.093  24.565  28.116  1.00  0.00     0.016 A 
ATOM      9  C   UNL A   1      40.508  26.498  26.715  1.00  0.00     0.010 A 
ATOM     10  C   UNL A   1      39.398  25.782  28.735  1.00  0.00     0.010 A 
ATOM     11  C   UNL A   1      40.128  26.750  28.040  1.00  0.00    -0.014 A 
BRANCH  11  12
ATOM     12  C   UNL A   1      40.633  27.969  28.713  1.00  0.00     0.031 A 
ATOM     13  C   UNL A   1      39.712  29.141  28.894  1.00  0.00     0.074 A 
ATOM     14  C   UNL A   1      41.876  28.006  29.224  1.00  0.00     0.049 A 
ATOM     15  N   UNL A   1      39.878  30.213  29.625  1.00  0.00    -0.248 NA
ATOM     16  C   UNL A   1      38.430  29.090  28.173  1.00  0.00     0.031 C 
ATOM     17  C   UNL A   1      42.860  26.932  29.127  1.00  0.00     0.029 A 
ATOM     18  N   UNL A   1      42.513  28.982  29.946  1.00  0.00    -0.354 N 
ATOM     19  C   UNL A   1      38.708  30.946  29.485  1.00  0.00     0.074 A 
ATOM     20  C   UNL A   1      37.864  30.226  28.555  1.00  0.00     0.031 C 
ATOM     21  C   UNL A   1      43.982  27.305  29.766  1.00  0.00     0.029 A 
ATOM     22  C   UNL A   1      43.784  28.637  30.334  1.00  0.00     0.049 A 
ATOM     23  H   UNL A   1      42.100  29.848  30.167  1.00  0.00     0.167 HD
ATOM     24  C   UNL A   1      38.354  32.100  30.096  1.00  0.00     0.031 A 
ATOM     25  C   UNL A   1      44.677  29.304  31.088  1.00  0.00     0.031 A 
ATOM     26  C   UNL A   1      39.201  32.839  30.989  1.00  0.00     0.049 A 
ATOM     27  C   UNL A   1      44.286  30.619  31.703  1.00  0.00     0.074 A 
ATOM     28  C   UNL A   1      38.930  34.017  31.664  1.00  0.00     0.029 A 
ATOM     29  N   UNL A   1      40.496  32.475  31.320  1.00  0.00    -0.354 N 
ATOM     30  N   UNL A   1      43.142  31.255  31.633  1.00  0.00    -0.248 NA
ATOM     31  C   UNL A   1      45.302  31.290  32.529  1.00  0.00     0.031 C 
ATOM     32  C   UNL A   1      40.078  34.382  32.378  1.00  0.00     0.029 A 
ATOM     33  C   UNL A   1      41.048  33.415  32.171  1.00  0.00     0.049 A 
ATOM     34  H   UNL A   1      40.956  31.667  30.995  1.00  0.00     0.167 HD
ATOM     35  C   UNL A   1      43.286  32.379  32.435  1.00  0.00     0.074 A 
ATOM     36  C   UNL A   1      44.628  32.340  32.979  1.00  0.00     0.031 C 
ATOM     37  C   UNL A   1      42.382  33.352  32.707  1.00  0.00     0.031 A 
BRANCH  24  38
ATOM     38  C   UNL A   1      36.980  32.622  29.797  1.00  0.00    -0.014 A 
ATOM     39  C   UNL A   1      35.896  32.298  30.630  1.00  0.00     0.009 A 
ATOM     40  C   UNL A   1      36.760  33.427  28.670  1.00  0.00     0.009 A 
ATOM     41  C   UNL A   1      34.609  32.739  30.318  1.00  0.00     0.001 A 
ATOM     42  C   UNL A   1      35.474  33.881  28.370  1.00  0.00     0.001 A 
ATOM     43  C   UNL A   1      34.400  33.529  29.188  1.00  0.00     0.000 A 
ENDBRANCH  24  38
BRANCH  25  44
ATOM     44  C   UNL A   1      46.012  28.713  31.351  1.00  0.00    -0.014 A 
ATOM     45  C   UNL A   1      46.220  27.886  32.465  1.00  0.00     0.009 A 
ATOM     46  C   UNL A   1      47.087  28.978  30.489  1.00  0.00     0.009 A 
ATOM     47  C   UNL A   1      47.484  27.351  32.720  1.00  0.00     0.001 A 
ATOM     48  C   UNL A   1      48.345  28.428  30.738  1.00  0.00     0.001 A 
ATOM     49  C   UNL A   1      48.545  27.619  31.856  1.00  0.00     0.000 A 
ENDBRANCH  25  44
BRANCH  37  50
ATOM     50  C   UNL A   1      42.805  34.428  33.662  1.00  0.00    -0.014 A 
ATOM     51  C   UNL A   1      42.735  34.234  35.049  1.00  0.00     0.009 A 
ATOM     52  C   UNL A   1      43.314  35.638  33.164  1.00  0.00     0.009 A 
ATOM     53  C   UNL A   1      43.143  35.245  35.921  1.00  0.00     0.001 A 
ATOM     54  C   UNL A   1      43.738  36.639  34.038  1.00  0.00     0.001 A 
ATOM     55  C   UNL A   1      43.646  36.444  35.415  1.00  0.00     0.000 A 
ENDBRANCH  37  50
ENDBRANCH  11  12
ENDBRANCH   4   6
ENDBRANCH   3   4
ENDBRANCH   2   3
ENDBRANCH   1   2
BRANCH   1  56
ATOM     56  O   UNL A   1      42.091  19.339  25.466  1.00  0.00    -0.456 OA
BRANCH  56  57
ATOM     57  C   UNL A   1      43.259  18.687  25.762  1.00  0.00     0.374 C 
ATOM     58  O   UNL A   1      43.327  17.596  26.311  1.00  0.00    -0.242 OA
BRANCH  57  59
ATOM     59  C   UNL A   1      44.375  19.442  25.253  1.00  0.00     0.211 A 
ATOM     60  C   UNL A   1      45.733  19.195  25.182  1.00  0.00     0.058 A 
ATOM     61  O   UNL A   1      44.121  20.695  24.771  1.00  0.00    -0.452 OA
ATOM     62  C   UNL A   1      46.333  20.362  24.639  1.00  0.00     0.048 A 
ATOM     63  C   UNL A   1      45.312  21.266  24.433  1.00  0.00     0.124 A 
BRANCH  63  64
ATOM     64  C   UNL A   1      45.273  22.688  23.994  1.00  0.00     0.191 C 
BRANCH  64  65
ATOM     65  N   UNL A   1      46.352  23.419  24.613  1.00  0.00    -0.348 N 
ATOM     66  C   UNL A   1      46.296  24.391  25.571  1.00  0.00     0.231 C 
ATOM     67  H   UNL A   1      47.256  23.182  24.303  1.00  0.00     0.163 HD
ATOM     68  O   UNL A   1      47.333  24.860  26.035  1.00  0.00    -0.274 OA
BRANCH  66  69
ATOM     69  C   UNL A   1      44.959  24.887  26.062  1.00  0.00     0.074 C 
ATOM     70  C   UNL A   1      44.763  26.412  26.013  1.00  0.00     0.023 C 
ATOM     71  C   UNL A   1      43.995  25.543  25.078  1.00  0.00     0.023 C 
BRANCH  69  72
ATOM     72  C   UNL A   1      44.404  24.187  27.302  1.00  0.00    -0.032 A 
ATOM     73  C   UNL A   1      45.206  24.013  28.445  1.00  0.00     0.005 A 
ATOM     74  C   UNL A   1      43.095  23.678  27.352  1.00  0.00     0.005 A 
ATOM     75  C   UNL A   1      44.726  23.368  29.586  1.00  0.00     0.000 A 
ATOM     76  C   UNL A   1      42.612  23.019  28.488  1.00  0.00     0.000 A 
ATOM     77  C   UNL A   1      43.428  22.867  29.604  1.00  0.00     0.000 A 
ENDBRANCH  69  72
ENDBRANCH  66  69
ENDBRANCH  64  65
ENDBRANCH  63  64
ENDBRANCH  57  59
ENDBRANCH  56  57
ENDBRANCH   1  56
TORSDOF 15
ENDMDL
MODEL 3
REMARK VINA RESULT:      -9.8      4.280     11.266
REMARK SMILES O=C(OCCOC(=O)c1ccc(CNC(=O)C2(c3ccccc3)CC2)o1)c1ccc(-c2c3nc(c(-c4ccccc4)c4ccc([nH]4)c(-c4ccccc4)c4nc(c(-c5ccccc5)c5ccc2[nH]5)C=C4)C=C3)cc1
REMARK SMILES IDX 5 1 4 2 3 3 2 4 1 5 27 6 28 7 74 8 29 9 73 10 30 11 31 12
REMARK SMILES IDX 32 13 67 14 33 15 72 16 66 17 68 18 34 19 71 20 65 21 64 22
REMARK SMILES IDX 35 24 57 25 42 26 56 27 43 28 46 29 55 30 69 31 44 32 45 33
REMARK SMILES IDX 54 35 70 36 47 37 36 38 37 39 41 40 38 41 40 42 39 43 58 44
REMARK SMILES IDX 59 45 63 46 60 47 62 48 61 49 48 50 49 51 53 52 50 53 52 54
REMARK SMILES IDX 51 55 6 56 7 57 8 58 9 59 10 60 26 61 11 62 12 63 13 64
REMARK SMILES IDX 14 65 15 66 16 68 17 69 24 70 25 71 18 72 19 73 23 74 20 75
REMARK SMILES IDX 22 76 21 77
REMARK H PARENT 68 23 46 34 14 67
REMARK Flexibility Score: inf
ROOT
ATOM      1  C   UNL A   1      33.141  34.036  28.319  1.00  0.00     0.275 C 
ENDROOT
BRANCH   1   2
ATOM      2  C   UNL A   1      34.487  33.355  28.561  1.00  0.00     0.275 C 
BRANCH   2   3
ATOM      3  O   UNL A   1      34.372  31.947  28.835  1.00  0.00    -0.458 OA
BRANCH   3   4
ATOM      4  C   UNL A   1      34.816  30.921  28.073  1.00  0.00     0.338 C 
ATOM      5  O   UNL A   1      34.115  30.467  27.173  1.00  0.00    -0.246 OA
BRANCH   4   6
ATOM      6  C   UNL A   1      36.058  30.172  28.416  1.00  0.00     0.060 A 
ATOM      7  C   UNL A   1      36.312  29.570  29.649  1.00  0.00     0.016 A 
ATOM      8  C   UNL A   1      37.096  30.219  27.468  1.00  0.00     0.016 A 
ATOM      9  C   UNL A   1      37.563  29.007  29.920  1.00  0.00     0.010 A 
ATOM     10  C   UNL A   1      38.354  29.669  27.739  1.00  0.00     0.010 A 
ATOM     11  C   UNL A   1      38.600  29.076  28.980  1.00  0.00    -0.014 A 
BRANCH  11  12
ATOM     12  C   UNL A   1      39.961  28.652  29.380  1.00  0.00     0.031 A 
ATOM     13  C   UNL A   1      40.450  27.289  28.983  1.00  0.00     0.074 A 
ATOM     14  C   UNL A   1      40.783  29.499  30.023  1.00  0.00     0.049 A 
ATOM     15  N   UNL A   1      41.660  26.798  29.047  1.00  0.00    -0.248 NA
ATOM     16  C   UNL A   1      39.449  26.366  28.425  1.00  0.00     0.031 C 
ATOM     17  C   UNL A   1      40.434  30.851  30.452  1.00  0.00     0.029 A 
ATOM     18  N   UNL A   1      42.090  29.350  30.412  1.00  0.00    -0.354 N 
ATOM     19  C   UNL A   1      41.576  25.524  28.502  1.00  0.00     0.074 A 
ATOM     20  C   UNL A   1      40.187  25.297  28.166  1.00  0.00     0.031 C 
ATOM     21  C   UNL A   1      41.501  31.413  31.046  1.00  0.00     0.029 A 
ATOM     22  C   UNL A   1      42.613  30.465  31.019  1.00  0.00     0.049 A 
ATOM     23  H   UNL A   1      42.605  28.524  30.268  1.00  0.00     0.167 HD
ATOM     24  C   UNL A   1      42.569  24.633  28.274  1.00  0.00     0.031 A 
ATOM     25  C   UNL A   1      43.855  30.707  31.475  1.00  0.00     0.031 A 
ATOM     26  C   UNL A   1      43.942  24.837  28.640  1.00  0.00     0.049 A 
ATOM     27  C   UNL A   1      44.929  29.674  31.273  1.00  0.00     0.074 A 
ATOM     28  C   UNL A   1      45.025  23.997  28.446  1.00  0.00     0.029 A 
ATOM     29  N   UNL A   1      44.420  25.962  29.293  1.00  0.00    -0.354 N 
ATOM     30  N   UNL A   1      44.853  28.511  30.674  1.00  0.00    -0.248 NA
ATOM     31  C   UNL A   1      46.269  30.007  31.780  1.00  0.00     0.031 C 
ATOM     32  C   UNL A   1      46.153  24.602  29.014  1.00  0.00     0.029 A 
ATOM     33  C   UNL A   1      45.776  25.832  29.530  1.00  0.00     0.049 A 
ATOM     34  H   UNL A   1      43.873  26.740  29.550  1.00  0.00     0.167 HD
ATOM     35  C   UNL A   1      46.139  27.989  30.698  1.00  0.00     0.074 A 
ATOM     36  C   UNL A   1      46.975  28.961  31.371  1.00  0.00     0.031 C 
ATOM     37  C   UNL A   1      46.590  26.814  30.195  1.00  0.00     0.031 A 
BRANCH  24  38
ATOM     38  C   UNL A   1      42.179  23.353  27.598  1.00  0.00    -0.014 A 
ATOM     39  C   UNL A   1      42.334  23.203  26.210  1.00  0.00     0.009 A 
ATOM     40  C   UNL A   1      41.637  22.297  28.344  1.00  0.00     0.009 A 
ATOM     41  C   UNL A   1      41.918  22.031  25.576  1.00  0.00     0.001 A 
ATOM     42  C   UNL A   1      41.237  21.120  27.709  1.00  0.00     0.001 A 
ATOM     43  C   UNL A   1      41.369  20.991  26.326  1.00  0.00     0.000 A 
ENDBRANCH  24  38
BRANCH  25  44
ATOM     44  C   UNL A   1      44.167  32.006  32.120  1.00  0.00    -0.014 A 
ATOM     45  C   UNL A   1      44.223  32.115  33.518  1.00  0.00     0.009 A 
ATOM     46  C   UNL A   1      44.408  33.146  31.338  1.00  0.00     0.009 A 
ATOM     47  C   UNL A   1      44.495  33.345  34.120  1.00  0.00     0.001 A 
ATOM     48  C   UNL A   1      44.696  34.370  31.943  1.00  0.00     0.001 A 
ATOM     49  C   UNL A   1      44.734  34.471  33.333  1.00  0.00     0.000 A 
ENDBRANCH  25  44
BRANCH  37  50
ATOM     50  C   UNL A   1      48.059  26.537  30.323  1.00  0.00    -0.014 A 
ATOM     51  C   UNL A   1      48.588  25.963  31.487  1.00  0.00     0.009 A 
ATOM     52  C   UNL A   1      48.915  26.822  29.249  1.00  0.00     0.009 A 
ATOM     53  C   UNL A   1      49.957  25.704  31.583  1.00  0.00     0.001 A 
ATOM     54  C   UNL A   1      50.280  26.546  29.340  1.00  0.00     0.001 A 
ATOM     55  C   UNL A   1      50.800  25.993  30.509  1.00  0.00     0.000 A 
ENDBRANCH  37  50
ENDBRANCH  11  12
ENDBRANCH   4   6
ENDBRANCH   3   4
ENDBRANCH   2   3
ENDBRANCH   1   2
BRANCH   1  56
ATOM     56  O   UNL A   1      32.625  34.656  29.504  1.00  0.00    -0.456 OA
BRANCH  56  57
ATOM     57  C   UNL A   1      32.938  35.984  29.628  1.00  0.00     0.374 C 
ATOM     58  O   UNL A   1      32.770  36.823  28.754  1.00  0.00    -0.242 OA
BRANCH  57  59
ATOM     59  C   UNL A   1      33.409  36.246  30.964  1.00  0.00     0.211 A 
ATOM     60  C   UNL A   1      33.311  37.336  31.806  1.00  0.00     0.058 A 
ATOM     61  O   UNL A   1      34.162  35.278  31.567  1.00  0.00    -0.452 OA
ATOM     62  C   UNL A   1      34.051  37.018  32.975  1.00  0.00     0.048 A 
ATOM     63  C   UNL A   1      34.581  35.761  32.772  1.00  0.00     0.124 A 
BRANCH  63  64
ATOM     64  C   UNL A   1      35.520  34.905  33.546  1.00  0.00     0.191 C 
BRANCH  64  65
ATOM     65  N   UNL A   1      35.298  33.517  33.217  1.00  0.00    -0.348 N 
ATOM     66  C   UNL A   1      36.100  32.656  32.522  1.00  0.00     0.231 C 
ATOM     67  H   UNL A   1      34.450  33.136  33.540  1.00  0.00     0.163 HD
ATOM     68  O   UNL A   1      35.776  31.479  32.395  1.00  0.00    -0.274 OA
BRANCH  66  69
ATOM     69  C   UNL A   1      37.388  33.155  31.914  1.00  0.00     0.074 C 
ATOM     70  C   UNL A   1      37.625  32.748  30.449  1.00  0.00     0.023 C 
ATOM     71  C   UNL A   1      37.335  34.172  30.776  1.00  0.00     0.023 C 
BRANCH  69  72
ATOM     72  C   UNL A   1      38.615  33.108  32.822  1.00  0.00    -0.032 A 
ATOM     73  C   UNL A   1      39.577  34.133  32.779  1.00  0.00     0.005 A 
ATOM     74  C   UNL A   1      38.846  32.047  33.716  1.00  0.00     0.005 A 
ATOM     75  C   UNL A   1      40.712  34.108  33.591  1.00  0.00     0.000 A 
ATOM     76  C   UNL A   1      39.987  32.011  34.523  1.00  0.00     0.000 A 
ATOM     77  C   UNL A   1      40.918  33.042  34.461  1.00  0.00     0.000 A 
ENDBRANCH  69  72
ENDBRANCH  66  69
ENDBRANCH  64  65
ENDBRANCH  63  64
ENDBRANCH  57  59
ENDBRANCH  56  57
ENDBRANCH   1  56
TORSDOF 15
ENDMDL
