MODEL 1
REMARK VINA RESULT:     -11.2      0.000      0.000
REMARK SMILES C=CC[C@@]1(C(=O)OCCOC(=O)c2ccc(-c3c4nc(c(-c5ccccc5)c5ccc([nH]5)c(-c5ccccc5)c5nc(c(-c6ccccc6)c6ccc3[nH]6)C=C5)C=C4)cc2)CCCN(C(=O)c2ccc3c(c2)OCO3)C1
REMARK SMILES IDX 8 1 7 2 5 3 6 4 4 5 61 6 76 7 62 8 64 9 63 10 3 11 2 12 1 13
REMARK SMILES IDX 65 14 66 15 67 16 68 17 72 18 69 19 71 20 70 21 73 22 75 23
REMARK SMILES IDX 74 24 9 25 10 26 11 27 12 28 13 29 14 30 60 31 15 32 59 33
REMARK SMILES IDX 16 34 17 35 18 36 53 37 19 38 58 39 52 40 54 41 20 42 57 43
REMARK SMILES IDX 51 44 50 45 21 47 43 48 28 49 42 50 29 51 32 52 41 53 55 54
REMARK SMILES IDX 30 55 31 56 40 58 56 59 33 60 22 61 23 62 27 63 24 64 26 65
REMARK SMILES IDX 25 66 44 67 45 68 49 69 46 70 48 71 47 72 34 73 35 74 39 75
REMARK SMILES IDX 36 76 38 77 37 78
REMARK H PARENT 54 46 32 57
REMARK Flexibility Score: inf
ROOT
ATOM      1  C   UNL A   1      32.015  30.271  25.887  1.00  0.00     0.274 C 
ENDROOT
BRANCH   1   2
ATOM      2  O   UNL A   1      31.421  29.080  25.329  1.00  0.00    -0.462 OA
BRANCH   2   3
ATOM      3  C   UNL A   1      32.004  28.619  24.188  1.00  0.00     0.314 C 
ATOM      4  O   UNL A   1      33.203  28.738  23.964  1.00  0.00    -0.252 OA
BRANCH   3   5
ATOM      5  C   UNL A   1      31.001  27.987  23.202  1.00  0.00     0.089 C 
ATOM      6  C   UNL A   1      29.844  27.293  23.975  1.00  0.00     0.023 C 
ATOM      7  C   UNL A   1      31.690  27.010  22.228  1.00  0.00     0.138 C 
ATOM      8  C   UNL A   1      30.167  25.884  24.473  1.00  0.00     0.023 C 
ATOM      9  N   UNL A   1      31.907  25.661  22.747  1.00  0.00    -0.337 N 
ATOM     10  C   UNL A   1      30.747  25.023  23.366  1.00  0.00     0.120 C 
BRANCH   5  11
ATOM     11  C   UNL A   1      30.356  29.160  22.379  1.00  0.00     0.047 C 
BRANCH  11  12
ATOM     12  C   UNL A   1      29.022  29.686  22.861  1.00  0.00    -0.034 C 
ATOM     13  C   UNL A   1      28.838  30.853  23.488  1.00  0.00     0.004 C 
ENDBRANCH  11  12
ENDBRANCH   5  11
BRANCH   9  14
ATOM     14  C   UNL A   1      33.016  24.941  22.284  1.00  0.00     0.254 C 
ATOM     15  O   UNL A   1      33.187  24.613  21.114  1.00  0.00    -0.269 OA
BRANCH  14  16
ATOM     16  C   UNL A   1      34.026  24.525  23.278  1.00  0.00     0.043 A 
ATOM     17  C   UNL A   1      34.109  25.208  24.510  1.00  0.00     0.018 A 
ATOM     18  C   UNL A   1      34.819  23.407  23.008  1.00  0.00     0.064 A 
ATOM     19  C   UNL A   1      34.960  24.741  25.514  1.00  0.00     0.051 A 
ATOM     20  C   UNL A   1      35.620  22.954  24.033  1.00  0.00     0.166 A 
ATOM     21  C   UNL A   1      35.682  23.596  25.252  1.00  0.00     0.165 A 
ATOM     22  O   UNL A   1      36.389  21.832  24.005  1.00  0.00    -0.454 OA
ATOM     23  O   UNL A   1      36.494  22.954  26.134  1.00  0.00    -0.454 OA
ATOM     24  C   UNL A   1      36.822  21.769  25.380  1.00  0.00     0.468 C 
ENDBRANCH  14  16
ENDBRANCH   9  14
ENDBRANCH   3   5
ENDBRANCH   2   3
ENDBRANCH   1   2
BRANCH   1  25
ATOM     25  C   UNL A   1      32.737  29.976  27.197  1.00  0.00     0.275 C 
BRANCH  25  26
ATOM     26  O   UNL A   1      34.153  30.148  27.028  1.00  0.00    -0.458 OA
BRANCH  26  27
ATOM     27  C   UNL A   1      34.787  30.723  28.077  1.00  0.00     0.338 C 
ATOM     28  O   UNL A   1      34.394  31.676  28.730  1.00  0.00    -0.246 OA
BRANCH  27  29
ATOM     29  C   UNL A   1      36.088  30.074  28.314  1.00  0.00     0.060 A 
ATOM     30  C   UNL A   1      36.441  29.567  29.566  1.00  0.00     0.016 A 
ATOM     31  C   UNL A   1      37.015  30.076  27.273  1.00  0.00     0.016 A 
ATOM     32  C   UNL A   1      37.752  29.150  29.805  1.00  0.00     0.010 A 
ATOM     33  C   UNL A   1      38.293  29.564  27.483  1.00  0.00     0.010 A 
ATOM     34  C   UNL A   1      38.683  29.118  28.758  1.00  0.00    -0.014 A 
BRANCH  34  35
ATOM     35  C   UNL A   1      40.057  28.587  28.939  1.00  0.00     0.031 A 
ATOM     36  C   UNL A   1      41.194  29.522  29.238  1.00  0.00     0.074 A 
ATOM     37  C   UNL A   1      40.299  27.280  28.722  1.00  0.00     0.049 A 
ATOM     38  N   UNL A   1      42.481  29.327  29.096  1.00  0.00    -0.248 NA
ATOM     39  C   UNL A   1      40.837  30.855  29.747  1.00  0.00     0.031 C 
ATOM     40  C   UNL A   1      39.284  26.254  28.477  1.00  0.00     0.029 A 
ATOM     41  N   UNL A   1      41.488  26.599  28.634  1.00  0.00    -0.354 N 
ATOM     42  C   UNL A   1      43.086  30.526  29.450  1.00  0.00     0.074 A 
ATOM     43  C   UNL A   1      42.025  31.441  29.821  1.00  0.00     0.031 C 
ATOM     44  C   UNL A   1      39.890  25.079  28.258  1.00  0.00     0.029 A 
ATOM     45  C   UNL A   1      41.332  25.289  28.254  1.00  0.00     0.049 A 
ATOM     46  H   UNL A   1      42.363  27.008  28.826  1.00  0.00     0.167 HD
ATOM     47  C   UNL A   1      44.405  30.834  29.448  1.00  0.00     0.031 A 
ATOM     48  C   UNL A   1      42.238  24.371  27.869  1.00  0.00     0.031 A 
ATOM     49  C   UNL A   1      45.451  29.910  29.091  1.00  0.00     0.049 A 
ATOM     50  C   UNL A   1      43.685  24.755  27.802  1.00  0.00     0.074 A 
ATOM     51  C   UNL A   1      46.819  30.122  29.062  1.00  0.00     0.029 A 
ATOM     52  N   UNL A   1      45.242  28.595  28.708  1.00  0.00    -0.354 N 
ATOM     53  N   UNL A   1      44.246  25.906  28.082  1.00  0.00    -0.248 NA
ATOM     54  C   UNL A   1      44.622  23.718  27.349  1.00  0.00     0.031 C 
ATOM     55  C   UNL A   1      47.435  28.944  28.626  1.00  0.00     0.029 A 
ATOM     56  C   UNL A   1      46.454  27.986  28.428  1.00  0.00     0.049 A 
ATOM     57  H   UNL A   1      44.362  28.157  28.645  1.00  0.00     0.167 HD
ATOM     58  C   UNL A   1      45.603  25.726  27.861  1.00  0.00     0.074 A 
ATOM     59  C   UNL A   1      45.783  24.356  27.428  1.00  0.00     0.031 C 
ATOM     60  C   UNL A   1      46.612  26.619  28.007  1.00  0.00     0.031 A 
BRANCH  47  61
ATOM     61  C   UNL A   1      44.796  32.240  29.803  1.00  0.00    -0.014 A 
ATOM     62  C   UNL A   1      45.096  32.606  31.124  1.00  0.00     0.009 A 
ATOM     63  C   UNL A   1      44.923  33.200  28.787  1.00  0.00     0.009 A 
ATOM     64  C   UNL A   1      45.492  33.913  31.421  1.00  0.00     0.001 A 
ATOM     65  C   UNL A   1      45.340  34.499  29.083  1.00  0.00     0.001 A 
ATOM     66  C   UNL A   1      45.619  34.856  30.400  1.00  0.00     0.000 A 
ENDBRANCH  47  61
BRANCH  48  67
ATOM     67  C   UNL A   1      41.780  23.022  27.454  1.00  0.00    -0.014 A 
ATOM     68  C   UNL A   1      41.718  21.976  28.385  1.00  0.00     0.009 A 
ATOM     69  C   UNL A   1      41.366  22.786  26.133  1.00  0.00     0.009 A 
ATOM     70  C   UNL A   1      41.256  20.716  27.999  1.00  0.00     0.001 A 
ATOM     71  C   UNL A   1      40.879  21.533  25.757  1.00  0.00     0.001 A 
ATOM     72  C   UNL A   1      40.831  20.497  26.689  1.00  0.00     0.000 A 
ENDBRANCH  48  67
BRANCH  60  73
ATOM     73  C   UNL A   1      48.002  26.122  27.748  1.00  0.00    -0.014 A 
ATOM     74  C   UNL A   1      48.616  26.293  26.499  1.00  0.00     0.009 A 
ATOM     75  C   UNL A   1      48.720  25.507  28.787  1.00  0.00     0.009 A 
ATOM     76  C   UNL A   1      49.918  25.835  26.288  1.00  0.00     0.001 A 
ATOM     77  C   UNL A   1      50.027  25.070  28.578  1.00  0.00     0.001 A 
ATOM     78  C   UNL A   1      50.623  25.228  27.328  1.00  0.00     0.000 A 
ENDBRANCH  60  73
ENDBRANCH  34  35
ENDBRANCH  27  29
ENDBRANCH  26  27
ENDBRANCH  25  26
ENDBRANCH   1  25
TORSDOF 15
ENDMDL
MODEL 2
REMARK VINA RESULT:     -10.9      1.990      7.088
REMARK SMILES C=CC[C@@]1(C(=O)OCCOC(=O)c2ccc(-c3c4nc(c(-c5ccccc5)c5ccc([nH]5)c(-c5ccccc5)c5nc(c(-c6ccccc6)c6ccc3[nH]6)C=C5)C=C4)cc2)CCCN(C(=O)c2ccc3c(c2)OCO3)C1
REMARK SMILES IDX 8 1 7 2 5 3 6 4 4 5 61 6 76 7 62 8 64 9 63 10 3 11 2 12 1 13
REMARK SMILES IDX 65 14 66 15 67 16 68 17 72 18 69 19 71 20 70 21 73 22 75 23
REMARK SMILES IDX 74 24 9 25 10 26 11 27 12 28 13 29 14 30 60 31 15 32 59 33
REMARK SMILES IDX 16 34 17 35 18 36 53 37 19 38 58 39 52 40 54 41 20 42 57 43
REMARK SMILES IDX 51 44 50 45 21 47 43 48 28 49 42 50 29 51 32 52 41 53 55 54
REMARK SMILES IDX 30 55 31 56 40 58 56 59 33 60 22 61 23 62 27 63 24 64 26 65
REMARK SMILES IDX 25 66 44 67 45 68 49 69 46 70 48 71 47 72 34 73 35 74 39 75
REMARK SMILES IDX 36 76 38 77 37 78
REMARK H PARENT 54 46 32 57
REMARK Flexibility Score: inf
ROOT
ATOM      1  C   UNL A   1      36.674  22.808  23.472  1.00  0.00     0.274 C 
ENDROOT
BRANCH   1   2
ATOM      2  O   UNL A   1      35.369  23.130  22.947  1.00  0.00    -0.462 OA
BRANCH   2   3
ATOM      3  C   UNL A   1      34.641  24.005  23.694  1.00  0.00     0.314 C 
ATOM      4  O   UNL A   1      35.133  24.670  24.599  1.00  0.00    -0.252 OA
BRANCH   3   5
ATOM      5  C   UNL A   1      33.146  24.032  23.319  1.00  0.00     0.089 C 
ATOM      6  C   UNL A   1      32.916  24.932  22.072  1.00  0.00     0.023 C 
ATOM      7  C   UNL A   1      32.263  24.478  24.502  1.00  0.00     0.138 C 
ATOM      8  C   UNL A   1      32.816  26.427  22.376  1.00  0.00     0.023 C 
ATOM      9  N   UNL A   1      32.159  25.924  24.693  1.00  0.00    -0.337 N 
ATOM     10  C   UNL A   1      31.834  26.701  23.500  1.00  0.00     0.120 C 
BRANCH   5  11
ATOM     11  C   UNL A   1      32.744  22.571  22.903  1.00  0.00     0.047 C 
BRANCH  11  12
ATOM     12  C   UNL A   1      32.470  21.588  24.019  1.00  0.00    -0.034 C 
ATOM     13  C   UNL A   1      32.806  20.294  24.002  1.00  0.00     0.004 C 
ENDBRANCH  11  12
ENDBRANCH   5  11
BRANCH   9  14
ATOM     14  C   UNL A   1      31.976  26.411  25.994  1.00  0.00     0.254 C 
ATOM     15  O   UNL A   1      31.389  25.802  26.883  1.00  0.00    -0.269 OA
BRANCH  14  16
ATOM     16  C   UNL A   1      32.498  27.758  26.300  1.00  0.00     0.043 A 
ATOM     17  C   UNL A   1      31.593  28.818  26.524  1.00  0.00     0.018 A 
ATOM     18  C   UNL A   1      33.877  27.931  26.447  1.00  0.00     0.064 A 
ATOM     19  C   UNL A   1      32.063  30.061  26.952  1.00  0.00     0.051 A 
ATOM     20  C   UNL A   1      34.301  29.160  26.902  1.00  0.00     0.166 A 
ATOM     21  C   UNL A   1      33.421  30.191  27.156  1.00  0.00     0.165 A 
ATOM     22  O   UNL A   1      35.585  29.497  27.202  1.00  0.00    -0.454 OA
ATOM     23  O   UNL A   1      34.045  31.295  27.646  1.00  0.00    -0.454 OA
ATOM     24  C   UNL A   1      35.389  30.795  27.800  1.00  0.00     0.468 C 
ENDBRANCH  14  16
ENDBRANCH   9  14
ENDBRANCH   3   5
ENDBRANCH   2   3
ENDBRANCH   1   2
BRANCH   1  25
ATOM     25  C   UNL A   1      36.641  21.540  24.318  1.00  0.00     0.275 C 
BRANCH  25  26
ATOM     26  O   UNL A   1      37.089  21.826  25.652  1.00  0.00    -0.458 OA
BRANCH  26  27
ATOM     27  C   UNL A   1      38.397  21.566  25.883  1.00  0.00     0.338 C 
ATOM     28  O   UNL A   1      38.969  20.503  25.709  1.00  0.00    -0.246 OA
BRANCH  27  29
ATOM     29  C   UNL A   1      39.068  22.751  26.446  1.00  0.00     0.060 A 
ATOM     30  C   UNL A   1      38.646  24.048  26.149  1.00  0.00     0.016 A 
ATOM     31  C   UNL A   1      40.218  22.546  27.207  1.00  0.00     0.016 A 
ATOM     32  C   UNL A   1      39.427  25.140  26.530  1.00  0.00     0.010 A 
ATOM     33  C   UNL A   1      40.941  23.641  27.675  1.00  0.00     0.010 A 
ATOM     34  C   UNL A   1      40.568  24.949  27.321  1.00  0.00    -0.014 A 
BRANCH  34  35
ATOM     35  C   UNL A   1      41.371  26.085  27.837  1.00  0.00     0.031 A 
ATOM     36  C   UNL A   1      40.746  27.097  28.754  1.00  0.00     0.074 A 
ATOM     37  C   UNL A   1      42.629  26.267  27.391  1.00  0.00     0.049 A 
ATOM     38  N   UNL A   1      41.145  28.311  29.037  1.00  0.00    -0.248 NA
ATOM     39  C   UNL A   1      39.501  26.697  29.429  1.00  0.00     0.031 C 
ATOM     40  C   UNL A   1      43.375  25.337  26.542  1.00  0.00     0.029 A 
ATOM     41  N   UNL A   1      43.488  27.324  27.561  1.00  0.00    -0.354 N 
ATOM     42  C   UNL A   1      40.178  28.840  29.882  1.00  0.00     0.074 A 
ATOM     43  C   UNL A   1      39.175  27.811  30.072  1.00  0.00     0.031 C 
ATOM     44  C   UNL A   1      44.573  25.866  26.258  1.00  0.00     0.029 A 
ATOM     45  C   UNL A   1      44.641  27.207  26.825  1.00  0.00     0.049 A 
ATOM     46  H   UNL A   1      43.297  28.088  28.152  1.00  0.00     0.167 HD
ATOM     47  C   UNL A   1      40.128  30.076  30.432  1.00  0.00     0.031 A 
ATOM     48  C   UNL A   1      45.614  28.100  26.566  1.00  0.00     0.031 A 
ATOM     49  C   UNL A   1      41.138  31.086  30.246  1.00  0.00     0.049 A 
ATOM     50  C   UNL A   1      45.502  29.486  27.122  1.00  0.00     0.074 A 
ATOM     51  C   UNL A   1      41.185  32.369  30.764  1.00  0.00     0.029 A 
ATOM     52  N   UNL A   1      42.286  30.920  29.487  1.00  0.00    -0.354 N 
ATOM     53  N   UNL A   1      44.557  29.999  27.872  1.00  0.00    -0.248 NA
ATOM     54  C   UNL A   1      46.581  30.422  26.782  1.00  0.00     0.031 C 
ATOM     55  C   UNL A   1      42.344  32.992  30.288  1.00  0.00     0.029 A 
ATOM     56  C   UNL A   1      43.040  32.081  29.512  1.00  0.00     0.049 A 
ATOM     57  H   UNL A   1      42.529  30.098  29.002  1.00  0.00     0.167 HD
ATOM     58  C   UNL A   1      44.939  31.310  28.113  1.00  0.00     0.074 A 
ATOM     59  C   UNL A   1      46.202  31.514  27.434  1.00  0.00     0.031 C 
ATOM     60  C   UNL A   1      44.298  32.260  28.837  1.00  0.00     0.031 A 
BRANCH  47  61
ATOM     61  C   UNL A   1      38.921  30.429  31.255  1.00  0.00    -0.014 A 
ATOM     62  C   UNL A   1      38.911  30.267  32.648  1.00  0.00     0.009 A 
ATOM     63  C   UNL A   1      37.796  30.988  30.628  1.00  0.00     0.009 A 
ATOM     64  C   UNL A   1      37.789  30.637  33.394  1.00  0.00     0.001 A 
ATOM     65  C   UNL A   1      36.684  31.377  31.377  1.00  0.00     0.001 A 
ATOM     66  C   UNL A   1      36.679  31.196  32.758  1.00  0.00     0.000 A 
ENDBRANCH  47  61
BRANCH  48  67
ATOM     67  C   UNL A   1      46.740  27.715  25.680  1.00  0.00    -0.014 A 
ATOM     68  C   UNL A   1      46.667  27.940  24.299  1.00  0.00     0.009 A 
ATOM     69  C   UNL A   1      47.910  27.155  26.219  1.00  0.00     0.009 A 
ATOM     70  C   UNL A   1      47.742  27.605  23.472  1.00  0.00     0.001 A 
ATOM     71  C   UNL A   1      48.993  26.847  25.394  1.00  0.00     0.001 A 
ATOM     72  C   UNL A   1      48.906  27.066  24.021  1.00  0.00     0.000 A 
ENDBRANCH  48  67
BRANCH  60  73
ATOM     73  C   UNL A   1      44.984  33.587  28.973  1.00  0.00    -0.014 A 
ATOM     74  C   UNL A   1      44.727  34.634  28.076  1.00  0.00     0.009 A 
ATOM     75  C   UNL A   1      45.871  33.799  30.041  1.00  0.00     0.009 A 
ATOM     76  C   UNL A   1      45.367  35.866  28.234  1.00  0.00     0.001 A 
ATOM     77  C   UNL A   1      46.492  35.037  30.206  1.00  0.00     0.001 A 
ATOM     78  C   UNL A   1      46.244  36.067  29.300  1.00  0.00     0.000 A 
ENDBRANCH  60  73
ENDBRANCH  34  35
ENDBRANCH  27  29
ENDBRANCH  26  27
ENDBRANCH  25  26
ENDBRANCH   1  25
TORSDOF 15
ENDMDL
MODEL 3
REMARK VINA RESULT:     -10.8      4.070      8.515
REMARK SMILES C=CC[C@@]1(C(=O)OCCOC(=O)c2ccc(-c3c4nc(c(-c5ccccc5)c5ccc([nH]5)c(-c5ccccc5)c5nc(c(-c6ccccc6)c6ccc3[nH]6)C=C5)C=C4)cc2)CCCN(C(=O)c2ccc3c(c2)OCO3)C1
REMARK SMILES IDX 8 1 7 2 5 3 6 4 4 5 61 6 76 7 62 8 64 9 63 10 3 11 2 12 1 13
REMARK SMILES IDX 65 14 66 15 67 16 68 17 72 18 69 19 71 20 70 21 73 22 75 23
REMARK SMILES IDX 74 24 9 25 10 26 11 27 12 28 13 29 14 30 60 31 15 32 59 33
REMARK SMILES IDX 16 34 17 35 18 36 53 37 19 38 58 39 52 40 54 41 20 42 57 43
REMARK SMILES IDX 51 44 50 45 21 47 43 48 28 49 42 50 29 51 32 52 41 53 55 54
REMARK SMILES IDX 30 55 31 56 40 58 56 59 33 60 22 61 23 62 27 63 24 64 26 65
REMARK SMILES IDX 25 66 44 67 45 68 49 69 46 70 48 71 47 72 34 73 35 74 39 75
REMARK SMILES IDX 36 76 38 77 37 78
REMARK H PARENT 54 46 32 57
REMARK Flexibility Score: inf
ROOT
ATOM      1  C   UNL A   1      36.258  21.853  25.645  1.00  0.00     0.274 C 
ENDROOT
BRANCH   1   2
ATOM      2  O   UNL A   1      35.739  22.964  26.406  1.00  0.00    -0.462 OA
BRANCH   2   3
ATOM      3  C   UNL A   1      34.402  22.925  26.655  1.00  0.00     0.314 C 
ATOM      4  O   UNL A   1      33.890  22.089  27.390  1.00  0.00    -0.252 OA
BRANCH   3   5
ATOM      5  C   UNL A   1      33.606  23.997  25.884  1.00  0.00     0.089 C 
ATOM      6  C   UNL A   1      32.250  24.279  26.591  1.00  0.00     0.023 C 
ATOM      7  C   UNL A   1      33.398  23.609  24.406  1.00  0.00     0.138 C 
ATOM      8  C   UNL A   1      31.139  23.283  26.254  1.00  0.00     0.023 C 
ATOM      9  N   UNL A   1      32.277  22.708  24.150  1.00  0.00    -0.337 N 
ATOM     10  C   UNL A   1      31.003  23.089  24.756  1.00  0.00     0.120 C 
BRANCH   5  11
ATOM     11  C   UNL A   1      34.436  25.330  25.952  1.00  0.00     0.047 C 
BRANCH  11  12
ATOM     12  C   UNL A   1      33.678  26.624  25.753  1.00  0.00    -0.034 C 
ATOM     13  C   UNL A   1      33.600  27.299  24.600  1.00  0.00     0.004 C 
ENDBRANCH  11  12
ENDBRANCH   5  11
BRANCH   9  14
ATOM     14  C   UNL A   1      32.373  21.818  23.072  1.00  0.00     0.254 C 
ATOM     15  O   UNL A   1      32.450  22.162  21.897  1.00  0.00    -0.269 OA
BRANCH  14  16
ATOM     16  C   UNL A   1      32.346  20.373  23.374  1.00  0.00     0.043 A 
ATOM     17  C   UNL A   1      32.308  19.442  22.313  1.00  0.00     0.018 A 
ATOM     18  C   UNL A   1      32.446  19.958  24.704  1.00  0.00     0.064 A 
ATOM     19  C   UNL A   1      32.424  18.076  22.575  1.00  0.00     0.051 A 
ATOM     20  C   UNL A   1      32.593  18.606  24.922  1.00  0.00     0.166 A 
ATOM     21  C   UNL A   1      32.591  17.693  23.888  1.00  0.00     0.165 A 
ATOM     22  O   UNL A   1      32.802  18.013  26.130  1.00  0.00    -0.454 OA
ATOM     23  O   UNL A   1      32.801  16.421  24.321  1.00  0.00    -0.454 OA
ATOM     24  C   UNL A   1      33.071  16.656  25.719  1.00  0.00     0.468 C 
ENDBRANCH  14  16
ENDBRANCH   9  14
ENDBRANCH   3   5
ENDBRANCH   2   3
ENDBRANCH   1   2
BRANCH   1  25
ATOM     25  C   UNL A   1      37.781  21.875  25.587  1.00  0.00     0.275 C 
BRANCH  25  26
ATOM     26  O   UNL A   1      38.262  23.212  25.789  1.00  0.00    -0.458 OA
BRANCH  26  27
ATOM     27  C   UNL A   1      39.482  23.299  26.370  1.00  0.00     0.338 C 
ATOM     28  O   UNL A   1      40.323  22.417  26.429  1.00  0.00    -0.246 OA
BRANCH  27  29
ATOM     29  C   UNL A   1      39.663  24.619  27.000  1.00  0.00     0.060 A 
ATOM     30  C   UNL A   1      40.455  25.611  26.418  1.00  0.00     0.016 A 
ATOM     31  C   UNL A   1      39.105  24.818  28.262  1.00  0.00     0.016 A 
ATOM     32  C   UNL A   1      40.769  26.764  27.139  1.00  0.00     0.010 A 
ATOM     33  C   UNL A   1      39.335  26.014  28.938  1.00  0.00     0.010 A 
ATOM     34  C   UNL A   1      40.190  26.990  28.395  1.00  0.00    -0.014 A 
BRANCH  34  35
ATOM     35  C   UNL A   1      40.412  28.245  29.153  1.00  0.00     0.031 A 
ATOM     36  C   UNL A   1      41.542  28.341  30.139  1.00  0.00     0.074 A 
ATOM     37  C   UNL A   1      39.531  29.257  29.037  1.00  0.00     0.049 A 
ATOM     38  N   UNL A   1      41.705  29.187  31.126  1.00  0.00    -0.248 NA
ATOM     39  C   UNL A   1      42.619  27.348  30.008  1.00  0.00     0.031 C 
ATOM     40  C   UNL A   1      38.423  29.318  28.083  1.00  0.00     0.029 A 
ATOM     41  N   UNL A   1      39.409  30.417  29.762  1.00  0.00    -0.354 N 
ATOM     42  C   UNL A   1      42.875  28.799  31.765  1.00  0.00     0.074 A 
ATOM     43  C   UNL A   1      43.386  27.646  31.049  1.00  0.00     0.031 C 
ATOM     44  C   UNL A   1      37.730  30.447  28.286  1.00  0.00     0.029 A 
ATOM     45  C   UNL A   1      38.287  31.140  29.441  1.00  0.00     0.049 A 
ATOM     46  H   UNL A   1      40.062  30.703  30.443  1.00  0.00     0.167 HD
ATOM     47  C   UNL A   1      43.457  29.348  32.857  1.00  0.00     0.031 A 
ATOM     48  C   UNL A   1      37.718  32.197  30.047  1.00  0.00     0.031 A 
ATOM     49  C   UNL A   1      42.948  30.503  33.551  1.00  0.00     0.049 A 
ATOM     50  C   UNL A   1      38.337  32.743  31.298  1.00  0.00     0.074 A 
ATOM     51  C   UNL A   1      43.465  31.141  34.666  1.00  0.00     0.029 A 
ATOM     52  N   UNL A   1      41.804  31.197  33.189  1.00  0.00    -0.354 N 
ATOM     53  N   UNL A   1      39.410  32.338  31.931  1.00  0.00    -0.248 NA
ATOM     54  C   UNL A   1      37.655  33.882  31.929  1.00  0.00     0.031 C 
ATOM     55  C   UNL A   1      42.614  32.200  34.999  1.00  0.00     0.029 A 
ATOM     56  C   UNL A   1      41.592  32.248  34.065  1.00  0.00     0.049 A 
ATOM     57  H   UNL A   1      41.227  30.976  32.422  1.00  0.00     0.167 HD
ATOM     58  C   UNL A   1      39.546  33.185  33.021  1.00  0.00     0.074 A 
ATOM     59  C   UNL A   1      38.449  34.129  32.962  1.00  0.00     0.031 C 
ATOM     60  C   UNL A   1      40.499  33.181  33.984  1.00  0.00     0.031 A 
BRANCH  47  61
ATOM     61  C   UNL A   1      44.691  28.685  33.402  1.00  0.00    -0.014 A 
ATOM     62  C   UNL A   1      45.975  29.089  33.007  1.00  0.00     0.009 A 
ATOM     63  C   UNL A   1      44.563  27.678  34.372  1.00  0.00     0.009 A 
ATOM     64  C   UNL A   1      47.106  28.479  33.557  1.00  0.00     0.001 A 
ATOM     65  C   UNL A   1      45.695  27.086  34.936  1.00  0.00     0.001 A 
ATOM     66  C   UNL A   1      46.965  27.483  34.524  1.00  0.00     0.000 A 
ENDBRANCH  47  61
BRANCH  48  67
ATOM     67  C   UNL A   1      36.456  32.758  29.505  1.00  0.00    -0.014 A 
ATOM     68  C   UNL A   1      36.487  33.741  28.506  1.00  0.00     0.009 A 
ATOM     69  C   UNL A   1      35.214  32.285  29.958  1.00  0.00     0.009 A 
ATOM     70  C   UNL A   1      35.297  34.243  27.975  1.00  0.00     0.001 A 
ATOM     71  C   UNL A   1      34.027  32.769  29.406  1.00  0.00     0.001 A 
ATOM     72  C   UNL A   1      34.070  33.753  28.420  1.00  0.00     0.000 A 
ENDBRANCH  48  67
BRANCH  60  73
ATOM     73  C   UNL A   1      40.424  34.264  35.019  1.00  0.00    -0.014 A 
ATOM     74  C   UNL A   1      41.019  35.516  34.807  1.00  0.00     0.009 A 
ATOM     75  C   UNL A   1      39.712  34.034  36.207  1.00  0.00     0.009 A 
ATOM     76  C   UNL A   1      40.922  36.513  35.779  1.00  0.00     0.001 A 
ATOM     77  C   UNL A   1      39.600  35.040  37.167  1.00  0.00     0.001 A 
ATOM     78  C   UNL A   1      40.209  36.276  36.955  1.00  0.00     0.000 A 
ENDBRANCH  60  73
ENDBRANCH  34  35
ENDBRANCH  27  29
ENDBRANCH  26  27
ENDBRANCH  25  26
ENDBRANCH   1  25
TORSDOF 15
ENDMDL
