MODEL 1
REMARK VINA RESULT:      -9.6      0.000      0.000
REMARK SMILES O=C(OCCOC(=O)[C@H]1CC1(c1ccccc1)c1ccccc1)c1ccc(-c2c3nc(c(-c4ccccc4)c4ccc([nH]4)c(-c4ccccc4)c4nc(c(-c5ccccc5)c5ccc2[nH]5)C=C4)C=C3)cc1
REMARK SMILES IDX 4 1 3 2 2 3 1 4 24 5 25 6 71 7 26 8 70 9 27 10 28 11 29 12
REMARK SMILES IDX 64 13 30 14 69 15 63 16 65 17 31 18 68 19 62 20 61 21 32 23
REMARK SMILES IDX 54 24 39 25 53 26 40 27 43 28 52 29 66 30 41 31 42 32 51 34
REMARK SMILES IDX 67 35 44 36 33 37 34 38 38 39 35 40 37 41 36 42 55 43 56 44
REMARK SMILES IDX 60 45 57 46 59 47 58 48 45 49 46 50 50 51 47 52 49 53 48 54
REMARK SMILES IDX 5 55 6 56 7 57 8 58 9 59 10 60 11 61 12 62 13 63 17 64 14 65
REMARK SMILES IDX 16 66 15 67 18 68 19 69 23 70 20 71 22 72 21 73
REMARK H PARENT 65 22 43 33
REMARK Flexibility Score: inf
ROOT
ATOM      1  C   UNL A   1      40.934  20.609  26.681  1.00  0.00     0.275 C 
ENDROOT
BRANCH   1   2
ATOM      2  O   UNL A   1      40.406  21.767  26.007  1.00  0.00    -0.458 OA
BRANCH   2   3
ATOM      3  C   UNL A   1      39.394  22.601  26.348  1.00  0.00     0.338 C 
ATOM      4  O   UNL A   1      38.241  22.251  26.093  1.00  0.00    -0.246 OA
BRANCH   3   5
ATOM      5  C   UNL A   1      39.584  23.978  26.913  1.00  0.00     0.060 A 
ATOM      6  C   UNL A   1      39.249  24.401  28.202  1.00  0.00     0.016 A 
ATOM      7  C   UNL A   1      40.188  24.921  26.059  1.00  0.00     0.016 A 
ATOM      8  C   UNL A   1      39.622  25.670  28.671  1.00  0.00     0.010 A 
ATOM      9  C   UNL A   1      40.582  26.182  26.530  1.00  0.00     0.010 A 
ATOM     10  C   UNL A   1      40.332  26.556  27.857  1.00  0.00    -0.014 A 
BRANCH  10  11
ATOM     11  C   UNL A   1      40.752  27.892  28.354  1.00  0.00     0.031 A 
ATOM     12  C   UNL A   1      42.186  28.110  28.734  1.00  0.00     0.074 A 
ATOM     13  C   UNL A   1      39.894  28.931  28.439  1.00  0.00     0.049 A 
ATOM     14  N   UNL A   1      42.756  29.198  29.183  1.00  0.00    -0.248 NA
ATOM     15  C   UNL A   1      43.111  26.983  28.524  1.00  0.00     0.031 C 
ATOM     16  C   UNL A   1      38.509  28.941  27.974  1.00  0.00     0.029 A 
ATOM     17  N   UNL A   1      40.062  30.188  28.981  1.00  0.00    -0.354 N 
ATOM     18  C   UNL A   1      44.113  28.926  29.186  1.00  0.00     0.074 A 
ATOM     19  C   UNL A   1      44.272  27.528  28.851  1.00  0.00     0.031 C 
ATOM     20  C   UNL A   1      37.942  30.110  28.323  1.00  0.00     0.029 A 
ATOM     21  C   UNL A   1      38.883  30.892  29.099  1.00  0.00     0.049 A 
ATOM     22  H   UNL A   1      40.937  30.547  29.257  1.00  0.00     0.167 HD
ATOM     23  C   UNL A   1      45.140  29.791  29.347  1.00  0.00     0.031 A 
ATOM     24  C   UNL A   1      38.594  32.000  29.809  1.00  0.00     0.031 A 
ATOM     25  C   UNL A   1      44.990  31.165  29.732  1.00  0.00     0.049 A 
ATOM     26  C   UNL A   1      39.725  32.793  30.380  1.00  0.00     0.074 A 
ATOM     27  C   UNL A   1      45.964  32.134  29.893  1.00  0.00     0.029 A 
ATOM     28  N   UNL A   1      43.779  31.758  30.049  1.00  0.00    -0.354 N 
ATOM     29  N   UNL A   1      41.006  32.534  30.354  1.00  0.00    -0.248 NA
ATOM     30  C   UNL A   1      39.371  34.084  30.989  1.00  0.00     0.031 C 
ATOM     31  C   UNL A   1      45.347  33.297  30.368  1.00  0.00     0.029 A 
ATOM     32  C   UNL A   1      43.984  33.066  30.453  1.00  0.00     0.049 A 
ATOM     33  H   UNL A   1      42.901  31.315  29.996  1.00  0.00     0.167 HD
ATOM     34  C   UNL A   1      41.620  33.675  30.841  1.00  0.00     0.074 A 
ATOM     35  C   UNL A   1      40.569  34.594  31.228  1.00  0.00     0.031 C 
ATOM     36  C   UNL A   1      42.942  33.962  30.879  1.00  0.00     0.031 A 
BRANCH  23  37
ATOM     37  C   UNL A   1      46.505  29.254  29.043  1.00  0.00    -0.014 A 
ATOM     38  C   UNL A   1      47.300  28.731  30.078  1.00  0.00     0.009 A 
ATOM     39  C   UNL A   1      47.013  29.289  27.740  1.00  0.00     0.009 A 
ATOM     40  C   UNL A   1      48.598  28.291  29.821  1.00  0.00     0.001 A 
ATOM     41  C   UNL A   1      48.306  28.828  27.481  1.00  0.00     0.001 A 
ATOM     42  C   UNL A   1      49.099  28.340  28.521  1.00  0.00     0.000 A 
ENDBRANCH  23  37
BRANCH  24  43
ATOM     43  C   UNL A   1      37.206  32.457  30.093  1.00  0.00    -0.014 A 
ATOM     44  C   UNL A   1      36.466  31.984  31.181  1.00  0.00     0.009 A 
ATOM     45  C   UNL A   1      36.566  33.285  29.150  1.00  0.00     0.009 A 
ATOM     46  C   UNL A   1      35.120  32.345  31.328  1.00  0.00     0.001 A 
ATOM     47  C   UNL A   1      35.232  33.666  29.313  1.00  0.00     0.001 A 
ATOM     48  C   UNL A   1      34.508  33.192  30.401  1.00  0.00     0.000 A 
ENDBRANCH  24  43
BRANCH  36  49
ATOM     49  C   UNL A   1      43.304  35.358  31.278  1.00  0.00    -0.014 A 
ATOM     50  C   UNL A   1      43.569  36.353  30.327  1.00  0.00     0.009 A 
ATOM     51  C   UNL A   1      43.426  35.663  32.643  1.00  0.00     0.009 A 
ATOM     52  C   UNL A   1      43.988  37.619  30.737  1.00  0.00     0.001 A 
ATOM     53  C   UNL A   1      43.812  36.938  33.051  1.00  0.00     0.001 A 
ATOM     54  C   UNL A   1      44.105  37.911  32.098  1.00  0.00     0.000 A 
ENDBRANCH  36  49
ENDBRANCH  10  11
ENDBRANCH   3   5
ENDBRANCH   2   3
ENDBRANCH   1   2
BRANCH   1  55
ATOM     55  C   UNL A   1      42.235  20.055  26.093  1.00  0.00     0.274 C 
BRANCH  55  56
ATOM     56  O   UNL A   1      42.800  20.948  25.126  1.00  0.00    -0.462 OA
BRANCH  56  57
ATOM     57  C   UNL A   1      44.129  21.227  25.261  1.00  0.00     0.310 C 
ATOM     58  O   UNL A   1      44.995  20.435  25.574  1.00  0.00    -0.252 OA
BRANCH  57  59
ATOM     59  C   UNL A   1      44.457  22.621  24.882  1.00  0.00     0.115 C 
ATOM     60  C   UNL A   1      43.408  23.689  24.898  1.00  0.00     0.034 C 
ATOM     61  C   UNL A   1      44.580  23.778  25.861  1.00  0.00     0.034 C 
BRANCH  61  62
ATOM     62  C   UNL A   1      44.131  23.753  27.332  1.00  0.00    -0.037 A 
ATOM     63  C   UNL A   1      45.155  23.806  28.296  1.00  0.00     0.004 A 
ATOM     64  C   UNL A   1      42.839  23.450  27.784  1.00  0.00     0.004 A 
ATOM     65  C   UNL A   1      44.939  23.378  29.594  1.00  0.00     0.000 A 
ATOM     66  C   UNL A   1      42.603  23.132  29.127  1.00  0.00     0.000 A 
ATOM     67  C   UNL A   1      43.663  23.051  30.023  1.00  0.00     0.000 A 
ENDBRANCH  61  62
BRANCH  61  68
ATOM     68  C   UNL A   1      45.649  24.893  25.628  1.00  0.00    -0.037 A 
ATOM     69  C   UNL A   1      45.215  26.232  25.471  1.00  0.00     0.004 A 
ATOM     70  C   UNL A   1      46.990  24.633  25.296  1.00  0.00     0.004 A 
ATOM     71  C   UNL A   1      46.014  27.205  24.867  1.00  0.00     0.000 A 
ATOM     72  C   UNL A   1      47.809  25.616  24.728  1.00  0.00     0.000 A 
ATOM     73  C   UNL A   1      47.309  26.889  24.480  1.00  0.00     0.000 A 
ENDBRANCH  61  68
ENDBRANCH  57  59
ENDBRANCH  56  57
ENDBRANCH  55  56
ENDBRANCH   1  55
TORSDOF 13
ENDMDL
MODEL 2
REMARK VINA RESULT:      -9.5      4.173     10.859
REMARK SMILES O=C(OCCOC(=O)[C@H]1CC1(c1ccccc1)c1ccccc1)c1ccc(-c2c3nc(c(-c4ccccc4)c4ccc([nH]4)c(-c4ccccc4)c4nc(c(-c5ccccc5)c5ccc2[nH]5)C=C4)C=C3)cc1
REMARK SMILES IDX 4 1 3 2 2 3 1 4 24 5 25 6 71 7 26 8 70 9 27 10 28 11 29 12
REMARK SMILES IDX 64 13 30 14 69 15 63 16 65 17 31 18 68 19 62 20 61 21 32 23
REMARK SMILES IDX 54 24 39 25 53 26 40 27 43 28 52 29 66 30 41 31 42 32 51 34
REMARK SMILES IDX 67 35 44 36 33 37 34 38 38 39 35 40 37 41 36 42 55 43 56 44
REMARK SMILES IDX 60 45 57 46 59 47 58 48 45 49 46 50 50 51 47 52 49 53 48 54
REMARK SMILES IDX 5 55 6 56 7 57 8 58 9 59 10 60 11 61 12 62 13 63 17 64 14 65
REMARK SMILES IDX 16 66 15 67 18 68 19 69 23 70 20 71 22 72 21 73
REMARK H PARENT 65 22 43 33
REMARK Flexibility Score: inf
ROOT
ATOM      1  C   UNL A   1      34.449  33.602  28.054  1.00  0.00     0.275 C 
ENDROOT
BRANCH   1   2
ATOM      2  O   UNL A   1      34.046  32.239  28.282  1.00  0.00    -0.458 OA
BRANCH   2   3
ATOM      3  C   UNL A   1      34.473  31.086  27.713  1.00  0.00     0.338 C 
ATOM      4  O   UNL A   1      33.717  30.506  26.932  1.00  0.00    -0.246 OA
BRANCH   3   5
ATOM      5  C   UNL A   1      35.763  30.399  28.055  1.00  0.00     0.060 A 
ATOM      6  C   UNL A   1      36.903  30.325  27.252  1.00  0.00     0.016 A 
ATOM      7  C   UNL A   1      35.827  29.797  29.327  1.00  0.00     0.016 A 
ATOM      8  C   UNL A   1      38.106  29.795  27.743  1.00  0.00     0.010 A 
ATOM      9  C   UNL A   1      37.032  29.287  29.830  1.00  0.00     0.010 A 
ATOM     10  C   UNL A   1      38.197  29.312  29.051  1.00  0.00    -0.014 A 
BRANCH  10  11
ATOM     11  C   UNL A   1      39.473  28.772  29.587  1.00  0.00     0.031 A 
ATOM     12  C   UNL A   1      40.231  29.570  30.606  1.00  0.00     0.074 A 
ATOM     13  C   UNL A   1      39.956  27.566  29.218  1.00  0.00     0.049 A 
ATOM     14  N   UNL A   1      41.358  29.275  31.201  1.00  0.00    -0.248 NA
ATOM     15  C   UNL A   1      39.616  30.828  31.062  1.00  0.00     0.031 C 
ATOM     16  C   UNL A   1      39.280  26.597  28.359  1.00  0.00     0.029 A 
ATOM     17  N   UNL A   1      41.161  26.960  29.505  1.00  0.00    -0.354 N 
ATOM     18  C   UNL A   1      41.517  30.239  32.182  1.00  0.00     0.074 A 
ATOM     19  C   UNL A   1      40.464  31.214  32.002  1.00  0.00     0.031 C 
ATOM     20  C   UNL A   1      40.111  25.565  28.130  1.00  0.00     0.029 A 
ATOM     21  C   UNL A   1      41.394  25.830  28.750  1.00  0.00     0.049 A 
ATOM     22  H   UNL A   1      41.792  27.298  30.181  1.00  0.00     0.167 HD
ATOM     23  C   UNL A   1      42.397  30.251  33.208  1.00  0.00     0.031 A 
ATOM     24  C   UNL A   1      42.532  25.139  28.539  1.00  0.00     0.031 A 
ATOM     25  C   UNL A   1      43.476  29.318  33.363  1.00  0.00     0.049 A 
ATOM     26  C   UNL A   1      43.709  25.423  29.417  1.00  0.00     0.074 A 
ATOM     27  C   UNL A   1      44.405  29.225  34.383  1.00  0.00     0.029 A 
ATOM     28  N   UNL A   1      43.789  28.328  32.444  1.00  0.00    -0.354 N 
ATOM     29  N   UNL A   1      43.835  26.323  30.356  1.00  0.00    -0.248 NA
ATOM     30  C   UNL A   1      44.862  24.524  29.267  1.00  0.00     0.031 C 
ATOM     31  C   UNL A   1      45.318  28.217  34.050  1.00  0.00     0.029 A 
ATOM     32  C   UNL A   1      44.926  27.651  32.848  1.00  0.00     0.049 A 
ATOM     33  H   UNL A   1      43.278  28.136  31.625  1.00  0.00     0.167 HD
ATOM     34  C   UNL A   1      45.033  26.030  30.985  1.00  0.00     0.074 A 
ATOM     35  C   UNL A   1      45.631  24.921  30.269  1.00  0.00     0.031 C 
ATOM     36  C   UNL A   1      45.542  26.580  32.111  1.00  0.00     0.031 A 
BRANCH  23  37
ATOM     37  C   UNL A   1      42.164  31.290  34.261  1.00  0.00    -0.014 A 
ATOM     38  C   UNL A   1      42.614  32.607  34.059  1.00  0.00     0.009 A 
ATOM     39  C   UNL A   1      41.523  30.962  35.461  1.00  0.00     0.009 A 
ATOM     40  C   UNL A   1      42.464  33.567  35.059  1.00  0.00     0.001 A 
ATOM     41  C   UNL A   1      41.355  31.932  36.452  1.00  0.00     0.001 A 
ATOM     42  C   UNL A   1      41.834  33.228  36.255  1.00  0.00     0.000 A 
ENDBRANCH  23  37
BRANCH  24  43
ATOM     43  C   UNL A   1      42.697  24.137  27.451  1.00  0.00    -0.014 A 
ATOM     44  C   UNL A   1      43.066  24.493  26.150  1.00  0.00     0.009 A 
ATOM     45  C   UNL A   1      42.326  22.802  27.707  1.00  0.00     0.009 A 
ATOM     46  C   UNL A   1      43.078  23.529  25.133  1.00  0.00     0.001 A 
ATOM     47  C   UNL A   1      42.365  21.837  26.698  1.00  0.00     0.001 A 
ATOM     48  C   UNL A   1      42.738  22.203  25.409  1.00  0.00     0.000 A 
ENDBRANCH  24  43
BRANCH  36  49
ATOM     49  C   UNL A   1      46.766  25.924  32.671  1.00  0.00    -0.014 A 
ATOM     50  C   UNL A   1      48.053  26.271  32.239  1.00  0.00     0.009 A 
ATOM     51  C   UNL A   1      46.612  24.901  33.621  1.00  0.00     0.009 A 
ATOM     52  C   UNL A   1      49.164  25.576  32.721  1.00  0.00     0.001 A 
ATOM     53  C   UNL A   1      47.726  24.233  34.126  1.00  0.00     0.001 A 
ATOM     54  C   UNL A   1      48.999  24.563  33.666  1.00  0.00     0.000 A 
ENDBRANCH  36  49
ENDBRANCH  10  11
ENDBRANCH   3   5
ENDBRANCH   2   3
ENDBRANCH   1   2
BRANCH   1  55
ATOM     55  C   UNL A   1      34.009  34.596  29.133  1.00  0.00     0.274 C 
BRANCH  55  56
ATOM     56  O   UNL A   1      33.681  33.933  30.359  1.00  0.00    -0.462 OA
BRANCH  56  57
ATOM     57  C   UNL A   1      34.119  34.528  31.507  1.00  0.00     0.310 C 
ATOM     58  O   UNL A   1      33.909  35.678  31.839  1.00  0.00    -0.252 OA
BRANCH  57  59
ATOM     59  C   UNL A   1      34.825  33.583  32.403  1.00  0.00     0.115 C 
ATOM     60  C   UNL A   1      35.372  32.291  31.880  1.00  0.00     0.034 C 
ATOM     61  C   UNL A   1      36.328  33.349  32.404  1.00  0.00     0.034 C 
BRANCH  61  62
ATOM     62  C   UNL A   1      37.307  33.840  31.325  1.00  0.00    -0.037 A 
ATOM     63  C   UNL A   1      37.131  33.307  30.036  1.00  0.00     0.004 A 
ATOM     64  C   UNL A   1      38.479  34.573  31.562  1.00  0.00     0.004 A 
ATOM     65  C   UNL A   1      38.155  33.327  29.106  1.00  0.00     0.000 A 
ATOM     66  C   UNL A   1      39.465  34.691  30.575  1.00  0.00     0.000 A 
ATOM     67  C   UNL A   1      39.322  34.028  29.362  1.00  0.00     0.000 A 
ENDBRANCH  61  62
BRANCH  61  68
ATOM     68  C   UNL A   1      37.077  33.071  33.747  1.00  0.00    -0.037 A 
ATOM     69  C   UNL A   1      37.593  31.775  33.984  1.00  0.00     0.004 A 
ATOM     70  C   UNL A   1      37.046  33.939  34.853  1.00  0.00     0.004 A 
ATOM     71  C   UNL A   1      37.900  31.321  35.268  1.00  0.00     0.000 A 
ATOM     72  C   UNL A   1      37.392  33.501  36.137  1.00  0.00     0.000 A 
ATOM     73  C   UNL A   1      37.781  32.183  36.349  1.00  0.00     0.000 A 
ENDBRANCH  61  68
ENDBRANCH  57  59
ENDBRANCH  56  57
ENDBRANCH  55  56
ENDBRANCH   1  55
TORSDOF 13
ENDMDL
MODEL 3
REMARK VINA RESULT:      -9.1      5.003     10.384
REMARK SMILES O=C(OCCOC(=O)[C@H]1CC1(c1ccccc1)c1ccccc1)c1ccc(-c2c3nc(c(-c4ccccc4)c4ccc([nH]4)c(-c4ccccc4)c4nc(c(-c5ccccc5)c5ccc2[nH]5)C=C4)C=C3)cc1
REMARK SMILES IDX 4 1 3 2 2 3 1 4 24 5 25 6 71 7 26 8 70 9 27 10 28 11 29 12
REMARK SMILES IDX 64 13 30 14 69 15 63 16 65 17 31 18 68 19 62 20 61 21 32 23
REMARK SMILES IDX 54 24 39 25 53 26 40 27 43 28 52 29 66 30 41 31 42 32 51 34
REMARK SMILES IDX 67 35 44 36 33 37 34 38 38 39 35 40 37 41 36 42 55 43 56 44
REMARK SMILES IDX 60 45 57 46 59 47 58 48 45 49 46 50 50 51 47 52 49 53 48 54
REMARK SMILES IDX 5 55 6 56 7 57 8 58 9 59 10 60 11 61 12 62 13 63 17 64 14 65
REMARK SMILES IDX 16 66 15 67 18 68 19 69 23 70 20 71 22 72 21 73
REMARK H PARENT 65 22 43 33
REMARK Flexibility Score: inf
ROOT
ATOM      1  C   UNL A   1      31.412  32.521  27.138  1.00  0.00     0.275 C 
ENDROOT
BRANCH   1   2
ATOM      2  O   UNL A   1      32.074  33.794  27.263  1.00  0.00    -0.458 OA
BRANCH   2   3
ATOM      3  C   UNL A   1      32.966  34.238  28.180  1.00  0.00     0.338 C 
ATOM      4  O   UNL A   1      32.778  35.344  28.688  1.00  0.00    -0.246 OA
BRANCH   3   5
ATOM      5  C   UNL A   1      34.237  33.525  28.541  1.00  0.00     0.060 A 
ATOM      6  C   UNL A   1      35.460  33.618  27.873  1.00  0.00     0.016 A 
ATOM      7  C   UNL A   1      34.186  32.707  29.686  1.00  0.00     0.016 A 
ATOM      8  C   UNL A   1      36.622  33.031  28.398  1.00  0.00     0.010 A 
ATOM      9  C   UNL A   1      35.347  32.138  30.227  1.00  0.00     0.010 A 
ATOM     10  C   UNL A   1      36.589  32.324  29.602  1.00  0.00    -0.014 A 
BRANCH  10  11
ATOM     11  C   UNL A   1      37.819  31.721  30.177  1.00  0.00     0.031 A 
ATOM     12  C   UNL A   1      38.605  32.497  31.192  1.00  0.00     0.074 A 
ATOM     13  C   UNL A   1      38.234  30.479  29.847  1.00  0.00     0.049 A 
ATOM     14  N   UNL A   1      39.700  32.149  31.817  1.00  0.00    -0.248 NA
ATOM     15  C   UNL A   1      38.059  33.801  31.605  1.00  0.00     0.031 C 
ATOM     16  C   UNL A   1      37.515  29.532  28.998  1.00  0.00     0.029 A 
ATOM     17  N   UNL A   1      39.393  29.807  30.174  1.00  0.00    -0.354 N 
ATOM     18  C   UNL A   1      39.899  33.125  32.778  1.00  0.00     0.074 A 
ATOM     19  C   UNL A   1      38.912  34.158  32.552  1.00  0.00     0.031 C 
ATOM     20  C   UNL A   1      38.286  28.445  28.811  1.00  0.00     0.029 A 
ATOM     21  C   UNL A   1      39.571  28.647  29.451  1.00  0.00     0.049 A 
ATOM     22  H   UNL A   1      40.031  30.124  30.854  1.00  0.00     0.167 HD
ATOM     23  C   UNL A   1      40.758  33.110  33.821  1.00  0.00     0.031 A 
ATOM     24  C   UNL A   1      40.668  27.883  29.280  1.00  0.00     0.031 A 
ATOM     25  C   UNL A   1      41.775  32.117  34.020  1.00  0.00     0.049 A 
ATOM     26  C   UNL A   1      41.843  28.117  30.174  1.00  0.00     0.074 A 
ATOM     27  C   UNL A   1      42.677  31.993  35.061  1.00  0.00     0.029 A 
ATOM     28  N   UNL A   1      42.044  31.087  33.132  1.00  0.00    -0.354 N 
ATOM     29  N   UNL A   1      42.006  29.031  31.094  1.00  0.00    -0.248 NA
ATOM     30  C   UNL A   1      42.941  27.146  30.070  1.00  0.00     0.031 C 
ATOM     31  C   UNL A   1      43.533  30.923  34.771  1.00  0.00     0.029 A 
ATOM     32  C   UNL A   1      43.129  30.352  33.576  1.00  0.00     0.049 A 
ATOM     33  H   UNL A   1      41.538  30.905  32.307  1.00  0.00     0.167 HD
ATOM     34  C   UNL A   1      43.171  28.681  31.755  1.00  0.00     0.074 A 
ATOM     35  C   UNL A   1      43.714  27.520  31.078  1.00  0.00     0.031 C 
ATOM     36  C   UNL A   1      43.692  29.227  32.877  1.00  0.00     0.031 A 
BRANCH  23  37
ATOM     37  C   UNL A   1      40.569  34.187  34.844  1.00  0.00    -0.014 A 
ATOM     38  C   UNL A   1      39.729  33.966  35.950  1.00  0.00     0.009 A 
ATOM     39  C   UNL A   1      41.201  35.427  34.702  1.00  0.00     0.009 A 
ATOM     40  C   UNL A   1      39.491  34.983  36.873  1.00  0.00     0.001 A 
ATOM     41  C   UNL A   1      40.978  36.438  35.639  1.00  0.00     0.001 A 
ATOM     42  C   UNL A   1      40.117  36.219  36.716  1.00  0.00     0.000 A 
ENDBRANCH  23  37
BRANCH  24  43
ATOM     43  C   UNL A   1      40.792  26.846  28.220  1.00  0.00    -0.014 A 
ATOM     44  C   UNL A   1      41.236  27.140  26.927  1.00  0.00     0.009 A 
ATOM     45  C   UNL A   1      40.305  25.551  28.489  1.00  0.00     0.009 A 
ATOM     46  C   UNL A   1      41.208  26.155  25.931  1.00  0.00     0.001 A 
ATOM     47  C   UNL A   1      40.304  24.562  27.501  1.00  0.00     0.001 A 
ATOM     48  C   UNL A   1      40.753  24.867  26.221  1.00  0.00     0.000 A 
ENDBRANCH  24  43
BRANCH  36  49
ATOM     49  C   UNL A   1      44.863  28.512  33.478  1.00  0.00    -0.014 A 
ATOM     50  C   UNL A   1      44.697  27.462  34.392  1.00  0.00     0.009 A 
ATOM     51  C   UNL A   1      46.159  28.941  33.151  1.00  0.00     0.009 A 
ATOM     52  C   UNL A   1      45.811  26.879  34.997  1.00  0.00     0.001 A 
ATOM     53  C   UNL A   1      47.271  28.333  33.731  1.00  0.00     0.001 A 
ATOM     54  C   UNL A   1      47.096  27.312  34.662  1.00  0.00     0.000 A 
ENDBRANCH  36  49
ENDBRANCH  10  11
ENDBRANCH   3   5
ENDBRANCH   2   3
ENDBRANCH   1   2
BRANCH   1  55
ATOM     55  C   UNL A   1      32.263  31.407  26.521  1.00  0.00     0.274 C 
BRANCH  55  56
ATOM     56  O   UNL A   1      32.624  30.419  27.494  1.00  0.00    -0.462 OA
BRANCH  56  57
ATOM     57  C   UNL A   1      33.700  29.636  27.193  1.00  0.00     0.310 C 
ATOM     58  O   UNL A   1      34.834  30.027  26.999  1.00  0.00    -0.252 OA
BRANCH  57  59
ATOM     59  C   UNL A   1      33.376  28.191  27.220  1.00  0.00     0.115 C 
ATOM     60  C   UNL A   1      31.959  27.724  27.350  1.00  0.00     0.034 C 
ATOM     61  C   UNL A   1      32.729  27.428  26.074  1.00  0.00     0.034 C 
BRANCH  61  62
ATOM     62  C   UNL A   1      32.076  28.064  24.835  1.00  0.00    -0.037 A 
ATOM     63  C   UNL A   1      30.707  27.798  24.648  1.00  0.00     0.004 A 
ATOM     64  C   UNL A   1      32.762  28.674  23.776  1.00  0.00     0.004 A 
ATOM     65  C   UNL A   1      30.113  27.942  23.407  1.00  0.00     0.000 A 
ATOM     66  C   UNL A   1      32.123  28.926  22.556  1.00  0.00     0.000 A 
ATOM     67  C   UNL A   1      30.810  28.518  22.357  1.00  0.00     0.000 A 
ENDBRANCH  61  62
BRANCH  61  68
ATOM     68  C   UNL A   1      33.143  25.949  25.784  1.00  0.00    -0.037 A 
ATOM     69  C   UNL A   1      32.425  24.904  26.413  1.00  0.00     0.004 A 
ATOM     70  C   UNL A   1      34.345  25.584  25.152  1.00  0.00     0.004 A 
ATOM     71  C   UNL A   1      32.952  23.619  26.547  1.00  0.00     0.000 A 
ATOM     72  C   UNL A   1      34.858  24.285  25.248  1.00  0.00     0.000 A 
ATOM     73  C   UNL A   1      34.180  23.315  25.977  1.00  0.00     0.000 A 
ENDBRANCH  61  68
ENDBRANCH  57  59
ENDBRANCH  56  57
ENDBRANCH  55  56
ENDBRANCH   1  55
TORSDOF 13
ENDMDL
