MODEL 1
REMARK VINA RESULT:      -9.7      0.000      0.000
REMARK SMILES CCC([NH3+])(CC)C(=O)N1CCC[C@]1(C)C(=O)OCCOC(=O)c1ccc(-c2c3nc(c(-c4ccccc4)c4ccc([nH]4)c(-c4ccccc4)c4nc(c(-c5ccccc5)c5ccc2[nH]5)C=C4)C=C3)cc1
REMARK SMILES IDX 18 1 17 2 15 3 16 4 13 5 9 6 10 7 11 8 12 9 14 10 7 11 8 12
REMARK SMILES IDX 3 13 2 14 1 15 4 16 5 20 6 21 19 22 20 23 21 24 22 25 23 26
REMARK SMILES IDX 24 27 70 28 25 29 69 30 26 31 27 32 28 33 63 34 29 35 68 36
REMARK SMILES IDX 62 37 64 38 30 39 67 40 61 41 60 42 31 44 53 45 38 46 52 47
REMARK SMILES IDX 39 48 42 49 51 50 65 51 40 52 41 53 50 55 66 56 43 57 32 58
REMARK SMILES IDX 33 59 37 60 34 61 36 62 35 63 54 64 55 65 59 66 56 67 58 68
REMARK SMILES IDX 57 69 44 70 45 71 49 72 46 73 48 74 47 75
REMARK H PARENT 4 17 4 18 4 19 64 43 42 54
REMARK Flexibility Score: inf
ROOT
ATOM      1  C   UNL A   1      34.270  21.101  25.961  1.00  0.00     0.274 C 
ENDROOT
BRANCH   1   2
ATOM      2  O   UNL A   1      33.402  21.733  24.989  1.00  0.00    -0.460 OA
BRANCH   2   3
ATOM      3  C   UNL A   1      33.070  23.017  25.273  1.00  0.00     0.331 C 
ATOM      4  O   UNL A   1      32.330  23.331  26.204  1.00  0.00    -0.249 OA
BRANCH   3   5
ATOM      5  C   UNL A   1      33.658  24.074  24.296  1.00  0.00     0.138 C 
ATOM      6  N   UNL A   1      32.756  25.088  23.635  1.00  0.00    -0.321 N 
ATOM      7  C   UNL A   1      32.840  24.946  22.182  1.00  0.00     0.121 C 
ATOM      8  C   UNL A   1      33.242  23.522  21.931  1.00  0.00     0.025 C 
ATOM      9  C   UNL A   1      34.199  23.247  23.073  1.00  0.00     0.042 C 
ATOM     10  C   UNL A   1      34.894  24.662  24.989  1.00  0.00     0.047 C 
BRANCH   6  11
ATOM     11  C   UNL A   1      31.919  26.116  24.056  1.00  0.00     0.284 C 
ATOM     12  O   UNL A   1      30.706  25.997  23.820  1.00  0.00    -0.268 OA
BRANCH  11  13
ATOM     13  C   UNL A   1      32.400  27.481  24.678  1.00  0.00     0.173 C 
BRANCH  13  14
ATOM     14  C   UNL A   1      32.588  27.325  26.231  1.00  0.00     0.075 C 
ATOM     15  C   UNL A   1      33.644  28.207  26.903  1.00  0.00     0.011 C 
ENDBRANCH  13  14
BRANCH  13  16
ATOM     16  N   UNL A   1      31.342  28.503  24.489  1.00  0.00    -0.345 N 
ATOM     17  H   UNL A   1      30.562  28.093  23.975  1.00  0.00     0.345 HD
ATOM     18  H   UNL A   1      31.720  29.290  23.961  1.00  0.00     0.345 HD
ATOM     19  H   UNL A   1      31.017  28.829  25.399  1.00  0.00     0.345 HD
ENDBRANCH  13  16
BRANCH  13  20
ATOM     20  C   UNL A   1      33.727  28.003  24.088  1.00  0.00     0.075 C 
ATOM     21  C   UNL A   1      33.597  28.599  22.687  1.00  0.00     0.011 C 
ENDBRANCH  13  20
ENDBRANCH  11  13
ENDBRANCH   6  11
ENDBRANCH   3   5
ENDBRANCH   2   3
ENDBRANCH   1   2
BRANCH   1  22
ATOM     22  C   UNL A   1      35.606  20.725  25.324  1.00  0.00     0.275 C 
BRANCH  22  23
ATOM     23  O   UNL A   1      36.584  21.663  25.790  1.00  0.00    -0.458 OA
BRANCH  23  24
ATOM     24  C   UNL A   1      37.863  21.242  25.690  1.00  0.00     0.338 C 
ATOM     25  O   UNL A   1      38.284  20.173  25.296  1.00  0.00    -0.246 OA
BRANCH  24  26
ATOM     26  C   UNL A   1      38.712  22.393  26.002  1.00  0.00     0.060 A 
ATOM     27  C   UNL A   1      39.963  22.153  26.574  1.00  0.00     0.016 A 
ATOM     28  C   UNL A   1      38.255  23.688  25.793  1.00  0.00     0.016 A 
ATOM     29  C   UNL A   1      40.737  23.217  27.017  1.00  0.00     0.010 A 
ATOM     30  C   UNL A   1      39.076  24.756  26.152  1.00  0.00     0.010 A 
ATOM     31  C   UNL A   1      40.313  24.533  26.791  1.00  0.00    -0.014 A 
BRANCH  31  32
ATOM     32  C   UNL A   1      41.138  25.683  27.235  1.00  0.00     0.031 A 
ATOM     33  C   UNL A   1      40.595  26.636  28.262  1.00  0.00     0.074 A 
ATOM     34  C   UNL A   1      42.360  25.887  26.709  1.00  0.00     0.049 A 
ATOM     35  N   UNL A   1      41.034  27.820  28.605  1.00  0.00    -0.248 NA
ATOM     36  C   UNL A   1      39.386  26.207  28.983  1.00  0.00     0.031 C 
ATOM     37  C   UNL A   1      43.038  25.007  25.756  1.00  0.00     0.029 A 
ATOM     38  N   UNL A   1      43.253  26.909  26.907  1.00  0.00    -0.354 N 
ATOM     39  C   UNL A   1      40.115  28.307  29.527  1.00  0.00     0.074 A 
ATOM     40  C   UNL A   1      39.101  27.288  29.694  1.00  0.00     0.031 C 
ATOM     41  C   UNL A   1      44.255  25.502  25.487  1.00  0.00     0.029 A 
ATOM     42  C   UNL A   1      44.404  26.782  26.168  1.00  0.00     0.049 A 
ATOM     43  H   UNL A   1      43.087  27.662  27.520  1.00  0.00     0.167 HD
ATOM     44  C   UNL A   1      40.113  29.504  30.163  1.00  0.00     0.031 A 
ATOM     45  C   UNL A   1      45.443  27.622  26.016  1.00  0.00     0.031 A 
ATOM     46  C   UNL A   1      41.146  30.495  30.014  1.00  0.00     0.049 A 
ATOM     47  C   UNL A   1      45.403  28.958  26.697  1.00  0.00     0.074 A 
ATOM     48  C   UNL A   1      41.242  31.741  30.607  1.00  0.00     0.029 A 
ATOM     49  N   UNL A   1      42.274  30.340  29.223  1.00  0.00    -0.354 N 
ATOM     50  N   UNL A   1      44.488  29.448  27.498  1.00  0.00    -0.248 NA
ATOM     51  C   UNL A   1      46.525  29.868  26.429  1.00  0.00     0.031 C 
ATOM     52  C   UNL A   1      42.414  32.354  30.150  1.00  0.00     0.029 A 
ATOM     53  C   UNL A   1      43.069  31.470  29.306  1.00  0.00     0.049 A 
ATOM     54  H   UNL A   1      42.480  29.543  28.682  1.00  0.00     0.167 HD
ATOM     55  C   UNL A   1      44.926  30.720  27.838  1.00  0.00     0.074 A 
ATOM     56  C   UNL A   1      46.198  30.917  27.170  1.00  0.00     0.031 C 
ATOM     57  C   UNL A   1      44.327  31.644  28.627  1.00  0.00     0.031 A 
BRANCH  44  58
ATOM     58  C   UNL A   1      38.924  29.819  31.027  1.00  0.00    -0.014 A 
ATOM     59  C   UNL A   1      37.752  30.377  30.496  1.00  0.00     0.009 A 
ATOM     60  C   UNL A   1      38.986  29.555  32.405  1.00  0.00     0.009 A 
ATOM     61  C   UNL A   1      36.684  30.709  31.334  1.00  0.00     0.001 A 
ATOM     62  C   UNL A   1      37.907  29.860  33.236  1.00  0.00     0.001 A 
ATOM     63  C   UNL A   1      36.762  30.448  32.702  1.00  0.00     0.000 A 
ENDBRANCH  44  58
BRANCH  45  64
ATOM     64  C   UNL A   1      46.586  27.232  25.150  1.00  0.00    -0.014 A 
ATOM     65  C   UNL A   1      46.768  27.847  23.903  1.00  0.00     0.009 A 
ATOM     66  C   UNL A   1      47.518  26.275  25.580  1.00  0.00     0.009 A 
ATOM     67  C   UNL A   1      47.861  27.508  23.102  1.00  0.00     0.001 A 
ATOM     68  C   UNL A   1      48.624  25.958  24.789  1.00  0.00     0.001 A 
ATOM     69  C   UNL A   1      48.793  26.571  23.550  1.00  0.00     0.000 A 
ENDBRANCH  45  64
BRANCH  57  70
ATOM     70  C   UNL A   1      45.062  32.937  28.831  1.00  0.00    -0.014 A 
ATOM     71  C   UNL A   1      46.008  33.079  29.858  1.00  0.00     0.009 A 
ATOM     72  C   UNL A   1      44.819  34.016  27.968  1.00  0.00     0.009 A 
ATOM     73  C   UNL A   1      46.676  34.291  30.034  1.00  0.00     0.001 A 
ATOM     74  C   UNL A   1      45.505  35.219  28.133  1.00  0.00     0.001 A 
ATOM     75  C   UNL A   1      46.427  35.359  29.171  1.00  0.00     0.000 A 
ENDBRANCH  57  70
ENDBRANCH  31  32
ENDBRANCH  24  26
ENDBRANCH  23  24
ENDBRANCH  22  23
ENDBRANCH   1  22
TORSDOF 16
ENDMDL
MODEL 2
REMARK VINA RESULT:      -9.4      3.640      8.680
REMARK SMILES CCC([NH3+])(CC)C(=O)N1CCC[C@]1(C)C(=O)OCCOC(=O)c1ccc(-c2c3nc(c(-c4ccccc4)c4ccc([nH]4)c(-c4ccccc4)c4nc(c(-c5ccccc5)c5ccc2[nH]5)C=C4)C=C3)cc1
REMARK SMILES IDX 18 1 17 2 15 3 16 4 13 5 9 6 10 7 11 8 12 9 14 10 7 11 8 12
REMARK SMILES IDX 3 13 2 14 1 15 4 16 5 20 6 21 19 22 20 23 21 24 22 25 23 26
REMARK SMILES IDX 24 27 70 28 25 29 69 30 26 31 27 32 28 33 63 34 29 35 68 36
REMARK SMILES IDX 62 37 64 38 30 39 67 40 61 41 60 42 31 44 53 45 38 46 52 47
REMARK SMILES IDX 39 48 42 49 51 50 65 51 40 52 41 53 50 55 66 56 43 57 32 58
REMARK SMILES IDX 33 59 37 60 34 61 36 62 35 63 54 64 55 65 59 66 56 67 58 68
REMARK SMILES IDX 57 69 44 70 45 71 49 72 46 73 48 74 47 75
REMARK H PARENT 4 17 4 18 4 19 64 43 42 54
REMARK Flexibility Score: inf
ROOT
ATOM      1  C   UNL A   1      31.906  29.040  24.413  1.00  0.00     0.274 C 
ENDROOT
BRANCH   1   2
ATOM      2  O   UNL A   1      31.558  27.729  24.918  1.00  0.00    -0.460 OA
BRANCH   2   3
ATOM      3  C   UNL A   1      30.761  26.997  24.100  1.00  0.00     0.331 C 
ATOM      4  O   UNL A   1      29.588  27.284  23.871  1.00  0.00    -0.249 OA
BRANCH   3   5
ATOM      5  C   UNL A   1      31.429  25.725  23.504  1.00  0.00     0.138 C 
ATOM      6  N   UNL A   1      32.705  25.182  24.100  1.00  0.00    -0.321 N 
ATOM      7  C   UNL A   1      33.756  25.173  23.083  1.00  0.00     0.121 C 
ATOM      8  C   UNL A   1      33.386  26.245  22.100  1.00  0.00     0.025 C 
ATOM      9  C   UNL A   1      31.875  26.137  22.053  1.00  0.00     0.042 C 
ATOM     10  C   UNL A   1      30.308  24.693  23.325  1.00  0.00     0.047 C 
BRANCH   6  11
ATOM     11  C   UNL A   1      33.102  24.670  25.330  1.00  0.00     0.284 C 
ATOM     12  O   UNL A   1      33.651  25.452  26.124  1.00  0.00    -0.268 OA
BRANCH  11  13
ATOM     13  C   UNL A   1      33.043  23.151  25.743  1.00  0.00     0.173 C 
BRANCH  13  14
ATOM     14  C   UNL A   1      32.087  22.968  26.977  1.00  0.00     0.075 C 
ATOM     15  C   UNL A   1      30.606  23.305  26.774  1.00  0.00     0.011 C 
ENDBRANCH  13  14
BRANCH  13  16
ATOM     16  N   UNL A   1      34.388  22.715  26.193  1.00  0.00    -0.345 N 
ATOM     17  H   UNL A   1      34.427  21.696  26.211  1.00  0.00     0.345 HD
ATOM     18  H   UNL A   1      34.566  23.078  27.130  1.00  0.00     0.345 HD
ATOM     19  H   UNL A   1      35.094  23.073  25.550  1.00  0.00     0.345 HD
ENDBRANCH  13  16
BRANCH  13  20
ATOM     20  C   UNL A   1      32.553  22.217  24.617  1.00  0.00     0.075 C 
ATOM     21  C   UNL A   1      32.658  20.729  24.947  1.00  0.00     0.011 C 
ENDBRANCH  13  20
ENDBRANCH  11  13
ENDBRANCH   6  11
ENDBRANCH   3   5
ENDBRANCH   2   3
ENDBRANCH   1   2
BRANCH   1  22
ATOM     22  C   UNL A   1      31.453  30.128  25.383  1.00  0.00     0.275 C 
BRANCH  22  23
ATOM     23  O   UNL A   1      32.339  30.096  26.510  1.00  0.00    -0.458 OA
BRANCH  23  24
ATOM     24  C   UNL A   1      32.751  31.307  26.940  1.00  0.00     0.338 C 
ATOM     25  O   UNL A   1      32.146  32.361  26.941  1.00  0.00    -0.246 OA
BRANCH  24  26
ATOM     26  C   UNL A   1      34.053  31.108  27.578  1.00  0.00     0.060 A 
ATOM     27  C   UNL A   1      34.479  29.799  27.812  1.00  0.00     0.016 A 
ATOM     28  C   UNL A   1      34.811  32.194  27.995  1.00  0.00     0.016 A 
ATOM     29  C   UNL A   1      35.636  29.568  28.543  1.00  0.00     0.010 A 
ATOM     30  C   UNL A   1      36.022  31.958  28.646  1.00  0.00     0.010 A 
ATOM     31  C   UNL A   1      36.434  30.645  28.948  1.00  0.00    -0.014 A 
BRANCH  31  32
ATOM     32  C   UNL A   1      37.688  30.417  29.708  1.00  0.00     0.031 A 
ATOM     33  C   UNL A   1      38.823  29.673  29.065  1.00  0.00     0.074 A 
ATOM     34  C   UNL A   1      37.804  30.855  30.976  1.00  0.00     0.049 A 
ATOM     35  N   UNL A   1      39.892  29.156  29.617  1.00  0.00    -0.248 NA
ATOM     36  C   UNL A   1      38.734  29.465  27.611  1.00  0.00     0.031 C 
ATOM     37  C   UNL A   1      36.810  31.648  31.701  1.00  0.00     0.029 A 
ATOM     38  N   UNL A   1      38.821  30.693  31.882  1.00  0.00    -0.354 N 
ATOM     39  C   UNL A   1      40.563  28.501  28.591  1.00  0.00     0.074 A 
ATOM     40  C   UNL A   1      39.786  28.693  27.386  1.00  0.00     0.031 C 
ATOM     41  C   UNL A   1      37.283  31.940  32.921  1.00  0.00     0.029 A 
ATOM     42  C   UNL A   1      38.567  31.273  33.101  1.00  0.00     0.049 A 
ATOM     43  H   UNL A   1      39.654  30.208  31.680  1.00  0.00     0.167 HD
ATOM     44  C   UNL A   1      41.716  27.792  28.657  1.00  0.00     0.031 A 
ATOM     45  C   UNL A   1      39.263  31.234  34.251  1.00  0.00     0.031 A 
ATOM     46  C   UNL A   1      42.498  27.638  29.856  1.00  0.00     0.049 A 
ATOM     47  C   UNL A   1      40.516  30.412  34.314  1.00  0.00     0.074 A 
ATOM     48  C   UNL A   1      43.678  26.939  30.036  1.00  0.00     0.029 A 
ATOM     49  N   UNL A   1      42.181  28.211  31.078  1.00  0.00    -0.354 N 
ATOM     50  N   UNL A   1      41.099  29.722  33.363  1.00  0.00    -0.248 NA
ATOM     51  C   UNL A   1      41.191  30.339  35.616  1.00  0.00     0.031 C 
ATOM     52  C   UNL A   1      44.059  27.063  31.377  1.00  0.00     0.029 A 
ATOM     53  C   UNL A   1      43.139  27.876  32.020  1.00  0.00     0.049 A 
ATOM     54  H   UNL A   1      41.391  28.773  31.252  1.00  0.00     0.167 HD
ATOM     55  C   UNL A   1      42.213  29.139  33.948  1.00  0.00     0.074 A 
ATOM     56  C   UNL A   1      42.234  29.573  35.332  1.00  0.00     0.031 C 
ATOM     57  C   UNL A   1      43.134  28.315  33.392  1.00  0.00     0.031 A 
BRANCH  44  58
ATOM     58  C   UNL A   1      42.158  27.085  27.407  1.00  0.00    -0.014 A 
ATOM     59  C   UNL A   1      43.045  27.678  26.496  1.00  0.00     0.009 A 
ATOM     60  C   UNL A   1      41.666  25.798  27.135  1.00  0.00     0.009 A 
ATOM     61  C   UNL A   1      43.394  27.016  25.316  1.00  0.00     0.001 A 
ATOM     62  C   UNL A   1      42.040  25.126  25.969  1.00  0.00     0.001 A 
ATOM     63  C   UNL A   1      42.893  25.741  25.056  1.00  0.00     0.000 A 
ENDBRANCH  44  58
BRANCH  45  64
ATOM     64  C   UNL A   1      38.763  31.969  35.441  1.00  0.00    -0.014 A 
ATOM     65  C   UNL A   1      38.088  31.284  36.461  1.00  0.00     0.009 A 
ATOM     66  C   UNL A   1      38.989  33.348  35.582  1.00  0.00     0.009 A 
ATOM     67  C   UNL A   1      37.647  31.965  37.597  1.00  0.00     0.001 A 
ATOM     68  C   UNL A   1      38.572  34.020  36.731  1.00  0.00     0.001 A 
ATOM     69  C   UNL A   1      37.898  33.331  37.736  1.00  0.00     0.000 A 
ENDBRANCH  45  64
BRANCH  57  70
ATOM     70  C   UNL A   1      44.254  27.857  34.279  1.00  0.00    -0.014 A 
ATOM     71  C   UNL A   1      45.420  28.624  34.430  1.00  0.00     0.009 A 
ATOM     72  C   UNL A   1      44.129  26.654  34.989  1.00  0.00     0.009 A 
ATOM     73  C   UNL A   1      46.452  28.179  35.256  1.00  0.00     0.001 A 
ATOM     74  C   UNL A   1      45.154  26.221  35.831  1.00  0.00     0.001 A 
ATOM     75  C   UNL A   1      46.318  26.980  35.958  1.00  0.00     0.000 A 
ENDBRANCH  57  70
ENDBRANCH  31  32
ENDBRANCH  24  26
ENDBRANCH  23  24
ENDBRANCH  22  23
ENDBRANCH   1  22
TORSDOF 16
ENDMDL
MODEL 3
REMARK VINA RESULT:      -9.4      1.043      1.977
REMARK SMILES CCC([NH3+])(CC)C(=O)N1CCC[C@]1(C)C(=O)OCCOC(=O)c1ccc(-c2c3nc(c(-c4ccccc4)c4ccc([nH]4)c(-c4ccccc4)c4nc(c(-c5ccccc5)c5ccc2[nH]5)C=C4)C=C3)cc1
REMARK SMILES IDX 18 1 17 2 15 3 16 4 13 5 9 6 10 7 11 8 12 9 14 10 7 11 8 12
REMARK SMILES IDX 3 13 2 14 1 15 4 16 5 20 6 21 19 22 20 23 21 24 22 25 23 26
REMARK SMILES IDX 24 27 70 28 25 29 69 30 26 31 27 32 28 33 63 34 29 35 68 36
REMARK SMILES IDX 62 37 64 38 30 39 67 40 61 41 60 42 31 44 53 45 38 46 52 47
REMARK SMILES IDX 39 48 42 49 51 50 65 51 40 52 41 53 50 55 66 56 43 57 32 58
REMARK SMILES IDX 33 59 37 60 34 61 36 62 35 63 54 64 55 65 59 66 56 67 58 68
REMARK SMILES IDX 57 69 44 70 45 71 49 72 46 73 48 74 47 75
REMARK H PARENT 4 17 4 18 4 19 64 43 42 54
REMARK Flexibility Score: inf
ROOT
ATOM      1  C   UNL A   1      34.934  22.228  24.514  1.00  0.00     0.274 C 
ENDROOT
BRANCH   1   2
ATOM      2  O   UNL A   1      33.659  21.726  24.045  1.00  0.00    -0.460 OA
BRANCH   2   3
ATOM      3  C   UNL A   1      32.893  22.638  23.396  1.00  0.00     0.331 C 
ATOM      4  O   UNL A   1      32.955  22.827  22.183  1.00  0.00    -0.249 OA
BRANCH   3   5
ATOM      5  C   UNL A   1      31.955  23.474  24.314  1.00  0.00     0.138 C 
ATOM      6  N   UNL A   1      32.530  24.485  25.275  1.00  0.00    -0.321 N 
ATOM      7  C   UNL A   1      32.147  24.134  26.642  1.00  0.00     0.121 C 
ATOM      8  C   UNL A   1      31.912  22.652  26.635  1.00  0.00     0.025 C 
ATOM      9  C   UNL A   1      31.282  22.428  25.276  1.00  0.00     0.042 C 
ATOM     10  C   UNL A   1      30.832  24.004  23.413  1.00  0.00     0.047 C 
BRANCH   6  11
ATOM     11  C   UNL A   1      33.280  25.652  25.179  1.00  0.00     0.284 C 
ATOM     12  O   UNL A   1      34.427  25.634  25.655  1.00  0.00    -0.268 OA
BRANCH  11  13
ATOM     13  C   UNL A   1      32.745  27.034  24.644  1.00  0.00     0.173 C 
BRANCH  13  14
ATOM     14  C   UNL A   1      32.592  26.980  23.081  1.00  0.00     0.075 C 
ATOM     15  C   UNL A   1      33.649  27.709  22.246  1.00  0.00     0.011 C 
ENDBRANCH  13  14
BRANCH  13  16
ATOM     16  N   UNL A   1      33.750  28.087  24.927  1.00  0.00    -0.345 N 
ATOM     17  H   UNL A   1      34.045  28.024  25.901  1.00  0.00     0.345 HD
ATOM     18  H   UNL A   1      33.338  29.005  24.756  1.00  0.00     0.345 HD
ATOM     19  H   UNL A   1      34.558  27.959  24.317  1.00  0.00     0.345 HD
ENDBRANCH  13  16
BRANCH  13  20
ATOM     20  C   UNL A   1      31.385  27.450  25.243  1.00  0.00     0.075 C 
ATOM     21  C   UNL A   1      31.410  27.681  26.753  1.00  0.00     0.011 C 
ENDBRANCH  13  20
ENDBRANCH  11  13
ENDBRANCH   6  11
ENDBRANCH   3   5
ENDBRANCH   2   3
ENDBRANCH   1   2
BRANCH   1  22
ATOM     22  C   UNL A   1      35.837  21.077  24.952  1.00  0.00     0.275 C 
BRANCH  22  23
ATOM     23  O   UNL A   1      36.735  21.589  25.945  1.00  0.00    -0.458 OA
BRANCH  23  24
ATOM     24  C   UNL A   1      38.038  21.311  25.726  1.00  0.00     0.338 C 
ATOM     25  O   UNL A   1      38.525  20.386  25.106  1.00  0.00    -0.246 OA
BRANCH  24  26
ATOM     26  C   UNL A   1      38.805  22.441  26.250  1.00  0.00     0.060 A 
ATOM     27  C   UNL A   1      38.296  23.727  26.061  1.00  0.00     0.016 A 
ATOM     28  C   UNL A   1      40.035  22.240  26.863  1.00  0.00     0.016 A 
ATOM     29  C   UNL A   1      39.058  24.832  26.414  1.00  0.00     0.010 A 
ATOM     30  C   UNL A   1      40.756  23.349  27.302  1.00  0.00     0.010 A 
ATOM     31  C   UNL A   1      40.288  24.656  27.060  1.00  0.00    -0.014 A 
BRANCH  31  32
ATOM     32  C   UNL A   1      41.106  25.825  27.466  1.00  0.00     0.031 A 
ATOM     33  C   UNL A   1      40.547  26.821  28.443  1.00  0.00     0.074 A 
ATOM     34  C   UNL A   1      42.336  26.008  26.950  1.00  0.00     0.049 A 
ATOM     35  N   UNL A   1      40.980  28.020  28.741  1.00  0.00    -0.248 NA
ATOM     36  C   UNL A   1      39.328  26.423  29.163  1.00  0.00     0.031 C 
ATOM     37  C   UNL A   1      43.028  25.088  26.046  1.00  0.00     0.029 A 
ATOM     38  N   UNL A   1      43.225  27.039  27.118  1.00  0.00    -0.354 N 
ATOM     39  C   UNL A   1      40.047  28.545  29.627  1.00  0.00     0.074 A 
ATOM     40  C   UNL A   1      39.032  27.532  29.823  1.00  0.00     0.031 C 
ATOM     41  C   UNL A   1      44.249  25.573  25.774  1.00  0.00     0.029 A 
ATOM     42  C   UNL A   1      44.387  26.881  26.402  1.00  0.00     0.049 A 
ATOM     43  H   UNL A   1      43.050  27.817  27.695  1.00  0.00     0.167 HD
ATOM     44  C   UNL A   1      40.035  29.768  30.211  1.00  0.00     0.031 A 
ATOM     45  C   UNL A   1      45.428  27.716  26.229  1.00  0.00     0.031 A 
ATOM     46  C   UNL A   1      41.069  30.753  30.035  1.00  0.00     0.049 A 
ATOM     47  C   UNL A   1      45.377  29.080  26.851  1.00  0.00     0.074 A 
ATOM     48  C   UNL A   1      41.155  32.024  30.574  1.00  0.00     0.029 A 
ATOM     49  N   UNL A   1      42.210  30.565  29.268  1.00  0.00    -0.354 N 
ATOM     50  N   UNL A   1      44.450  29.603  27.616  1.00  0.00    -0.248 NA
ATOM     51  C   UNL A   1      46.502  29.978  26.561  1.00  0.00     0.031 C 
ATOM     52  C   UNL A   1      42.334  32.618  30.109  1.00  0.00     0.029 A 
ATOM     53  C   UNL A   1      43.003  31.699  29.314  1.00  0.00     0.049 A 
ATOM     54  H   UNL A   1      42.424  29.747  28.765  1.00  0.00     0.167 HD
ATOM     55  C   UNL A   1      44.881  30.889  27.908  1.00  0.00     0.074 A 
ATOM     56  C   UNL A   1      46.164  31.058  27.251  1.00  0.00     0.031 C 
ATOM     57  C   UNL A   1      44.270  31.845  28.647  1.00  0.00     0.031 A 
BRANCH  44  58
ATOM     58  C   UNL A   1      38.833  30.118  31.042  1.00  0.00    -0.014 A 
ATOM     59  C   UNL A   1      38.798  29.887  32.426  1.00  0.00     0.009 A 
ATOM     60  C   UNL A   1      37.709  30.686  30.421  1.00  0.00     0.009 A 
ATOM     61  C   UNL A   1      37.645  30.174  33.162  1.00  0.00     0.001 A 
ATOM     62  C   UNL A   1      36.569  31.000  31.164  1.00  0.00     0.001 A 
ATOM     63  C   UNL A   1      36.534  30.732  32.531  1.00  0.00     0.000 A 
ENDBRANCH  44  58
BRANCH  45  64
ATOM     64  C   UNL A   1      46.584  27.290  25.399  1.00  0.00    -0.014 A 
ATOM     65  C   UNL A   1      47.497  26.346  25.891  1.00  0.00     0.009 A 
ATOM     66  C   UNL A   1      46.760  27.794  24.100  1.00  0.00     0.009 A 
ATOM     67  C   UNL A   1      48.565  25.918  25.100  1.00  0.00     0.001 A 
ATOM     68  C   UNL A   1      47.813  27.343  23.302  1.00  0.00     0.001 A 
ATOM     69  C   UNL A   1      48.717  26.409  23.803  1.00  0.00     0.000 A 
ENDBRANCH  45  64
BRANCH  57  70
ATOM     70  C   UNL A   1      45.001  33.146  28.806  1.00  0.00    -0.014 A 
ATOM     71  C   UNL A   1      45.932  33.334  29.839  1.00  0.00     0.009 A 
ATOM     72  C   UNL A   1      44.770  34.187  27.894  1.00  0.00     0.009 A 
ATOM     73  C   UNL A   1      46.597  34.554  29.973  1.00  0.00     0.001 A 
ATOM     74  C   UNL A   1      45.453  35.398  28.017  1.00  0.00     0.001 A 
ATOM     75  C   UNL A   1      46.360  35.583  29.061  1.00  0.00     0.000 A 
ENDBRANCH  57  70
ENDBRANCH  31  32
ENDBRANCH  24  26
ENDBRANCH  23  24
ENDBRANCH  22  23
ENDBRANCH   1  22
TORSDOF 16
ENDMDL
