MODEL 1
REMARK VINA RESULT:     -13.0      0.000      0.000
REMARK SMILES O=C(OCCOC(=O)c1ccc([C@H]2CCCN(C(=O)c3ccc4[nH]ccc4c3)C2)cc1)c1ccc(-c2c3nc(c(-c4ccccc4)c4ccc([nH]4)c(-c4ccccc4)c4nc(c(-c5ccccc5)c5ccc2[nH]5)C=C4)C=C3)cc1
REMARK SMILES IDX 5 1 4 2 3 3 2 4 1 5 32 6 33 7 79 8 34 9 78 10 35 11 36 12
REMARK SMILES IDX 37 13 72 14 38 15 77 16 71 17 73 18 39 19 76 20 70 21 69 22
REMARK SMILES IDX 40 24 62 25 47 26 61 27 48 28 51 29 60 30 74 31 49 32 50 33
REMARK SMILES IDX 59 35 75 36 52 37 41 38 42 39 46 40 43 41 45 42 44 43 63 44
REMARK SMILES IDX 64 45 68 46 65 47 67 48 66 49 53 50 54 51 58 52 55 53 57 54
REMARK SMILES IDX 56 55 6 56 7 57 8 58 9 59 10 60 31 61 11 62 30 63 12 64
REMARK SMILES IDX 13 65 14 66 29 67 15 68 17 69 16 70 18 71 19 72 20 73 21 74
REMARK SMILES IDX 28 75 22 76 27 77 23 78 26 79 24 80 25 81
REMARK H PARENT 73 23 51 34 24 82
REMARK Flexibility Score: inf
ROOT
ATOM      1  C   UNL A   1      42.469  20.545  26.226  1.00  0.00     0.275 C 
ENDROOT
BRANCH   1   2
ATOM      2  C   UNL A   1      43.579  21.148  25.361  1.00  0.00     0.275 C 
BRANCH   2   3
ATOM      3  O   UNL A   1      43.239  22.395  24.736  1.00  0.00    -0.458 OA
BRANCH   3   4
ATOM      4  C   UNL A   1      43.867  23.588  24.831  1.00  0.00     0.338 C 
ATOM      5  O   UNL A   1      44.902  23.771  24.193  1.00  0.00    -0.246 OA
BRANCH   4   6
ATOM      6  C   UNL A   1      43.459  24.651  25.800  1.00  0.00     0.060 A 
ATOM      7  C   UNL A   1      43.998  25.937  25.916  1.00  0.00     0.016 A 
ATOM      8  C   UNL A   1      42.450  24.285  26.700  1.00  0.00     0.016 A 
ATOM      9  C   UNL A   1      43.489  26.864  26.837  1.00  0.00     0.010 A 
ATOM     10  C   UNL A   1      41.949  25.200  27.625  1.00  0.00     0.010 A 
ATOM     11  C   UNL A   1      42.453  26.507  27.696  1.00  0.00    -0.014 A 
BRANCH  11  12
ATOM     12  C   UNL A   1      42.005  27.402  28.793  1.00  0.00     0.031 A 
ATOM     13  C   UNL A   1      42.671  27.252  30.128  1.00  0.00     0.074 A 
ATOM     14  C   UNL A   1      40.994  28.279  28.636  1.00  0.00     0.049 A 
ATOM     15  N   UNL A   1      42.351  27.779  31.281  1.00  0.00    -0.248 NA
ATOM     16  C   UNL A   1      43.859  26.382  30.166  1.00  0.00     0.031 C 
ATOM     17  C   UNL A   1      40.301  28.565  27.382  1.00  0.00     0.029 A 
ATOM     18  N   UNL A   1      40.327  29.048  29.562  1.00  0.00    -0.354 N 
ATOM     19  C   UNL A   1      43.318  27.328  32.169  1.00  0.00     0.074 A 
ATOM     20  C   UNL A   1      44.166  26.403  31.452  1.00  0.00     0.031 C 
ATOM     21  C   UNL A   1      39.241  29.356  27.631  1.00  0.00     0.029 A 
ATOM     22  C   UNL A   1      39.184  29.632  29.062  1.00  0.00     0.049 A 
ATOM     23  H   UNL A   1      40.636  29.169  30.488  1.00  0.00     0.167 HD
ATOM     24  C   UNL A   1      43.519  27.693  33.456  1.00  0.00     0.031 A 
ATOM     25  C   UNL A   1      38.179  30.267  29.698  1.00  0.00     0.031 A 
ATOM     26  C   UNL A   1      42.666  28.601  34.164  1.00  0.00     0.049 A 
ATOM     27  C   UNL A   1      38.302  30.512  31.177  1.00  0.00     0.074 A 
ATOM     28  C   UNL A   1      42.795  29.091  35.451  1.00  0.00     0.029 A 
ATOM     29  N   UNL A   1      41.505  29.147  33.637  1.00  0.00    -0.354 N 
ATOM     30  N   UNL A   1      39.247  30.120  31.998  1.00  0.00    -0.248 NA
ATOM     31  C   UNL A   1      37.248  31.316  31.810  1.00  0.00     0.031 C 
ATOM     32  C   UNL A   1      41.682  29.896  35.718  1.00  0.00     0.029 A 
ATOM     33  C   UNL A   1      40.889  29.946  34.582  1.00  0.00     0.049 A 
ATOM     34  H   UNL A   1      41.169  28.990  32.725  1.00  0.00     0.167 HD
ATOM     35  C   UNL A   1      38.944  30.695  33.225  1.00  0.00     0.074 A 
ATOM     36  C   UNL A   1      37.701  31.421  33.052  1.00  0.00     0.031 C 
ATOM     37  C   UNL A   1      39.654  30.661  34.379  1.00  0.00     0.031 A 
BRANCH  24  38
ATOM     38  C   UNL A   1      44.715  27.097  34.142  1.00  0.00    -0.014 A 
ATOM     39  C   UNL A   1      45.976  27.715  34.059  1.00  0.00     0.009 A 
ATOM     40  C   UNL A   1      44.599  25.878  34.824  1.00  0.00     0.009 A 
ATOM     41  C   UNL A   1      47.107  27.090  34.584  1.00  0.00     0.001 A 
ATOM     42  C   UNL A   1      45.728  25.270  35.376  1.00  0.00     0.001 A 
ATOM     43  C   UNL A   1      46.982  25.867  35.241  1.00  0.00     0.000 A 
ENDBRANCH  24  38
BRANCH  25  44
ATOM     44  C   UNL A   1      36.953  30.675  28.959  1.00  0.00    -0.014 A 
ATOM     45  C   UNL A   1      36.703  32.009  28.614  1.00  0.00     0.009 A 
ATOM     46  C   UNL A   1      35.997  29.708  28.614  1.00  0.00     0.009 A 
ATOM     47  C   UNL A   1      35.516  32.361  27.957  1.00  0.00     0.001 A 
ATOM     48  C   UNL A   1      34.821  30.055  27.945  1.00  0.00     0.001 A 
ATOM     49  C   UNL A   1      34.579  31.384  27.621  1.00  0.00     0.000 A 
ENDBRANCH  25  44
BRANCH  37  50
ATOM     50  C   UNL A   1      39.156  31.494  35.522  1.00  0.00    -0.014 A 
ATOM     51  C   UNL A   1      39.574  32.818  35.703  1.00  0.00     0.009 A 
ATOM     52  C   UNL A   1      38.178  30.958  36.377  1.00  0.00     0.009 A 
ATOM     53  C   UNL A   1      39.025  33.591  36.729  1.00  0.00     0.001 A 
ATOM     54  C   UNL A   1      37.615  31.740  37.384  1.00  0.00     0.001 A 
ATOM     55  C   UNL A   1      38.040  33.055  37.560  1.00  0.00     0.000 A 
ENDBRANCH  37  50
ENDBRANCH  11  12
ENDBRANCH   4   6
ENDBRANCH   3   4
ENDBRANCH   2   3
ENDBRANCH   1   2
BRANCH   1  56
ATOM     56  O   UNL A   1      41.142  20.930  25.828  1.00  0.00    -0.458 OA
BRANCH  56  57
ATOM     57  C   UNL A   1      40.366  21.457  26.816  1.00  0.00     0.338 C 
ATOM     58  O   UNL A   1      40.640  21.517  28.002  1.00  0.00    -0.246 OA
BRANCH  57  59
ATOM     59  C   UNL A   1      39.162  22.082  26.224  1.00  0.00     0.060 A 
ATOM     60  C   UNL A   1      38.356  21.322  25.372  1.00  0.00     0.016 A 
ATOM     61  C   UNL A   1      38.805  23.397  26.512  1.00  0.00     0.016 A 
ATOM     62  C   UNL A   1      37.141  21.842  24.903  1.00  0.00     0.005 A 
ATOM     63  C   UNL A   1      37.608  23.924  26.003  1.00  0.00     0.005 A 
ATOM     64  C   UNL A   1      36.721  23.139  25.246  1.00  0.00    -0.043 A 
BRANCH  64  65
ATOM     65  C   UNL A   1      35.321  23.616  24.829  1.00  0.00     0.039 C 
ATOM     66  C   UNL A   1      34.882  22.927  23.516  1.00  0.00     0.012 C 
ATOM     67  C   UNL A   1      34.221  23.403  25.889  1.00  0.00     0.128 C 
ATOM     68  C   UNL A   1      33.465  23.298  23.079  1.00  0.00     0.022 C 
ATOM     69  N   UNL A   1      32.881  23.734  25.403  1.00  0.00    -0.338 N 
ATOM     70  C   UNL A   1      32.464  23.029  24.194  1.00  0.00     0.120 C 
BRANCH  69  71
ATOM     71  C   UNL A   1      32.090  24.611  26.133  1.00  0.00     0.253 C 
ATOM     72  O   UNL A   1      31.540  24.320  27.193  1.00  0.00    -0.269 OA
BRANCH  71  73
ATOM     73  C   UNL A   1      31.890  25.978  25.625  1.00  0.00     0.040 A 
ATOM     74  C   UNL A   1      32.719  26.993  26.104  1.00  0.00     0.016 A 
ATOM     75  C   UNL A   1      30.840  26.241  24.733  1.00  0.00     0.024 A 
ATOM     76  C   UNL A   1      32.531  28.313  25.691  1.00  0.00     0.027 A 
ATOM     77  C   UNL A   1      30.631  27.570  24.318  1.00  0.00     0.000 A 
ATOM     78  C   UNL A   1      31.477  28.571  24.804  1.00  0.00     0.045 A 
ATOM     79  C   UNL A   1      29.681  28.206  23.470  1.00  0.00     0.028 A 
ATOM     80  N   UNL A   1      31.051  29.761  24.260  1.00  0.00    -0.361 N 
ATOM     81  C   UNL A   1      29.960  29.554  23.459  1.00  0.00     0.083 A 
ATOM     82  H   UNL A   1      31.470  30.637  24.424  1.00  0.00     0.166 HD
ENDBRANCH  71  73
ENDBRANCH  69  71
ENDBRANCH  64  65
ENDBRANCH  57  59
ENDBRANCH  56  57
ENDBRANCH   1  56
TORSDOF 14
ENDMDL
MODEL 2
REMARK VINA RESULT:     -12.7      4.017      9.517
REMARK SMILES O=C(OCCOC(=O)c1ccc([C@H]2CCCN(C(=O)c3ccc4[nH]ccc4c3)C2)cc1)c1ccc(-c2c3nc(c(-c4ccccc4)c4ccc([nH]4)c(-c4ccccc4)c4nc(c(-c5ccccc5)c5ccc2[nH]5)C=C4)C=C3)cc1
REMARK SMILES IDX 5 1 4 2 3 3 2 4 1 5 32 6 33 7 79 8 34 9 78 10 35 11 36 12
REMARK SMILES IDX 37 13 72 14 38 15 77 16 71 17 73 18 39 19 76 20 70 21 69 22
REMARK SMILES IDX 40 24 62 25 47 26 61 27 48 28 51 29 60 30 74 31 49 32 50 33
REMARK SMILES IDX 59 35 75 36 52 37 41 38 42 39 46 40 43 41 45 42 44 43 63 44
REMARK SMILES IDX 64 45 68 46 65 47 67 48 66 49 53 50 54 51 58 52 55 53 57 54
REMARK SMILES IDX 56 55 6 56 7 57 8 58 9 59 10 60 31 61 11 62 30 63 12 64
REMARK SMILES IDX 13 65 14 66 29 67 15 68 17 69 16 70 18 71 19 72 20 73 21 74
REMARK SMILES IDX 28 75 22 76 27 77 23 78 26 79 24 80 25 81
REMARK H PARENT 73 23 51 34 24 82
REMARK Flexibility Score: inf
ROOT
ATOM      1  C   UNL A   1      34.358  34.201  29.728  1.00  0.00     0.275 C 
ENDROOT
BRANCH   1   2
ATOM      2  C   UNL A   1      34.353  34.187  31.259  1.00  0.00     0.275 C 
BRANCH   2   3
ATOM      3  O   UNL A   1      34.501  32.885  31.846  1.00  0.00    -0.458 OA
BRANCH   3   4
ATOM      4  C   UNL A   1      35.486  32.427  32.650  1.00  0.00     0.338 C 
ATOM      5  O   UNL A   1      35.458  32.705  33.848  1.00  0.00    -0.246 OA
BRANCH   4   6
ATOM      6  C   UNL A   1      36.705  31.732  32.133  1.00  0.00     0.060 A 
ATOM      7  C   UNL A   1      37.712  31.122  32.891  1.00  0.00     0.016 A 
ATOM      8  C   UNL A   1      36.849  31.731  30.740  1.00  0.00     0.016 A 
ATOM      9  C   UNL A   1      38.784  30.453  32.282  1.00  0.00     0.010 A 
ATOM     10  C   UNL A   1      37.920  31.078  30.131  1.00  0.00     0.010 A 
ATOM     11  C   UNL A   1      38.894  30.418  30.894  1.00  0.00    -0.014 A 
BRANCH  11  12
ATOM     12  C   UNL A   1      40.097  29.867  30.221  1.00  0.00     0.031 A 
ATOM     13  C   UNL A   1      41.230  30.810  29.943  1.00  0.00     0.074 A 
ATOM     14  C   UNL A   1      40.166  28.587  29.807  1.00  0.00     0.049 A 
ATOM     15  N   UNL A   1      42.304  30.629  29.221  1.00  0.00    -0.248 NA
ATOM     16  C   UNL A   1      41.131  32.144  30.561  1.00  0.00     0.031 C 
ATOM     17  C   UNL A   1      39.164  27.554  30.062  1.00  0.00     0.029 A 
ATOM     18  N   UNL A   1      41.099  27.951  29.021  1.00  0.00    -0.354 N 
ATOM     19  C   UNL A   1      43.020  31.814  29.328  1.00  0.00     0.074 A 
ATOM     20  C   UNL A   1      42.212  32.739  30.089  1.00  0.00     0.031 C 
ATOM     21  C   UNL A   1      39.476  26.451  29.357  1.00  0.00     0.029 A 
ATOM     22  C   UNL A   1      40.699  26.701  28.604  1.00  0.00     0.049 A 
ATOM     23  H   UNL A   1      41.966  28.350  28.781  1.00  0.00     0.167 HD
ATOM     24  C   UNL A   1      44.267  32.091  28.882  1.00  0.00     0.031 A 
ATOM     25  C   UNL A   1      41.231  25.879  27.677  1.00  0.00     0.031 A 
ATOM     26  C   UNL A   1      45.057  31.172  28.117  1.00  0.00     0.049 A 
ATOM     27  C   UNL A   1      42.529  26.270  27.026  1.00  0.00     0.074 A 
ATOM     28  C   UNL A   1      46.352  31.315  27.654  1.00  0.00     0.029 A 
ATOM     29  N   UNL A   1      44.609  29.931  27.690  1.00  0.00    -0.354 N 
ATOM     30  N   UNL A   1      43.221  27.375  27.172  1.00  0.00    -0.248 NA
ATOM     31  C   UNL A   1      43.140  25.291  26.116  1.00  0.00     0.031 C 
ATOM     32  C   UNL A   1      46.668  30.178  26.903  1.00  0.00     0.029 A 
ATOM     33  C   UNL A   1      45.589  29.308  26.942  1.00  0.00     0.049 A 
ATOM     34  H   UNL A   1      43.723  29.550  27.890  1.00  0.00     0.167 HD
ATOM     35  C   UNL A   1      44.384  27.192  26.436  1.00  0.00     0.074 A 
ATOM     36  C   UNL A   1      44.281  25.891  25.805  1.00  0.00     0.031 C 
ATOM     37  C   UNL A   1      45.460  28.009  26.330  1.00  0.00     0.031 A 
BRANCH  24  38
ATOM     38  C   UNL A   1      44.818  33.444  29.231  1.00  0.00    -0.014 A 
ATOM     39  C   UNL A   1      44.649  34.537  28.362  1.00  0.00     0.009 A 
ATOM     40  C   UNL A   1      45.564  33.618  30.404  1.00  0.00     0.009 A 
ATOM     41  C   UNL A   1      45.275  35.756  28.626  1.00  0.00     0.001 A 
ATOM     42  C   UNL A   1      46.163  34.849  30.682  1.00  0.00     0.001 A 
ATOM     43  C   UNL A   1      46.033  35.910  29.785  1.00  0.00     0.000 A 
ENDBRANCH  24  38
BRANCH  25  44
ATOM     44  C   UNL A   1      40.522  24.633  27.274  1.00  0.00    -0.014 A 
ATOM     45  C   UNL A   1      39.338  24.662  26.525  1.00  0.00     0.009 A 
ATOM     46  C   UNL A   1      41.029  23.387  27.669  1.00  0.00     0.009 A 
ATOM     47  C   UNL A   1      38.675  23.471  26.202  1.00  0.00     0.001 A 
ATOM     48  C   UNL A   1      40.378  22.198  27.334  1.00  0.00     0.001 A 
ATOM     49  C   UNL A   1      39.197  22.241  26.603  1.00  0.00     0.000 A 
ENDBRANCH  25  44
BRANCH  37  50
ATOM     50  C   UNL A   1      46.647  27.494  25.573  1.00  0.00    -0.014 A 
ATOM     51  C   UNL A   1      47.521  26.551  26.130  1.00  0.00     0.009 A 
ATOM     52  C   UNL A   1      46.832  27.901  24.241  1.00  0.00     0.009 A 
ATOM     53  C   UNL A   1      48.567  26.031  25.365  1.00  0.00     0.001 A 
ATOM     54  C   UNL A   1      47.863  27.360  23.473  1.00  0.00     0.001 A 
ATOM     55  C   UNL A   1      48.730  26.428  24.036  1.00  0.00     0.000 A 
ENDBRANCH  37  50
ENDBRANCH  11  12
ENDBRANCH   4   6
ENDBRANCH   3   4
ENDBRANCH   2   3
ENDBRANCH   1   2
BRANCH   1  56
ATOM     56  O   UNL A   1      33.923  32.968  29.130  1.00  0.00    -0.458 OA
BRANCH  56  57
ATOM     57  C   UNL A   1      34.647  32.555  28.052  1.00  0.00     0.338 C 
ATOM     58  O   UNL A   1      35.572  33.150  27.526  1.00  0.00    -0.246 OA
BRANCH  57  59
ATOM     59  C   UNL A   1      34.232  31.187  27.667  1.00  0.00     0.060 A 
ATOM     60  C   UNL A   1      32.900  30.961  27.311  1.00  0.00     0.016 A 
ATOM     61  C   UNL A   1      35.140  30.131  27.632  1.00  0.00     0.016 A 
ATOM     62  C   UNL A   1      32.507  29.709  26.816  1.00  0.00     0.005 A 
ATOM     63  C   UNL A   1      34.727  28.870  27.176  1.00  0.00     0.005 A 
ATOM     64  C   UNL A   1      33.424  28.650  26.695  1.00  0.00    -0.043 A 
BRANCH  64  65
ATOM     65  C   UNL A   1      32.987  27.343  26.016  1.00  0.00     0.039 C 
ATOM     66  C   UNL A   1      31.474  27.102  26.228  1.00  0.00     0.012 C 
ATOM     67  C   UNL A   1      33.292  27.263  24.507  1.00  0.00     0.128 C 
ATOM     68  C   UNL A   1      30.951  25.854  25.516  1.00  0.00     0.022 C 
ATOM     69  N   UNL A   1      32.732  26.071  23.868  1.00  0.00    -0.338 N 
ATOM     70  C   UNL A   1      31.292  25.893  24.033  1.00  0.00     0.120 C 
BRANCH  69  71
ATOM     71  C   UNL A   1      33.562  25.251  23.114  1.00  0.00     0.253 C 
ATOM     72  O   UNL A   1      33.989  25.546  22.001  1.00  0.00    -0.269 OA
BRANCH  71  73
ATOM     73  C   UNL A   1      33.966  23.949  23.668  1.00  0.00     0.040 A 
ATOM     74  C   UNL A   1      35.268  23.807  24.148  1.00  0.00     0.016 A 
ATOM     75  C   UNL A   1      33.068  22.872  23.637  1.00  0.00     0.024 A 
ATOM     76  C   UNL A   1      35.713  22.575  24.632  1.00  0.00     0.027 A 
ATOM     77  C   UNL A   1      33.508  21.620  24.110  1.00  0.00     0.000 A 
ATOM     78  C   UNL A   1      34.813  21.502  24.595  1.00  0.00     0.045 A 
ATOM     79  C   UNL A   1      32.909  20.333  24.210  1.00  0.00     0.028 A 
ATOM     80  N   UNL A   1      34.986  20.190  24.976  1.00  0.00    -0.361 N 
ATOM     81  C   UNL A   1      33.844  19.472  24.739  1.00  0.00     0.083 A 
ATOM     82  H   UNL A   1      35.813  19.821  25.363  1.00  0.00     0.166 HD
ENDBRANCH  71  73
ENDBRANCH  69  71
ENDBRANCH  64  65
ENDBRANCH  57  59
ENDBRANCH  56  57
ENDBRANCH   1  56
TORSDOF 14
ENDMDL
MODEL 3
REMARK VINA RESULT:     -12.4      4.346      9.209
REMARK SMILES O=C(OCCOC(=O)c1ccc([C@H]2CCCN(C(=O)c3ccc4[nH]ccc4c3)C2)cc1)c1ccc(-c2c3nc(c(-c4ccccc4)c4ccc([nH]4)c(-c4ccccc4)c4nc(c(-c5ccccc5)c5ccc2[nH]5)C=C4)C=C3)cc1
REMARK SMILES IDX 5 1 4 2 3 3 2 4 1 5 32 6 33 7 79 8 34 9 78 10 35 11 36 12
REMARK SMILES IDX 37 13 72 14 38 15 77 16 71 17 73 18 39 19 76 20 70 21 69 22
REMARK SMILES IDX 40 24 62 25 47 26 61 27 48 28 51 29 60 30 74 31 49 32 50 33
REMARK SMILES IDX 59 35 75 36 52 37 41 38 42 39 46 40 43 41 45 42 44 43 63 44
REMARK SMILES IDX 64 45 68 46 65 47 67 48 66 49 53 50 54 51 58 52 55 53 57 54
REMARK SMILES IDX 56 55 6 56 7 57 8 58 9 59 10 60 31 61 11 62 30 63 12 64
REMARK SMILES IDX 13 65 14 66 29 67 15 68 17 69 16 70 18 71 19 72 20 73 21 74
REMARK SMILES IDX 28 75 22 76 27 77 23 78 26 79 24 80 25 81
REMARK H PARENT 73 23 51 34 24 82
REMARK Flexibility Score: inf
ROOT
ATOM      1  C   UNL A   1      34.042  34.037  29.888  1.00  0.00     0.275 C 
ENDROOT
BRANCH   1   2
ATOM      2  C   UNL A   1      34.066  33.958  31.417  1.00  0.00     0.275 C 
BRANCH   2   3
ATOM      3  O   UNL A   1      34.411  32.667  31.944  1.00  0.00    -0.458 OA
BRANCH   3   4
ATOM      4  C   UNL A   1      35.469  32.321  32.708  1.00  0.00     0.338 C 
ATOM      5  O   UNL A   1      35.520  32.713  33.873  1.00  0.00    -0.246 OA
BRANCH   4   6
ATOM      6  C   UNL A   1      36.672  31.616  32.167  1.00  0.00     0.060 A 
ATOM      7  C   UNL A   1      37.672  30.969  32.903  1.00  0.00     0.016 A 
ATOM      8  C   UNL A   1      36.808  31.648  30.774  1.00  0.00     0.016 A 
ATOM      9  C   UNL A   1      38.727  30.296  32.270  1.00  0.00     0.010 A 
ATOM     10  C   UNL A   1      37.862  30.990  30.142  1.00  0.00     0.010 A 
ATOM     11  C   UNL A   1      38.828  30.293  30.882  1.00  0.00    -0.014 A 
BRANCH  11  12
ATOM     12  C   UNL A   1      40.017  29.737  30.187  1.00  0.00     0.031 A 
ATOM     13  C   UNL A   1      41.164  30.666  29.921  1.00  0.00     0.074 A 
ATOM     14  C   UNL A   1      40.061  28.465  29.745  1.00  0.00     0.049 A 
ATOM     15  N   UNL A   1      42.230  30.484  29.188  1.00  0.00    -0.248 NA
ATOM     16  C   UNL A   1      41.092  31.987  30.570  1.00  0.00     0.031 C 
ATOM     17  C   UNL A   1      39.044  27.445  29.984  1.00  0.00     0.029 A 
ATOM     18  N   UNL A   1      40.978  27.832  28.937  1.00  0.00    -0.354 N 
ATOM     19  C   UNL A   1      42.966  31.653  29.316  1.00  0.00     0.074 A 
ATOM     20  C   UNL A   1      42.180  32.575  30.103  1.00  0.00     0.031 C 
ATOM     21  C   UNL A   1      39.331  26.352  29.252  1.00  0.00     0.029 A 
ATOM     22  C   UNL A   1      40.552  26.598  28.496  1.00  0.00     0.049 A 
ATOM     23  H   UNL A   1      41.849  28.221  28.700  1.00  0.00     0.167 HD
ATOM     24  C   UNL A   1      44.215  31.919  28.866  1.00  0.00     0.031 A 
ATOM     25  C   UNL A   1      41.063  25.788  27.547  1.00  0.00     0.031 A 
ATOM     26  C   UNL A   1      44.983  31.004  28.075  1.00  0.00     0.049 A 
ATOM     27  C   UNL A   1      42.363  26.171  26.894  1.00  0.00     0.074 A 
ATOM     28  C   UNL A   1      46.277  31.135  27.606  1.00  0.00     0.029 A 
ATOM     29  N   UNL A   1      44.511  29.781  27.624  1.00  0.00    -0.354 N 
ATOM     30  N   UNL A   1      43.075  27.261  27.060  1.00  0.00    -0.248 NA
ATOM     31  C   UNL A   1      42.951  25.203  25.958  1.00  0.00     0.031 C 
ATOM     32  C   UNL A   1      46.569  30.010  26.827  1.00  0.00     0.029 A 
ATOM     33  C   UNL A   1      45.475  29.158  26.854  1.00  0.00     0.049 A 
ATOM     34  H   UNL A   1      43.620  29.411  27.822  1.00  0.00     0.167 HD
ATOM     35  C   UNL A   1      44.230  27.074  26.312  1.00  0.00     0.074 A 
ATOM     36  C   UNL A   1      44.100  25.790  25.653  1.00  0.00     0.031 C 
ATOM     37  C   UNL A   1      45.319  27.876  26.215  1.00  0.00     0.031 A 
BRANCH  24  38
ATOM     38  C   UNL A   1      44.791  33.254  29.241  1.00  0.00    -0.014 A 
ATOM     39  C   UNL A   1      45.447  33.435  30.473  1.00  0.00     0.009 A 
ATOM     40  C   UNL A   1      44.626  34.356  28.391  1.00  0.00     0.009 A 
ATOM     41  C   UNL A   1      45.862  34.705  30.874  1.00  0.00     0.001 A 
ATOM     42  C   UNL A   1      45.071  35.620  28.782  1.00  0.00     0.001 A 
ATOM     43  C   UNL A   1      45.672  35.797  30.029  1.00  0.00     0.000 A 
ENDBRANCH  24  38
BRANCH  25  44
ATOM     44  C   UNL A   1      40.330  24.564  27.121  1.00  0.00    -0.014 A 
ATOM     45  C   UNL A   1      39.139  24.630  26.388  1.00  0.00     0.009 A 
ATOM     46  C   UNL A   1      40.823  23.300  27.480  1.00  0.00     0.009 A 
ATOM     47  C   UNL A   1      38.453  23.458  26.043  1.00  0.00     0.001 A 
ATOM     48  C   UNL A   1      40.149  22.131  27.123  1.00  0.00     0.001 A 
ATOM     49  C   UNL A   1      38.960  22.210  26.408  1.00  0.00     0.000 A 
ENDBRANCH  25  44
BRANCH  37  50
ATOM     50  C   UNL A   1      46.491  27.357  25.438  1.00  0.00    -0.014 A 
ATOM     51  C   UNL A   1      46.776  27.816  24.145  1.00  0.00     0.009 A 
ATOM     52  C   UNL A   1      47.374  26.457  26.058  1.00  0.00     0.009 A 
ATOM     53  C   UNL A   1      47.924  27.373  23.483  1.00  0.00     0.001 A 
ATOM     54  C   UNL A   1      48.531  26.037  25.404  1.00  0.00     0.001 A 
ATOM     55  C   UNL A   1      48.804  26.494  24.117  1.00  0.00     0.000 A 
ENDBRANCH  37  50
ENDBRANCH  11  12
ENDBRANCH   4   6
ENDBRANCH   3   4
ENDBRANCH   2   3
ENDBRANCH   1   2
BRANCH   1  56
ATOM     56  O   UNL A   1      33.749  32.787  29.242  1.00  0.00    -0.458 OA
BRANCH  56  57
ATOM     57  C   UNL A   1      34.400  32.572  28.064  1.00  0.00     0.338 C 
ATOM     58  O   UNL A   1      35.219  33.308  27.542  1.00  0.00    -0.246 OA
BRANCH  57  59
ATOM     59  C   UNL A   1      34.065  31.226  27.547  1.00  0.00     0.060 A 
ATOM     60  C   UNL A   1      32.837  31.035  26.909  1.00  0.00     0.016 A 
ATOM     61  C   UNL A   1      34.951  30.158  27.664  1.00  0.00     0.016 A 
ATOM     62  C   UNL A   1      32.547  29.808  26.294  1.00  0.00     0.005 A 
ATOM     63  C   UNL A   1      34.634  28.921  27.082  1.00  0.00     0.005 A 
ATOM     64  C   UNL A   1      33.461  28.740  26.329  1.00  0.00    -0.043 A 
BRANCH  64  65
ATOM     65  C   UNL A   1      33.166  27.465  25.522  1.00  0.00     0.039 C 
ATOM     66  C   UNL A   1      34.087  26.310  25.979  1.00  0.00     0.012 C 
ATOM     67  C   UNL A   1      31.702  26.983  25.584  1.00  0.00     0.128 C 
ATOM     68  C   UNL A   1      33.799  24.986  25.269  1.00  0.00     0.022 C 
ATOM     69  N   UNL A   1      31.493  25.693  24.926  1.00  0.00    -0.338 N 
ATOM     70  C   UNL A   1      32.333  24.601  25.412  1.00  0.00     0.120 C 
BRANCH  69  71
ATOM     71  C   UNL A   1      30.497  25.573  23.966  1.00  0.00     0.253 C 
ATOM     72  O   UNL A   1      30.219  24.523  23.392  1.00  0.00    -0.269 OA
BRANCH  71  73
ATOM     73  C   UNL A   1      29.712  26.765  23.605  1.00  0.00     0.040 A 
ATOM     74  C   UNL A   1      28.353  26.787  23.922  1.00  0.00     0.016 A 
ATOM     75  C   UNL A   1      30.323  27.811  22.897  1.00  0.00     0.024 A 
ATOM     76  C   UNL A   1      27.559  27.873  23.550  1.00  0.00     0.027 A 
ATOM     77  C   UNL A   1      29.530  28.907  22.505  1.00  0.00     0.000 A 
ATOM     78  C   UNL A   1      28.174  28.913  22.840  1.00  0.00     0.045 A 
ATOM     79  C   UNL A   1      29.784  30.103  21.776  1.00  0.00     0.028 A 
ATOM     80  N   UNL A   1      27.637  30.075  22.332  1.00  0.00    -0.361 N 
ATOM     81  C   UNL A   1      28.600  30.797  21.680  1.00  0.00     0.083 A 
ATOM     82  H   UNL A   1      26.695  30.347  22.425  1.00  0.00     0.166 HD
ENDBRANCH  71  73
ENDBRANCH  69  71
ENDBRANCH  64  65
ENDBRANCH  57  59
ENDBRANCH  56  57
ENDBRANCH   1  56
TORSDOF 14
ENDMDL
