MODEL 1
REMARK VINA RESULT:     -11.2      0.000      0.000
REMARK SMILES C[C@@H](C(=O)OCCOC(=O)c1ccc(-c2c3nc(c(-c4ccccc4)c4ccc([nH]4)c(-c4ccccc4)c4nc(c(-c5ccccc5)c5ccc2[nH]5)C=C4)C=C3)cc1)c1ccc(C[C@H]2CCC[C@@H]2O)cc1Br
REMARK SMILES IDX 6 1 5 2 3 3 4 4 2 5 1 6 59 7 60 8 71 9 61 10 70 11 72 12
REMARK SMILES IDX 62 13 63 14 64 15 65 16 68 17 66 18 67 19 69 20 7 22 8 23
REMARK SMILES IDX 9 24 10 25 11 26 12 27 58 28 13 29 57 30 14 31 15 32 16 33
REMARK SMILES IDX 51 34 17 35 56 36 50 37 52 38 18 39 55 40 49 41 48 42 19 44
REMARK SMILES IDX 41 45 26 46 40 47 27 48 30 49 39 50 53 51 28 52 29 53 38 55
REMARK SMILES IDX 54 56 31 57 20 58 21 59 25 60 22 61 24 62 23 63 42 64 43 65
REMARK SMILES IDX 47 66 44 67 46 68 45 69 32 70 33 71 37 72 34 73 36 74 35 75
REMARK H PARENT 69 21 52 43 30 54
REMARK Flexibility Score: inf
ROOT
ATOM      1  C   UNL A   1      31.877  28.928  24.617  1.00  0.00     0.274 C 
ENDROOT
BRANCH   1   2
ATOM      2  O   UNL A   1      32.183  27.905  25.589  1.00  0.00    -0.462 OA
BRANCH   2   3
ATOM      3  C   UNL A   1      31.207  26.985  25.824  1.00  0.00     0.313 C 
ATOM      4  O   UNL A   1      30.704  26.798  26.927  1.00  0.00    -0.252 OA
BRANCH   3   5
ATOM      5  C   UNL A   1      30.845  26.155  24.578  1.00  0.00     0.127 C 
ATOM      6  C   UNL A   1      29.337  26.075  24.334  1.00  0.00     0.025 C 
BRANCH   5   7
ATOM      7  C   UNL A   1      31.679  24.868  24.488  1.00  0.00    -0.020 A 
ATOM      8  C   UNL A   1      31.470  23.945  25.541  1.00  0.00     0.006 A 
ATOM      9  C   UNL A   1      32.571  24.462  23.481  1.00  0.00     0.022 A 
ATOM     10  C   UNL A   1      32.073  22.685  25.575  1.00  0.00     0.004 A 
ATOM     11  C   UNL A   1      33.230  23.215  23.557  1.00  0.00     0.019 A 
ATOM     12  Br  UNL A   1      32.931  25.431  21.887  1.00  0.00    -0.050 Br
ATOM     13  C   UNL A   1      32.982  22.303  24.595  1.00  0.00    -0.047 A 
BRANCH  13  14
ATOM     14  C   UNL A   1      33.587  20.913  24.551  1.00  0.00     0.041 C 
BRANCH  14  15
ATOM     15  C   UNL A   1      32.643  19.706  24.416  1.00  0.00     0.022 C 
ATOM     16  C   UNL A   1      32.348  19.255  22.976  1.00  0.00     0.007 C 
ATOM     17  C   UNL A   1      33.088  18.444  25.168  1.00  0.00     0.117 C 
ATOM     18  C   UNL A   1      32.641  17.756  22.944  1.00  0.00     0.003 C 
ATOM     19  C   UNL A   1      32.454  17.306  24.383  1.00  0.00     0.032 C 
BRANCH  17  20
ATOM     20  O   UNL A   1      32.642  18.461  26.511  1.00  0.00    -0.393 OA
ATOM     21  H   UNL A   1      33.144  19.123  27.011  1.00  0.00     0.210 HD
ENDBRANCH  17  20
ENDBRANCH  14  15
ENDBRANCH  13  14
ENDBRANCH   5   7
ENDBRANCH   3   5
ENDBRANCH   2   3
ENDBRANCH   1   2
BRANCH   1  22
ATOM     22  C   UNL A   1      31.410  30.197  25.322  1.00  0.00     0.275 C 
BRANCH  22  23
ATOM     23  O   UNL A   1      31.965  30.231  26.647  1.00  0.00    -0.458 OA
BRANCH  23  24
ATOM     24  C   UNL A   1      32.546  31.394  27.022  1.00  0.00     0.338 C 
ATOM     25  O   UNL A   1      32.082  32.517  26.932  1.00  0.00    -0.246 OA
BRANCH  24  26
ATOM     26  C   UNL A   1      33.891  31.116  27.564  1.00  0.00     0.060 A 
ATOM     27  C   UNL A   1      34.348  29.807  27.676  1.00  0.00     0.016 A 
ATOM     28  C   UNL A   1      34.669  32.167  28.052  1.00  0.00     0.016 A 
ATOM     29  C   UNL A   1      35.538  29.545  28.351  1.00  0.00     0.010 A 
ATOM     30  C   UNL A   1      35.904  31.900  28.659  1.00  0.00     0.010 A 
ATOM     31  C   UNL A   1      36.337  30.578  28.862  1.00  0.00    -0.014 A 
BRANCH  31  32
ATOM     32  C   UNL A   1      37.561  30.272  29.664  1.00  0.00     0.031 A 
ATOM     33  C   UNL A   1      38.739  29.577  29.023  1.00  0.00     0.074 A 
ATOM     34  C   UNL A   1      37.677  30.659  30.952  1.00  0.00     0.049 A 
ATOM     35  N   UNL A   1      39.798  29.048  29.588  1.00  0.00    -0.248 NA
ATOM     36  C   UNL A   1      38.723  29.450  27.557  1.00  0.00     0.031 C 
ATOM     37  C   UNL A   1      36.680  31.414  31.713  1.00  0.00     0.029 A 
ATOM     38  N   UNL A   1      38.714  30.500  31.842  1.00  0.00    -0.354 N 
ATOM     39  C   UNL A   1      40.524  28.456  28.561  1.00  0.00     0.074 A 
ATOM     40  C   UNL A   1      39.797  28.707  27.334  1.00  0.00     0.031 C 
ATOM     41  C   UNL A   1      37.188  31.727  32.915  1.00  0.00     0.029 A 
ATOM     42  C   UNL A   1      38.496  31.099  33.059  1.00  0.00     0.049 A 
ATOM     43  H   UNL A   1      39.536  30.001  31.628  1.00  0.00     0.167 HD
ATOM     44  C   UNL A   1      41.682  27.756  28.631  1.00  0.00     0.031 A 
ATOM     45  C   UNL A   1      39.236  31.112  34.184  1.00  0.00     0.031 A 
ATOM     46  C   UNL A   1      42.448  27.557  29.833  1.00  0.00     0.049 A 
ATOM     47  C   UNL A   1      40.509  30.319  34.249  1.00  0.00     0.074 A 
ATOM     48  C   UNL A   1      43.610  26.823  30.006  1.00  0.00     0.029 A 
ATOM     49  N   UNL A   1      42.152  28.129  31.059  1.00  0.00    -0.354 N 
ATOM     50  N   UNL A   1      41.098  29.625  33.307  1.00  0.00    -0.248 NA
ATOM     51  C   UNL A   1      41.197  30.277  35.548  1.00  0.00     0.031 C 
ATOM     52  C   UNL A   1      44.007  26.934  31.343  1.00  0.00     0.029 A 
ATOM     53  C   UNL A   1      43.112  27.769  31.991  1.00  0.00     0.049 A 
ATOM     54  H   UNL A   1      41.376  28.705  31.241  1.00  0.00     0.167 HD
ATOM     55  C   UNL A   1      42.216  29.055  33.901  1.00  0.00     0.074 A 
ATOM     56  C   UNL A   1      42.245  29.512  35.274  1.00  0.00     0.031 C 
ATOM     57  C   UNL A   1      43.129  28.215  33.357  1.00  0.00     0.031 A 
BRANCH  44  58
ATOM     58  C   UNL A   1      42.174  27.103  27.370  1.00  0.00    -0.014 A 
ATOM     59  C   UNL A   1      43.089  27.738  26.520  1.00  0.00     0.009 A 
ATOM     60  C   UNL A   1      41.739  25.804  27.057  1.00  0.00     0.009 A 
ATOM     61  C   UNL A   1      43.539  27.094  25.364  1.00  0.00     0.001 A 
ATOM     62  C   UNL A   1      42.210  25.154  25.916  1.00  0.00     0.001 A 
ATOM     63  C   UNL A   1      43.104  25.802  25.067  1.00  0.00     0.000 A 
ENDBRANCH  44  58
BRANCH  45  64
ATOM     64  C   UNL A   1      38.751  31.850  35.380  1.00  0.00    -0.014 A 
ATOM     65  C   UNL A   1      38.097  31.171  36.419  1.00  0.00     0.009 A 
ATOM     66  C   UNL A   1      38.940  33.238  35.487  1.00  0.00     0.009 A 
ATOM     67  C   UNL A   1      37.633  31.871  37.535  1.00  0.00     0.001 A 
ATOM     68  C   UNL A   1      38.504  33.928  36.618  1.00  0.00     0.001 A 
ATOM     69  C   UNL A   1      37.843  33.245  37.638  1.00  0.00     0.000 A 
ENDBRANCH  45  64
BRANCH  57  70
ATOM     70  C   UNL A   1      44.236  27.735  34.249  1.00  0.00    -0.014 A 
ATOM     71  C   UNL A   1      45.467  28.409  34.293  1.00  0.00     0.009 A 
ATOM     72  C   UNL A   1      44.037  26.621  35.076  1.00  0.00     0.009 A 
ATOM     73  C   UNL A   1      46.488  27.957  35.131  1.00  0.00     0.001 A 
ATOM     74  C   UNL A   1      45.054  26.182  35.928  1.00  0.00     0.001 A 
ATOM     75  C   UNL A   1      46.280  26.845  35.949  1.00  0.00     0.000 A 
ENDBRANCH  57  70
ENDBRANCH  31  32
ENDBRANCH  24  26
ENDBRANCH  23  24
ENDBRANCH  22  23
ENDBRANCH   1  22
TORSDOF 15
ENDMDL
MODEL 2
REMARK VINA RESULT:     -11.1      3.925      9.347
REMARK SMILES C[C@@H](C(=O)OCCOC(=O)c1ccc(-c2c3nc(c(-c4ccccc4)c4ccc([nH]4)c(-c4ccccc4)c4nc(c(-c5ccccc5)c5ccc2[nH]5)C=C4)C=C3)cc1)c1ccc(C[C@H]2CCC[C@@H]2O)cc1Br
REMARK SMILES IDX 6 1 5 2 3 3 4 4 2 5 1 6 59 7 60 8 71 9 61 10 70 11 72 12
REMARK SMILES IDX 62 13 63 14 64 15 65 16 68 17 66 18 67 19 69 20 7 22 8 23
REMARK SMILES IDX 9 24 10 25 11 26 12 27 58 28 13 29 57 30 14 31 15 32 16 33
REMARK SMILES IDX 51 34 17 35 56 36 50 37 52 38 18 39 55 40 49 41 48 42 19 44
REMARK SMILES IDX 41 45 26 46 40 47 27 48 30 49 39 50 53 51 28 52 29 53 38 55
REMARK SMILES IDX 54 56 31 57 20 58 21 59 25 60 22 61 24 62 23 63 42 64 43 65
REMARK SMILES IDX 47 66 44 67 46 68 45 69 32 70 33 71 37 72 34 73 36 74 35 75
REMARK H PARENT 69 21 52 43 30 54
REMARK Flexibility Score: inf
ROOT
ATOM      1  C   UNL A   1      35.922  22.281  23.822  1.00  0.00     0.274 C 
ENDROOT
BRANCH   1   2
ATOM      2  O   UNL A   1      34.538  22.674  23.934  1.00  0.00    -0.462 OA
BRANCH   2   3
ATOM      3  C   UNL A   1      34.181  23.821  23.294  1.00  0.00     0.313 C 
ATOM      4  O   UNL A   1      33.989  23.890  22.084  1.00  0.00    -0.252 OA
BRANCH   3   5
ATOM      5  C   UNL A   1      34.108  25.041  24.232  1.00  0.00     0.127 C 
ATOM      6  C   UNL A   1      34.326  24.676  25.701  1.00  0.00     0.025 C 
BRANCH   5   7
ATOM      7  C   UNL A   1      32.944  25.973  23.864  1.00  0.00    -0.020 A 
ATOM      8  C   UNL A   1      33.322  27.179  23.226  1.00  0.00     0.006 A 
ATOM      9  C   UNL A   1      31.563  25.766  24.022  1.00  0.00     0.022 A 
ATOM     10  C   UNL A   1      32.393  28.103  22.740  1.00  0.00     0.004 A 
ATOM     11  C   UNL A   1      30.632  26.736  23.589  1.00  0.00     0.019 A 
ATOM     12  Br  UNL A   1      30.768  24.184  24.709  1.00  0.00    -0.050 Br
ATOM     13  C   UNL A   1      31.030  27.909  22.931  1.00  0.00    -0.047 A 
BRANCH  13  14
ATOM     14  C   UNL A   1      29.991  28.844  22.340  1.00  0.00     0.041 C 
BRANCH  14  15
ATOM     15  C   UNL A   1      29.102  29.653  23.299  1.00  0.00     0.022 C 
ATOM     16  C   UNL A   1      29.738  30.930  23.872  1.00  0.00     0.007 C 
ATOM     17  C   UNL A   1      27.745  30.083  22.724  1.00  0.00     0.117 C 
ATOM     18  C   UNL A   1      28.735  32.049  23.601  1.00  0.00     0.003 C 
ATOM     19  C   UNL A   1      27.396  31.339  23.506  1.00  0.00     0.032 C 
BRANCH  17  20
ATOM     20  O   UNL A   1      26.768  29.073  22.899  1.00  0.00    -0.393 OA
ATOM     21  H   UNL A   1      27.099  28.236  22.538  1.00  0.00     0.210 HD
ENDBRANCH  17  20
ENDBRANCH  14  15
ENDBRANCH  13  14
ENDBRANCH   5   7
ENDBRANCH   3   5
ENDBRANCH   2   3
ENDBRANCH   1   2
BRANCH   1  22
ATOM     22  C   UNL A   1      36.184  21.037  24.664  1.00  0.00     0.275 C 
BRANCH  22  23
ATOM     23  O   UNL A   1      36.907  21.414  25.848  1.00  0.00    -0.458 OA
BRANCH  23  24
ATOM     24  C   UNL A   1      38.249  21.243  25.807  1.00  0.00     0.338 C 
ATOM     25  O   UNL A   1      38.860  20.272  25.400  1.00  0.00    -0.246 OA
BRANCH  24  26
ATOM     26  C   UNL A   1      38.910  22.440  26.363  1.00  0.00     0.060 A 
ATOM     27  C   UNL A   1      38.358  23.703  26.170  1.00  0.00     0.016 A 
ATOM     28  C   UNL A   1      40.143  22.313  27.005  1.00  0.00     0.016 A 
ATOM     29  C   UNL A   1      39.078  24.837  26.541  1.00  0.00     0.010 A 
ATOM     30  C   UNL A   1      40.823  23.455  27.448  1.00  0.00     0.010 A 
ATOM     31  C   UNL A   1      40.323  24.742  27.179  1.00  0.00    -0.014 A 
BRANCH  31  32
ATOM     32  C   UNL A   1      41.121  25.969  27.483  1.00  0.00     0.031 A 
ATOM     33  C   UNL A   1      40.616  26.978  28.487  1.00  0.00     0.074 A 
ATOM     34  C   UNL A   1      42.334  26.179  26.928  1.00  0.00     0.049 A 
ATOM     35  N   UNL A   1      41.053  28.189  28.738  1.00  0.00    -0.248 NA
ATOM     36  C   UNL A   1      39.461  26.581  29.310  1.00  0.00     0.031 C 
ATOM     37  C   UNL A   1      43.022  25.276  26.005  1.00  0.00     0.029 A 
ATOM     38  N   UNL A   1      43.224  27.215  27.095  1.00  0.00    -0.354 N 
ATOM     39  C   UNL A   1      40.180  28.723  29.679  1.00  0.00     0.074 A 
ATOM     40  C   UNL A   1      39.199  27.700  29.971  1.00  0.00     0.031 C 
ATOM     41  C   UNL A   1      44.253  25.749  25.761  1.00  0.00     0.029 A 
ATOM     42  C   UNL A   1      44.403  27.046  26.412  1.00  0.00     0.049 A 
ATOM     43  H   UNL A   1      43.033  28.005  27.651  1.00  0.00     0.167 HD
ATOM     44  C   UNL A   1      40.185  29.956  30.242  1.00  0.00     0.031 A 
ATOM     45  C   UNL A   1      45.473  27.853  26.279  1.00  0.00     0.031 A 
ATOM     46  C   UNL A   1      41.192  30.958  30.011  1.00  0.00     0.049 A 
ATOM     47  C   UNL A   1      45.455  29.222  26.897  1.00  0.00     0.074 A 
ATOM     48  C   UNL A   1      41.252  32.252  30.502  1.00  0.00     0.029 A 
ATOM     49  N   UNL A   1      42.336  30.765  29.256  1.00  0.00    -0.354 N 
ATOM     50  N   UNL A   1      44.539  29.775  27.652  1.00  0.00    -0.248 NA
ATOM     51  C   UNL A   1      46.603  30.095  26.605  1.00  0.00     0.031 C 
ATOM     52  C   UNL A   1      42.425  32.849  30.027  1.00  0.00     0.029 A 
ATOM     53  C   UNL A   1      43.112  31.913  29.273  1.00  0.00     0.049 A 
ATOM     54  H   UNL A   1      42.565  29.935  28.778  1.00  0.00     0.167 HD
ATOM     55  C   UNL A   1      44.993  31.061  27.916  1.00  0.00     0.074 A 
ATOM     56  C   UNL A   1      46.282  31.196  27.270  1.00  0.00     0.031 C 
ATOM     57  C   UNL A   1      44.385  32.046  28.618  1.00  0.00     0.031 A 
BRANCH  44  58
ATOM     58  C   UNL A   1      39.029  30.316  31.131  1.00  0.00    -0.014 A 
ATOM     59  C   UNL A   1      37.850  30.874  30.618  1.00  0.00     0.009 A 
ATOM     60  C   UNL A   1      39.114  30.049  32.508  1.00  0.00     0.009 A 
ATOM     61  C   UNL A   1      36.787  31.181  31.472  1.00  0.00     0.001 A 
ATOM     62  C   UNL A   1      38.042  30.332  33.354  1.00  0.00     0.001 A 
ATOM     63  C   UNL A   1      36.883  30.905  32.837  1.00  0.00     0.000 A 
ENDBRANCH  44  58
BRANCH  45  64
ATOM     64  C   UNL A   1      46.635  27.415  25.463  1.00  0.00    -0.014 A 
ATOM     65  C   UNL A   1      46.793  27.874  24.146  1.00  0.00     0.009 A 
ATOM     66  C   UNL A   1      47.591  26.535  25.996  1.00  0.00     0.009 A 
ATOM     67  C   UNL A   1      47.880  27.450  23.378  1.00  0.00     0.001 A 
ATOM     68  C   UNL A   1      48.692  26.139  25.236  1.00  0.00     0.001 A 
ATOM     69  C   UNL A   1      48.832  26.590  23.925  1.00  0.00     0.000 A 
ENDBRANCH  45  64
BRANCH  57  70
ATOM     70  C   UNL A   1      45.107  33.357  28.727  1.00  0.00    -0.014 A 
ATOM     71  C   UNL A   1      46.026  33.589  29.762  1.00  0.00     0.009 A 
ATOM     72  C   UNL A   1      44.891  34.356  27.767  1.00  0.00     0.009 A 
ATOM     73  C   UNL A   1      46.696  34.811  29.848  1.00  0.00     0.001 A 
ATOM     74  C   UNL A   1      45.577  35.571  27.846  1.00  0.00     0.001 A 
ATOM     75  C   UNL A   1      46.473  35.800  28.889  1.00  0.00     0.000 A 
ENDBRANCH  57  70
ENDBRANCH  31  32
ENDBRANCH  24  26
ENDBRANCH  23  24
ENDBRANCH  22  23
ENDBRANCH   1  22
TORSDOF 15
ENDMDL
MODEL 3
REMARK VINA RESULT:     -11.0      2.282      4.933
REMARK SMILES C[C@@H](C(=O)OCCOC(=O)c1ccc(-c2c3nc(c(-c4ccccc4)c4ccc([nH]4)c(-c4ccccc4)c4nc(c(-c5ccccc5)c5ccc2[nH]5)C=C4)C=C3)cc1)c1ccc(C[C@H]2CCC[C@@H]2O)cc1Br
REMARK SMILES IDX 6 1 5 2 3 3 4 4 2 5 1 6 59 7 60 8 71 9 61 10 70 11 72 12
REMARK SMILES IDX 62 13 63 14 64 15 65 16 68 17 66 18 67 19 69 20 7 22 8 23
REMARK SMILES IDX 9 24 10 25 11 26 12 27 58 28 13 29 57 30 14 31 15 32 16 33
REMARK SMILES IDX 51 34 17 35 56 36 50 37 52 38 18 39 55 40 49 41 48 42 19 44
REMARK SMILES IDX 41 45 26 46 40 47 27 48 30 49 39 50 53 51 28 52 29 53 38 55
REMARK SMILES IDX 54 56 31 57 20 58 21 59 25 60 22 61 24 62 23 63 42 64 43 65
REMARK SMILES IDX 47 66 44 67 46 68 45 69 32 70 33 71 37 72 34 73 36 74 35 75
REMARK H PARENT 69 21 52 43 30 54
REMARK Flexibility Score: inf
ROOT
ATOM      1  C   UNL A   1      31.902  28.195  27.135  1.00  0.00     0.274 C 
ENDROOT
BRANCH   1   2
ATOM      2  O   UNL A   1      32.373  27.157  26.250  1.00  0.00    -0.462 OA
BRANCH   2   3
ATOM      3  C   UNL A   1      31.502  26.143  25.992  1.00  0.00     0.313 C 
ATOM      4  O   UNL A   1      30.910  25.519  26.867  1.00  0.00    -0.252 OA
BRANCH   3   5
ATOM      5  C   UNL A   1      31.384  25.812  24.492  1.00  0.00     0.127 C 
ATOM      6  C   UNL A   1      32.674  25.233  23.907  1.00  0.00     0.025 C 
BRANCH   5   7
ATOM      7  C   UNL A   1      30.652  26.921  23.720  1.00  0.00    -0.020 A 
ATOM      8  C   UNL A   1      29.239  26.852  23.772  1.00  0.00     0.006 A 
ATOM      9  C   UNL A   1      31.191  28.016  23.024  1.00  0.00     0.022 A 
ATOM     10  C   UNL A   1      28.412  27.826  23.206  1.00  0.00     0.004 A 
ATOM     11  C   UNL A   1      30.348  28.960  22.396  1.00  0.00     0.019 A 
ATOM     12  Br  UNL A   1      33.039  28.437  22.915  1.00  0.00    -0.050 Br
ATOM     13  C   UNL A   1      28.950  28.888  22.489  1.00  0.00    -0.047 A 
BRANCH  13  14
ATOM     14  C   UNL A   1      28.089  30.009  21.938  1.00  0.00     0.041 C 
BRANCH  14  15
ATOM     15  C   UNL A   1      28.023  31.334  22.716  1.00  0.00     0.022 C 
ATOM     16  C   UNL A   1      28.683  31.318  24.105  1.00  0.00     0.007 C 
ATOM     17  C   UNL A   1      28.614  32.548  21.985  1.00  0.00     0.117 C 
ATOM     18  C   UNL A   1      29.633  32.514  24.125  1.00  0.00     0.003 C 
ATOM     19  C   UNL A   1      29.046  33.478  23.109  1.00  0.00     0.032 C 
BRANCH  17  20
ATOM     20  O   UNL A   1      27.653  33.160  21.144  1.00  0.00    -0.393 OA
ATOM     21  H   UNL A   1      27.513  32.609  20.358  1.00  0.00     0.210 HD
ENDBRANCH  17  20
ENDBRANCH  14  15
ENDBRANCH  13  14
ENDBRANCH   5   7
ENDBRANCH   3   5
ENDBRANCH   2   3
ENDBRANCH   1   2
BRANCH   1  22
ATOM     22  C   UNL A   1      31.602  29.463  26.344  1.00  0.00     0.275 C 
BRANCH  22  23
ATOM     23  O   UNL A   1      32.834  30.155  26.079  1.00  0.00    -0.458 OA
BRANCH  23  24
ATOM     24  C   UNL A   1      33.156  31.150  26.937  1.00  0.00     0.338 C 
ATOM     25  O   UNL A   1      32.502  32.143  27.200  1.00  0.00    -0.246 OA
BRANCH  24  26
ATOM     26  C   UNL A   1      34.479  30.872  27.531  1.00  0.00     0.060 A 
ATOM     27  C   UNL A   1      34.920  29.562  27.685  1.00  0.00     0.016 A 
ATOM     28  C   UNL A   1      35.249  31.926  28.026  1.00  0.00     0.016 A 
ATOM     29  C   UNL A   1      36.084  29.304  28.406  1.00  0.00     0.010 A 
ATOM     30  C   UNL A   1      36.459  31.661  28.680  1.00  0.00     0.010 A 
ATOM     31  C   UNL A   1      36.874  30.340  28.924  1.00  0.00    -0.014 A 
BRANCH  31  32
ATOM     32  C   UNL A   1      38.066  30.041  29.775  1.00  0.00     0.031 A 
ATOM     33  C   UNL A   1      39.255  29.313  29.193  1.00  0.00     0.074 A 
ATOM     34  C   UNL A   1      38.145  30.462  31.055  1.00  0.00     0.049 A 
ATOM     35  N   UNL A   1      40.287  28.786  29.807  1.00  0.00    -0.248 NA
ATOM     36  C   UNL A   1      39.285  29.146  27.730  1.00  0.00     0.031 C 
ATOM     37  C   UNL A   1      37.135  31.251  31.762  1.00  0.00     0.029 A 
ATOM     38  N   UNL A   1      39.150  30.314  31.983  1.00  0.00    -0.354 N 
ATOM     39  C   UNL A   1      41.038  28.156  28.821  1.00  0.00     0.074 A 
ATOM     40  C   UNL A   1      40.356  28.383  27.565  1.00  0.00     0.031 C 
ATOM     41  C   UNL A   1      37.606  31.591  32.971  1.00  0.00     0.029 A 
ATOM     42  C   UNL A   1      38.901  30.949  33.175  1.00  0.00     0.049 A 
ATOM     43  H   UNL A   1      39.972  29.799  31.810  1.00  0.00     0.167 HD
ATOM     44  C   UNL A   1      42.184  27.444  28.948  1.00  0.00     0.031 A 
ATOM     45  C   UNL A   1      39.603  30.984  34.324  1.00  0.00     0.031 A 
ATOM     46  C   UNL A   1      42.907  27.269  30.180  1.00  0.00     0.049 A 
ATOM     47  C   UNL A   1      40.862  30.177  34.452  1.00  0.00     0.074 A 
ATOM     48  C   UNL A   1      44.052  26.524  30.411  1.00  0.00     0.029 A 
ATOM     49  N   UNL A   1      42.579  27.877  31.379  1.00  0.00    -0.354 N 
ATOM     50  N   UNL A   1      41.472  29.449  33.550  1.00  0.00    -0.248 NA
ATOM     51  C   UNL A   1      41.507  30.162  35.774  1.00  0.00     0.031 C 
ATOM     52  C   UNL A   1      44.406  26.667  31.758  1.00  0.00     0.029 A 
ATOM     53  C   UNL A   1      43.502  27.531  32.352  1.00  0.00     0.049 A 
ATOM     54  H   UNL A   1      41.805  28.469  31.520  1.00  0.00     0.167 HD
ATOM     55  C   UNL A   1      42.562  28.882  34.196  1.00  0.00     0.074 A 
ATOM     56  C   UNL A   1      42.553  29.376  35.557  1.00  0.00     0.031 C 
ATOM     57  C   UNL A   1      43.480  28.015  33.706  1.00  0.00     0.031 A 
BRANCH  44  58
ATOM     58  C   UNL A   1      42.708  26.750  27.723  1.00  0.00    -0.014 A 
ATOM     59  C   UNL A   1      42.285  25.462  27.369  1.00  0.00     0.009 A 
ATOM     60  C   UNL A   1      43.612  27.425  26.887  1.00  0.00     0.009 A 
ATOM     61  C   UNL A   1      42.779  24.852  26.213  1.00  0.00     0.001 A 
ATOM     62  C   UNL A   1      44.084  26.824  25.720  1.00  0.00     0.001 A 
ATOM     63  C   UNL A   1      43.673  25.535  25.388  1.00  0.00     0.000 A 
ENDBRANCH  44  58
BRANCH  45  64
ATOM     64  C   UNL A   1      39.090  31.761  35.482  1.00  0.00    -0.014 A 
ATOM     65  C   UNL A   1      39.470  33.099  35.667  1.00  0.00     0.009 A 
ATOM     66  C   UNL A   1      38.218  31.167  36.410  1.00  0.00     0.009 A 
ATOM     67  C   UNL A   1      38.995  33.821  36.764  1.00  0.00     0.001 A 
ATOM     68  C   UNL A   1      37.721  31.902  37.487  1.00  0.00     0.001 A 
ATOM     69  C   UNL A   1      38.116  33.226  37.668  1.00  0.00     0.000 A 
ENDBRANCH  45  64
BRANCH  57  70
ATOM     70  C   UNL A   1      44.551  27.546  34.647  1.00  0.00    -0.014 A 
ATOM     71  C   UNL A   1      44.354  26.417  35.457  1.00  0.00     0.009 A 
ATOM     72  C   UNL A   1      45.780  28.218  34.700  1.00  0.00     0.009 A 
ATOM     73  C   UNL A   1      45.360  25.987  36.324  1.00  0.00     0.001 A 
ATOM     74  C   UNL A   1      46.792  27.774  35.554  1.00  0.00     0.001 A 
ATOM     75  C   UNL A   1      46.579  26.664  36.370  1.00  0.00     0.000 A 
ENDBRANCH  57  70
ENDBRANCH  31  32
ENDBRANCH  24  26
ENDBRANCH  23  24
ENDBRANCH  22  23
ENDBRANCH   1  22
TORSDOF 15
ENDMDL
