MODEL 1
REMARK VINA RESULT:     -10.5      0.000      0.000
REMARK SMILES O=C(OCCOC(=O)c1cc(S(=O)(=O)C/C(Cl)=C/Cl)ccc1Cl)c1ccc(-c2c3nc(c(-c4ccccc4)c4ccc([nH]4)c(-c4ccccc4)c4nc(c(-c5ccccc5)c5ccc2[nH]5)C=C4)C=C3)cc1
REMARK SMILES IDX 5 1 4 2 3 3 2 4 1 5 24 6 25 7 71 8 26 9 70 10 27 11 28 12
REMARK SMILES IDX 29 13 64 14 30 15 69 16 63 17 65 18 31 19 68 20 62 21 61 22
REMARK SMILES IDX 32 24 54 25 39 26 53 27 40 28 43 29 52 30 66 31 41 32 42 33
REMARK SMILES IDX 51 35 67 36 44 37 33 38 34 39 38 40 35 41 37 42 36 43 55 44
REMARK SMILES IDX 56 45 60 46 57 47 59 48 58 49 45 50 46 51 50 52 47 53 49 54
REMARK SMILES IDX 48 55 6 56 7 57 8 58 9 59 10 60 22 61 11 62 21 63 23 64
REMARK SMILES IDX 20 65 12 66 13 67 14 68 15 69 16 70 17 71 18 72 19 73
REMARK H PARENT 65 23 43 34
REMARK Flexibility Score: inf
ROOT
ATOM      1  C   UNL A   1      38.140  21.424  25.427  1.00  0.00     0.275 C 
ENDROOT
BRANCH   1   2
ATOM      2  C   UNL A   1      38.487  20.000  24.982  1.00  0.00     0.275 C 
BRANCH   2   3
ATOM      3  O   UNL A   1      39.442  19.341  25.825  1.00  0.00    -0.458 OA
BRANCH   3   4
ATOM      4  C   UNL A   1      40.767  19.557  25.972  1.00  0.00     0.338 C 
ATOM      5  O   UNL A   1      41.536  18.640  25.687  1.00  0.00    -0.246 OA
BRANCH   4   6
ATOM      6  C   UNL A   1      41.365  20.800  26.567  1.00  0.00     0.060 A 
ATOM      7  C   UNL A   1      41.510  21.118  27.922  1.00  0.00     0.016 A 
ATOM      8  C   UNL A   1      41.858  21.727  25.637  1.00  0.00     0.016 A 
ATOM      9  C   UNL A   1      42.192  22.269  28.342  1.00  0.00     0.010 A 
ATOM     10  C   UNL A   1      42.554  22.865  26.047  1.00  0.00     0.010 A 
ATOM     11  C   UNL A   1      42.721  23.148  27.404  1.00  0.00    -0.014 A 
BRANCH  11  12
ATOM     12  C   UNL A   1      43.246  24.473  27.797  1.00  0.00     0.031 A 
ATOM     13  C   UNL A   1      42.243  25.532  28.143  1.00  0.00     0.074 A 
ATOM     14  C   UNL A   1      44.563  24.745  27.808  1.00  0.00     0.049 A 
ATOM     15  N   UNL A   1      42.429  26.795  28.409  1.00  0.00    -0.248 NA
ATOM     16  C   UNL A   1      40.835  25.098  28.193  1.00  0.00     0.031 C 
ATOM     17  C   UNL A   1      45.633  23.776  27.592  1.00  0.00     0.029 A 
ATOM     18  N   UNL A   1      45.225  25.934  27.977  1.00  0.00    -0.354 N 
ATOM     19  C   UNL A   1      41.160  27.307  28.644  1.00  0.00     0.074 A 
ATOM     20  C   UNL A   1      40.213  26.240  28.422  1.00  0.00     0.031 C 
ATOM     21  C   UNL A   1      46.814  24.417  27.561  1.00  0.00     0.029 A 
ATOM     22  C   UNL A   1      46.580  25.843  27.762  1.00  0.00     0.049 A 
ATOM     23  H   UNL A   1      44.774  26.772  28.228  1.00  0.00     0.167 HD
ATOM     24  C   UNL A   1      40.815  28.551  29.041  1.00  0.00     0.031 A 
ATOM     25  C   UNL A   1      47.519  26.807  27.723  1.00  0.00     0.031 A 
ATOM     26  C   UNL A   1      41.765  29.609  29.226  1.00  0.00     0.049 A 
ATOM     27  C   UNL A   1      47.111  28.216  28.056  1.00  0.00     0.074 A 
ATOM     28  C   UNL A   1      41.546  30.906  29.646  1.00  0.00     0.029 A 
ATOM     29  N   UNL A   1      43.125  29.483  28.977  1.00  0.00    -0.354 N 
ATOM     30  N   UNL A   1      45.916  28.681  28.338  1.00  0.00    -0.248 NA
ATOM     31  C   UNL A   1      48.180  29.222  28.118  1.00  0.00     0.031 C 
ATOM     32  C   UNL A   1      42.770  31.582  29.602  1.00  0.00     0.029 A 
ATOM     33  C   UNL A   1      43.760  30.687  29.219  1.00  0.00     0.049 A 
ATOM     34  H   UNL A   1      43.571  28.659  28.675  1.00  0.00     0.167 HD
ATOM     35  C   UNL A   1      46.096  30.015  28.675  1.00  0.00     0.074 A 
ATOM     36  C   UNL A   1      47.514  30.290  28.541  1.00  0.00     0.031 C 
ATOM     37  C   UNL A   1      45.176  30.922  29.087  1.00  0.00     0.031 A 
BRANCH  24  38
ATOM     38  C   UNL A   1      39.349  28.800  29.251  1.00  0.00    -0.014 A 
ATOM     39  C   UNL A   1      38.540  29.304  28.215  1.00  0.00     0.009 A 
ATOM     40  C   UNL A   1      38.787  28.615  30.521  1.00  0.00     0.009 A 
ATOM     41  C   UNL A   1      37.222  29.686  28.468  1.00  0.00     0.001 A 
ATOM     42  C   UNL A   1      37.456  28.963  30.761  1.00  0.00     0.001 A 
ATOM     43  C   UNL A   1      36.682  29.516  29.742  1.00  0.00     0.000 A 
ENDBRANCH  24  38
BRANCH  25  44
ATOM     44  C   UNL A   1      48.927  26.464  27.391  1.00  0.00    -0.014 A 
ATOM     45  C   UNL A   1      49.849  26.148  28.400  1.00  0.00     0.009 A 
ATOM     46  C   UNL A   1      49.355  26.438  26.054  1.00  0.00     0.009 A 
ATOM     47  C   UNL A   1      51.174  25.833  28.078  1.00  0.00     0.001 A 
ATOM     48  C   UNL A   1      50.674  26.102  25.734  1.00  0.00     0.001 A 
ATOM     49  C   UNL A   1      51.584  25.807  26.746  1.00  0.00     0.000 A 
ENDBRANCH  25  44
BRANCH  37  50
ATOM     50  C   UNL A   1      45.677  32.277  29.496  1.00  0.00    -0.014 A 
ATOM     51  C   UNL A   1      46.123  32.533  30.799  1.00  0.00     0.009 A 
ATOM     52  C   UNL A   1      45.791  33.283  28.521  1.00  0.00     0.009 A 
ATOM     53  C   UNL A   1      46.659  33.781  31.124  1.00  0.00     0.001 A 
ATOM     54  C   UNL A   1      46.355  34.517  28.841  1.00  0.00     0.001 A 
ATOM     55  C   UNL A   1      46.783  34.766  30.143  1.00  0.00     0.000 A 
ENDBRANCH  37  50
ENDBRANCH  11  12
ENDBRANCH   4   6
ENDBRANCH   3   4
ENDBRANCH   2   3
ENDBRANCH   1   2
BRANCH   1  56
ATOM     56  O   UNL A   1      36.738  21.624  25.683  1.00  0.00    -0.458 OA
BRANCH  56  57
ATOM     57  C   UNL A   1      35.985  22.045  24.631  1.00  0.00     0.339 C 
ATOM     58  O   UNL A   1      36.386  22.441  23.558  1.00  0.00    -0.246 OA
BRANCH  57  59
ATOM     59  C   UNL A   1      34.548  21.846  24.935  1.00  0.00     0.080 A 
ATOM     60  C   UNL A   1      33.775  22.974  25.273  1.00  0.00     0.037 A 
ATOM     61  C   UNL A   1      33.955  20.584  24.918  1.00  0.00     0.055 A 
ATOM     62  C   UNL A   1      32.395  22.843  25.516  1.00  0.00     0.068 A 
ATOM     63  C   UNL A   1      32.592  20.458  25.214  1.00  0.00     0.023 A 
ATOM     64  Cl  UNL A   1      34.830  19.134  24.577  1.00  0.00    -0.083 Cl
ATOM     65  C   UNL A   1      31.807  21.582  25.498  1.00  0.00     0.022 A 
BRANCH  62  66
ATOM     66  S   UNL A   1      31.462  24.323  25.864  1.00  0.00     0.183 S 
ATOM     67  O   UNL A   1      30.672  24.548  24.667  1.00  0.00    -0.223 OA
ATOM     68  O   UNL A   1      30.799  24.113  27.137  1.00  0.00    -0.223 OA
BRANCH  66  69
ATOM     69  C   UNL A   1      32.533  25.730  26.034  1.00  0.00     0.191 C 
BRANCH  69  70
ATOM     70  C   UNL A   1      32.564  26.627  24.826  1.00  0.00     0.045 C 
ATOM     71  Cl  UNL A   1      31.493  27.997  24.912  1.00  0.00    -0.087 Cl
ATOM     72  C   UNL A   1      33.463  26.522  23.836  1.00  0.00     0.097 C 
ATOM     73  Cl  UNL A   1      33.634  27.605  22.517  1.00  0.00    -0.092 Cl
ENDBRANCH  69  70
ENDBRANCH  66  69
ENDBRANCH  62  66
ENDBRANCH  57  59
ENDBRANCH  56  57
ENDBRANCH   1  56
TORSDOF 14
ENDMDL
MODEL 2
REMARK VINA RESULT:     -10.2      1.785      3.532
REMARK SMILES O=C(OCCOC(=O)c1cc(S(=O)(=O)C/C(Cl)=C/Cl)ccc1Cl)c1ccc(-c2c3nc(c(-c4ccccc4)c4ccc([nH]4)c(-c4ccccc4)c4nc(c(-c5ccccc5)c5ccc2[nH]5)C=C4)C=C3)cc1
REMARK SMILES IDX 5 1 4 2 3 3 2 4 1 5 24 6 25 7 71 8 26 9 70 10 27 11 28 12
REMARK SMILES IDX 29 13 64 14 30 15 69 16 63 17 65 18 31 19 68 20 62 21 61 22
REMARK SMILES IDX 32 24 54 25 39 26 53 27 40 28 43 29 52 30 66 31 41 32 42 33
REMARK SMILES IDX 51 35 67 36 44 37 33 38 34 39 38 40 35 41 37 42 36 43 55 44
REMARK SMILES IDX 56 45 60 46 57 47 59 48 58 49 45 50 46 51 50 52 47 53 49 54
REMARK SMILES IDX 48 55 6 56 7 57 8 58 9 59 10 60 22 61 11 62 21 63 23 64
REMARK SMILES IDX 20 65 12 66 13 67 14 68 15 69 16 70 17 71 18 72 19 73
REMARK H PARENT 65 23 43 34
REMARK Flexibility Score: inf
ROOT
ATOM      1  C   UNL A   1      38.088  22.058  25.415  1.00  0.00     0.275 C 
ENDROOT
BRANCH   1   2
ATOM      2  C   UNL A   1      38.035  20.528  25.462  1.00  0.00     0.275 C 
BRANCH   2   3
ATOM      3  O   UNL A   1      39.294  19.892  25.205  1.00  0.00    -0.458 OA
BRANCH   3   4
ATOM      4  C   UNL A   1      40.423  19.865  25.948  1.00  0.00     0.338 C 
ATOM      5  O   UNL A   1      40.908  18.769  26.220  1.00  0.00    -0.246 OA
BRANCH   4   6
ATOM      6  C   UNL A   1      41.065  21.077  26.561  1.00  0.00     0.060 A 
ATOM      7  C   UNL A   1      41.148  21.410  27.918  1.00  0.00     0.016 A 
ATOM      8  C   UNL A   1      41.677  21.951  25.651  1.00  0.00     0.016 A 
ATOM      9  C   UNL A   1      41.879  22.520  28.363  1.00  0.00     0.010 A 
ATOM     10  C   UNL A   1      42.422  23.047  26.086  1.00  0.00     0.010 A 
ATOM     11  C   UNL A   1      42.524  23.344  27.448  1.00  0.00    -0.014 A 
BRANCH  11  12
ATOM     12  C   UNL A   1      43.112  24.638  27.853  1.00  0.00     0.031 A 
ATOM     13  C   UNL A   1      42.162  25.744  28.200  1.00  0.00     0.074 A 
ATOM     14  C   UNL A   1      44.441  24.843  27.873  1.00  0.00     0.049 A 
ATOM     15  N   UNL A   1      42.409  26.994  28.477  1.00  0.00    -0.248 NA
ATOM     16  C   UNL A   1      40.733  25.381  28.240  1.00  0.00     0.031 C 
ATOM     17  C   UNL A   1      45.462  23.823  27.657  1.00  0.00     0.029 A 
ATOM     18  N   UNL A   1      45.160  25.997  28.055  1.00  0.00    -0.354 N 
ATOM     19  C   UNL A   1      41.166  27.567  28.708  1.00  0.00     0.074 A 
ATOM     20  C   UNL A   1      40.168  26.551  28.472  1.00  0.00     0.031 C 
ATOM     21  C   UNL A   1      46.674  24.405  27.637  1.00  0.00     0.029 A 
ATOM     22  C   UNL A   1      46.510  25.839  27.847  1.00  0.00     0.049 A 
ATOM     23  H   UNL A   1      44.750  26.855  28.309  1.00  0.00     0.167 HD
ATOM     24  C   UNL A   1      40.881  28.824  29.112  1.00  0.00     0.031 A 
ATOM     25  C   UNL A   1      47.497  26.755  27.821  1.00  0.00     0.031 A 
ATOM     26  C   UNL A   1      41.882  29.832  29.310  1.00  0.00     0.049 A 
ATOM     27  C   UNL A   1      47.159  28.180  28.162  1.00  0.00     0.074 A 
ATOM     28  C   UNL A   1      41.726  31.135  29.739  1.00  0.00     0.029 A 
ATOM     29  N   UNL A   1      43.235  29.640  29.069  1.00  0.00    -0.354 N 
ATOM     30  N   UNL A   1      45.986  28.702  28.440  1.00  0.00    -0.248 NA
ATOM     31  C   UNL A   1      48.276  29.131  28.238  1.00  0.00     0.031 C 
ATOM     32  C   UNL A   1      42.982  31.749  29.707  1.00  0.00     0.029 A 
ATOM     33  C   UNL A   1      43.928  30.808  29.323  1.00  0.00     0.049 A 
ATOM     34  H   UNL A   1      43.641  28.796  28.763  1.00  0.00     0.167 HD
ATOM     35  C   UNL A   1      46.231  30.024  28.788  1.00  0.00     0.074 A 
ATOM     36  C   UNL A   1      47.662  30.227  28.664  1.00  0.00     0.031 C 
ATOM     37  C   UNL A   1      45.356  30.973  29.201  1.00  0.00     0.031 A 
BRANCH  24  38
ATOM     38  C   UNL A   1      39.428  29.146  29.315  1.00  0.00    -0.014 A 
ATOM     39  C   UNL A   1      38.788  28.882  30.540  1.00  0.00     0.009 A 
ATOM     40  C   UNL A   1      38.668  29.635  28.245  1.00  0.00     0.009 A 
ATOM     41  C   UNL A   1      37.407  29.031  30.665  1.00  0.00     0.001 A 
ATOM     42  C   UNL A   1      37.291  29.820  28.384  1.00  0.00     0.001 A 
ATOM     43  C   UNL A   1      36.659  29.499  29.585  1.00  0.00     0.000 A 
ENDBRANCH  24  38
BRANCH  25  44
ATOM     44  C   UNL A   1      48.888  26.344  27.495  1.00  0.00    -0.014 A 
ATOM     45  C   UNL A   1      49.781  25.956  28.505  1.00  0.00     0.009 A 
ATOM     46  C   UNL A   1      49.328  26.325  26.162  1.00  0.00     0.009 A 
ATOM     47  C   UNL A   1      51.090  25.577  28.189  1.00  0.00     0.001 A 
ATOM     48  C   UNL A   1      50.631  25.926  25.847  1.00  0.00     0.001 A 
ATOM     49  C   UNL A   1      51.512  25.559  26.861  1.00  0.00     0.000 A 
ENDBRANCH  25  44
BRANCH  37  50
ATOM     50  C   UNL A   1      45.921  32.298  29.623  1.00  0.00    -0.014 A 
ATOM     51  C   UNL A   1      46.371  32.522  30.931  1.00  0.00     0.009 A 
ATOM     52  C   UNL A   1      46.093  33.303  28.657  1.00  0.00     0.009 A 
ATOM     53  C   UNL A   1      46.967  33.739  31.268  1.00  0.00     0.001 A 
ATOM     54  C   UNL A   1      46.715  34.505  28.988  1.00  0.00     0.001 A 
ATOM     55  C   UNL A   1      47.147  34.724  30.295  1.00  0.00     0.000 A 
ENDBRANCH  37  50
ENDBRANCH  11  12
ENDBRANCH   4   6
ENDBRANCH   3   4
ENDBRANCH   2   3
ENDBRANCH   1   2
BRANCH   1  56
ATOM     56  O   UNL A   1      36.977  22.652  24.719  1.00  0.00    -0.458 OA
BRANCH  56  57
ATOM     57  C   UNL A   1      35.843  22.847  25.446  1.00  0.00     0.339 C 
ATOM     58  O   UNL A   1      35.750  23.402  26.519  1.00  0.00    -0.246 OA
BRANCH  57  59
ATOM     59  C   UNL A   1      34.669  22.373  24.675  1.00  0.00     0.080 A 
ATOM     60  C   UNL A   1      34.363  20.999  24.704  1.00  0.00     0.037 A 
ATOM     61  C   UNL A   1      33.885  23.238  23.912  1.00  0.00     0.055 A 
ATOM     62  C   UNL A   1      33.226  20.509  24.032  1.00  0.00     0.068 A 
ATOM     63  C   UNL A   1      32.787  22.731  23.205  1.00  0.00     0.023 A 
ATOM     64  Cl  UNL A   1      34.215  24.927  23.762  1.00  0.00    -0.083 Cl
ATOM     65  C   UNL A   1      32.447  21.376  23.273  1.00  0.00     0.022 A 
BRANCH  62  66
ATOM     66  S   UNL A   1      32.854  18.770  24.173  1.00  0.00     0.183 S 
ATOM     67  O   UNL A   1      32.322  18.617  25.515  1.00  0.00    -0.223 OA
ATOM     68  O   UNL A   1      32.036  18.420  23.028  1.00  0.00    -0.223 OA
BRANCH  66  69
ATOM     69  C   UNL A   1      34.335  17.791  24.104  1.00  0.00     0.191 C 
BRANCH  69  70
ATOM     70  C   UNL A   1      34.195  16.422  24.712  1.00  0.00     0.045 C 
ATOM     71  Cl  UNL A   1      35.630  15.826  25.498  1.00  0.00    -0.087 Cl
ATOM     72  C   UNL A   1      33.029  15.768  24.829  1.00  0.00     0.097 C 
ATOM     73  Cl  UNL A   1      32.792  14.277  25.644  1.00  0.00    -0.092 Cl
ENDBRANCH  69  70
ENDBRANCH  66  69
ENDBRANCH  62  66
ENDBRANCH  57  59
ENDBRANCH  56  57
ENDBRANCH   1  56
TORSDOF 14
ENDMDL
MODEL 3
REMARK VINA RESULT:     -10.1      2.451      7.204
REMARK SMILES O=C(OCCOC(=O)c1cc(S(=O)(=O)C/C(Cl)=C/Cl)ccc1Cl)c1ccc(-c2c3nc(c(-c4ccccc4)c4ccc([nH]4)c(-c4ccccc4)c4nc(c(-c5ccccc5)c5ccc2[nH]5)C=C4)C=C3)cc1
REMARK SMILES IDX 5 1 4 2 3 3 2 4 1 5 24 6 25 7 71 8 26 9 70 10 27 11 28 12
REMARK SMILES IDX 29 13 64 14 30 15 69 16 63 17 65 18 31 19 68 20 62 21 61 22
REMARK SMILES IDX 32 24 54 25 39 26 53 27 40 28 43 29 52 30 66 31 41 32 42 33
REMARK SMILES IDX 51 35 67 36 44 37 33 38 34 39 38 40 35 41 37 42 36 43 55 44
REMARK SMILES IDX 56 45 60 46 57 47 59 48 58 49 45 50 46 51 50 52 47 53 49 54
REMARK SMILES IDX 48 55 6 56 7 57 8 58 9 59 10 60 22 61 11 62 21 63 23 64
REMARK SMILES IDX 20 65 12 66 13 67 14 68 15 69 16 70 17 71 18 72 19 73
REMARK H PARENT 65 23 43 34
REMARK Flexibility Score: inf
ROOT
ATOM      1  C   UNL A   1      42.649  19.397  26.151  1.00  0.00     0.275 C 
ENDROOT
BRANCH   1   2
ATOM      2  C   UNL A   1      43.568  19.216  24.940  1.00  0.00     0.275 C 
BRANCH   2   3
ATOM      3  O   UNL A   1      44.182  20.430  24.486  1.00  0.00    -0.458 OA
BRANCH   3   4
ATOM      4  C   UNL A   1      45.104  21.215  25.084  1.00  0.00     0.338 C 
ATOM      5  O   UNL A   1      46.168  20.700  25.421  1.00  0.00    -0.246 OA
BRANCH   4   6
ATOM      6  C   UNL A   1      44.877  22.649  25.470  1.00  0.00     0.060 A 
ATOM      7  C   UNL A   1      44.528  23.717  24.634  1.00  0.00     0.016 A 
ATOM      8  C   UNL A   1      45.004  22.925  26.839  1.00  0.00     0.016 A 
ATOM      9  C   UNL A   1      44.234  24.989  25.146  1.00  0.00     0.010 A 
ATOM     10  C   UNL A   1      44.696  24.183  27.358  1.00  0.00     0.010 A 
ATOM     11  C   UNL A   1      44.314  25.228  26.513  1.00  0.00    -0.014 A 
BRANCH  11  12
ATOM     12  C   UNL A   1      44.232  26.597  27.064  1.00  0.00     0.031 A 
ATOM     13  C   UNL A   1      45.525  27.299  27.349  1.00  0.00     0.074 A 
ATOM     14  C   UNL A   1      43.055  27.185  27.343  1.00  0.00     0.049 A 
ATOM     15  N   UNL A   1      45.735  28.447  27.931  1.00  0.00    -0.248 NA
ATOM     16  C   UNL A   1      46.749  26.603  26.914  1.00  0.00     0.031 C 
ATOM     17  C   UNL A   1      41.738  26.648  27.017  1.00  0.00     0.029 A 
ATOM     18  N   UNL A   1      42.780  28.357  28.000  1.00  0.00    -0.354 N 
ATOM     19  C   UNL A   1      47.114  28.601  27.943  1.00  0.00     0.074 A 
ATOM     20  C   UNL A   1      47.690  27.405  27.377  1.00  0.00     0.031 C 
ATOM     21  C   UNL A   1      40.791  27.443  27.544  1.00  0.00     0.029 A 
ATOM     22  C   UNL A   1      41.439  28.550  28.238  1.00  0.00     0.049 A 
ATOM     23  H   UNL A   1      43.474  28.998  28.275  1.00  0.00     0.167 HD
ATOM     24  C   UNL A   1      47.839  29.661  28.362  1.00  0.00     0.031 A 
ATOM     25  C   UNL A   1      40.813  29.509  28.945  1.00  0.00     0.031 A 
ATOM     26  C   UNL A   1      47.253  30.830  28.953  1.00  0.00     0.049 A 
ATOM     27  C   UNL A   1      41.637  30.635  29.510  1.00  0.00     0.074 A 
ATOM     28  C   UNL A   1      47.875  31.980  29.397  1.00  0.00     0.029 A 
ATOM     29  N   UNL A   1      45.895  30.979  29.196  1.00  0.00    -0.354 N 
ATOM     30  N   UNL A   1      42.938  30.804  29.463  1.00  0.00    -0.248 NA
ATOM     31  C   UNL A   1      40.910  31.724  30.175  1.00  0.00     0.031 C 
ATOM     32  C   UNL A   1      46.895  32.806  29.958  1.00  0.00     0.029 A 
ATOM     33  C   UNL A   1      45.657  32.198  29.802  1.00  0.00     0.049 A 
ATOM     34  H   UNL A   1      45.203  30.315  28.969  1.00  0.00     0.167 HD
ATOM     35  C   UNL A   1      43.181  32.046  30.032  1.00  0.00     0.074 A 
ATOM     36  C   UNL A   1      41.893  32.577  30.436  1.00  0.00     0.031 C 
ATOM     37  C   UNL A   1      44.359  32.701  30.180  1.00  0.00     0.031 A 
BRANCH  24  38
ATOM     38  C   UNL A   1      49.329  29.550  28.215  1.00  0.00    -0.014 A 
ATOM     39  C   UNL A   1      49.978  29.959  27.035  1.00  0.00     0.009 A 
ATOM     40  C   UNL A   1      50.085  28.948  29.230  1.00  0.00     0.009 A 
ATOM     41  C   UNL A   1      51.335  29.700  26.846  1.00  0.00     0.001 A 
ATOM     42  C   UNL A   1      51.452  28.725  29.054  1.00  0.00     0.001 A 
ATOM     43  C   UNL A   1      52.071  29.081  27.856  1.00  0.00     0.000 A 
ENDBRANCH  24  38
BRANCH  25  44
ATOM     44  C   UNL A   1      39.338  29.462  29.125  1.00  0.00    -0.014 A 
ATOM     45  C   UNL A   1      38.773  29.020  30.331  1.00  0.00     0.009 A 
ATOM     46  C   UNL A   1      38.483  29.873  28.090  1.00  0.00     0.009 A 
ATOM     47  C   UNL A   1      37.384  28.973  30.489  1.00  0.00     0.001 A 
ATOM     48  C   UNL A   1      37.095  29.845  28.259  1.00  0.00     0.001 A 
ATOM     49  C   UNL A   1      36.547  29.389  29.455  1.00  0.00     0.000 A 
ENDBRANCH  25  44
BRANCH  37  50
ATOM     50  C   UNL A   1      44.310  34.094  30.735  1.00  0.00    -0.014 A 
ATOM     51  C   UNL A   1      44.475  34.348  32.103  1.00  0.00     0.009 A 
ATOM     52  C   UNL A   1      44.193  35.177  29.846  1.00  0.00     0.009 A 
ATOM     53  C   UNL A   1      44.505  35.662  32.574  1.00  0.00     0.001 A 
ATOM     54  C   UNL A   1      44.255  36.487  30.315  1.00  0.00     0.001 A 
ATOM     55  C   UNL A   1      44.406  36.729  31.679  1.00  0.00     0.000 A 
ENDBRANCH  37  50
ENDBRANCH  11  12
ENDBRANCH   4   6
ENDBRANCH   3   4
ENDBRANCH   2   3
ENDBRANCH   1   2
BRANCH   1  56
ATOM     56  O   UNL A   1      41.613  20.375  25.949  1.00  0.00    -0.458 OA
BRANCH  56  57
ATOM     57  C   UNL A   1      40.767  20.584  26.995  1.00  0.00     0.339 C 
ATOM     58  O   UNL A   1      40.762  20.002  28.058  1.00  0.00    -0.246 OA
BRANCH  57  59
ATOM     59  C   UNL A   1      39.885  21.738  26.700  1.00  0.00     0.080 A 
ATOM     60  C   UNL A   1      38.801  21.542  25.822  1.00  0.00     0.037 A 
ATOM     61  C   UNL A   1      40.113  23.003  27.242  1.00  0.00     0.055 A 
ATOM     62  C   UNL A   1      37.904  22.594  25.555  1.00  0.00     0.068 A 
ATOM     63  C   UNL A   1      39.245  24.055  26.926  1.00  0.00     0.023 A 
ATOM     64  Cl  UNL A   1      41.449  23.359  28.276  1.00  0.00    -0.083 Cl
ATOM     65  C   UNL A   1      38.135  23.853  26.098  1.00  0.00     0.022 A 
BRANCH  62  66
ATOM     66  S   UNL A   1      36.509  22.255  24.495  1.00  0.00     0.183 S 
ATOM     67  O   UNL A   1      36.997  22.519  23.153  1.00  0.00    -0.223 OA
ATOM     68  O   UNL A   1      36.029  20.931  24.841  1.00  0.00    -0.223 OA
BRANCH  66  69
ATOM     69  C   UNL A   1      35.188  23.407  24.787  1.00  0.00     0.191 C 
BRANCH  69  70
ATOM     70  C   UNL A   1      34.109  22.886  25.696  1.00  0.00     0.045 C 
ATOM     71  Cl  UNL A   1      32.896  21.921  24.903  1.00  0.00    -0.087 Cl
ATOM     72  C   UNL A   1      34.147  22.973  27.034  1.00  0.00     0.097 C 
ATOM     73  Cl  UNL A   1      33.020  22.266  28.118  1.00  0.00    -0.092 Cl
ENDBRANCH  69  70
ENDBRANCH  66  69
ENDBRANCH  62  66
ENDBRANCH  57  59
ENDBRANCH  56  57
ENDBRANCH   1  56
TORSDOF 14
ENDMDL
