MODEL 1
REMARK VINA RESULT:     -12.9      0.000      0.000
REMARK SMILES C[N@@H+]1CC[C@H]2CN(C(=O)c3csc(-c4ccncc4)n3)C[C@@]2(C(=O)OCCOC(=O)c2ccc(-c3c4nc(c(-c5ccccc5)c5ccc([nH]5)c(-c5ccccc5)c5nc(c(-c6ccccc6)c6ccc3[nH]6)C=C5)C=C4)cc2)C1
REMARK SMILES IDX 26 1 25 2 23 3 24 4 22 5 1 6 2 7 3 8 79 9 4 11 5 12 21 13
REMARK SMILES IDX 6 14 7 15 8 16 9 17 10 18 11 19 20 20 12 21 13 22 14 23
REMARK SMILES IDX 15 24 19 25 16 26 18 27 17 28 27 29 28 30 29 31 30 32 31 33
REMARK SMILES IDX 32 34 78 35 33 36 77 37 34 38 35 39 36 40 71 41 37 42 76 43
REMARK SMILES IDX 70 44 72 45 38 46 75 47 69 48 68 49 39 51 61 52 46 53 60 54
REMARK SMILES IDX 47 55 50 56 59 57 73 58 48 59 49 60 58 62 74 63 51 64 40 65
REMARK SMILES IDX 41 66 45 67 42 68 44 69 43 70 62 71 63 72 67 73 64 74 66 75
REMARK SMILES IDX 65 76 52 77 53 78 57 79 54 80 56 81 55 82
REMARK H PARENT 2 10 72 50 50 61
REMARK Flexibility Score: inf
ROOT
ATOM      1  C   UNL A   1      34.923  23.731  23.853  1.00  0.00     0.274 C 
ENDROOT
BRANCH   1   2
ATOM      2  O   UNL A   1      33.477  23.746  23.535  1.00  0.00    -0.461 OA
BRANCH   2   3
ATOM      3  C   UNL A   1      32.964  24.727  22.668  1.00  0.00     0.320 C 
ATOM      4  O   UNL A   1      33.277  24.842  21.492  1.00  0.00    -0.251 OA
BRANCH   3   5
ATOM      5  C   UNL A   1      31.718  25.397  23.411  1.00  0.00     0.139 C 
ATOM      6  C   UNL A   1      33.689  28.112  22.322  1.00  0.00     0.332 C 
ATOM      7  N   UNL A   1      32.171  27.997  22.360  1.00  0.00    -0.336 N 
ATOM      8  C   UNL A   1      31.651  28.661  23.558  1.00  0.00     0.262 C 
ATOM      9  C   UNL A   1      31.691  26.533  22.331  1.00  0.00     0.283 C 
ATOM     10  H   UNL A   1      31.813  28.453  21.520  1.00  0.00     0.347 HD
ATOM     11  C   UNL A   1      30.898  27.732  24.502  1.00  0.00     0.068 C 
ATOM     12  C   UNL A   1      31.495  26.296  24.727  1.00  0.00     0.039 C 
ATOM     13  C   UNL A   1      30.923  24.120  23.730  1.00  0.00     0.145 C 
ATOM     14  C   UNL A   1      30.386  25.589  25.501  1.00  0.00     0.125 C 
ATOM     15  N   UNL A   1      30.596  24.228  25.165  1.00  0.00    -0.336 N 
BRANCH  15  16
ATOM     16  C   UNL A   1      30.700  23.345  26.222  1.00  0.00     0.273 C 
ATOM     17  O   UNL A   1      30.028  23.496  27.252  1.00  0.00    -0.267 OA
BRANCH  16  18
ATOM     18  C   UNL A   1      31.703  22.293  26.159  1.00  0.00     0.139 A 
ATOM     19  C   UNL A   1      32.918  22.377  26.814  1.00  0.00     0.101 A 
ATOM     20  N   UNL A   1      31.590  21.219  25.275  1.00  0.00    -0.231 NA
ATOM     21  S   UNL A   1      33.927  21.077  26.356  1.00  0.00    -0.122 S 
ATOM     22  C   UNL A   1      32.716  20.536  25.260  1.00  0.00     0.124 A 
BRANCH  22  23
ATOM     23  C   UNL A   1      32.996  19.391  24.399  1.00  0.00     0.013 A 
ATOM     24  C   UNL A   1      34.025  18.498  24.709  1.00  0.00     0.031 A 
ATOM     25  C   UNL A   1      32.237  19.177  23.249  1.00  0.00     0.031 A 
ATOM     26  C   UNL A   1      34.233  17.420  23.863  1.00  0.00     0.111 A 
ATOM     27  C   UNL A   1      32.528  18.075  22.465  1.00  0.00     0.111 A 
ATOM     28  N   UNL A   1      33.503  17.187  22.751  1.00  0.00    -0.265 NA
ENDBRANCH  22  23
ENDBRANCH  16  18
ENDBRANCH  15  16
ENDBRANCH   3   5
ENDBRANCH   2   3
ENDBRANCH   1   2
BRANCH   1  29
ATOM     29  C   UNL A   1      35.575  22.296  23.682  1.00  0.00     0.275 C 
BRANCH  29  30
ATOM     30  O   UNL A   1      37.037  22.269  23.819  1.00  0.00    -0.458 OA
BRANCH  30  31
ATOM     31  C   UNL A   1      37.579  21.595  24.896  1.00  0.00     0.338 C 
ATOM     32  O   UNL A   1      37.586  20.377  25.012  1.00  0.00    -0.246 OA
BRANCH  31  33
ATOM     33  C   UNL A   1      38.301  22.497  25.884  1.00  0.00     0.060 A 
ATOM     34  C   UNL A   1      37.858  23.781  26.096  1.00  0.00     0.016 A 
ATOM     35  C   UNL A   1      39.515  22.173  26.499  1.00  0.00     0.016 A 
ATOM     36  C   UNL A   1      38.734  24.792  26.516  1.00  0.00     0.010 A 
ATOM     37  C   UNL A   1      40.291  23.168  27.174  1.00  0.00     0.010 A 
ATOM     38  C   UNL A   1      39.971  24.540  27.103  1.00  0.00    -0.014 A 
BRANCH  38  39
ATOM     39  C   UNL A   1      40.893  25.674  27.561  1.00  0.00     0.031 A 
ATOM     40  C   UNL A   1      40.397  26.714  28.560  1.00  0.00     0.074 A 
ATOM     41  C   UNL A   1      42.199  25.806  27.196  1.00  0.00     0.049 A 
ATOM     42  N   UNL A   1      40.820  27.939  28.773  1.00  0.00    -0.248 NA
ATOM     43  C   UNL A   1      39.272  26.327  29.425  1.00  0.00     0.031 C 
ATOM     44  C   UNL A   1      42.977  24.888  26.361  1.00  0.00     0.029 A 
ATOM     45  N   UNL A   1      43.134  26.780  27.514  1.00  0.00    -0.354 N 
ATOM     46  C   UNL A   1      39.925  28.506  29.680  1.00  0.00     0.074 A 
ATOM     47  C   UNL A   1      38.966  27.475  30.013  1.00  0.00     0.031 C 
ATOM     48  C   UNL A   1      44.264  25.255  26.344  1.00  0.00     0.029 A 
ATOM     49  C   UNL A   1      44.380  26.565  26.957  1.00  0.00     0.049 A 
ATOM     50  H   UNL A   1      42.929  27.555  28.084  1.00  0.00     0.167 HD
ATOM     51  C   UNL A   1      39.891  29.774  30.165  1.00  0.00     0.031 A 
ATOM     52  C   UNL A   1      45.472  27.350  26.827  1.00  0.00     0.031 A 
ATOM     53  C   UNL A   1      40.915  30.761  29.927  1.00  0.00     0.049 A 
ATOM     54  C   UNL A   1      45.402  28.773  27.294  1.00  0.00     0.074 A 
ATOM     55  C   UNL A   1      40.957  32.087  30.326  1.00  0.00     0.029 A 
ATOM     56  N   UNL A   1      42.108  30.507  29.269  1.00  0.00    -0.354 N 
ATOM     57  N   UNL A   1      44.439  29.380  27.941  1.00  0.00    -0.248 NA
ATOM     58  C   UNL A   1      46.544  29.637  26.958  1.00  0.00     0.031 C 
ATOM     59  C   UNL A   1      42.159  32.645  29.874  1.00  0.00     0.029 A 
ATOM     60  C   UNL A   1      42.889  31.651  29.245  1.00  0.00     0.049 A 
ATOM     61  H   UNL A   1      42.362  29.642  28.874  1.00  0.00     0.167 HD
ATOM     62  C   UNL A   1      44.859  30.695  28.092  1.00  0.00     0.074 A 
ATOM     63  C   UNL A   1      46.175  30.791  27.497  1.00  0.00     0.031 C 
ATOM     64  C   UNL A   1      44.201  31.734  28.661  1.00  0.00     0.031 A 
BRANCH  51  65
ATOM     65  C   UNL A   1      38.654  30.201  30.917  1.00  0.00    -0.014 A 
ATOM     66  C   UNL A   1      38.563  30.168  32.315  1.00  0.00     0.009 A 
ATOM     67  C   UNL A   1      37.547  30.660  30.180  1.00  0.00     0.009 A 
ATOM     68  C   UNL A   1      37.372  30.533  32.955  1.00  0.00     0.001 A 
ATOM     69  C   UNL A   1      36.371  31.055  30.822  1.00  0.00     0.001 A 
ATOM     70  C   UNL A   1      36.279  30.975  32.208  1.00  0.00     0.000 A 
ENDBRANCH  51  65
BRANCH  52  71
ATOM     71  C   UNL A   1      46.673  26.862  26.076  1.00  0.00    -0.014 A 
ATOM     72  C   UNL A   1      47.709  26.179  26.729  1.00  0.00     0.009 A 
ATOM     73  C   UNL A   1      46.795  27.096  24.694  1.00  0.00     0.009 A 
ATOM     74  C   UNL A   1      48.834  25.744  26.018  1.00  0.00     0.001 A 
ATOM     75  C   UNL A   1      47.896  26.621  23.978  1.00  0.00     0.001 A 
ATOM     76  C   UNL A   1      48.920  25.953  24.642  1.00  0.00     0.000 A 
ENDBRANCH  52  71
BRANCH  64  77
ATOM     77  C   UNL A   1      44.921  33.049  28.714  1.00  0.00    -0.014 A 
ATOM     78  C   UNL A   1      45.704  33.409  29.822  1.00  0.00     0.009 A 
ATOM     79  C   UNL A   1      44.830  33.930  27.625  1.00  0.00     0.009 A 
ATOM     80  C   UNL A   1      46.358  34.643  29.850  1.00  0.00     0.001 A 
ATOM     81  C   UNL A   1      45.507  35.150  27.644  1.00  0.00     0.001 A 
ATOM     82  C   UNL A   1      46.263  35.508  28.759  1.00  0.00     0.000 A 
ENDBRANCH  64  77
ENDBRANCH  38  39
ENDBRANCH  31  33
ENDBRANCH  30  31
ENDBRANCH  29  30
ENDBRANCH   1  29
TORSDOF 14
ENDMDL
MODEL 2
REMARK VINA RESULT:     -12.8      3.704      8.852
REMARK SMILES C[N@@H+]1CC[C@H]2CN(C(=O)c3csc(-c4ccncc4)n3)C[C@@]2(C(=O)OCCOC(=O)c2ccc(-c3c4nc(c(-c5ccccc5)c5ccc([nH]5)c(-c5ccccc5)c5nc(c(-c6ccccc6)c6ccc3[nH]6)C=C5)C=C4)cc2)C1
REMARK SMILES IDX 26 1 25 2 23 3 24 4 22 5 1 6 2 7 3 8 79 9 4 11 5 12 21 13
REMARK SMILES IDX 6 14 7 15 8 16 9 17 10 18 11 19 20 20 12 21 13 22 14 23
REMARK SMILES IDX 15 24 19 25 16 26 18 27 17 28 27 29 28 30 29 31 30 32 31 33
REMARK SMILES IDX 32 34 78 35 33 36 77 37 34 38 35 39 36 40 71 41 37 42 76 43
REMARK SMILES IDX 70 44 72 45 38 46 75 47 69 48 68 49 39 51 61 52 46 53 60 54
REMARK SMILES IDX 47 55 50 56 59 57 73 58 48 59 49 60 58 62 74 63 51 64 40 65
REMARK SMILES IDX 41 66 45 67 42 68 44 69 43 70 62 71 63 72 67 73 64 74 66 75
REMARK SMILES IDX 65 76 52 77 53 78 57 79 54 80 56 81 55 82
REMARK H PARENT 2 10 72 50 50 61
REMARK Flexibility Score: inf
ROOT
ATOM      1  C   UNL A   1      30.983  26.936  26.199  1.00  0.00     0.274 C 
ENDROOT
BRANCH   1   2
ATOM      2  O   UNL A   1      31.396  25.768  25.390  1.00  0.00    -0.461 OA
BRANCH   2   3
ATOM      3  C   UNL A   1      31.515  24.506  26.000  1.00  0.00     0.320 C 
ATOM      4  O   UNL A   1      31.101  24.236  27.118  1.00  0.00    -0.251 OA
BRANCH   3   5
ATOM      5  C   UNL A   1      31.971  23.482  24.861  1.00  0.00     0.139 C 
ATOM      6  C   UNL A   1      33.423  22.241  27.827  1.00  0.00     0.332 C 
ATOM      7  N   UNL A   1      32.818  21.461  26.669  1.00  0.00    -0.336 N 
ATOM      8  C   UNL A   1      33.879  20.991  25.775  1.00  0.00     0.262 C 
ATOM      9  C   UNL A   1      31.798  22.292  25.868  1.00  0.00     0.283 C 
ATOM     10  H   UNL A   1      32.318  20.667  27.070  1.00  0.00     0.347 HD
ATOM     11  C   UNL A   1      33.776  21.531  24.355  1.00  0.00     0.068 C 
ATOM     12  C   UNL A   1      33.363  23.039  24.186  1.00  0.00     0.039 C 
ATOM     13  C   UNL A   1      31.195  24.086  23.679  1.00  0.00     0.145 C 
ATOM     14  C   UNL A   1      33.124  23.155  22.683  1.00  0.00     0.125 C 
ATOM     15  N   UNL A   1      32.194  24.220  22.601  1.00  0.00    -0.336 N 
BRANCH  15  16
ATOM     16  C   UNL A   1      32.521  25.255  21.747  1.00  0.00     0.273 C 
ATOM     17  O   UNL A   1      33.185  25.053  20.719  1.00  0.00    -0.267 OA
BRANCH  16  18
ATOM     18  C   UNL A   1      32.175  26.616  22.129  1.00  0.00     0.139 A 
ATOM     19  C   UNL A   1      33.082  27.484  22.708  1.00  0.00     0.101 A 
ATOM     20  N   UNL A   1      30.856  27.071  22.121  1.00  0.00    -0.231 NA
ATOM     21  S   UNL A   1      32.293  28.910  23.218  1.00  0.00    -0.122 S 
ATOM     22  C   UNL A   1      30.788  28.247  22.709  1.00  0.00     0.124 A 
BRANCH  22  23
ATOM     23  C   UNL A   1      29.561  28.998  22.955  1.00  0.00     0.013 A 
ATOM     24  C   UNL A   1      29.604  30.363  23.248  1.00  0.00     0.031 A 
ATOM     25  C   UNL A   1      28.324  28.355  22.902  1.00  0.00     0.031 A 
ATOM     26  C   UNL A   1      28.406  31.026  23.456  1.00  0.00     0.111 A 
ATOM     27  C   UNL A   1      27.184  29.104  23.131  1.00  0.00     0.111 A 
ATOM     28  N   UNL A   1      27.196  30.427  23.398  1.00  0.00    -0.265 NA
ENDBRANCH  22  23
ENDBRANCH  16  18
ENDBRANCH  15  16
ENDBRANCH   3   5
ENDBRANCH   2   3
ENDBRANCH   1   2
BRANCH   1  29
ATOM     29  C   UNL A   1      32.211  27.694  26.855  1.00  0.00     0.275 C 
BRANCH  29  30
ATOM     30  O   UNL A   1      31.880  28.999  27.444  1.00  0.00    -0.458 OA
BRANCH  30  31
ATOM     31  C   UNL A   1      32.444  30.129  26.884  1.00  0.00     0.338 C 
ATOM     32  O   UNL A   1      31.816  30.972  26.259  1.00  0.00    -0.246 OA
BRANCH  31  33
ATOM     33  C   UNL A   1      33.912  30.317  27.227  1.00  0.00     0.060 A 
ATOM     34  C   UNL A   1      34.789  29.264  27.106  1.00  0.00     0.016 A 
ATOM     35  C   UNL A   1      34.437  31.466  27.828  1.00  0.00     0.016 A 
ATOM     36  C   UNL A   1      35.949  29.189  27.889  1.00  0.00     0.010 A 
ATOM     37  C   UNL A   1      35.750  31.469  28.397  1.00  0.00     0.010 A 
ATOM     38  C   UNL A   1      36.505  30.286  28.543  1.00  0.00    -0.014 A 
BRANCH  38  39
ATOM     39  C   UNL A   1      37.782  30.165  29.379  1.00  0.00     0.031 A 
ATOM     40  C   UNL A   1      39.011  29.465  28.810  1.00  0.00     0.074 A 
ATOM     41  C   UNL A   1      37.954  30.714  30.614  1.00  0.00     0.049 A 
ATOM     42  N   UNL A   1      40.016  28.898  29.437  1.00  0.00    -0.248 NA
ATOM     43  C   UNL A   1      39.116  29.383  27.345  1.00  0.00     0.031 C 
ATOM     44  C   UNL A   1      37.001  31.550  31.347  1.00  0.00     0.029 A 
ATOM     45  N   UNL A   1      39.036  30.669  31.483  1.00  0.00    -0.354 N 
ATOM     46  C   UNL A   1      40.783  28.273  28.454  1.00  0.00     0.074 A 
ATOM     47  C   UNL A   1      40.154  28.572  27.186  1.00  0.00     0.031 C 
ATOM     48  C   UNL A   1      37.570  32.038  32.456  1.00  0.00     0.029 A 
ATOM     49  C   UNL A   1      38.841  31.367  32.658  1.00  0.00     0.049 A 
ATOM     50  H   UNL A   1      39.867  30.183  31.280  1.00  0.00     0.167 HD
ATOM     51  C   UNL A   1      41.890  27.499  28.599  1.00  0.00     0.031 A 
ATOM     52  C   UNL A   1      39.515  31.396  33.828  1.00  0.00     0.031 A 
ATOM     53  C   UNL A   1      42.584  27.303  29.847  1.00  0.00     0.049 A 
ATOM     54  C   UNL A   1      40.690  30.482  34.010  1.00  0.00     0.074 A 
ATOM     55  C   UNL A   1      43.682  26.502  30.118  1.00  0.00     0.029 A 
ATOM     56  N   UNL A   1      42.275  27.963  31.026  1.00  0.00    -0.354 N 
ATOM     57  N   UNL A   1      41.266  29.697  33.133  1.00  0.00    -0.248 NA
ATOM     58  C   UNL A   1      41.272  30.411  35.359  1.00  0.00     0.031 C 
ATOM     59  C   UNL A   1      44.011  26.648  31.471  1.00  0.00     0.029 A 
ATOM     60  C   UNL A   1      43.155  27.583  32.026  1.00  0.00     0.049 A 
ATOM     61  H   UNL A   1      41.537  28.605  31.137  1.00  0.00     0.167 HD
ATOM     62  C   UNL A   1      42.277  29.041  33.823  1.00  0.00     0.074 A 
ATOM     63  C   UNL A   1      42.257  29.541  35.182  1.00  0.00     0.031 C 
ATOM     64  C   UNL A   1      43.134  28.095  33.371  1.00  0.00     0.031 A 
BRANCH  51  65
ATOM     65  C   UNL A   1      42.360  26.720  27.395  1.00  0.00    -0.014 A 
ATOM     66  C   UNL A   1      41.852  25.457  27.059  1.00  0.00     0.009 A 
ATOM     67  C   UNL A   1      43.346  27.290  26.569  1.00  0.00     0.009 A 
ATOM     68  C   UNL A   1      42.360  24.760  25.956  1.00  0.00     0.001 A 
ATOM     69  C   UNL A   1      43.828  26.608  25.450  1.00  0.00     0.001 A 
ATOM     70  C   UNL A   1      43.346  25.336  25.154  1.00  0.00     0.000 A 
ENDBRANCH  51  65
BRANCH  52  71
ATOM     71  C   UNL A   1      39.001  32.198  34.983  1.00  0.00    -0.014 A 
ATOM     72  C   UNL A   1      39.339  33.551  35.136  1.00  0.00     0.009 A 
ATOM     73  C   UNL A   1      38.174  31.603  35.955  1.00  0.00     0.009 A 
ATOM     74  C   UNL A   1      38.865  34.284  36.230  1.00  0.00     0.001 A 
ATOM     75  C   UNL A   1      37.664  32.349  37.020  1.00  0.00     0.001 A 
ATOM     76  C   UNL A   1      38.017  33.687  37.163  1.00  0.00     0.000 A 
ENDBRANCH  52  71
BRANCH  64  77
ATOM     77  C   UNL A   1      44.156  27.582  34.342  1.00  0.00    -0.014 A 
ATOM     78  C   UNL A   1      43.913  26.444  35.127  1.00  0.00     0.009 A 
ATOM     79  C   UNL A   1      45.392  28.238  34.455  1.00  0.00     0.009 A 
ATOM     80  C   UNL A   1      44.878  25.991  36.029  1.00  0.00     0.001 A 
ATOM     81  C   UNL A   1      46.364  27.768  35.337  1.00  0.00     0.001 A 
ATOM     82  C   UNL A   1      46.104  26.650  36.129  1.00  0.00     0.000 A 
ENDBRANCH  64  77
ENDBRANCH  38  39
ENDBRANCH  31  33
ENDBRANCH  30  31
ENDBRANCH  29  30
ENDBRANCH   1  29
TORSDOF 14
ENDMDL
MODEL 3
REMARK VINA RESULT:     -12.3      3.820      4.646
REMARK SMILES C[N@@H+]1CC[C@H]2CN(C(=O)c3csc(-c4ccncc4)n3)C[C@@]2(C(=O)OCCOC(=O)c2ccc(-c3c4nc(c(-c5ccccc5)c5ccc([nH]5)c(-c5ccccc5)c5nc(c(-c6ccccc6)c6ccc3[nH]6)C=C5)C=C4)cc2)C1
REMARK SMILES IDX 26 1 25 2 23 3 24 4 22 5 1 6 2 7 3 8 79 9 4 11 5 12 21 13
REMARK SMILES IDX 6 14 7 15 8 16 9 17 10 18 11 19 20 20 12 21 13 22 14 23
REMARK SMILES IDX 15 24 19 25 16 26 18 27 17 28 27 29 28 30 29 31 30 32 31 33
REMARK SMILES IDX 32 34 78 35 33 36 77 37 34 38 35 39 36 40 71 41 37 42 76 43
REMARK SMILES IDX 70 44 72 45 38 46 75 47 69 48 68 49 39 51 61 52 46 53 60 54
REMARK SMILES IDX 47 55 50 56 59 57 73 58 48 59 49 60 58 62 74 63 51 64 40 65
REMARK SMILES IDX 41 66 45 67 42 68 44 69 43 70 62 71 63 72 67 73 64 74 66 75
REMARK SMILES IDX 65 76 52 77 53 78 57 79 54 80 56 81 55 82
REMARK H PARENT 2 10 72 50 50 61
REMARK Flexibility Score: inf
ROOT
ATOM      1  C   UNL A   1      35.183  24.523  24.771  1.00  0.00     0.274 C 
ENDROOT
BRANCH   1   2
ATOM      2  O   UNL A   1      34.000  24.248  23.926  1.00  0.00    -0.461 OA
BRANCH   2   3
ATOM      3  C   UNL A   1      33.546  25.226  23.023  1.00  0.00     0.320 C 
ATOM      4  O   UNL A   1      34.054  25.451  21.934  1.00  0.00    -0.251 OA
BRANCH   3   5
ATOM      5  C   UNL A   1      32.116  25.711  23.545  1.00  0.00     0.139 C 
ATOM      6  C   UNL A   1      33.876  28.684  22.833  1.00  0.00     0.332 C 
ATOM      7  N   UNL A   1      32.402  28.378  22.609  1.00  0.00    -0.336 N 
ATOM      8  C   UNL A   1      31.605  28.936  23.704  1.00  0.00     0.262 C 
ATOM      9  C   UNL A   1      32.127  26.867  22.485  1.00  0.00     0.283 C 
ATOM     10  H   UNL A   1      32.136  28.811  21.723  1.00  0.00     0.347 HD
ATOM     11  C   UNL A   1      30.829  27.892  24.496  1.00  0.00     0.068 C 
ATOM     12  C   UNL A   1      31.559  26.536  24.810  1.00  0.00     0.039 C 
ATOM     13  C   UNL A   1      31.449  24.336  23.712  1.00  0.00     0.145 C 
ATOM     14  C   UNL A   1      30.435  25.673  25.376  1.00  0.00     0.125 C 
ATOM     15  N   UNL A   1      30.872  24.360  25.070  1.00  0.00    -0.336 N 
BRANCH  15  16
ATOM     16  C   UNL A   1      30.909  23.465  26.123  1.00  0.00     0.273 C 
ATOM     17  O   UNL A   1      30.228  23.647  27.143  1.00  0.00    -0.267 OA
BRANCH  16  18
ATOM     18  C   UNL A   1      31.852  22.359  26.070  1.00  0.00     0.139 A 
ATOM     19  C   UNL A   1      33.070  22.383  26.722  1.00  0.00     0.101 A 
ATOM     20  N   UNL A   1      31.679  21.284  25.197  1.00  0.00    -0.231 NA
ATOM     21  S   UNL A   1      34.006  21.025  26.276  1.00  0.00    -0.122 S 
ATOM     22  C   UNL A   1      32.765  20.540  25.187  1.00  0.00     0.124 A 
BRANCH  22  23
ATOM     23  C   UNL A   1      32.980  19.372  24.339  1.00  0.00     0.013 A 
ATOM     24  C   UNL A   1      33.949  18.420  24.664  1.00  0.00     0.031 A 
ATOM     25  C   UNL A   1      32.218  19.195  23.184  1.00  0.00     0.031 A 
ATOM     26  C   UNL A   1      34.097  17.325  23.829  1.00  0.00     0.111 A 
ATOM     27  C   UNL A   1      32.446  18.071  22.412  1.00  0.00     0.111 A 
ATOM     28  N   UNL A   1      33.362  17.127  22.713  1.00  0.00    -0.265 NA
ENDBRANCH  22  23
ENDBRANCH  16  18
ENDBRANCH  15  16
ENDBRANCH   3   5
ENDBRANCH   2   3
ENDBRANCH   1   2
BRANCH   1  29
ATOM     29  C   UNL A   1      36.408  23.572  24.441  1.00  0.00     0.275 C 
BRANCH  29  30
ATOM     30  O   UNL A   1      37.490  23.603  25.434  1.00  0.00    -0.458 OA
BRANCH  30  31
ATOM     31  C   UNL A   1      38.236  22.455  25.622  1.00  0.00     0.338 C 
ATOM     32  O   UNL A   1      37.992  21.382  25.087  1.00  0.00    -0.246 OA
BRANCH  31  33
ATOM     33  C   UNL A   1      39.488  22.667  26.457  1.00  0.00     0.060 A 
ATOM     34  C   UNL A   1      39.611  23.789  27.243  1.00  0.00     0.016 A 
ATOM     35  C   UNL A   1      40.634  21.869  26.369  1.00  0.00     0.016 A 
ATOM     36  C   UNL A   1      40.869  24.314  27.569  1.00  0.00     0.010 A 
ATOM     37  C   UNL A   1      41.873  22.289  26.947  1.00  0.00     0.010 A 
ATOM     38  C   UNL A   1      42.053  23.587  27.471  1.00  0.00    -0.014 A 
BRANCH  38  39
ATOM     39  C   UNL A   1      43.406  24.194  27.850  1.00  0.00     0.031 A 
ATOM     40  C   UNL A   1      43.907  24.121  29.288  1.00  0.00     0.074 A 
ATOM     41  C   UNL A   1      44.278  24.756  26.966  1.00  0.00     0.049 A 
ATOM     42  N   UNL A   1      44.778  24.883  29.911  1.00  0.00    -0.248 NA
ATOM     43  C   UNL A   1      43.348  23.060  30.139  1.00  0.00     0.031 C 
ATOM     44  C   UNL A   1      44.124  24.842  25.512  1.00  0.00     0.029 A 
ATOM     45  N   UNL A   1      45.513  25.355  27.168  1.00  0.00    -0.354 N 
ATOM     46  C   UNL A   1      44.754  24.485  31.247  1.00  0.00     0.074 A 
ATOM     47  C   UNL A   1      43.820  23.384  31.335  1.00  0.00     0.031 C 
ATOM     48  C   UNL A   1      45.246  25.317  24.956  1.00  0.00     0.029 A 
ATOM     49  C   UNL A   1      46.116  25.803  26.010  1.00  0.00     0.049 A 
ATOM     50  H   UNL A   1      45.924  25.451  28.058  1.00  0.00     0.167 HD
ATOM     51  C   UNL A   1      45.426  25.009  32.305  1.00  0.00     0.031 A 
ATOM     52  C   UNL A   1      47.172  26.614  25.783  1.00  0.00     0.031 A 
ATOM     53  C   UNL A   1      46.445  26.024  32.197  1.00  0.00     0.049 A 
ATOM     54  C   UNL A   1      47.861  27.252  26.952  1.00  0.00     0.074 A 
ATOM     55  C   UNL A   1      47.151  26.661  33.204  1.00  0.00     0.029 A 
ATOM     56  N   UNL A   1      46.939  26.510  30.997  1.00  0.00    -0.354 N 
ATOM     57  N   UNL A   1      47.664  27.054  28.231  1.00  0.00    -0.248 NA
ATOM     58  C   UNL A   1      48.878  28.270  26.647  1.00  0.00     0.031 C 
ATOM     59  C   UNL A   1      48.046  27.562  32.612  1.00  0.00     0.029 A 
ATOM     60  C   UNL A   1      47.936  27.442  31.238  1.00  0.00     0.049 A 
ATOM     61  H   UNL A   1      46.628  26.236  30.105  1.00  0.00     0.167 HD
ATOM     62  C   UNL A   1      48.531  27.921  28.884  1.00  0.00     0.074 A 
ATOM     63  C   UNL A   1      49.277  28.623  27.861  1.00  0.00     0.031 C 
ATOM     64  C   UNL A   1      48.681  28.126  30.214  1.00  0.00     0.031 A 
BRANCH  51  65
ATOM     65  C   UNL A   1      45.006  24.570  33.686  1.00  0.00    -0.014 A 
ATOM     66  C   UNL A   1      43.942  25.159  34.383  1.00  0.00     0.009 A 
ATOM     67  C   UNL A   1      45.710  23.516  34.298  1.00  0.00     0.009 A 
ATOM     68  C   UNL A   1      43.628  24.740  35.682  1.00  0.00     0.001 A 
ATOM     69  C   UNL A   1      45.374  23.077  35.581  1.00  0.00     0.001 A 
ATOM     70  C   UNL A   1      44.344  23.701  36.278  1.00  0.00     0.000 A 
ENDBRANCH  51  65
BRANCH  52  71
ATOM     71  C   UNL A   1      47.544  27.006  24.385  1.00  0.00    -0.014 A 
ATOM     72  C   UNL A   1      48.587  26.362  23.704  1.00  0.00     0.009 A 
ATOM     73  C   UNL A   1      46.859  28.046  23.729  1.00  0.00     0.009 A 
ATOM     74  C   UNL A   1      48.935  26.751  22.405  1.00  0.00     0.001 A 
ATOM     75  C   UNL A   1      47.177  28.399  22.416  1.00  0.00     0.001 A 
ATOM     76  C   UNL A   1      48.221  27.758  21.757  1.00  0.00     0.000 A 
ENDBRANCH  52  71
BRANCH  64  77
ATOM     77  C   UNL A   1      49.730  29.111  30.637  1.00  0.00    -0.014 A 
ATOM     78  C   UNL A   1      49.425  30.468  30.828  1.00  0.00     0.009 A 
ATOM     79  C   UNL A   1      51.041  28.666  30.870  1.00  0.00     0.009 A 
ATOM     80  C   UNL A   1      50.422  31.366  31.215  1.00  0.00     0.001 A 
ATOM     81  C   UNL A   1      52.028  29.560  31.283  1.00  0.00     0.001 A 
ATOM     82  C   UNL A   1      51.721  30.910  31.447  1.00  0.00     0.000 A 
ENDBRANCH  64  77
ENDBRANCH  38  39
ENDBRANCH  31  33
ENDBRANCH  30  31
ENDBRANCH  29  30
ENDBRANCH   1  29
TORSDOF 14
ENDMDL
