MODEL 1
REMARK VINA RESULT:     -14.1      0.000      0.000
REMARK SMILES O=C(OCCOC(=O)c1ccc(-c2c3nc(c(-c4ccccc4)c4ccc([nH]4)c(-c4ccccc4)c4nc(c(-c5ccccc5)c5ccc2[nH]5)C=C4)C=C3)cc1)C1=Cc2cc(Cl)cc(-c3ccc(O)cc3)c2O[C@@H]1C(F)(F)F
REMARK SMILES IDX 4 1 3 2 2 3 1 4 57 5 58 6 74 7 59 8 73 9 60 10 72 11 61 12
REMARK SMILES IDX 64 13 62 14 63 15 75 16 76 17 77 18 78 19 65 20 66 21 71 22
REMARK SMILES IDX 67 23 70 24 68 25 69 26 5 28 6 29 7 30 8 31 9 32 10 33 56 34
REMARK SMILES IDX 11 35 55 36 12 37 13 38 14 39 49 40 15 41 54 42 48 43 50 44
REMARK SMILES IDX 16 45 53 46 47 47 46 48 17 50 39 51 24 52 38 53 25 54 28 55
REMARK SMILES IDX 37 56 51 57 26 58 27 59 36 61 52 62 29 63 18 64 19 65 23 66
REMARK SMILES IDX 20 67 22 68 21 69 40 70 41 71 45 72 42 73 44 74 43 75 30 76
REMARK SMILES IDX 31 77 35 78 32 79 34 80 33 81
REMARK H PARENT 69 27 50 49 28 60
REMARK Flexibility Score: inf
ROOT
ATOM      1  C   UNL A   1      35.558  22.711  23.794  1.00  0.00     0.275 C 
ENDROOT
BRANCH   1   2
ATOM      2  O   UNL A   1      35.083  24.067  24.382  1.00  0.00    -0.459 OA
BRANCH   2   3
ATOM      3  C   UNL A   1      34.188  24.701  23.615  1.00  0.00     0.338 C 
ATOM      4  O   UNL A   1      34.329  25.270  22.565  1.00  0.00    -0.246 OA
BRANCH   3   5
ATOM      5  C   UNL A   1      33.187  24.803  24.649  1.00  0.00     0.087 C 
ATOM      6  C   UNL A   1      33.533  25.807  25.656  1.00  0.00     0.027 C 
ATOM      7  C   UNL A   1      31.673  24.883  23.455  1.00  0.00     0.316 C 
ATOM      8  C   UNL A   1      32.684  27.392  25.796  1.00  0.00     0.019 A 
ATOM      9  O   UNL A   1      30.781  26.597  23.551  1.00  0.00    -0.475 OA
ATOM     10  C   UNL A   1      33.281  28.318  26.608  1.00  0.00     0.032 A 
ATOM     11  C   UNL A   1      31.393  27.870  24.718  1.00  0.00     0.135 A 
ATOM     12  C   UNL A   1      32.788  29.613  26.472  1.00  0.00     0.042 A 
ATOM     13  C   UNL A   1      30.999  29.185  24.637  1.00  0.00     0.026 A 
ATOM     14  Cl  UNL A   1      33.560  30.851  27.410  1.00  0.00    -0.084 Cl
ATOM     15  C   UNL A   1      31.733  30.011  25.562  1.00  0.00     0.033 A 
BRANCH   7  16
ATOM     16  C   UNL A   1      31.237  23.375  23.683  1.00  0.00     0.430 C 
ATOM     17  F   UNL A   1      30.878  23.140  24.951  1.00  0.00    -0.167 F 
ATOM     18  F   UNL A   1      30.084  23.140  22.980  1.00  0.00    -0.167 F 
ATOM     19  F   UNL A   1      32.050  22.412  23.216  1.00  0.00    -0.167 F 
ENDBRANCH   7  16
BRANCH  13  20
ATOM     20  C   UNL A   1      30.083  29.866  23.733  1.00  0.00    -0.014 A 
ATOM     21  C   UNL A   1      30.110  29.540  22.359  1.00  0.00     0.012 A 
ATOM     22  C   UNL A   1      29.375  31.006  24.130  1.00  0.00     0.012 A 
ATOM     23  C   UNL A   1      29.468  30.339  21.413  1.00  0.00     0.047 A 
ATOM     24  C   UNL A   1      28.728  31.809  23.181  1.00  0.00     0.047 A 
ATOM     25  C   UNL A   1      28.788  31.471  21.832  1.00  0.00     0.115 A 
BRANCH  25  26
ATOM     26  O   UNL A   1      28.204  32.246  20.874  1.00  0.00    -0.508 OA
ATOM     27  H   UNL A   1      28.527  33.110  20.710  1.00  0.00     0.293 HD
ENDBRANCH  25  26
ENDBRANCH  13  20
ENDBRANCH   3   5
ENDBRANCH   2   3
ENDBRANCH   1   2
BRANCH   1  28
ATOM     28  C   UNL A   1      36.813  21.243  24.805  1.00  0.00     0.275 C 
BRANCH  28  29
ATOM     29  O   UNL A   1      38.462  21.466  25.218  1.00  0.00    -0.458 OA
BRANCH  29  30
ATOM     30  C   UNL A   1      39.421  21.182  26.155  1.00  0.00     0.338 C 
ATOM     31  O   UNL A   1      40.170  20.229  26.246  1.00  0.00    -0.246 OA
BRANCH  30  32
ATOM     32  C   UNL A   1      39.656  22.479  26.869  1.00  0.00     0.060 A 
ATOM     33  C   UNL A   1      40.765  22.588  27.729  1.00  0.00     0.016 A 
ATOM     34  C   UNL A   1      39.033  23.635  26.393  1.00  0.00     0.016 A 
ATOM     35  C   UNL A   1      41.364  23.845  27.941  1.00  0.00     0.010 A 
ATOM     36  C   UNL A   1      39.634  24.880  26.602  1.00  0.00     0.010 A 
ATOM     37  C   UNL A   1      40.832  24.992  27.333  1.00  0.00    -0.014 A 
BRANCH  37  38
ATOM     38  C   UNL A   1      41.314  26.345  27.719  1.00  0.00     0.031 A 
ATOM     39  C   UNL A   1      42.664  26.707  27.173  1.00  0.00     0.074 A 
ATOM     40  C   UNL A   1      40.656  27.194  28.536  1.00  0.00     0.049 A 
ATOM     41  N   UNL A   1      43.367  27.797  27.321  1.00  0.00    -0.248 NA
ATOM     42  C   UNL A   1      43.322  25.666  26.362  1.00  0.00     0.031 C 
ATOM     43  C   UNL A   1      39.349  26.969  29.154  1.00  0.00     0.029 A 
ATOM     44  N   UNL A   1      41.021  28.444  28.994  1.00  0.00    -0.354 N 
ATOM     45  C   UNL A   1      44.541  27.566  26.617  1.00  0.00     0.074 A 
ATOM     46  C   UNL A   1      44.496  26.214  26.119  1.00  0.00     0.031 C 
ATOM     47  C   UNL A   1      39.020  28.047  29.900  1.00  0.00     0.029 A 
ATOM     48  C   UNL A   1      40.093  29.037  29.823  1.00  0.00     0.049 A 
ATOM     49  H   UNL A   1      41.871  28.874  28.750  1.00  0.00     0.167 HD
ATOM     50  C   UNL A   1      45.563  28.412  26.371  1.00  0.00     0.031 A 
ATOM     51  C   UNL A   1      40.116  30.245  30.429  1.00  0.00     0.031 A 
ATOM     52  C   UNL A   1      45.634  29.739  26.897  1.00  0.00     0.049 A 
ATOM     53  C   UNL A   1      41.305  31.155  30.199  1.00  0.00     0.074 A 
ATOM     54  C   UNL A   1      46.619  30.689  26.715  1.00  0.00     0.029 A 
ATOM     55  N   UNL A   1      44.677  30.294  27.732  1.00  0.00    -0.354 N 
ATOM     56  N   UNL A   1      42.367  30.963  29.452  1.00  0.00    -0.248 NA
ATOM     57  C   UNL A   1      41.285  32.461  30.878  1.00  0.00     0.031 C 
ATOM     58  C   UNL A   1      46.284  31.804  27.490  1.00  0.00     0.029 A 
ATOM     59  C   UNL A   1      45.057  31.572  28.094  1.00  0.00     0.049 A 
ATOM     60  H   UNL A   1      43.851  29.845  28.024  1.00  0.00     0.167 HD
ATOM     61  C   UNL A   1      43.110  32.138  29.530  1.00  0.00     0.074 A 
ATOM     62  C   UNL A   1      42.374  33.039  30.391  1.00  0.00     0.031 C 
ATOM     63  C   UNL A   1      44.289  32.452  28.937  1.00  0.00     0.031 A 
BRANCH  50  64
ATOM     64  C   UNL A   1      46.674  27.872  25.520  1.00  0.00    -0.014 A 
ATOM     65  C   UNL A   1      47.832  27.323  26.104  1.00  0.00     0.009 A 
ATOM     66  C   UNL A   1      46.611  28.004  24.127  1.00  0.00     0.009 A 
ATOM     67  C   UNL A   1      48.927  26.982  25.312  1.00  0.00     0.001 A 
ATOM     68  C   UNL A   1      47.696  27.625  23.335  1.00  0.00     0.001 A 
ATOM     69  C   UNL A   1      48.859  27.133  23.928  1.00  0.00     0.000 A 
ENDBRANCH  50  64
BRANCH  51  70
ATOM     70  C   UNL A   1      38.983  30.719  31.284  1.00  0.00    -0.014 A 
ATOM     71  C   UNL A   1      38.954  30.421  32.658  1.00  0.00     0.009 A 
ATOM     72  C   UNL A   1      37.882  31.386  30.726  1.00  0.00     0.009 A 
ATOM     73  C   UNL A   1      37.839  30.742  33.441  1.00  0.00     0.001 A 
ATOM     74  C   UNL A   1      36.779  31.734  31.518  1.00  0.00     0.001 A 
ATOM     75  C   UNL A   1      36.752  31.399  32.871  1.00  0.00     0.000 A 
ENDBRANCH  51  70
BRANCH  63  76
ATOM     76  C   UNL A   1      44.825  33.842  29.138  1.00  0.00    -0.014 A 
ATOM     77  C   UNL A   1      44.464  34.903  28.294  1.00  0.00     0.009 A 
ATOM     78  C   UNL A   1      45.647  34.103  30.246  1.00  0.00     0.009 A 
ATOM     79  C   UNL A   1      44.945  36.192  28.539  1.00  0.00     0.001 A 
ATOM     80  C   UNL A   1      46.096  35.397  30.509  1.00  0.00     0.001 A 
ATOM     81  C   UNL A   1      45.752  36.439  29.650  1.00  0.00     0.000 A 
ENDBRANCH  63  76
ENDBRANCH  37  38
ENDBRANCH  30  32
ENDBRANCH  29  30
ENDBRANCH  28  29
ENDBRANCH   1  28
TORSDOF 14
ENDMDL
MODEL 2
REMARK VINA RESULT:     -14.0      2.045      2.627
REMARK SMILES O=C(OCCOC(=O)c1ccc(-c2c3nc(c(-c4ccccc4)c4ccc([nH]4)c(-c4ccccc4)c4nc(c(-c5ccccc5)c5ccc2[nH]5)C=C4)C=C3)cc1)C1=Cc2cc(Cl)cc(-c3ccc(O)cc3)c2O[C@@H]1C(F)(F)F
REMARK SMILES IDX 4 1 3 2 2 3 1 4 57 5 58 6 74 7 59 8 73 9 60 10 72 11 61 12
REMARK SMILES IDX 64 13 62 14 63 15 75 16 76 17 77 18 78 19 65 20 66 21 71 22
REMARK SMILES IDX 67 23 70 24 68 25 69 26 5 28 6 29 7 30 8 31 9 32 10 33 56 34
REMARK SMILES IDX 11 35 55 36 12 37 13 38 14 39 49 40 15 41 54 42 48 43 50 44
REMARK SMILES IDX 16 45 53 46 47 47 46 48 17 50 39 51 24 52 38 53 25 54 28 55
REMARK SMILES IDX 37 56 51 57 26 58 27 59 36 61 52 62 29 63 18 64 19 65 23 66
REMARK SMILES IDX 20 67 22 68 21 69 40 70 41 71 45 72 42 73 44 74 43 75 30 76
REMARK SMILES IDX 31 77 35 78 32 79 34 80 33 81
REMARK H PARENT 69 27 50 49 28 60
REMARK Flexibility Score: inf
ROOT
ATOM      1  C   UNL A   1      36.372  21.106  24.778  1.00  0.00     0.275 C 
ENDROOT
BRANCH   1   2
ATOM      2  O   UNL A   1      36.391  22.570  24.259  1.00  0.00    -0.459 OA
BRANCH   2   3
ATOM      3  C   UNL A   1      35.246  22.950  23.683  1.00  0.00     0.338 C 
ATOM      4  O   UNL A   1      35.033  23.363  22.573  1.00  0.00    -0.246 OA
BRANCH   3   5
ATOM      5  C   UNL A   1      34.518  23.077  24.922  1.00  0.00     0.087 C 
ATOM      6  C   UNL A   1      34.850  24.312  25.634  1.00  0.00     0.027 C 
ATOM      7  C   UNL A   1      32.790  22.633  24.187  1.00  0.00     0.316 C 
ATOM      8  C   UNL A   1      33.717  25.709  25.759  1.00  0.00     0.019 A 
ATOM      9  O   UNL A   1      31.576  24.138  24.263  1.00  0.00    -0.475 OA
ATOM     10  C   UNL A   1      34.258  26.876  26.229  1.00  0.00     0.032 A 
ATOM     11  C   UNL A   1      32.136  25.712  25.014  1.00  0.00     0.135 A 
ATOM     12  C   UNL A   1      33.463  28.003  26.039  1.00  0.00     0.042 A 
ATOM     13  C   UNL A   1      31.443  26.888  24.845  1.00  0.00     0.026 A 
ATOM     14  Cl  UNL A   1      34.128  29.526  26.534  1.00  0.00    -0.084 Cl
ATOM     15  C   UNL A   1      32.162  28.006  25.400  1.00  0.00     0.033 A 
BRANCH   7  16
ATOM     16  C   UNL A   1      32.778  21.150  24.749  1.00  0.00     0.430 C 
ATOM     17  F   UNL A   1      33.286  21.076  25.986  1.00  0.00    -0.167 F 
ATOM     18  F   UNL A   1      31.476  20.755  24.919  1.00  0.00    -0.167 F 
ATOM     19  F   UNL A   1      33.264  20.177  23.960  1.00  0.00    -0.167 F 
ENDBRANCH   7  16
BRANCH  13  20
ATOM     20  C   UNL A   1      30.210  27.190  24.133  1.00  0.00    -0.014 A 
ATOM     21  C   UNL A   1      30.075  28.447  23.501  1.00  0.00     0.012 A 
ATOM     22  C   UNL A   1      29.067  26.395  24.277  1.00  0.00     0.012 A 
ATOM     23  C   UNL A   1      28.836  28.900  23.048  1.00  0.00     0.047 A 
ATOM     24  C   UNL A   1      27.822  26.849  23.822  1.00  0.00     0.047 A 
ATOM     25  C   UNL A   1      27.718  28.099  23.220  1.00  0.00     0.115 A 
BRANCH  25  26
ATOM     26  O   UNL A   1      26.519  28.593  22.797  1.00  0.00    -0.508 OA
ATOM     27  H   UNL A   1      25.721  28.185  23.072  1.00  0.00     0.293 HD
ENDBRANCH  25  26
ENDBRANCH  13  20
ENDBRANCH   3   5
ENDBRANCH   2   3
ENDBRANCH   1   2
BRANCH   1  28
ATOM     28  C   UNL A   1      38.098  19.789  24.968  1.00  0.00     0.275 C 
BRANCH  28  29
ATOM     29  O   UNL A   1      39.557  20.178  25.778  1.00  0.00    -0.458 OA
BRANCH  29  30
ATOM     30  C   UNL A   1      40.826  19.739  26.056  1.00  0.00     0.338 C 
ATOM     31  O   UNL A   1      41.402  18.732  25.695  1.00  0.00    -0.246 OA
BRANCH  30  32
ATOM     32  C   UNL A   1      41.540  20.941  26.596  1.00  0.00     0.060 A 
ATOM     33  C   UNL A   1      42.128  21.844  25.691  1.00  0.00     0.016 A 
ATOM     34  C   UNL A   1      41.285  21.345  27.909  1.00  0.00     0.016 A 
ATOM     35  C   UNL A   1      42.269  23.199  26.046  1.00  0.00     0.010 A 
ATOM     36  C   UNL A   1      41.422  22.693  28.257  1.00  0.00     0.010 A 
ATOM     37  C   UNL A   1      41.864  23.641  27.316  1.00  0.00    -0.014 A 
BRANCH  37  38
ATOM     38  C   UNL A   1      42.206  25.011  27.784  1.00  0.00     0.031 A 
ATOM     39  C   UNL A   1      43.678  25.284  27.898  1.00  0.00     0.074 A 
ATOM     40  C   UNL A   1      41.306  25.951  28.144  1.00  0.00     0.049 A 
ATOM     41  N   UNL A   1      44.307  26.363  28.276  1.00  0.00    -0.248 NA
ATOM     42  C   UNL A   1      44.562  24.154  27.556  1.00  0.00     0.031 C 
ATOM     43  C   UNL A   1      39.850  25.820  28.104  1.00  0.00     0.029 A 
ATOM     44  N   UNL A   1      41.505  27.227  28.629  1.00  0.00    -0.354 N 
ATOM     45  C   UNL A   1      45.654  26.036  28.210  1.00  0.00     0.074 A 
ATOM     46  C   UNL A   1      45.750  24.644  27.844  1.00  0.00     0.031 C 
ATOM     47  C   UNL A   1      39.289  26.971  28.536  1.00  0.00     0.029 A 
ATOM     48  C   UNL A   1      40.343  27.920  28.893  1.00  0.00     0.049 A 
ATOM     49  H   UNL A   1      42.400  27.610  28.775  1.00  0.00     0.167 HD
ATOM     50  C   UNL A   1      46.730  26.826  28.404  1.00  0.00     0.031 A 
ATOM     51  C   UNL A   1      40.168  29.178  29.354  1.00  0.00     0.031 A 
ATOM     52  C   UNL A   1      46.642  28.194  28.809  1.00  0.00     0.049 A 
ATOM     53  C   UNL A   1      41.389  30.031  29.635  1.00  0.00     0.074 A 
ATOM     54  C   UNL A   1      47.663  29.097  29.035  1.00  0.00     0.029 A 
ATOM     55  N   UNL A   1      45.448  28.851  29.067  1.00  0.00    -0.354 N 
ATOM     56  N   UNL A   1      42.659  29.740  29.477  1.00  0.00    -0.248 NA
ATOM     57  C   UNL A   1      41.148  31.394  30.134  1.00  0.00     0.031 C 
ATOM     58  C   UNL A   1      47.086  30.288  29.486  1.00  0.00     0.029 A 
ATOM     59  C   UNL A   1      45.706  30.146  29.472  1.00  0.00     0.049 A 
ATOM     60  H   UNL A   1      44.552  28.454  28.976  1.00  0.00     0.167 HD
ATOM     61  C   UNL A   1      43.361  30.897  29.805  1.00  0.00     0.074 A 
ATOM     62  C   UNL A   1      42.375  31.895  30.165  1.00  0.00     0.031 C 
ATOM     63  C   UNL A   1      44.700  31.122  29.802  1.00  0.00     0.031 A 
BRANCH  50  64
ATOM     64  C   UNL A   1      48.068  26.179  28.201  1.00  0.00    -0.014 A 
ATOM     65  C   UNL A   1      48.778  25.630  29.286  1.00  0.00     0.009 A 
ATOM     66  C   UNL A   1      48.671  26.209  26.937  1.00  0.00     0.009 A 
ATOM     67  C   UNL A   1      50.089  25.185  29.118  1.00  0.00     0.001 A 
ATOM     68  C   UNL A   1      49.970  25.727  26.766  1.00  0.00     0.001 A 
ATOM     69  C   UNL A   1      50.684  25.234  27.858  1.00  0.00     0.000 A 
ENDBRANCH  50  64
BRANCH  51  70
ATOM     70  C   UNL A   1      38.804  29.761  29.556  1.00  0.00    -0.014 A 
ATOM     71  C   UNL A   1      38.113  29.557  30.763  1.00  0.00     0.009 A 
ATOM     72  C   UNL A   1      38.145  30.441  28.520  1.00  0.00     0.009 A 
ATOM     73  C   UNL A   1      36.787  29.981  30.915  1.00  0.00     0.001 A 
ATOM     74  C   UNL A   1      36.828  30.891  28.684  1.00  0.00     0.001 A 
ATOM     75  C   UNL A   1      36.146  30.650  29.875  1.00  0.00     0.000 A 
ENDBRANCH  51  70
BRANCH  63  76
ATOM     76  C   UNL A   1      45.177  32.510  30.128  1.00  0.00    -0.014 A 
ATOM     77  C   UNL A   1      45.520  32.885  31.436  1.00  0.00     0.009 A 
ATOM     78  C   UNL A   1      45.360  33.432  29.085  1.00  0.00     0.009 A 
ATOM     79  C   UNL A   1      46.004  34.170  31.694  1.00  0.00     0.001 A 
ATOM     80  C   UNL A   1      45.877  34.701  29.341  1.00  0.00     0.001 A 
ATOM     81  C   UNL A   1      46.190  35.072  30.647  1.00  0.00     0.000 A 
ENDBRANCH  63  76
ENDBRANCH  37  38
ENDBRANCH  30  32
ENDBRANCH  29  30
ENDBRANCH  28  29
ENDBRANCH   1  28
TORSDOF 14
ENDMDL
MODEL 3
REMARK VINA RESULT:     -13.9      2.347      6.036
REMARK SMILES O=C(OCCOC(=O)c1ccc(-c2c3nc(c(-c4ccccc4)c4ccc([nH]4)c(-c4ccccc4)c4nc(c(-c5ccccc5)c5ccc2[nH]5)C=C4)C=C3)cc1)C1=Cc2cc(Cl)cc(-c3ccc(O)cc3)c2O[C@@H]1C(F)(F)F
REMARK SMILES IDX 4 1 3 2 2 3 1 4 57 5 58 6 74 7 59 8 73 9 60 10 72 11 61 12
REMARK SMILES IDX 64 13 62 14 63 15 75 16 76 17 77 18 78 19 65 20 66 21 71 22
REMARK SMILES IDX 67 23 70 24 68 25 69 26 5 28 6 29 7 30 8 31 9 32 10 33 56 34
REMARK SMILES IDX 11 35 55 36 12 37 13 38 14 39 49 40 15 41 54 42 48 43 50 44
REMARK SMILES IDX 16 45 53 46 47 47 46 48 17 50 39 51 24 52 38 53 25 54 28 55
REMARK SMILES IDX 37 56 51 57 26 58 27 59 36 61 52 62 29 63 18 64 19 65 23 66
REMARK SMILES IDX 20 67 22 68 21 69 40 70 41 71 45 72 42 73 44 74 43 75 30 76
REMARK SMILES IDX 31 77 35 78 32 79 34 80 33 81
REMARK H PARENT 69 27 50 49 28 60
REMARK Flexibility Score: inf
ROOT
ATOM      1  C   UNL A   1      37.102  22.110  24.399  1.00  0.00     0.275 C 
ENDROOT
BRANCH   1   2
ATOM      2  O   UNL A   1      36.379  23.437  24.041  1.00  0.00    -0.459 OA
BRANCH   2   3
ATOM      3  C   UNL A   1      35.172  23.259  23.494  1.00  0.00     0.338 C 
ATOM      4  O   UNL A   1      34.815  23.352  22.349  1.00  0.00    -0.246 OA
BRANCH   3   5
ATOM      5  C   UNL A   1      34.455  23.340  24.743  1.00  0.00     0.087 C 
ATOM      6  C   UNL A   1      34.752  24.574  25.472  1.00  0.00     0.027 C 
ATOM      7  C   UNL A   1      32.735  22.849  24.020  1.00  0.00     0.316 C 
ATOM      8  C   UNL A   1      33.575  25.929  25.634  1.00  0.00     0.019 A 
ATOM      9  O   UNL A   1      31.470  24.310  24.135  1.00  0.00    -0.475 OA
ATOM     10  C   UNL A   1      34.081  27.105  26.118  1.00  0.00     0.032 A 
ATOM     11  C   UNL A   1      31.985  25.890  24.907  1.00  0.00     0.135 A 
ATOM     12  C   UNL A   1      33.246  28.208  25.957  1.00  0.00     0.042 A 
ATOM     13  C   UNL A   1      31.251  27.044  24.767  1.00  0.00     0.026 A 
ATOM     14  Cl  UNL A   1      33.864  29.744  26.470  1.00  0.00    -0.084 Cl
ATOM     15  C   UNL A   1      31.938  28.177  25.333  1.00  0.00     0.033 A 
BRANCH   7  16
ATOM     16  C   UNL A   1      32.779  21.357  24.557  1.00  0.00     0.430 C 
ATOM     17  F   UNL A   1      31.660  21.024  25.212  1.00  0.00    -0.167 F 
ATOM     18  F   UNL A   1      32.782  20.504  23.483  1.00  0.00    -0.167 F 
ATOM     19  F   UNL A   1      33.876  20.966  25.227  1.00  0.00    -0.167 F 
ENDBRANCH   7  16
BRANCH  13  20
ATOM     20  C   UNL A   1      30.000  27.316  24.074  1.00  0.00    -0.014 A 
ATOM     21  C   UNL A   1      29.841  28.551  23.408  1.00  0.00     0.012 A 
ATOM     22  C   UNL A   1      28.866  26.517  24.267  1.00  0.00     0.012 A 
ATOM     23  C   UNL A   1      28.588  28.982  22.970  1.00  0.00     0.047 A 
ATOM     24  C   UNL A   1      27.608  26.948  23.827  1.00  0.00     0.047 A 
ATOM     25  C   UNL A   1      27.481  28.179  23.190  1.00  0.00     0.115 A 
BRANCH  25  26
ATOM     26  O   UNL A   1      26.269  28.651  22.781  1.00  0.00    -0.508 OA
ATOM     27  H   UNL A   1      25.574  28.759  23.401  1.00  0.00     0.293 HD
ENDBRANCH  25  26
ENDBRANCH  13  20
ENDBRANCH   3   5
ENDBRANCH   2   3
ENDBRANCH   1   2
BRANCH   1  28
ATOM     28  C   UNL A   1      38.766  21.891  25.791  1.00  0.00     0.275 C 
BRANCH  28  29
ATOM     29  O   UNL A   1      39.610  20.432  26.102  1.00  0.00    -0.458 OA
BRANCH  29  30
ATOM     30  C   UNL A   1      40.852  19.852  26.137  1.00  0.00     0.338 C 
ATOM     31  O   UNL A   1      41.256  18.835  25.609  1.00  0.00    -0.246 OA
BRANCH  30  32
ATOM     32  C   UNL A   1      41.764  20.926  26.649  1.00  0.00     0.060 A 
ATOM     33  C   UNL A   1      42.326  21.833  25.733  1.00  0.00     0.016 A 
ATOM     34  C   UNL A   1      41.733  21.246  28.009  1.00  0.00     0.016 A 
ATOM     35  C   UNL A   1      42.667  23.133  26.153  1.00  0.00     0.010 A 
ATOM     36  C   UNL A   1      42.067  22.540  28.422  1.00  0.00     0.010 A 
ATOM     37  C   UNL A   1      42.487  23.510  27.493  1.00  0.00    -0.014 A 
BRANCH  37  38
ATOM     38  C   UNL A   1      43.042  24.794  27.998  1.00  0.00     0.031 A 
ATOM     39  C   UNL A   1      42.019  25.866  28.241  1.00  0.00     0.074 A 
ATOM     40  C   UNL A   1      44.355  25.047  28.185  1.00  0.00     0.049 A 
ATOM     41  N   UNL A   1      42.167  27.089  28.672  1.00  0.00    -0.248 NA
ATOM     42  C   UNL A   1      40.627  25.499  27.921  1.00  0.00     0.031 C 
ATOM     43  C   UNL A   1      45.460  24.112  27.972  1.00  0.00     0.029 A 
ATOM     44  N   UNL A   1      44.984  26.202  28.603  1.00  0.00    -0.354 N 
ATOM     45  C   UNL A   1      40.888  27.626  28.676  1.00  0.00     0.074 A 
ATOM     46  C   UNL A   1      39.994  26.636  28.128  1.00  0.00     0.031 C 
ATOM     47  C   UNL A   1      46.625  24.726  28.269  1.00  0.00     0.029 A 
ATOM     48  C   UNL A   1      46.356  26.102  28.687  1.00  0.00     0.049 A 
ATOM     49  H   UNL A   1      44.494  27.027  28.823  1.00  0.00     0.167 HD
ATOM     50  C   UNL A   1      40.473  28.828  29.127  1.00  0.00     0.031 A 
ATOM     51  C   UNL A   1      47.272  27.019  29.070  1.00  0.00     0.031 A 
ATOM     52  C   UNL A   1      41.359  29.830  29.632  1.00  0.00     0.049 A 
ATOM     53  C   UNL A   1      46.796  28.390  29.507  1.00  0.00     0.074 A 
ATOM     54  C   UNL A   1      41.056  31.086  30.119  1.00  0.00     0.029 A 
ATOM     55  N   UNL A   1      42.737  29.687  29.694  1.00  0.00    -0.354 N 
ATOM     56  N   UNL A   1      45.572  28.854  29.597  1.00  0.00    -0.248 NA
ATOM     57  C   UNL A   1      47.830  29.354  29.917  1.00  0.00     0.031 C 
ATOM     58  C   UNL A   1      42.261  31.727  30.424  1.00  0.00     0.029 A 
ATOM     59  C   UNL A   1      43.304  30.843  30.193  1.00  0.00     0.049 A 
ATOM     60  H   UNL A   1      43.235  28.883  29.422  1.00  0.00     0.167 HD
ATOM     61  C   UNL A   1      45.686  30.138  30.123  1.00  0.00     0.074 A 
ATOM     62  C   UNL A   1      47.098  30.377  30.337  1.00  0.00     0.031 C 
ATOM     63  C   UNL A   1      44.714  31.039  30.414  1.00  0.00     0.031 A 
BRANCH  50  64
ATOM     64  C   UNL A   1      38.998  29.090  29.044  1.00  0.00    -0.014 A 
ATOM     65  C   UNL A   1      38.427  29.645  27.883  1.00  0.00     0.009 A 
ATOM     66  C   UNL A   1      38.190  28.879  30.167  1.00  0.00     0.009 A 
ATOM     67  C   UNL A   1      37.090  30.042  27.875  1.00  0.00     0.001 A 
ATOM     68  C   UNL A   1      36.843  29.243  30.142  1.00  0.00     0.001 A 
ATOM     69  C   UNL A   1      36.299  29.841  29.005  1.00  0.00     0.000 A 
ENDBRANCH  50  64
BRANCH  51  70
ATOM     70  C   UNL A   1      48.734  26.702  29.112  1.00  0.00    -0.014 A 
ATOM     71  C   UNL A   1      49.318  26.184  30.282  1.00  0.00     0.009 A 
ATOM     72  C   UNL A   1      49.572  26.999  28.027  1.00  0.00     0.009 A 
ATOM     73  C   UNL A   1      50.704  26.009  30.379  1.00  0.00     0.001 A 
ATOM     74  C   UNL A   1      50.956  26.795  28.115  1.00  0.00     0.001 A 
ATOM     75  C   UNL A   1      51.522  26.314  29.294  1.00  0.00     0.000 A 
ENDBRANCH  51  70
BRANCH  63  76
ATOM     76  C   UNL A   1      45.129  32.334  31.056  1.00  0.00    -0.014 A 
ATOM     77  C   UNL A   1      45.179  32.485  32.450  1.00  0.00     0.009 A 
ATOM     78  C   UNL A   1      45.554  33.395  30.240  1.00  0.00     0.009 A 
ATOM     79  C   UNL A   1      45.615  33.688  33.012  1.00  0.00     0.001 A 
ATOM     80  C   UNL A   1      46.023  34.581  30.804  1.00  0.00     0.001 A 
ATOM     81  C   UNL A   1      46.044  34.730  32.190  1.00  0.00     0.000 A 
ENDBRANCH  63  76
ENDBRANCH  37  38
ENDBRANCH  30  32
ENDBRANCH  29  30
ENDBRANCH  28  29
ENDBRANCH   1  28
TORSDOF 14
ENDMDL
