MODEL 1
REMARK VINA RESULT:     -10.8      0.000      0.000
REMARK SMILES O=C(N[C@@H](Cc1ccc(O)cc1)C(=O)N[C@@H](CO)C(=O)OCCOC(=O)c1ccc(-c2c3nc(c(-c4ccccc4)c4ccc([nH]4)c(-c4ccccc4)c4nc(c(-c5ccccc5)c5ccc2[nH]5)C=C4)C=C3)cc1)c1ccc(F)cc1
REMARK SMILES IDX 21 1 19 2 20 3 16 4 15 5 13 6 14 7 4 9 3 10 1 11 2 12 75 14
REMARK SMILES IDX 76 15 81 16 77 17 80 18 78 19 79 20 5 21 6 22 7 23 12 24
REMARK SMILES IDX 8 25 11 26 9 27 10 28 17 30 18 31 22 33 23 34 24 35 25 36
REMARK SMILES IDX 26 37 27 38 28 39 74 40 29 41 73 42 30 43 31 44 32 45 67 46
REMARK SMILES IDX 33 47 72 48 66 49 68 50 34 51 71 52 65 53 64 54 35 56 57 57
REMARK SMILES IDX 42 58 56 59 43 60 46 61 55 62 69 63 44 64 45 65 54 67 70 68
REMARK SMILES IDX 47 69 36 70 37 71 41 72 38 73 40 74 39 75 58 76 59 77 63 78
REMARK SMILES IDX 60 79 62 80 61 81 48 82 49 83 53 84 50 85 52 86 51 87
REMARK H PARENT 15 8 3 13 10 29 18 32 68 55 46 66
REMARK Flexibility Score: inf
ROOT
ATOM      1  O   UNL A   1      34.439  21.046  25.689  1.00  0.00    -0.460 OA
ENDROOT
BRANCH   1   2
ATOM      2  C   UNL A   1      33.257  21.445  25.141  1.00  0.00     0.331 C 
ATOM      3  O   UNL A   1      32.583  20.745  24.395  1.00  0.00    -0.250 OA
BRANCH   2   4
ATOM      4  C   UNL A   1      32.946  22.923  25.498  1.00  0.00     0.218 C 
BRANCH   4   5
ATOM      5  N   UNL A   1      31.850  22.941  26.455  1.00  0.00    -0.339 N 
ATOM      6  C   UNL A   1      30.799  23.786  26.589  1.00  0.00     0.243 C 
ATOM      7  O   UNL A   1      29.857  23.325  27.251  1.00  0.00    -0.273 OA
ATOM      8  H   UNL A   1      31.875  22.214  27.119  1.00  0.00     0.164 HD
BRANCH   6   9
ATOM      9  C   UNL A   1      30.757  25.294  26.161  1.00  0.00     0.176 C 
BRANCH   9  10
ATOM     10  N   UNL A   1      29.693  25.581  25.201  1.00  0.00    -0.340 N 
ATOM     11  O   UNL A   1      28.696  26.642  23.485  1.00  0.00    -0.269 OA
ATOM     12  C   UNL A   1      29.740  26.363  24.067  1.00  0.00     0.251 C 
ATOM     13  H   UNL A   1      28.824  25.158  25.391  1.00  0.00     0.164 HD
BRANCH  12  14
ATOM     14  C   UNL A   1      31.020  26.921  23.555  1.00  0.00     0.040 A 
ATOM     15  C   UNL A   1      32.023  26.098  23.027  1.00  0.00     0.017 A 
ATOM     16  C   UNL A   1      31.188  28.313  23.533  1.00  0.00     0.017 A 
ATOM     17  C   UNL A   1      33.217  26.654  22.558  1.00  0.00     0.040 A 
ATOM     18  C   UNL A   1      32.376  28.869  23.043  1.00  0.00     0.040 A 
ATOM     19  C   UNL A   1      33.384  28.034  22.573  1.00  0.00     0.123 A 
ATOM     20  F   UNL A   1      34.525  28.566  22.113  1.00  0.00    -0.207 F 
ENDBRANCH  12  14
ENDBRANCH   9  10
BRANCH   9  21
ATOM     21  C   UNL A   1      31.088  26.476  27.095  1.00  0.00     0.070 C 
BRANCH  21  22
ATOM     22  C   UNL A   1      32.077  27.597  26.806  1.00  0.00    -0.045 A 
ATOM     23  C   UNL A   1      31.771  28.887  27.254  1.00  0.00     0.007 A 
ATOM     24  C   UNL A   1      33.391  27.389  26.380  1.00  0.00     0.007 A 
ATOM     25  C   UNL A   1      32.660  29.959  27.242  1.00  0.00     0.046 A 
ATOM     26  C   UNL A   1      34.327  28.444  26.416  1.00  0.00     0.046 A 
ATOM     27  C   UNL A   1      33.953  29.718  26.837  1.00  0.00     0.115 A 
BRANCH  27  28
ATOM     28  O   UNL A   1      34.892  30.702  26.897  1.00  0.00    -0.508 OA
ATOM     29  H   UNL A   1      35.377  30.936  26.130  1.00  0.00     0.293 HD
ENDBRANCH  27  28
ENDBRANCH  21  22
ENDBRANCH   9  21
ENDBRANCH   6   9
ENDBRANCH   4   5
BRANCH   4  30
ATOM     30  C   UNL A   1      34.171  23.704  25.954  1.00  0.00     0.193 C 
BRANCH  30  31
ATOM     31  O   UNL A   1      34.627  23.262  27.222  1.00  0.00    -0.394 OA
ATOM     32  H   UNL A   1      34.111  23.694  27.921  1.00  0.00     0.210 HD
ENDBRANCH  30  31
ENDBRANCH   4  30
ENDBRANCH   2   4
ENDBRANCH   1   2
BRANCH   1  33
ATOM     33  C   UNL A   1      35.227  20.054  24.990  1.00  0.00     0.274 C 
BRANCH  33  34
ATOM     34  C   UNL A   1      36.689  20.453  24.676  1.00  0.00     0.275 C 
BRANCH  34  35
ATOM     35  O   UNL A   1      37.253  21.364  25.653  1.00  0.00    -0.458 OA
BRANCH  35  36
ATOM     36  C   UNL A   1      38.581  21.170  25.946  1.00  0.00     0.338 C 
ATOM     37  O   UNL A   1      39.207  20.146  25.713  1.00  0.00    -0.246 OA
BRANCH  36  38
ATOM     38  C   UNL A   1      39.232  22.399  26.511  1.00  0.00     0.060 A 
ATOM     39  C   UNL A   1      38.772  23.658  26.163  1.00  0.00     0.016 A 
ATOM     40  C   UNL A   1      40.368  22.342  27.323  1.00  0.00     0.016 A 
ATOM     41  C   UNL A   1      39.462  24.829  26.473  1.00  0.00     0.010 A 
ATOM     42  C   UNL A   1      41.021  23.531  27.732  1.00  0.00     0.010 A 
ATOM     43  C   UNL A   1      40.594  24.794  27.281  1.00  0.00    -0.014 A 
BRANCH  43  44
ATOM     44  C   UNL A   1      41.327  26.065  27.575  1.00  0.00     0.031 A 
ATOM     45  C   UNL A   1      40.737  27.072  28.529  1.00  0.00     0.074 A 
ATOM     46  C   UNL A   1      42.572  26.294  27.101  1.00  0.00     0.049 A 
ATOM     47  N   UNL A   1      41.118  28.299  28.782  1.00  0.00    -0.248 NA
ATOM     48  C   UNL A   1      39.579  26.628  29.319  1.00  0.00     0.031 C 
ATOM     49  C   UNL A   1      43.372  25.360  26.305  1.00  0.00     0.029 A 
ATOM     50  N   UNL A   1      43.403  27.383  27.251  1.00  0.00    -0.354 N 
ATOM     51  C   UNL A   1      40.212  28.795  29.712  1.00  0.00     0.074 A 
ATOM     52  C   UNL A   1      39.278  27.727  29.998  1.00  0.00     0.031 C 
ATOM     53  C   UNL A   1      44.585  25.889  26.084  1.00  0.00     0.029 A 
ATOM     54  C   UNL A   1      44.614  27.249  26.612  1.00  0.00     0.049 A 
ATOM     55  H   UNL A   1      43.153  28.183  27.767  1.00  0.00     0.167 HD
ATOM     56  C   UNL A   1      40.148  30.032  30.262  1.00  0.00     0.031 A 
ATOM     57  C   UNL A   1      45.614  28.131  26.413  1.00  0.00     0.031 A 
ATOM     58  C   UNL A   1      41.081  31.094  29.991  1.00  0.00     0.049 A 
ATOM     59  C   UNL A   1      45.454  29.543  26.908  1.00  0.00     0.074 A 
ATOM     60  C   UNL A   1      41.047  32.409  30.422  1.00  0.00     0.029 A 
ATOM     61  N   UNL A   1      42.229  30.953  29.229  1.00  0.00    -0.354 N 
ATOM     62  N   UNL A   1      44.507  30.055  27.654  1.00  0.00    -0.248 NA
ATOM     63  C   UNL A   1      46.483  30.510  26.493  1.00  0.00     0.031 C 
ATOM     64  C   UNL A   1      42.153  33.076  29.881  1.00  0.00     0.029 A 
ATOM     65  C   UNL A   1      42.901  32.162  29.157  1.00  0.00     0.049 A 
ATOM     66  H   UNL A   1      42.524  30.118  28.800  1.00  0.00     0.167 HD
ATOM     67  C   UNL A   1      44.823  31.400  27.797  1.00  0.00     0.074 A 
ATOM     68  C   UNL A   1      46.065  31.620  27.088  1.00  0.00     0.031 C 
ATOM     69  C   UNL A   1      44.134  32.371  28.445  1.00  0.00     0.031 A 
BRANCH  56  70
ATOM     70  C   UNL A   1      38.962  30.327  31.136  1.00  0.00    -0.014 A 
ATOM     71  C   UNL A   1      39.013  30.181  32.530  1.00  0.00     0.009 A 
ATOM     72  C   UNL A   1      37.766  30.757  30.538  1.00  0.00     0.009 A 
ATOM     73  C   UNL A   1      37.873  30.423  33.304  1.00  0.00     0.001 A 
ATOM     74  C   UNL A   1      36.638  31.020  31.315  1.00  0.00     0.001 A 
ATOM     75  C   UNL A   1      36.689  30.842  32.696  1.00  0.00     0.000 A 
ENDBRANCH  56  70
BRANCH  57  76
ATOM     76  C   UNL A   1      46.812  27.747  25.615  1.00  0.00    -0.014 A 
ATOM     77  C   UNL A   1      46.810  27.849  24.216  1.00  0.00     0.009 A 
ATOM     78  C   UNL A   1      47.960  27.244  26.253  1.00  0.00     0.009 A 
ATOM     79  C   UNL A   1      47.924  27.446  23.474  1.00  0.00     0.001 A 
ATOM     80  C   UNL A   1      49.084  26.875  25.512  1.00  0.00     0.001 A 
ATOM     81  C   UNL A   1      49.063  26.968  24.123  1.00  0.00     0.000 A 
ENDBRANCH  57  76
BRANCH  69  82
ATOM     82  C   UNL A   1      44.717  33.754  28.430  1.00  0.00    -0.014 A 
ATOM     83  C   UNL A   1      45.641  34.159  29.405  1.00  0.00     0.009 A 
ATOM     84  C   UNL A   1      44.366  34.649  27.408  1.00  0.00     0.009 A 
ATOM     85  C   UNL A   1      46.184  35.445  29.371  1.00  0.00     0.001 A 
ATOM     86  C   UNL A   1      44.927  35.927  27.364  1.00  0.00     0.001 A 
ATOM     87  C   UNL A   1      45.829  36.326  28.349  1.00  0.00     0.000 A 
ENDBRANCH  69  82
ENDBRANCH  43  44
ENDBRANCH  36  38
ENDBRANCH  35  36
ENDBRANCH  34  35
ENDBRANCH  33  34
ENDBRANCH   1  33
TORSDOF 20
ENDMDL
MODEL 2
REMARK VINA RESULT:     -10.8      3.614      8.879
REMARK SMILES O=C(N[C@@H](Cc1ccc(O)cc1)C(=O)N[C@@H](CO)C(=O)OCCOC(=O)c1ccc(-c2c3nc(c(-c4ccccc4)c4ccc([nH]4)c(-c4ccccc4)c4nc(c(-c5ccccc5)c5ccc2[nH]5)C=C4)C=C3)cc1)c1ccc(F)cc1
REMARK SMILES IDX 21 1 19 2 20 3 16 4 15 5 13 6 14 7 4 9 3 10 1 11 2 12 75 14
REMARK SMILES IDX 76 15 81 16 77 17 80 18 78 19 79 20 5 21 6 22 7 23 12 24
REMARK SMILES IDX 8 25 11 26 9 27 10 28 17 30 18 31 22 33 23 34 24 35 25 36
REMARK SMILES IDX 26 37 27 38 28 39 74 40 29 41 73 42 30 43 31 44 32 45 67 46
REMARK SMILES IDX 33 47 72 48 66 49 68 50 34 51 71 52 65 53 64 54 35 56 57 57
REMARK SMILES IDX 42 58 56 59 43 60 46 61 55 62 69 63 44 64 45 65 54 67 70 68
REMARK SMILES IDX 47 69 36 70 37 71 41 72 38 73 40 74 39 75 58 76 59 77 63 78
REMARK SMILES IDX 60 79 62 80 61 81 48 82 49 83 53 84 50 85 52 86 51 87
REMARK H PARENT 15 8 3 13 10 29 18 32 68 55 46 66
REMARK Flexibility Score: inf
ROOT
ATOM      1  O   UNL A   1      32.469  27.283  25.481  1.00  0.00    -0.460 OA
ENDROOT
BRANCH   1   2
ATOM      2  C   UNL A   1      31.269  26.707  25.773  1.00  0.00     0.331 C 
ATOM      3  O   UNL A   1      30.733  26.773  26.872  1.00  0.00    -0.250 OA
BRANCH   2   4
ATOM      4  C   UNL A   1      30.741  25.878  24.572  1.00  0.00     0.218 C 
BRANCH   4   5
ATOM      5  N   UNL A   1      30.556  24.503  25.011  1.00  0.00    -0.339 N 
ATOM      6  C   UNL A   1      31.088  23.344  24.555  1.00  0.00     0.243 C 
ATOM      7  O   UNL A   1      31.028  22.404  25.362  1.00  0.00    -0.273 OA
ATOM      8  H   UNL A   1      29.938  24.396  25.771  1.00  0.00     0.164 HD
BRANCH   6   9
ATOM      9  C   UNL A   1      31.577  23.056  23.093  1.00  0.00     0.176 C 
BRANCH   9  10
ATOM     10  N   UNL A   1      32.203  24.218  22.465  1.00  0.00    -0.340 N 
ATOM     11  O   UNL A   1      33.715  25.868  22.227  1.00  0.00    -0.269 OA
ATOM     12  C   UNL A   1      33.435  24.779  22.722  1.00  0.00     0.251 C 
ATOM     13  H   UNL A   1      31.671  24.659  21.763  1.00  0.00     0.164 HD
BRANCH  12  14
ATOM     14  C   UNL A   1      34.420  24.125  23.624  1.00  0.00     0.040 A 
ATOM     15  C   UNL A   1      34.354  24.272  25.016  1.00  0.00     0.017 A 
ATOM     16  C   UNL A   1      35.390  23.281  23.066  1.00  0.00     0.017 A 
ATOM     17  C   UNL A   1      35.297  23.647  25.836  1.00  0.00     0.040 A 
ATOM     18  C   UNL A   1      36.321  22.639  23.892  1.00  0.00     0.040 A 
ATOM     19  C   UNL A   1      36.274  22.839  25.266  1.00  0.00     0.123 A 
ATOM     20  F   UNL A   1      37.172  22.233  26.056  1.00  0.00    -0.207 F 
ENDBRANCH  12  14
ENDBRANCH   9  10
BRANCH   9  21
ATOM     21  C   UNL A   1      32.151  21.706  22.614  1.00  0.00     0.070 C 
BRANCH  21  22
ATOM     22  C   UNL A   1      32.557  20.539  23.504  1.00  0.00    -0.045 A 
ATOM     23  C   UNL A   1      32.199  19.245  23.109  1.00  0.00     0.007 A 
ATOM     24  C   UNL A   1      33.499  20.631  24.531  1.00  0.00     0.007 A 
ATOM     25  C   UNL A   1      32.670  18.079  23.707  1.00  0.00     0.046 A 
ATOM     26  C   UNL A   1      34.036  19.463  25.112  1.00  0.00     0.046 A 
ATOM     27  C   UNL A   1      33.613  18.200  24.703  1.00  0.00     0.115 A 
BRANCH  27  28
ATOM     28  O   UNL A   1      34.182  17.095  25.257  1.00  0.00    -0.508 OA
ATOM     29  H   UNL A   1      34.502  16.407  24.708  1.00  0.00     0.293 HD
ENDBRANCH  27  28
ENDBRANCH  21  22
ENDBRANCH   9  21
ENDBRANCH   6   9
ENDBRANCH   4   5
BRANCH   4  30
ATOM     30  C   UNL A   1      29.506  26.484  23.918  1.00  0.00     0.193 C 
BRANCH  30  31
ATOM     31  O   UNL A   1      28.312  25.951  24.466  1.00  0.00    -0.394 OA
ATOM     32  H   UNL A   1      27.765  26.672  24.815  1.00  0.00     0.210 HD
ENDBRANCH  30  31
ENDBRANCH   4  30
ENDBRANCH   2   4
ENDBRANCH   1   2
BRANCH   1  33
ATOM     33  C   UNL A   1      32.502  28.363  24.518  1.00  0.00     0.274 C 
BRANCH  33  34
ATOM     34  C   UNL A   1      31.917  29.713  24.997  1.00  0.00     0.275 C 
BRANCH  34  35
ATOM     35  O   UNL A   1      31.981  29.882  26.436  1.00  0.00    -0.458 OA
BRANCH  35  36
ATOM     36  C   UNL A   1      32.504  31.076  26.869  1.00  0.00     0.338 C 
ATOM     37  O   UNL A   1      31.909  32.145  26.863  1.00  0.00    -0.246 OA
BRANCH  36  38
ATOM     38  C   UNL A   1      33.880  30.925  27.450  1.00  0.00     0.060 A 
ATOM     39  C   UNL A   1      34.425  29.667  27.640  1.00  0.00     0.016 A 
ATOM     40  C   UNL A   1      34.627  32.015  27.906  1.00  0.00     0.016 A 
ATOM     41  C   UNL A   1      35.593  29.451  28.371  1.00  0.00     0.010 A 
ATOM     42  C   UNL A   1      35.868  31.814  28.559  1.00  0.00     0.010 A 
ATOM     43  C   UNL A   1      36.352  30.521  28.833  1.00  0.00    -0.014 A 
BRANCH  43  44
ATOM     44  C   UNL A   1      37.587  30.256  29.634  1.00  0.00     0.031 A 
ATOM     45  C   UNL A   1      38.749  29.525  29.010  1.00  0.00     0.074 A 
ATOM     46  C   UNL A   1      37.747  30.758  30.879  1.00  0.00     0.049 A 
ATOM     47  N   UNL A   1      39.827  29.043  29.576  1.00  0.00    -0.248 NA
ATOM     48  C   UNL A   1      38.698  29.334  27.554  1.00  0.00     0.031 C 
ATOM     49  C   UNL A   1      36.804  31.632  31.579  1.00  0.00     0.029 A 
ATOM     50  N   UNL A   1      38.790  30.628  31.771  1.00  0.00    -0.354 N 
ATOM     51  C   UNL A   1      40.553  28.438  28.556  1.00  0.00     0.074 A 
ATOM     52  C   UNL A   1      39.805  28.637  27.334  1.00  0.00     0.031 C 
ATOM     53  C   UNL A   1      37.329  31.999  32.759  1.00  0.00     0.029 A 
ATOM     54  C   UNL A   1      38.590  31.293  32.958  1.00  0.00     0.049 A 
ATOM     55  H   UNL A   1      39.603  30.107  31.577  1.00  0.00     0.167 HD
ATOM     56  C   UNL A   1      41.724  27.760  28.633  1.00  0.00     0.031 A 
ATOM     57  C   UNL A   1      39.299  31.292  34.105  1.00  0.00     0.031 A 
ATOM     58  C   UNL A   1      42.479  27.570  29.844  1.00  0.00     0.049 A 
ATOM     59  C   UNL A   1      40.517  30.415  34.214  1.00  0.00     0.074 A 
ATOM     60  C   UNL A   1      43.624  26.818  30.043  1.00  0.00     0.029 A 
ATOM     61  N   UNL A   1      42.169  28.155  31.060  1.00  0.00    -0.354 N 
ATOM     62  N   UNL A   1      41.111  29.708  33.284  1.00  0.00    -0.248 NA
ATOM     63  C   UNL A   1      41.135  30.302  35.544  1.00  0.00     0.031 C 
ATOM     64  C   UNL A   1      43.980  26.912  31.393  1.00  0.00     0.029 A 
ATOM     65  C   UNL A   1      43.087  27.765  32.021  1.00  0.00     0.049 A 
ATOM     66  H   UNL A   1      41.408  28.759  31.220  1.00  0.00     0.167 HD
ATOM     67  C   UNL A   1      42.168  29.066  33.915  1.00  0.00     0.074 A 
ATOM     68  C   UNL A   1      42.156  29.491  35.299  1.00  0.00     0.031 C 
ATOM     69  C   UNL A   1      43.062  28.189  33.396  1.00  0.00     0.031 A 
BRANCH  56  70
ATOM     70  C   UNL A   1      42.202  27.086  27.379  1.00  0.00    -0.014 A 
ATOM     71  C   UNL A   1      41.816  25.780  27.043  1.00  0.00     0.009 A 
ATOM     72  C   UNL A   1      43.067  27.784  26.519  1.00  0.00     0.009 A 
ATOM     73  C   UNL A   1      42.321  25.172  25.889  1.00  0.00     0.001 A 
ATOM     74  C   UNL A   1      43.549  27.183  25.356  1.00  0.00     0.001 A 
ATOM     75  C   UNL A   1      43.185  25.874  25.047  1.00  0.00     0.000 A 
ENDBRANCH  56  70
BRANCH  57  76
ATOM     76  C   UNL A   1      38.821  32.060  35.289  1.00  0.00    -0.014 A 
ATOM     77  C   UNL A   1      39.126  33.422  35.437  1.00  0.00     0.009 A 
ATOM     78  C   UNL A   1      38.078  31.423  36.298  1.00  0.00     0.009 A 
ATOM     79  C   UNL A   1      38.709  34.123  36.572  1.00  0.00     0.001 A 
ATOM     80  C   UNL A   1      37.632  32.134  37.414  1.00  0.00     0.001 A 
ATOM     81  C   UNL A   1      37.955  33.482  37.554  1.00  0.00     0.000 A 
ENDBRANCH  57  76
BRANCH  69  82
ATOM     82  C   UNL A   1      44.108  27.643  34.325  1.00  0.00    -0.014 A 
ATOM     83  C   UNL A   1      43.902  26.439  35.016  1.00  0.00     0.009 A 
ATOM     84  C   UNL A   1      45.325  28.322  34.483  1.00  0.00     0.009 A 
ATOM     85  C   UNL A   1      44.888  25.938  35.868  1.00  0.00     0.001 A 
ATOM     86  C   UNL A   1      46.318  27.808  35.318  1.00  0.00     0.001 A 
ATOM     87  C   UNL A   1      46.096  26.620  36.016  1.00  0.00     0.000 A 
ENDBRANCH  69  82
ENDBRANCH  43  44
ENDBRANCH  36  38
ENDBRANCH  35  36
ENDBRANCH  34  35
ENDBRANCH  33  34
ENDBRANCH   1  33
TORSDOF 20
ENDMDL
MODEL 3
REMARK VINA RESULT:     -10.5      3.466      8.628
REMARK SMILES O=C(N[C@@H](Cc1ccc(O)cc1)C(=O)N[C@@H](CO)C(=O)OCCOC(=O)c1ccc(-c2c3nc(c(-c4ccccc4)c4ccc([nH]4)c(-c4ccccc4)c4nc(c(-c5ccccc5)c5ccc2[nH]5)C=C4)C=C3)cc1)c1ccc(F)cc1
REMARK SMILES IDX 21 1 19 2 20 3 16 4 15 5 13 6 14 7 4 9 3 10 1 11 2 12 75 14
REMARK SMILES IDX 76 15 81 16 77 17 80 18 78 19 79 20 5 21 6 22 7 23 12 24
REMARK SMILES IDX 8 25 11 26 9 27 10 28 17 30 18 31 22 33 23 34 24 35 25 36
REMARK SMILES IDX 26 37 27 38 28 39 74 40 29 41 73 42 30 43 31 44 32 45 67 46
REMARK SMILES IDX 33 47 72 48 66 49 68 50 34 51 71 52 65 53 64 54 35 56 57 57
REMARK SMILES IDX 42 58 56 59 43 60 46 61 55 62 69 63 44 64 45 65 54 67 70 68
REMARK SMILES IDX 47 69 36 70 37 71 41 72 38 73 40 74 39 75 58 76 59 77 63 78
REMARK SMILES IDX 60 79 62 80 61 81 48 82 49 83 53 84 50 85 52 86 51 87
REMARK H PARENT 15 8 3 13 10 29 18 32 68 55 46 66
REMARK Flexibility Score: inf
ROOT
ATOM      1  O   UNL A   1      31.642  27.939  25.122  1.00  0.00    -0.460 OA
ENDROOT
BRANCH   1   2
ATOM      2  C   UNL A   1      30.870  27.106  25.874  1.00  0.00     0.331 C 
ATOM      3  O   UNL A   1      30.840  27.128  27.098  1.00  0.00    -0.250 OA
BRANCH   2   4
ATOM      4  C   UNL A   1      30.132  26.072  24.983  1.00  0.00     0.218 C 
BRANCH   4   5
ATOM      5  N   UNL A   1      29.731  24.951  25.820  1.00  0.00    -0.339 N 
ATOM      6  C   UNL A   1      30.388  23.816  26.161  1.00  0.00     0.243 C 
ATOM      7  O   UNL A   1      29.936  23.250  27.168  1.00  0.00    -0.273 OA
ATOM      8  H   UNL A   1      28.828  25.030  26.204  1.00  0.00     0.164 HD
BRANCH   6   9
ATOM      9  C   UNL A   1      31.496  23.093  25.320  1.00  0.00     0.176 C 
BRANCH   9  10
ATOM     10  N   UNL A   1      31.805  21.755  25.820  1.00  0.00    -0.340 N 
ATOM     11  O   UNL A   1      33.084  19.944  26.210  1.00  0.00    -0.269 OA
ATOM     12  C   UNL A   1      33.033  21.142  25.948  1.00  0.00     0.251 C 
ATOM     13  H   UNL A   1      31.029  21.218  26.105  1.00  0.00     0.164 HD
BRANCH  12  14
ATOM     14  C   UNL A   1      34.303  21.884  25.727  1.00  0.00     0.040 A 
ATOM     15  C   UNL A   1      34.685  22.951  26.550  1.00  0.00     0.017 A 
ATOM     16  C   UNL A   1      35.171  21.449  24.714  1.00  0.00     0.017 A 
ATOM     17  C   UNL A   1      35.884  23.630  26.312  1.00  0.00     0.040 A 
ATOM     18  C   UNL A   1      36.381  22.118  24.492  1.00  0.00     0.040 A 
ATOM     19  C   UNL A   1      36.719  23.209  25.284  1.00  0.00     0.123 A 
ATOM     20  F   UNL A   1      37.873  23.855  25.064  1.00  0.00    -0.207 F 
ENDBRANCH  12  14
ENDBRANCH   9  10
BRANCH   9  21
ATOM     21  C   UNL A   1      31.670  23.242  23.794  1.00  0.00     0.070 C 
BRANCH  21  22
ATOM     22  C   UNL A   1      32.415  24.363  23.082  1.00  0.00    -0.045 A 
ATOM     23  C   UNL A   1      31.823  24.945  21.955  1.00  0.00     0.007 A 
ATOM     24  C   UNL A   1      33.504  25.046  23.627  1.00  0.00     0.007 A 
ATOM     25  C   UNL A   1      32.284  26.100  21.330  1.00  0.00     0.046 A 
ATOM     26  C   UNL A   1      33.952  26.251  23.047  1.00  0.00     0.046 A 
ATOM     27  C   UNL A   1      33.346  26.763  21.902  1.00  0.00     0.115 A 
BRANCH  27  28
ATOM     28  O   UNL A   1      33.778  27.949  21.392  1.00  0.00    -0.508 OA
ATOM     29  H   UNL A   1      33.170  28.536  20.989  1.00  0.00     0.293 HD
ENDBRANCH  27  28
ENDBRANCH  21  22
ENDBRANCH   9  21
ENDBRANCH   6   9
ENDBRANCH   4   5
BRANCH   4  30
ATOM     30  C   UNL A   1      28.989  26.677  24.178  1.00  0.00     0.193 C 
BRANCH  30  31
ATOM     31  O   UNL A   1      27.762  26.014  24.439  1.00  0.00    -0.394 OA
ATOM     32  H   UNL A   1      27.875  25.404  25.184  1.00  0.00     0.210 HD
ENDBRANCH  30  31
ENDBRANCH   4  30
ENDBRANCH   2   4
ENDBRANCH   1   2
BRANCH   1  33
ATOM     33  C   UNL A   1      31.075  29.194  24.675  1.00  0.00     0.274 C 
BRANCH  33  34
ATOM     34  C   UNL A   1      31.493  30.447  25.481  1.00  0.00     0.275 C 
BRANCH  34  35
ATOM     35  O   UNL A   1      32.866  30.395  25.945  1.00  0.00    -0.458 OA
BRANCH  35  36
ATOM     36  C   UNL A   1      33.199  31.311  26.913  1.00  0.00     0.338 C 
ATOM     37  O   UNL A   1      32.466  32.205  27.313  1.00  0.00    -0.246 OA
BRANCH  36  38
ATOM     38  C   UNL A   1      34.550  31.049  27.514  1.00  0.00     0.060 A 
ATOM     39  C   UNL A   1      34.947  29.755  27.805  1.00  0.00     0.016 A 
ATOM     40  C   UNL A   1      35.417  32.077  27.890  1.00  0.00     0.016 A 
ATOM     41  C   UNL A   1      36.083  29.463  28.559  1.00  0.00     0.010 A 
ATOM     42  C   UNL A   1      36.628  31.787  28.566  1.00  0.00     0.010 A 
ATOM     43  C   UNL A   1      36.960  30.472  28.942  1.00  0.00    -0.014 A 
BRANCH  43  44
ATOM     44  C   UNL A   1      38.158  30.130  29.771  1.00  0.00     0.031 A 
ATOM     45  C   UNL A   1      39.304  29.364  29.161  1.00  0.00     0.074 A 
ATOM     46  C   UNL A   1      38.304  30.591  31.034  1.00  0.00     0.049 A 
ATOM     47  N   UNL A   1      40.342  28.819  29.744  1.00  0.00    -0.248 NA
ATOM     48  C   UNL A   1      39.288  29.213  27.699  1.00  0.00     0.031 C 
ATOM     49  C   UNL A   1      37.379  31.488  31.731  1.00  0.00     0.029 A 
ATOM     50  N   UNL A   1      39.312  30.390  31.951  1.00  0.00    -0.354 N 
ATOM     51  C   UNL A   1      41.071  28.208  28.729  1.00  0.00     0.074 A 
ATOM     52  C   UNL A   1      40.369  28.473  27.491  1.00  0.00     0.031 C 
ATOM     53  C   UNL A   1      37.885  31.800  32.934  1.00  0.00     0.029 A 
ATOM     54  C   UNL A   1      39.107  31.032  33.150  1.00  0.00     0.049 A 
ATOM     55  H   UNL A   1      40.106  29.839  31.766  1.00  0.00     0.167 HD
ATOM     56  C   UNL A   1      42.207  27.476  28.820  1.00  0.00     0.031 A 
ATOM     57  C   UNL A   1      39.781  30.969  34.317  1.00  0.00     0.031 A 
ATOM     58  C   UNL A   1      42.916  27.220  30.046  1.00  0.00     0.049 A 
ATOM     59  C   UNL A   1      40.954  30.035  34.435  1.00  0.00     0.074 A 
ATOM     60  C   UNL A   1      44.021  26.412  30.257  1.00  0.00     0.029 A 
ATOM     61  N   UNL A   1      42.597  27.787  31.269  1.00  0.00    -0.354 N 
ATOM     62  N   UNL A   1      41.544  29.327  33.504  1.00  0.00    -0.248 NA
ATOM     63  C   UNL A   1      41.527  29.859  35.779  1.00  0.00     0.031 C 
ATOM     64  C   UNL A   1      44.341  26.454  31.619  1.00  0.00     0.029 A 
ATOM     65  C   UNL A   1      43.468  27.330  32.244  1.00  0.00     0.049 A 
ATOM     66  H   UNL A   1      41.860  28.420  31.423  1.00  0.00     0.167 HD
ATOM     67  C   UNL A   1      42.552  28.621  34.146  1.00  0.00     0.074 A 
ATOM     68  C   UNL A   1      42.517  29.009  35.540  1.00  0.00     0.031 C 
ATOM     69  C   UNL A   1      43.421  27.718  33.629  1.00  0.00     0.031 A 
BRANCH  56  70
ATOM     70  C   UNL A   1      42.692  26.814  27.561  1.00  0.00    -0.014 A 
ATOM     71  C   UNL A   1      43.560  27.461  26.669  1.00  0.00     0.009 A 
ATOM     72  C   UNL A   1      42.259  25.511  27.268  1.00  0.00     0.009 A 
ATOM     73  C   UNL A   1      43.952  26.827  25.486  1.00  0.00     0.001 A 
ATOM     74  C   UNL A   1      42.671  24.872  26.098  1.00  0.00     0.001 A 
ATOM     75  C   UNL A   1      43.508  25.535  25.202  1.00  0.00     0.000 A 
ENDBRANCH  56  70
BRANCH  57  76
ATOM     76  C   UNL A   1      39.302  31.727  35.507  1.00  0.00    -0.014 A 
ATOM     77  C   UNL A   1      39.840  32.982  35.827  1.00  0.00     0.009 A 
ATOM     78  C   UNL A   1      38.321  31.180  36.352  1.00  0.00     0.009 A 
ATOM     79  C   UNL A   1      39.414  33.667  36.969  1.00  0.00     0.001 A 
ATOM     80  C   UNL A   1      37.872  31.880  37.472  1.00  0.00     0.001 A 
ATOM     81  C   UNL A   1      38.425  33.119  37.786  1.00  0.00     0.000 A 
ENDBRANCH  57  76
BRANCH  69  82
ATOM     82  C   UNL A   1      44.413  27.101  34.572  1.00  0.00    -0.014 A 
ATOM     83  C   UNL A   1      45.647  27.717  34.827  1.00  0.00     0.009 A 
ATOM     84  C   UNL A   1      44.095  25.908  35.239  1.00  0.00     0.009 A 
ATOM     85  C   UNL A   1      46.555  27.137  35.715  1.00  0.00     0.001 A 
ATOM     86  C   UNL A   1      44.994  25.341  36.142  1.00  0.00     0.001 A 
ATOM     87  C   UNL A   1      46.227  25.952  36.375  1.00  0.00     0.000 A 
ENDBRANCH  69  82
ENDBRANCH  43  44
ENDBRANCH  36  38
ENDBRANCH  35  36
ENDBRANCH  34  35
ENDBRANCH  33  34
ENDBRANCH   1  33
TORSDOF 20
ENDMDL
