MODEL 1
REMARK VINA RESULT:     -11.0      0.000      0.000
REMARK SMILES O=C(OCCOC(=O)c1c(F)cccc1NS(=O)(=O)C(F)(F)F)c1ccc(-c2c3nc(c(-c4ccccc4)c4ccc([nH]4)c(-c4ccccc4)c4nc(c(-c5ccccc5)c5ccc2[nH]5)C=C4)C=C3)cc1
REMARK SMILES IDX 5 1 4 2 3 3 2 4 1 5 24 6 25 7 71 8 26 9 70 10 27 11 28 12
REMARK SMILES IDX 29 13 64 14 30 15 69 16 63 17 65 18 31 19 68 20 62 21 61 22
REMARK SMILES IDX 32 24 54 25 39 26 53 27 40 28 43 29 52 30 66 31 41 32 42 33
REMARK SMILES IDX 51 35 67 36 44 37 33 38 34 39 38 40 35 41 37 42 36 43 55 44
REMARK SMILES IDX 56 45 60 46 57 47 59 48 58 49 45 50 46 51 50 52 47 53 49 54
REMARK SMILES IDX 48 55 6 56 7 57 8 58 9 59 10 60 15 61 11 62 12 63 14 64
REMARK SMILES IDX 13 65 16 66 17 68 18 69 19 70 20 71 21 72 22 73 23 74
REMARK H PARENT 65 23 43 34 16 67
REMARK Flexibility Score: inf
ROOT
ATOM      1  C   UNL A   1      38.158  21.016  25.380  1.00  0.00     0.275 C 
ENDROOT
BRANCH   1   2
ATOM      2  C   UNL A   1      38.595  19.601  24.986  1.00  0.00     0.275 C 
BRANCH   2   3
ATOM      3  O   UNL A   1      39.667  19.058  25.769  1.00  0.00    -0.458 OA
BRANCH   3   4
ATOM      4  C   UNL A   1      40.923  19.513  25.966  1.00  0.00     0.338 C 
ATOM      5  O   UNL A   1      41.854  18.759  25.690  1.00  0.00    -0.246 OA
BRANCH   4   6
ATOM      6  C   UNL A   1      41.257  20.847  26.574  1.00  0.00     0.060 A 
ATOM      7  C   UNL A   1      41.201  21.192  27.923  1.00  0.00     0.016 A 
ATOM      8  C   UNL A   1      41.715  21.834  25.687  1.00  0.00     0.016 A 
ATOM      9  C   UNL A   1      41.676  22.424  28.374  1.00  0.00     0.010 A 
ATOM     10  C   UNL A   1      42.241  23.049  26.125  1.00  0.00     0.010 A 
ATOM     11  C   UNL A   1      42.220  23.351  27.484  1.00  0.00    -0.014 A 
BRANCH  11  12
ATOM     12  C   UNL A   1      42.625  24.675  27.993  1.00  0.00     0.031 A 
ATOM     13  C   UNL A   1      44.087  24.984  28.093  1.00  0.00     0.074 A 
ATOM     14  C   UNL A   1      41.695  25.616  28.245  1.00  0.00     0.049 A 
ATOM     15  N   UNL A   1      44.664  26.125  28.358  1.00  0.00    -0.248 NA
ATOM     16  C   UNL A   1      45.022  23.882  27.809  1.00  0.00     0.031 C 
ATOM     17  C   UNL A   1      40.254  25.438  28.077  1.00  0.00     0.029 A 
ATOM     18  N   UNL A   1      41.816  26.912  28.672  1.00  0.00    -0.354 N 
ATOM     19  C   UNL A   1      46.022  25.891  28.214  1.00  0.00     0.074 A 
ATOM     20  C   UNL A   1      46.194  24.486  27.926  1.00  0.00     0.031 C 
ATOM     21  C   UNL A   1      39.617  26.562  28.442  1.00  0.00     0.029 A 
ATOM     22  C   UNL A   1      40.609  27.550  28.843  1.00  0.00     0.049 A 
ATOM     23  H   UNL A   1      42.683  27.345  28.840  1.00  0.00     0.167 HD
ATOM     24  C   UNL A   1      47.036  26.783  28.272  1.00  0.00     0.031 A 
ATOM     25  C   UNL A   1      40.339  28.799  29.262  1.00  0.00     0.031 A 
ATOM     26  C   UNL A   1      46.854  28.168  28.604  1.00  0.00     0.049 A 
ATOM     27  C   UNL A   1      41.499  29.730  29.479  1.00  0.00     0.074 A 
ATOM     28  C   UNL A   1      47.810  29.155  28.741  1.00  0.00     0.029 A 
ATOM     29  N   UNL A   1      45.624  28.754  28.865  1.00  0.00    -0.354 N 
ATOM     30  N   UNL A   1      42.779  29.503  29.305  1.00  0.00    -0.248 NA
ATOM     31  C   UNL A   1      41.178  31.099  29.900  1.00  0.00     0.031 C 
ATOM     32  C   UNL A   1      47.163  30.328  29.144  1.00  0.00     0.029 A 
ATOM     33  C   UNL A   1      45.797  30.086  29.194  1.00  0.00     0.049 A 
ATOM     34  H   UNL A   1      44.756  28.290  28.824  1.00  0.00     0.167 HD
ATOM     35  C   UNL A   1      43.414  30.709  29.554  1.00  0.00     0.074 A 
ATOM     36  C   UNL A   1      42.374  31.669  29.872  1.00  0.00     0.031 C 
ATOM     37  C   UNL A   1      44.737  31.006  29.519  1.00  0.00     0.031 A 
BRANCH  24  38
ATOM     38  C   UNL A   1      48.413  26.261  27.987  1.00  0.00    -0.014 A 
ATOM     39  C   UNL A   1      49.234  25.785  29.024  1.00  0.00     0.009 A 
ATOM     40  C   UNL A   1      48.906  26.261  26.675  1.00  0.00     0.009 A 
ATOM     41  C   UNL A   1      50.533  25.350  28.755  1.00  0.00     0.001 A 
ATOM     42  C   UNL A   1      50.196  25.802  26.406  1.00  0.00     0.001 A 
ATOM     43  C   UNL A   1      51.011  25.355  27.446  1.00  0.00     0.000 A 
ENDBRANCH  24  38
BRANCH  25  44
ATOM     44  C   UNL A   1      38.937  29.240  29.496  1.00  0.00    -0.014 A 
ATOM     45  C   UNL A   1      38.301  29.044  30.732  1.00  0.00     0.009 A 
ATOM     46  C   UNL A   1      38.206  29.825  28.449  1.00  0.00     0.009 A 
ATOM     47  C   UNL A   1      36.953  29.379  30.898  1.00  0.00     0.001 A 
ATOM     48  C   UNL A   1      36.868  30.186  28.627  1.00  0.00     0.001 A 
ATOM     49  C   UNL A   1      36.238  29.949  29.846  1.00  0.00     0.000 A 
ENDBRANCH  25  44
BRANCH  37  50
ATOM     50  C   UNL A   1      45.113  32.430  29.811  1.00  0.00    -0.014 A 
ATOM     51  C   UNL A   1      45.194  33.386  28.788  1.00  0.00     0.009 A 
ATOM     52  C   UNL A   1      45.371  32.820  31.134  1.00  0.00     0.009 A 
ATOM     53  C   UNL A   1      45.573  34.696  29.078  1.00  0.00     0.001 A 
ATOM     54  C   UNL A   1      45.711  34.140  31.426  1.00  0.00     0.001 A 
ATOM     55  C   UNL A   1      45.827  35.073  30.397  1.00  0.00     0.000 A 
ENDBRANCH  37  50
ENDBRANCH  11  12
ENDBRANCH   4   6
ENDBRANCH   3   4
ENDBRANCH   2   3
ENDBRANCH   1   2
BRANCH   1  56
ATOM     56  O   UNL A   1      36.736  21.191  25.511  1.00  0.00    -0.458 OA
BRANCH  56  57
ATOM     57  C   UNL A   1      36.112  21.950  24.568  1.00  0.00     0.343 C 
ATOM     58  O   UNL A   1      36.579  22.317  23.502  1.00  0.00    -0.246 OA
BRANCH  57  59
ATOM     59  C   UNL A   1      34.708  22.174  24.961  1.00  0.00     0.119 A 
ATOM     60  C   UNL A   1      34.254  23.497  25.003  1.00  0.00     0.139 A 
ATOM     61  C   UNL A   1      33.835  21.109  25.296  1.00  0.00     0.066 A 
ATOM     62  F   UNL A   1      35.049  24.513  24.631  1.00  0.00    -0.206 F 
ATOM     63  C   UNL A   1      32.964  23.800  25.409  1.00  0.00     0.040 A 
ATOM     64  C   UNL A   1      32.565  21.452  25.777  1.00  0.00     0.028 A 
ATOM     65  C   UNL A   1      32.133  22.781  25.843  1.00  0.00     0.005 A 
BRANCH  61  66
ATOM     66  N   UNL A   1      34.142  19.757  24.900  1.00  0.00    -0.275 N 
ATOM     67  H   UNL A   1      35.094  19.508  24.923  1.00  0.00     0.180 HD
BRANCH  66  68
ATOM     68  S   UNL A   1      33.076  18.545  24.398  1.00  0.00     0.333 S 
ATOM     69  O   UNL A   1      32.328  18.230  25.604  1.00  0.00    -0.197 OA
ATOM     70  O   UNL A   1      32.360  19.035  23.236  1.00  0.00    -0.197 OA
BRANCH  68  71
ATOM     71  C   UNL A   1      34.043  17.037  23.887  1.00  0.00     0.516 C 
ATOM     72  F   UNL A   1      35.246  16.973  24.539  1.00  0.00    -0.155 F 
ATOM     73  F   UNL A   1      33.395  15.871  24.161  1.00  0.00    -0.155 F 
ATOM     74  F   UNL A   1      34.342  17.029  22.558  1.00  0.00    -0.155 F 
ENDBRANCH  68  71
ENDBRANCH  66  68
ENDBRANCH  61  66
ENDBRANCH  57  59
ENDBRANCH  56  57
ENDBRANCH   1  56
TORSDOF 14
ENDMDL
MODEL 2
REMARK VINA RESULT:     -10.8      6.378     10.765
REMARK SMILES O=C(OCCOC(=O)c1c(F)cccc1NS(=O)(=O)C(F)(F)F)c1ccc(-c2c3nc(c(-c4ccccc4)c4ccc([nH]4)c(-c4ccccc4)c4nc(c(-c5ccccc5)c5ccc2[nH]5)C=C4)C=C3)cc1
REMARK SMILES IDX 5 1 4 2 3 3 2 4 1 5 24 6 25 7 71 8 26 9 70 10 27 11 28 12
REMARK SMILES IDX 29 13 64 14 30 15 69 16 63 17 65 18 31 19 68 20 62 21 61 22
REMARK SMILES IDX 32 24 54 25 39 26 53 27 40 28 43 29 52 30 66 31 41 32 42 33
REMARK SMILES IDX 51 35 67 36 44 37 33 38 34 39 38 40 35 41 37 42 36 43 55 44
REMARK SMILES IDX 56 45 60 46 57 47 59 48 58 49 45 50 46 51 50 52 47 53 49 54
REMARK SMILES IDX 48 55 6 56 7 57 8 58 9 59 10 60 15 61 11 62 12 63 14 64
REMARK SMILES IDX 13 65 16 66 17 68 18 69 19 70 20 71 21 72 22 73 23 74
REMARK H PARENT 65 23 43 34 16 67
REMARK Flexibility Score: inf
ROOT
ATOM      1  C   UNL A   1      31.248  31.580  26.667  1.00  0.00     0.275 C 
ENDROOT
BRANCH   1   2
ATOM      2  C   UNL A   1      32.312  32.681  26.632  1.00  0.00     0.275 C 
BRANCH   2   3
ATOM      3  O   UNL A   1      32.070  33.786  27.515  1.00  0.00    -0.458 OA
BRANCH   3   4
ATOM      4  C   UNL A   1      32.885  34.382  28.412  1.00  0.00     0.338 C 
ATOM      5  O   UNL A   1      32.557  35.491  28.832  1.00  0.00    -0.246 OA
BRANCH   4   6
ATOM      6  C   UNL A   1      34.202  33.819  28.870  1.00  0.00     0.060 A 
ATOM      7  C   UNL A   1      35.472  34.236  28.481  1.00  0.00     0.016 A 
ATOM      8  C   UNL A   1      34.136  32.792  29.825  1.00  0.00     0.016 A 
ATOM      9  C   UNL A   1      36.619  33.724  29.090  1.00  0.00     0.010 A 
ATOM     10  C   UNL A   1      35.267  32.307  30.481  1.00  0.00     0.010 A 
ATOM     11  C   UNL A   1      36.525  32.775  30.109  1.00  0.00    -0.014 A 
BRANCH  11  12
ATOM     12  C   UNL A   1      37.764  32.196  30.660  1.00  0.00     0.031 A 
ATOM     13  C   UNL A   1      38.298  32.748  31.945  1.00  0.00     0.074 A 
ATOM     14  C   UNL A   1      38.326  31.120  30.077  1.00  0.00     0.049 A 
ATOM     15  N   UNL A   1      39.272  32.292  32.687  1.00  0.00    -0.248 NA
ATOM     16  C   UNL A   1      37.621  33.935  32.495  1.00  0.00     0.031 C 
ATOM     17  C   UNL A   1      37.816  30.452  28.881  1.00  0.00     0.029 A 
ATOM     18  N   UNL A   1      39.431  30.383  30.415  1.00  0.00    -0.354 N 
ATOM     19  C   UNL A   1      39.282  33.099  33.815  1.00  0.00     0.074 A 
ATOM     20  C   UNL A   1      38.282  34.123  33.626  1.00  0.00     0.031 C 
ATOM     21  C   UNL A   1      38.629  29.434  28.554  1.00  0.00     0.029 A 
ATOM     22  C   UNL A   1      39.702  29.362  29.536  1.00  0.00     0.049 A 
ATOM     23  H   UNL A   1      39.977  30.569  31.213  1.00  0.00     0.167 HD
ATOM     24  C   UNL A   1      40.030  32.966  34.932  1.00  0.00     0.031 A 
ATOM     25  C   UNL A   1      40.699  28.459  29.534  1.00  0.00     0.031 A 
ATOM     26  C   UNL A   1      41.052  31.969  35.087  1.00  0.00     0.049 A 
ATOM     27  C   UNL A   1      41.624  28.437  30.718  1.00  0.00     0.074 A 
ATOM     28  C   UNL A   1      41.908  31.768  36.152  1.00  0.00     0.029 A 
ATOM     29  N   UNL A   1      41.362  31.012  34.131  1.00  0.00    -0.354 N 
ATOM     30  N   UNL A   1      41.599  29.186  31.795  1.00  0.00    -0.248 NA
ATOM     31  C   UNL A   1      42.681  27.419  30.713  1.00  0.00     0.031 C 
ATOM     32  C   UNL A   1      42.777  30.724  35.817  1.00  0.00     0.029 A 
ATOM     33  C   UNL A   1      42.418  30.233  34.569  1.00  0.00     0.049 A 
ATOM     34  H   UNL A   1      40.898  30.903  33.269  1.00  0.00     0.167 HD
ATOM     35  C   UNL A   1      42.608  28.704  32.614  1.00  0.00     0.074 A 
ATOM     36  C   UNL A   1      43.212  27.586  31.915  1.00  0.00     0.031 C 
ATOM     37  C   UNL A   1      43.001  29.138  33.837  1.00  0.00     0.031 A 
BRANCH  24  38
ATOM     38  C   UNL A   1      39.767  33.939  36.042  1.00  0.00    -0.014 A 
ATOM     39  C   UNL A   1      40.408  35.190  36.073  1.00  0.00     0.009 A 
ATOM     40  C   UNL A   1      38.886  33.601  37.079  1.00  0.00     0.009 A 
ATOM     41  C   UNL A   1      40.195  36.068  37.139  1.00  0.00     0.001 A 
ATOM     42  C   UNL A   1      38.657  34.491  38.129  1.00  0.00     0.001 A 
ATOM     43  C   UNL A   1      39.318  35.719  38.163  1.00  0.00     0.000 A 
ENDBRANCH  24  38
BRANCH  25  44
ATOM     44  C   UNL A   1      40.870  27.513  28.399  1.00  0.00    -0.014 A 
ATOM     45  C   UNL A   1      41.624  27.853  27.265  1.00  0.00     0.009 A 
ATOM     46  C   UNL A   1      40.229  26.262  28.429  1.00  0.00     0.009 A 
ATOM     47  C   UNL A   1      41.691  26.986  26.170  1.00  0.00     0.001 A 
ATOM     48  C   UNL A   1      40.323  25.385  27.346  1.00  0.00     0.001 A 
ATOM     49  C   UNL A   1      41.041  25.753  26.211  1.00  0.00     0.000 A 
ENDBRANCH  25  44
BRANCH  37  50
ATOM     50  C   UNL A   1      44.119  28.379  34.491  1.00  0.00    -0.014 A 
ATOM     51  C   UNL A   1      45.459  28.757  34.311  1.00  0.00     0.009 A 
ATOM     52  C   UNL A   1      43.823  27.281  35.314  1.00  0.00     0.009 A 
ATOM     53  C   UNL A   1      46.483  28.020  34.904  1.00  0.00     0.001 A 
ATOM     54  C   UNL A   1      44.848  26.570  35.937  1.00  0.00     0.001 A 
ATOM     55  C   UNL A   1      46.176  26.931  35.720  1.00  0.00     0.000 A 
ENDBRANCH  37  50
ENDBRANCH  11  12
ENDBRANCH   4   6
ENDBRANCH   3   4
ENDBRANCH   2   3
ENDBRANCH   1   2
BRANCH   1  56
ATOM     56  O   UNL A   1      31.750  30.266  26.966  1.00  0.00    -0.458 OA
BRANCH  56  57
ATOM     57  C   UNL A   1      32.374  29.592  25.961  1.00  0.00     0.343 C 
ATOM     58  O   UNL A   1      33.498  29.801  25.533  1.00  0.00    -0.246 OA
BRANCH  57  59
ATOM     59  C   UNL A   1      31.535  28.460  25.527  1.00  0.00     0.119 A 
ATOM     60  C   UNL A   1      31.482  27.340  26.364  1.00  0.00     0.139 A 
ATOM     61  C   UNL A   1      30.806  28.477  24.312  1.00  0.00     0.066 A 
ATOM     62  F   UNL A   1      32.117  27.330  27.547  1.00  0.00    -0.206 F 
ATOM     63  C   UNL A   1      30.756  26.213  26.010  1.00  0.00     0.040 A 
ATOM     64  C   UNL A   1      30.147  27.297  23.945  1.00  0.00     0.028 A 
ATOM     65  C   UNL A   1      30.127  26.172  24.777  1.00  0.00     0.005 A 
BRANCH  61  66
ATOM     66  N   UNL A   1      30.533  29.723  23.638  1.00  0.00    -0.275 N 
ATOM     67  H   UNL A   1      31.194  30.440  23.777  1.00  0.00     0.180 HD
BRANCH  66  68
ATOM     68  S   UNL A   1      29.223  30.110  22.643  1.00  0.00     0.333 S 
ATOM     69  O   UNL A   1      29.779  30.026  21.302  1.00  0.00    -0.197 OA
ATOM     70  O   UNL A   1      28.120  29.241  23.001  1.00  0.00    -0.197 OA
BRANCH  68  71
ATOM     71  C   UNL A   1      28.700  31.870  22.960  1.00  0.00     0.516 C 
ATOM     72  F   UNL A   1      27.349  31.956  23.173  1.00  0.00    -0.155 F 
ATOM     73  F   UNL A   1      29.297  32.415  24.056  1.00  0.00    -0.155 F 
ATOM     74  F   UNL A   1      28.961  32.694  21.907  1.00  0.00    -0.155 F 
ENDBRANCH  68  71
ENDBRANCH  66  68
ENDBRANCH  61  66
ENDBRANCH  57  59
ENDBRANCH  56  57
ENDBRANCH   1  56
TORSDOF 14
ENDMDL
MODEL 3
REMARK VINA RESULT:     -10.5      4.289      7.143
REMARK SMILES O=C(OCCOC(=O)c1c(F)cccc1NS(=O)(=O)C(F)(F)F)c1ccc(-c2c3nc(c(-c4ccccc4)c4ccc([nH]4)c(-c4ccccc4)c4nc(c(-c5ccccc5)c5ccc2[nH]5)C=C4)C=C3)cc1
REMARK SMILES IDX 5 1 4 2 3 3 2 4 1 5 24 6 25 7 71 8 26 9 70 10 27 11 28 12
REMARK SMILES IDX 29 13 64 14 30 15 69 16 63 17 65 18 31 19 68 20 62 21 61 22
REMARK SMILES IDX 32 24 54 25 39 26 53 27 40 28 43 29 52 30 66 31 41 32 42 33
REMARK SMILES IDX 51 35 67 36 44 37 33 38 34 39 38 40 35 41 37 42 36 43 55 44
REMARK SMILES IDX 56 45 60 46 57 47 59 48 58 49 45 50 46 51 50 52 47 53 49 54
REMARK SMILES IDX 48 55 6 56 7 57 8 58 9 59 10 60 15 61 11 62 12 63 14 64
REMARK SMILES IDX 13 65 16 66 17 68 18 69 19 70 20 71 21 72 22 73 23 74
REMARK H PARENT 65 23 43 34 16 67
REMARK Flexibility Score: inf
ROOT
ATOM      1  C   UNL A   1      41.690  21.831  27.530  1.00  0.00     0.275 C 
ENDROOT
BRANCH   1   2
ATOM      2  C   UNL A   1      40.376  21.125  27.178  1.00  0.00     0.275 C 
BRANCH   2   3
ATOM      3  O   UNL A   1      39.588  21.778  26.173  1.00  0.00    -0.458 OA
BRANCH   3   4
ATOM      4  C   UNL A   1      38.886  22.931  26.225  1.00  0.00     0.338 C 
ATOM      5  O   UNL A   1      37.774  22.947  25.702  1.00  0.00    -0.246 OA
BRANCH   4   6
ATOM      6  C   UNL A   1      39.406  24.216  26.807  1.00  0.00     0.060 A 
ATOM      7  C   UNL A   1      40.164  25.186  26.156  1.00  0.00     0.016 A 
ATOM      8  C   UNL A   1      39.049  24.480  28.140  1.00  0.00     0.016 A 
ATOM      9  C   UNL A   1      40.463  26.403  26.769  1.00  0.00     0.010 A 
ATOM     10  C   UNL A   1      39.294  25.710  28.750  1.00  0.00     0.010 A 
ATOM     11  C   UNL A   1      40.011  26.684  28.059  1.00  0.00    -0.014 A 
BRANCH  11  12
ATOM     12  C   UNL A   1      40.427  27.945  28.702  1.00  0.00     0.031 A 
ATOM     13  C   UNL A   1      41.860  28.099  29.107  1.00  0.00     0.074 A 
ATOM     14  C   UNL A   1      39.558  28.968  28.810  1.00  0.00     0.049 A 
ATOM     15  N   UNL A   1      42.477  29.167  29.538  1.00  0.00    -0.248 NA
ATOM     16  C   UNL A   1      42.726  26.916  28.962  1.00  0.00     0.031 C 
ATOM     17  C   UNL A   1      38.171  28.943  28.349  1.00  0.00     0.029 A 
ATOM     18  N   UNL A   1      39.711  30.232  29.315  1.00  0.00    -0.354 N 
ATOM     19  C   UNL A   1      43.808  28.799  29.657  1.00  0.00     0.074 A 
ATOM     20  C   UNL A   1      43.901  27.393  29.340  1.00  0.00     0.031 C 
ATOM     21  C   UNL A   1      37.583  30.116  28.634  1.00  0.00     0.029 A 
ATOM     22  C   UNL A   1      38.561  30.984  29.274  1.00  0.00     0.049 A 
ATOM     23  H   UNL A   1      40.564  30.569  29.674  1.00  0.00     0.167 HD
ATOM     24  C   UNL A   1      44.868  29.581  29.958  1.00  0.00     0.031 A 
ATOM     25  C   UNL A   1      38.331  32.242  29.691  1.00  0.00     0.031 A 
ATOM     26  C   UNL A   1      44.754  30.967  30.316  1.00  0.00     0.049 A 
ATOM     27  C   UNL A   1      39.504  33.043  30.180  1.00  0.00     0.074 A 
ATOM     28  C   UNL A   1      45.751  31.847  30.689  1.00  0.00     0.029 A 
ATOM     29  N   UNL A   1      43.557  31.668  30.354  1.00  0.00    -0.354 N 
ATOM     30  N   UNL A   1      40.766  32.691  30.254  1.00  0.00    -0.248 NA
ATOM     31  C   UNL A   1      39.236  34.424  30.595  1.00  0.00     0.031 C 
ATOM     32  C   UNL A   1      45.149  33.068  31.012  1.00  0.00     0.029 A 
ATOM     33  C   UNL A   1      43.785  32.965  30.776  1.00  0.00     0.049 A 
ATOM     34  H   UNL A   1      42.676  31.297  30.118  1.00  0.00     0.167 HD
ATOM     35  C   UNL A   1      41.449  33.818  30.684  1.00  0.00     0.074 A 
ATOM     36  C   UNL A   1      40.461  34.870  30.834  1.00  0.00     0.031 C 
ATOM     37  C   UNL A   1      42.773  33.979  30.928  1.00  0.00     0.031 A 
BRANCH  24  38
ATOM     38  C   UNL A   1      46.219  28.929  29.929  1.00  0.00    -0.014 A 
ATOM     39  C   UNL A   1      46.770  28.356  31.088  1.00  0.00     0.009 A 
ATOM     40  C   UNL A   1      46.959  28.902  28.739  1.00  0.00     0.009 A 
ATOM     41  C   UNL A   1      48.050  27.798  31.062  1.00  0.00     0.001 A 
ATOM     42  C   UNL A   1      48.228  28.321  28.710  1.00  0.00     0.001 A 
ATOM     43  C   UNL A   1      48.776  27.778  29.873  1.00  0.00     0.000 A 
ENDBRANCH  24  38
BRANCH  25  44
ATOM     44  C   UNL A   1      36.959  32.817  29.662  1.00  0.00    -0.014 A 
ATOM     45  C   UNL A   1      36.493  33.553  28.561  1.00  0.00     0.009 A 
ATOM     46  C   UNL A   1      36.115  32.667  30.776  1.00  0.00     0.009 A 
ATOM     47  C   UNL A   1      35.236  34.165  28.597  1.00  0.00     0.001 A 
ATOM     48  C   UNL A   1      34.847  33.255  30.796  1.00  0.00     0.001 A 
ATOM     49  C   UNL A   1      34.415  34.016  29.713  1.00  0.00     0.000 A 
ENDBRANCH  25  44
BRANCH  37  50
ATOM     50  C   UNL A   1      43.214  35.348  31.358  1.00  0.00    -0.014 A 
ATOM     51  C   UNL A   1      43.563  36.330  30.418  1.00  0.00     0.009 A 
ATOM     52  C   UNL A   1      43.262  35.662  32.725  1.00  0.00     0.009 A 
ATOM     53  C   UNL A   1      43.997  37.585  30.841  1.00  0.00     0.001 A 
ATOM     54  C   UNL A   1      43.660  36.931  33.144  1.00  0.00     0.001 A 
ATOM     55  C   UNL A   1      44.041  37.886  32.203  1.00  0.00     0.000 A 
ENDBRANCH  37  50
ENDBRANCH  11  12
ENDBRANCH   4   6
ENDBRANCH   3   4
ENDBRANCH   2   3
ENDBRANCH   1   2
BRANCH   1  56
ATOM     56  O   UNL A   1      42.864  21.248  26.939  1.00  0.00    -0.458 OA
BRANCH  56  57
ATOM     57  C   UNL A   1      43.145  21.584  25.649  1.00  0.00     0.343 C 
ATOM     58  O   UNL A   1      42.575  22.426  24.975  1.00  0.00    -0.246 OA
BRANCH  57  59
ATOM     59  C   UNL A   1      44.350  20.860  25.200  1.00  0.00     0.119 A 
ATOM     60  C   UNL A   1      44.307  19.462  25.226  1.00  0.00     0.139 A 
ATOM     61  C   UNL A   1      45.519  21.531  24.763  1.00  0.00     0.066 A 
ATOM     62  F   UNL A   1      43.187  18.810  25.579  1.00  0.00    -0.206 F 
ATOM     63  C   UNL A   1      45.411  18.703  24.867  1.00  0.00     0.040 A 
ATOM     64  C   UNL A   1      46.641  20.741  24.483  1.00  0.00     0.028 A 
ATOM     65  C   UNL A   1      46.596  19.343  24.541  1.00  0.00     0.005 A 
BRANCH  61  66
ATOM     66  N   UNL A   1      45.465  22.916  24.366  1.00  0.00    -0.275 N 
ATOM     67  H   UNL A   1      45.071  23.094  23.482  1.00  0.00     0.180 HD
BRANCH  66  68
ATOM     68  S   UNL A   1      45.994  24.272  25.224  1.00  0.00     0.333 S 
ATOM     69  O   UNL A   1      46.650  23.702  26.390  1.00  0.00    -0.197 OA
ATOM     70  O   UNL A   1      46.767  25.099  24.319  1.00  0.00    -0.197 OA
BRANCH  68  71
ATOM     71  C   UNL A   1      44.522  25.261  25.795  1.00  0.00     0.516 C 
ATOM     72  F   UNL A   1      44.895  26.508  26.221  1.00  0.00    -0.155 F 
ATOM     73  F   UNL A   1      43.595  25.452  24.815  1.00  0.00    -0.155 F 
ATOM     74  F   UNL A   1      43.880  24.687  26.850  1.00  0.00    -0.155 F 
ENDBRANCH  68  71
ENDBRANCH  66  68
ENDBRANCH  61  66
ENDBRANCH  57  59
ENDBRANCH  56  57
ENDBRANCH   1  56
TORSDOF 14
ENDMDL
