MODEL 1
REMARK VINA RESULT:     -11.5      0.000      0.000
REMARK SMILES COc1cccc(C(=O)/C=C(/Nc2cc(C)c(C)cc2[N+](=O)[O-])C(=O)OCCOC(=O)c2ccc(-c3c4nc(c(-c5ccccc5)c5ccc([nH]5)c(-c5ccccc5)c5nc(c(-c6ccccc6)c6ccc3[nH]6)C=C5)C=C4)cc2)c1
REMARK SMILES IDX 27 1 26 2 24 3 25 4 11 5 10 6 8 7 9 8 7 9 3 10 4 11 80 12
REMARK SMILES IDX 5 13 6 14 2 15 1 16 12 17 13 19 14 20 20 21 15 22 19 23
REMARK SMILES IDX 16 24 17 25 18 26 21 27 22 28 23 29 28 30 29 31 30 32 31 33
REMARK SMILES IDX 32 34 33 35 79 36 34 37 78 38 35 39 36 40 37 41 72 42 38 43
REMARK SMILES IDX 77 44 71 45 73 46 39 47 76 48 70 49 69 50 40 52 62 53 47 54
REMARK SMILES IDX 61 55 48 56 51 57 60 58 74 59 49 60 50 61 59 63 75 64 52 65
REMARK SMILES IDX 41 66 42 67 46 68 43 69 45 70 44 71 63 72 64 73 68 74 65 75
REMARK SMILES IDX 67 76 66 77 53 78 54 79 58 80 55 81 57 82 56 83
REMARK H PARENT 12 18 73 51 51 62
REMARK Flexibility Score: inf
ROOT
ATOM      1  C   UNL A   1      32.445  29.774  25.587  1.00  0.00     0.275 C 
ENDROOT
BRANCH   1   2
ATOM      2  O   UNL A   1      33.575  28.934  25.371  1.00  0.00    -0.457 OA
BRANCH   2   3
ATOM      3  C   UNL A   1      33.583  28.222  24.214  1.00  0.00     0.355 C 
ATOM      4  O   UNL A   1      34.052  28.529  23.140  1.00  0.00    -0.244 OA
BRANCH   3   5
ATOM      5  C   UNL A   1      32.829  26.979  24.487  1.00  0.00     0.129 C 
ATOM      6  C   UNL A   1      31.747  26.722  23.736  1.00  0.00     0.086 C 
BRANCH   6   7
ATOM      7  C   UNL A   1      30.895  27.362  22.664  1.00  0.00     0.188 C 
ATOM      8  O   UNL A   1      31.114  26.893  21.535  1.00  0.00    -0.289 OA
BRANCH   7   9
ATOM      9  C   UNL A   1      29.850  28.456  22.722  1.00  0.00     0.026 A 
ATOM     10  C   UNL A   1      28.860  30.669  22.320  1.00  0.00     0.119 A 
ATOM     11  C   UNL A   1      27.601  30.224  22.679  1.00  0.00     0.046 A 
ATOM     12  C   UNL A   1      29.952  29.785  22.314  1.00  0.00     0.058 A 
ATOM     13  C   UNL A   1      27.451  28.910  23.093  1.00  0.00     0.005 A 
ATOM     14  C   UNL A   1      28.564  28.057  23.137  1.00  0.00     0.012 A 
BRANCH  10  15
ATOM     15  O   UNL A   1      28.948  31.945  21.829  1.00  0.00    -0.497 OA
ATOM     16  C   UNL A   1      28.043  32.210  20.757  1.00  0.00     0.278 C 
ENDBRANCH  10  15
ENDBRANCH   7   9
ENDBRANCH   6   7
BRANCH   5  17
ATOM     17  N   UNL A   1      33.378  26.172  25.499  1.00  0.00    -0.344 N 
ATOM     18  H   UNL A   1      33.524  26.555  26.395  1.00  0.00     0.167 HD
BRANCH  17  19
ATOM     19  C   UNL A   1      33.729  24.814  25.259  1.00  0.00     0.118 A 
ATOM     20  C   UNL A   1      34.728  24.522  24.313  1.00  0.00     0.037 A 
ATOM     21  C   UNL A   1      33.369  23.779  26.148  1.00  0.00     0.292 A 
ATOM     22  C   UNL A   1      35.448  23.304  24.354  1.00  0.00    -0.046 A 
ATOM     23  C   UNL A   1      34.146  22.621  26.271  1.00  0.00     0.091 A 
ATOM     24  C   UNL A   1      36.461  23.025  23.273  1.00  0.00     0.045 C 
ATOM     25  C   UNL A   1      35.239  22.411  25.423  1.00  0.00    -0.041 A 
ATOM     26  C   UNL A   1      36.120  21.219  25.678  1.00  0.00     0.045 C 
BRANCH  21  27
ATOM     27  N   UNL A   1      32.162  23.892  26.976  1.00  0.00     0.064 N 
ATOM     28  O   UNL A   1      31.880  22.939  27.718  1.00  0.00    -0.258 OA
ATOM     29  O   UNL A   1      31.458  24.904  26.838  1.00  0.00    -0.258 OA
ENDBRANCH  21  27
ENDBRANCH  17  19
ENDBRANCH   5  17
ENDBRANCH   3   5
ENDBRANCH   2   3
ENDBRANCH   1   2
BRANCH   1  30
ATOM     30  C   UNL A   1      32.747  30.805  26.682  1.00  0.00     0.275 C 
BRANCH  30  31
ATOM     31  O   UNL A   1      33.471  30.260  27.810  1.00  0.00    -0.458 OA
BRANCH  31  32
ATOM     32  C   UNL A   1      34.438  31.061  28.329  1.00  0.00     0.338 C 
ATOM     33  O   UNL A   1      34.271  32.189  28.767  1.00  0.00    -0.246 OA
BRANCH  32  34
ATOM     34  C   UNL A   1      35.754  30.369  28.414  1.00  0.00     0.060 A 
ATOM     35  C   UNL A   1      36.104  29.799  29.647  1.00  0.00     0.016 A 
ATOM     36  C   UNL A   1      36.657  30.297  27.348  1.00  0.00     0.016 A 
ATOM     37  C   UNL A   1      37.339  29.167  29.821  1.00  0.00     0.010 A 
ATOM     38  C   UNL A   1      37.910  29.680  27.531  1.00  0.00     0.010 A 
ATOM     39  C   UNL A   1      38.267  29.125  28.774  1.00  0.00    -0.014 A 
BRANCH  39  40
ATOM     40  C   UNL A   1      39.656  28.664  29.051  1.00  0.00     0.031 A 
ATOM     41  C   UNL A   1      40.591  29.602  29.764  1.00  0.00     0.074 A 
ATOM     42  C   UNL A   1      40.079  27.421  28.752  1.00  0.00     0.049 A 
ATOM     43  N   UNL A   1      41.818  29.401  30.171  1.00  0.00    -0.248 NA
ATOM     44  C   UNL A   1      40.053  30.931  30.097  1.00  0.00     0.031 C 
ATOM     45  C   UNL A   1      39.244  26.364  28.198  1.00  0.00     0.029 A 
ATOM     46  N   UNL A   1      41.315  26.829  28.881  1.00  0.00    -0.354 N 
ATOM     47  C   UNL A   1      42.185  30.561  30.839  1.00  0.00     0.074 A 
ATOM     48  C   UNL A   1      41.069  31.478  30.745  1.00  0.00     0.031 C 
ATOM     49  C   UNL A   1      39.994  25.272  27.973  1.00  0.00     0.029 A 
ATOM     50  C   UNL A   1      41.368  25.547  28.382  1.00  0.00     0.049 A 
ATOM     51  H   UNL A   1      42.087  27.280  29.291  1.00  0.00     0.167 HD
ATOM     52  C   UNL A   1      43.343  30.836  31.483  1.00  0.00     0.031 A 
ATOM     53  C   UNL A   1      42.405  24.691  28.272  1.00  0.00     0.031 A 
ATOM     54  C   UNL A   1      44.475  29.951  31.526  1.00  0.00     0.049 A 
ATOM     55  C   UNL A   1      43.741  25.091  28.842  1.00  0.00     0.074 A 
ATOM     56  C   UNL A   1      45.705  30.152  32.125  1.00  0.00     0.029 A 
ATOM     57  N   UNL A   1      44.521  28.703  30.921  1.00  0.00    -0.354 N 
ATOM     58  N   UNL A   1      44.062  26.177  29.503  1.00  0.00    -0.248 NA
ATOM     59  C   UNL A   1      44.849  24.138  28.679  1.00  0.00     0.031 C 
ATOM     60  C   UNL A   1      46.522  29.057  31.819  1.00  0.00     0.029 A 
ATOM     61  C   UNL A   1      45.778  28.145  31.090  1.00  0.00     0.049 A 
ATOM     62  H   UNL A   1      43.774  28.278  30.443  1.00  0.00     0.167 HD
ATOM     63  C   UNL A   1      45.392  26.018  29.873  1.00  0.00     0.074 A 
ATOM     64  C   UNL A   1      45.816  24.728  29.368  1.00  0.00     0.031 C 
ATOM     65  C   UNL A   1      46.186  26.860  30.577  1.00  0.00     0.031 A 
BRANCH  52  66
ATOM     66  C   UNL A   1      43.452  32.183  32.137  1.00  0.00    -0.014 A 
ATOM     67  C   UNL A   1      43.938  33.300  31.437  1.00  0.00     0.009 A 
ATOM     68  C   UNL A   1      43.072  32.335  33.480  1.00  0.00     0.009 A 
ATOM     69  C   UNL A   1      44.080  34.531  32.082  1.00  0.00     0.001 A 
ATOM     70  C   UNL A   1      43.190  33.573  34.113  1.00  0.00     0.001 A 
ATOM     71  C   UNL A   1      43.705  34.666  33.419  1.00  0.00     0.000 A 
ENDBRANCH  52  66
BRANCH  53  72
ATOM     72  C   UNL A   1      42.237  23.377  27.591  1.00  0.00    -0.014 A 
ATOM     73  C   UNL A   1      42.572  23.210  26.239  1.00  0.00     0.009 A 
ATOM     74  C   UNL A   1      41.686  22.287  28.285  1.00  0.00     0.009 A 
ATOM     75  C   UNL A   1      42.331  21.994  25.590  1.00  0.00     0.001 A 
ATOM     76  C   UNL A   1      41.471  21.065  27.643  1.00  0.00     0.001 A 
ATOM     77  C   UNL A   1      41.783  20.922  26.293  1.00  0.00     0.000 A 
ENDBRANCH  53  72
BRANCH  65  78
ATOM     78  C   UNL A   1      47.587  26.405  30.873  1.00  0.00    -0.014 A 
ATOM     79  C   UNL A   1      47.914  25.795  32.093  1.00  0.00     0.009 A 
ATOM     80  C   UNL A   1      48.582  26.537  29.890  1.00  0.00     0.009 A 
ATOM     81  C   UNL A   1      49.216  25.349  32.333  1.00  0.00     0.001 A 
ATOM     82  C   UNL A   1      49.873  26.063  30.119  1.00  0.00     0.001 A 
ATOM     83  C   UNL A   1      50.191  25.476  31.343  1.00  0.00     0.000 A 
ENDBRANCH  65  78
ENDBRANCH  39  40
ENDBRANCH  32  34
ENDBRANCH  31  32
ENDBRANCH  30  31
ENDBRANCH   1  30
TORSDOF 17
ENDMDL
MODEL 2
REMARK VINA RESULT:     -11.3      2.627      3.477
REMARK SMILES COc1cccc(C(=O)/C=C(/Nc2cc(C)c(C)cc2[N+](=O)[O-])C(=O)OCCOC(=O)c2ccc(-c3c4nc(c(-c5ccccc5)c5ccc([nH]5)c(-c5ccccc5)c5nc(c(-c6ccccc6)c6ccc3[nH]6)C=C5)C=C4)cc2)c1
REMARK SMILES IDX 27 1 26 2 24 3 25 4 11 5 10 6 8 7 9 8 7 9 3 10 4 11 80 12
REMARK SMILES IDX 5 13 6 14 2 15 1 16 12 17 13 19 14 20 20 21 15 22 19 23
REMARK SMILES IDX 16 24 17 25 18 26 21 27 22 28 23 29 28 30 29 31 30 32 31 33
REMARK SMILES IDX 32 34 33 35 79 36 34 37 78 38 35 39 36 40 37 41 72 42 38 43
REMARK SMILES IDX 77 44 71 45 73 46 39 47 76 48 70 49 69 50 40 52 62 53 47 54
REMARK SMILES IDX 61 55 48 56 51 57 60 58 74 59 49 60 50 61 59 63 75 64 52 65
REMARK SMILES IDX 41 66 42 67 46 68 43 69 45 70 44 71 63 72 64 73 68 74 65 75
REMARK SMILES IDX 67 76 66 77 53 78 54 79 58 80 55 81 57 82 56 83
REMARK H PARENT 12 18 73 51 51 62
REMARK Flexibility Score: inf
ROOT
ATOM      1  C   UNL A   1      31.797  28.844  27.335  1.00  0.00     0.275 C 
ENDROOT
BRANCH   1   2
ATOM      2  O   UNL A   1      32.316  27.844  26.462  1.00  0.00    -0.457 OA
BRANCH   2   3
ATOM      3  C   UNL A   1      31.498  26.792  26.200  1.00  0.00     0.355 C 
ATOM      4  O   UNL A   1      30.589  26.354  26.872  1.00  0.00    -0.244 OA
BRANCH   3   5
ATOM      5  C   UNL A   1      31.972  26.206  24.927  1.00  0.00     0.129 C 
ATOM      6  C   UNL A   1      31.937  26.977  23.828  1.00  0.00     0.086 C 
BRANCH   6   7
ATOM      7  C   UNL A   1      31.453  28.335  23.374  1.00  0.00     0.188 C 
ATOM      8  O   UNL A   1      32.368  29.041  22.919  1.00  0.00    -0.289 OA
BRANCH   7   9
ATOM      9  C   UNL A   1      30.082  28.975  23.383  1.00  0.00     0.026 A 
ATOM     10  C   UNL A   1      28.424  30.785  23.264  1.00  0.00     0.119 A 
ATOM     11  C   UNL A   1      27.384  29.887  23.105  1.00  0.00     0.046 A 
ATOM     12  C   UNL A   1      29.748  30.328  23.368  1.00  0.00     0.058 A 
ATOM     13  C   UNL A   1      27.667  28.531  23.115  1.00  0.00     0.005 A 
ATOM     14  C   UNL A   1      28.989  28.091  23.279  1.00  0.00     0.012 A 
BRANCH  10  15
ATOM     15  O   UNL A   1      28.114  32.116  23.155  1.00  0.00    -0.497 OA
ATOM     16  C   UNL A   1      28.419  32.672  21.876  1.00  0.00     0.278 C 
ENDBRANCH  10  15
ENDBRANCH   7   9
ENDBRANCH   6   7
BRANCH   5  17
ATOM     17  N   UNL A   1      32.458  24.891  25.033  1.00  0.00    -0.344 N 
ATOM     18  H   UNL A   1      31.894  24.201  25.453  1.00  0.00     0.167 HD
BRANCH  17  19
ATOM     19  C   UNL A   1      33.748  24.534  24.550  1.00  0.00     0.118 A 
ATOM     20  C   UNL A   1      34.849  24.600  25.422  1.00  0.00     0.037 A 
ATOM     21  C   UNL A   1      33.924  23.808  23.352  1.00  0.00     0.292 A 
ATOM     22  C   UNL A   1      36.022  23.843  25.187  1.00  0.00    -0.046 A 
ATOM     23  C   UNL A   1      35.029  22.969  23.164  1.00  0.00     0.091 A 
ATOM     24  C   UNL A   1      37.190  24.007  26.124  1.00  0.00     0.045 C 
ATOM     25  C   UNL A   1      36.052  22.925  24.118  1.00  0.00    -0.041 A 
ATOM     26  C   UNL A   1      37.151  21.915  23.938  1.00  0.00     0.045 C 
BRANCH  21  27
ATOM     27  N   UNL A   1      32.943  23.911  22.265  1.00  0.00     0.064 N 
ATOM     28  O   UNL A   1      33.263  24.562  21.258  1.00  0.00    -0.258 OA
ATOM     29  O   UNL A   1      31.827  23.399  22.442  1.00  0.00    -0.258 OA
ENDBRANCH  21  27
ENDBRANCH  17  19
ENDBRANCH   5  17
ENDBRANCH   3   5
ENDBRANCH   2   3
ENDBRANCH   1   2
BRANCH   1  30
ATOM     30  C   UNL A   1      31.806  30.213  26.643  1.00  0.00     0.275 C 
BRANCH  30  31
ATOM     31  O   UNL A   1      33.133  30.707  26.347  1.00  0.00    -0.458 OA
BRANCH  31  32
ATOM     32  C   UNL A   1      33.639  31.600  27.237  1.00  0.00     0.338 C 
ATOM     33  O   UNL A   1      33.069  32.601  27.647  1.00  0.00    -0.246 OA
BRANCH  32  34
ATOM     34  C   UNL A   1      34.964  31.176  27.767  1.00  0.00     0.060 A 
ATOM     35  C   UNL A   1      35.148  29.809  28.021  1.00  0.00     0.016 A 
ATOM     36  C   UNL A   1      36.002  32.068  28.055  1.00  0.00     0.016 A 
ATOM     37  C   UNL A   1      36.349  29.333  28.556  1.00  0.00     0.010 A 
ATOM     38  C   UNL A   1      37.203  31.592  28.616  1.00  0.00     0.010 A 
ATOM     39  C   UNL A   1      37.379  30.222  28.886  1.00  0.00    -0.014 A 
BRANCH  39  40
ATOM     40  C   UNL A   1      38.544  29.726  29.671  1.00  0.00     0.031 A 
ATOM     41  C   UNL A   1      38.729  30.237  31.073  1.00  0.00     0.074 A 
ATOM     42  C   UNL A   1      39.389  28.790  29.198  1.00  0.00     0.049 A 
ATOM     43  N   UNL A   1      39.624  29.903  31.967  1.00  0.00    -0.248 NA
ATOM     44  C   UNL A   1      37.747  31.228  31.542  1.00  0.00     0.031 C 
ATOM     45  C   UNL A   1      39.247  28.103  27.922  1.00  0.00     0.029 A 
ATOM     46  N   UNL A   1      40.532  28.246  29.739  1.00  0.00    -0.354 N 
ATOM     47  C   UNL A   1      39.292  30.612  33.112  1.00  0.00     0.074 A 
ATOM     48  C   UNL A   1      38.142  31.428  32.789  1.00  0.00     0.031 C 
ATOM     49  C   UNL A   1      40.289  27.274  27.741  1.00  0.00     0.029 A 
ATOM     50  C   UNL A   1      41.171  27.360  28.901  1.00  0.00     0.049 A 
ATOM     51  H   UNL A   1      40.860  28.469  30.639  1.00  0.00     0.167 HD
ATOM     52  C   UNL A   1      39.884  30.580  34.329  1.00  0.00     0.031 A 
ATOM     53  C   UNL A   1      42.334  26.693  29.053  1.00  0.00     0.031 A 
ATOM     54  C   UNL A   1      41.063  29.817  34.635  1.00  0.00     0.049 A 
ATOM     55  C   UNL A   1      43.075  26.812  30.360  1.00  0.00     0.074 A 
ATOM     56  C   UNL A   1      41.757  29.743  35.830  1.00  0.00     0.029 A 
ATOM     57  N   UNL A   1      41.737  29.012  33.728  1.00  0.00    -0.354 N 
ATOM     58  N   UNL A   1      42.728  27.459  31.447  1.00  0.00    -0.248 NA
ATOM     59  C   UNL A   1      44.348  26.085  30.474  1.00  0.00     0.031 C 
ATOM     60  C   UNL A   1      42.894  28.953  35.624  1.00  0.00     0.029 A 
ATOM     61  C   UNL A   1      42.869  28.479  34.323  1.00  0.00     0.049 A 
ATOM     62  H   UNL A   1      41.454  28.845  32.801  1.00  0.00     0.167 HD
ATOM     63  C   UNL A   1      43.714  27.182  32.385  1.00  0.00     0.074 A 
ATOM     64  C   UNL A   1      44.670  26.303  31.741  1.00  0.00     0.031 C 
ATOM     65  C   UNL A   1      43.813  27.608  33.668  1.00  0.00     0.031 A 
BRANCH  52  66
ATOM     66  C   UNL A   1      39.289  31.454  35.396  1.00  0.00    -0.014 A 
ATOM     67  C   UNL A   1      39.687  32.792  35.552  1.00  0.00     0.009 A 
ATOM     68  C   UNL A   1      38.322  30.926  36.266  1.00  0.00     0.009 A 
ATOM     69  C   UNL A   1      39.158  33.569  36.586  1.00  0.00     0.001 A 
ATOM     70  C   UNL A   1      37.776  31.713  37.280  1.00  0.00     0.001 A 
ATOM     71  C   UNL A   1      38.203  33.029  37.448  1.00  0.00     0.000 A 
ENDBRANCH  52  66
BRANCH  53  72
ATOM     72  C   UNL A   1      42.882  25.860  27.947  1.00  0.00    -0.014 A 
ATOM     73  C   UNL A   1      43.695  26.419  26.949  1.00  0.00     0.009 A 
ATOM     74  C   UNL A   1      42.550  24.498  27.856  1.00  0.00     0.009 A 
ATOM     75  C   UNL A   1      44.135  25.643  25.871  1.00  0.00     0.001 A 
ATOM     76  C   UNL A   1      43.011  23.718  26.793  1.00  0.00     0.001 A 
ATOM     77  C   UNL A   1      43.794  24.293  25.794  1.00  0.00     0.000 A 
ENDBRANCH  53  72
BRANCH  65  78
ATOM     78  C   UNL A   1      44.978  27.110  34.475  1.00  0.00    -0.014 A 
ATOM     79  C   UNL A   1      46.167  27.848  34.573  1.00  0.00     0.009 A 
ATOM     80  C   UNL A   1      44.860  25.910  35.196  1.00  0.00     0.009 A 
ATOM     81  C   UNL A   1      47.225  27.381  35.357  1.00  0.00     0.001 A 
ATOM     82  C   UNL A   1      45.905  25.463  36.003  1.00  0.00     0.001 A 
ATOM     83  C   UNL A   1      47.089  26.194  36.077  1.00  0.00     0.000 A 
ENDBRANCH  65  78
ENDBRANCH  39  40
ENDBRANCH  32  34
ENDBRANCH  31  32
ENDBRANCH  30  31
ENDBRANCH   1  30
TORSDOF 17
ENDMDL
MODEL 3
REMARK VINA RESULT:     -11.2      2.054      6.477
REMARK SMILES COc1cccc(C(=O)/C=C(/Nc2cc(C)c(C)cc2[N+](=O)[O-])C(=O)OCCOC(=O)c2ccc(-c3c4nc(c(-c5ccccc5)c5ccc([nH]5)c(-c5ccccc5)c5nc(c(-c6ccccc6)c6ccc3[nH]6)C=C5)C=C4)cc2)c1
REMARK SMILES IDX 27 1 26 2 24 3 25 4 11 5 10 6 8 7 9 8 7 9 3 10 4 11 80 12
REMARK SMILES IDX 5 13 6 14 2 15 1 16 12 17 13 19 14 20 20 21 15 22 19 23
REMARK SMILES IDX 16 24 17 25 18 26 21 27 22 28 23 29 28 30 29 31 30 32 31 33
REMARK SMILES IDX 32 34 33 35 79 36 34 37 78 38 35 39 36 40 37 41 72 42 38 43
REMARK SMILES IDX 77 44 71 45 73 46 39 47 76 48 70 49 69 50 40 52 62 53 47 54
REMARK SMILES IDX 61 55 48 56 51 57 60 58 74 59 49 60 50 61 59 63 75 64 52 65
REMARK SMILES IDX 41 66 42 67 46 68 43 69 45 70 44 71 63 72 64 73 68 74 65 75
REMARK SMILES IDX 67 76 66 77 53 78 54 79 58 80 55 81 57 82 56 83
REMARK H PARENT 12 18 73 51 51 62
REMARK Flexibility Score: inf
ROOT
ATOM      1  C   UNL A   1      32.249  30.294  26.881  1.00  0.00     0.275 C 
ENDROOT
BRANCH   1   2
ATOM      2  O   UNL A   1      32.911  29.037  26.769  1.00  0.00    -0.457 OA
BRANCH   2   3
ATOM      3  C   UNL A   1      32.112  27.947  26.633  1.00  0.00     0.355 C 
ATOM      4  O   UNL A   1      31.111  27.660  27.255  1.00  0.00    -0.244 OA
BRANCH   3   5
ATOM      5  C   UNL A   1      32.738  27.101  25.595  1.00  0.00     0.129 C 
ATOM      6  C   UNL A   1      32.548  27.439  24.309  1.00  0.00     0.086 C 
BRANCH   6   7
ATOM      7  C   UNL A   1      31.770  28.424  23.467  1.00  0.00     0.188 C 
ATOM      8  O   UNL A   1      32.490  29.041  22.665  1.00  0.00    -0.289 OA
BRANCH   7   9
ATOM      9  C   UNL A   1      30.302  28.788  23.436  1.00  0.00     0.026 A 
ATOM     10  C   UNL A   1      28.328  30.231  23.181  1.00  0.00     0.119 A 
ATOM     11  C   UNL A   1      27.481  29.141  23.108  1.00  0.00     0.046 A 
ATOM     12  C   UNL A   1      29.715  30.047  23.310  1.00  0.00     0.058 A 
ATOM     13  C   UNL A   1      28.018  27.869  23.230  1.00  0.00     0.005 A 
ATOM     14  C   UNL A   1      29.399  27.706  23.418  1.00  0.00     0.012 A 
BRANCH  10  15
ATOM     15  O   UNL A   1      27.771  31.464  22.962  1.00  0.00    -0.497 OA
ATOM     16  C   UNL A   1      28.570  32.317  22.144  1.00  0.00     0.278 C 
ENDBRANCH  10  15
ENDBRANCH   7   9
ENDBRANCH   6   7
BRANCH   5  17
ATOM     17  N   UNL A   1      33.517  26.042  26.094  1.00  0.00    -0.344 N 
ATOM     18  H   UNL A   1      34.026  26.170  26.927  1.00  0.00     0.167 HD
BRANCH  17  19
ATOM     19  C   UNL A   1      33.588  24.789  25.422  1.00  0.00     0.118 A 
ATOM     20  C   UNL A   1      34.695  24.515  24.599  1.00  0.00     0.037 A 
ATOM     21  C   UNL A   1      32.781  23.693  25.795  1.00  0.00     0.292 A 
ATOM     22  C   UNL A   1      35.074  23.185  24.294  1.00  0.00    -0.046 A 
ATOM     23  C   UNL A   1      33.207  22.374  25.596  1.00  0.00     0.091 A 
ATOM     24  C   UNL A   1      36.232  22.960  23.356  1.00  0.00     0.045 C 
ATOM     25  C   UNL A   1      34.397  22.113  24.908  1.00  0.00    -0.041 A 
ATOM     26  C   UNL A   1      34.879  20.690  24.833  1.00  0.00     0.045 C 
BRANCH  21  27
ATOM     27  N   UNL A   1      31.466  23.908  26.411  1.00  0.00     0.064 N 
ATOM     28  O   UNL A   1      30.636  24.581  25.781  1.00  0.00    -0.258 OA
ATOM     29  O   UNL A   1      31.283  23.462  27.554  1.00  0.00    -0.258 OA
ENDBRANCH  21  27
ENDBRANCH  17  19
ENDBRANCH   5  17
ENDBRANCH   3   5
ENDBRANCH   2   3
ENDBRANCH   1   2
BRANCH   1  30
ATOM     30  C   UNL A   1      33.162  31.318  27.569  1.00  0.00     0.275 C 
BRANCH  30  31
ATOM     31  O   UNL A   1      32.876  32.689  27.204  1.00  0.00    -0.458 OA
BRANCH  31  32
ATOM     32  C   UNL A   1      33.197  33.623  28.137  1.00  0.00     0.338 C 
ATOM     33  O   UNL A   1      32.505  34.577  28.460  1.00  0.00    -0.246 OA
BRANCH  32  34
ATOM     34  C   UNL A   1      34.475  33.306  28.832  1.00  0.00     0.060 A 
ATOM     35  C   UNL A   1      35.662  33.473  28.104  1.00  0.00     0.016 A 
ATOM     36  C   UNL A   1      34.542  32.821  30.142  1.00  0.00     0.016 A 
ATOM     37  C   UNL A   1      36.902  33.159  28.670  1.00  0.00     0.010 A 
ATOM     38  C   UNL A   1      35.788  32.483  30.704  1.00  0.00     0.010 A 
ATOM     39  C   UNL A   1      36.977  32.635  29.966  1.00  0.00    -0.014 A 
BRANCH  39  40
ATOM     40  C   UNL A   1      38.273  32.086  30.455  1.00  0.00     0.031 A 
ATOM     41  C   UNL A   1      38.724  30.749  29.936  1.00  0.00     0.074 A 
ATOM     42  C   UNL A   1      39.082  32.774  31.284  1.00  0.00     0.049 A 
ATOM     43  N   UNL A   1      39.839  30.103  30.164  1.00  0.00    -0.248 NA
ATOM     44  C   UNL A   1      37.812  30.069  29.002  1.00  0.00     0.031 C 
ATOM     45  C   UNL A   1      38.844  34.134  31.748  1.00  0.00     0.029 A 
ATOM     46  N   UNL A   1      40.274  32.429  31.878  1.00  0.00    -0.354 N 
ATOM     47  C   UNL A   1      39.778  28.963  29.376  1.00  0.00     0.074 A 
ATOM     48  C   UNL A   1      38.500  28.981  28.698  1.00  0.00     0.031 C 
ATOM     49  C   UNL A   1      39.817  34.493  32.601  1.00  0.00     0.029 A 
ATOM     50  C   UNL A   1      40.762  33.389  32.735  1.00  0.00     0.049 A 
ATOM     51  H   UNL A   1      40.734  31.576  31.705  1.00  0.00     0.167 HD
ATOM     52  C   UNL A   1      40.707  27.991  29.221  1.00  0.00     0.031 A 
ATOM     53  C   UNL A   1      41.849  33.379  33.535  1.00  0.00     0.031 A 
ATOM     54  C   UNL A   1      41.951  27.939  29.939  1.00  0.00     0.049 A 
ATOM     55  C   UNL A   1      42.784  32.199  33.477  1.00  0.00     0.074 A 
ATOM     56  C   UNL A   1      42.945  26.978  29.876  1.00  0.00     0.029 A 
ATOM     57  N   UNL A   1      42.360  28.879  30.874  1.00  0.00    -0.354 N 
ATOM     58  N   UNL A   1      42.731  31.144  32.700  1.00  0.00    -0.248 NA
ATOM     59  C   UNL A   1      43.943  32.221  34.382  1.00  0.00     0.031 C 
ATOM     60  C   UNL A   1      43.920  27.299  30.827  1.00  0.00     0.029 A 
ATOM     61  C   UNL A   1      43.568  28.494  31.431  1.00  0.00     0.049 A 
ATOM     62  H   UNL A   1      41.866  29.698  31.106  1.00  0.00     0.167 HD
ATOM     63  C   UNL A   1      43.868  30.401  32.989  1.00  0.00     0.074 A 
ATOM     64  C   UNL A   1      44.596  31.129  34.009  1.00  0.00     0.031 C 
ATOM     65  C   UNL A   1      44.279  29.228  32.449  1.00  0.00     0.031 A 
BRANCH  52  66
ATOM     66  C   UNL A   1      40.368  26.872  28.277  1.00  0.00    -0.014 A 
ATOM     67  C   UNL A   1      39.639  25.750  28.704  1.00  0.00     0.009 A 
ATOM     68  C   UNL A   1      40.795  26.939  26.942  1.00  0.00     0.009 A 
ATOM     69  C   UNL A   1      39.382  24.698  27.821  1.00  0.00     0.001 A 
ATOM     70  C   UNL A   1      40.512  25.898  26.056  1.00  0.00     0.001 A 
ATOM     71  C   UNL A   1      39.818  24.774  26.499  1.00  0.00     0.000 A 
ENDBRANCH  52  66
BRANCH  53  72
ATOM     72  C   UNL A   1      42.117  34.510  34.466  1.00  0.00    -0.014 A 
ATOM     73  C   UNL A   1      42.904  35.604  34.075  1.00  0.00     0.009 A 
ATOM     74  C   UNL A   1      41.624  34.475  35.781  1.00  0.00     0.009 A 
ATOM     75  C   UNL A   1      43.217  36.619  34.987  1.00  0.00     0.001 A 
ATOM     76  C   UNL A   1      41.915  35.502  36.682  1.00  0.00     0.001 A 
ATOM     77  C   UNL A   1      42.721  36.568  36.288  1.00  0.00     0.000 A 
ENDBRANCH  53  72
BRANCH  65  78
ATOM     78  C   UNL A   1      45.589  28.667  32.926  1.00  0.00    -0.014 A 
ATOM     79  C   UNL A   1      45.650  27.771  34.004  1.00  0.00     0.009 A 
ATOM     80  C   UNL A   1      46.773  28.996  32.247  1.00  0.00     0.009 A 
ATOM     81  C   UNL A   1      46.875  27.236  34.409  1.00  0.00     0.001 A 
ATOM     82  C   UNL A   1      47.991  28.436  32.633  1.00  0.00     0.001 A 
ATOM     83  C   UNL A   1      48.041  27.563  33.718  1.00  0.00     0.000 A 
ENDBRANCH  65  78
ENDBRANCH  39  40
ENDBRANCH  32  34
ENDBRANCH  31  32
ENDBRANCH  30  31
ENDBRANCH   1  30
TORSDOF 17
ENDMDL
