MODEL 1
REMARK VINA RESULT:      -9.9      0.000      0.000
REMARK SMILES CC(C)C[C@@H](C[NH3+])C(=O)N1CCC(CC(=O)OCCOC(=O)c2ccc(-c3c4nc(c(-c5ccccc5)c5ccc([nH]5)c(-c5ccccc5)c5nc(c(-c6ccccc6)c6ccc3[nH]6)C=C5)C=C4)cc2)CC1
REMARK SMILES IDX 18 1 17 2 15 3 16 4 14 5 13 6 8 7 9 8 10 9 11 10 72 11 12 12
REMARK SMILES IDX 71 13 5 14 4 15 2 16 1 17 3 18 6 19 7 20 19 24 20 25 21 26
REMARK SMILES IDX 22 27 23 28 24 29 70 30 25 31 69 32 26 33 27 34 28 35 63 36
REMARK SMILES IDX 29 37 68 38 62 39 64 40 30 41 67 42 61 43 60 44 31 46 53 47
REMARK SMILES IDX 38 48 52 49 39 50 42 51 51 52 65 53 40 54 41 55 50 57 66 58
REMARK SMILES IDX 43 59 32 60 33 61 37 62 34 63 36 64 35 65 54 66 55 67 59 68
REMARK SMILES IDX 56 69 58 70 57 71 44 72 45 73 49 74 46 75 48 76 47 77
REMARK H PARENT 7 21 7 22 7 23 64 45 42 56
REMARK Flexibility Score: inf
ROOT
ATOM      1  C   UNL A   1      42.903  20.648  26.075  1.00  0.00     0.274 C 
ENDROOT
BRANCH   1   2
ATOM      2  O   UNL A   1      41.528  20.645  25.651  1.00  0.00    -0.462 OA
BRANCH   2   3
ATOM      3  C   UNL A   1      40.605  21.126  26.519  1.00  0.00     0.306 C 
ATOM      4  O   UNL A   1      40.438  20.716  27.660  1.00  0.00    -0.252 OA
BRANCH   3   5
ATOM      5  C   UNL A   1      39.738  22.206  25.900  1.00  0.00     0.126 C 
BRANCH   5   6
ATOM      6  C   UNL A   1      38.220  22.049  26.108  1.00  0.00     0.003 C 
ATOM      7  C   UNL A   1      34.765  22.893  24.060  1.00  0.00     0.231 C 
ATOM      8  O   UNL A   1      35.045  23.995  23.579  1.00  0.00    -0.274 OA
ATOM      9  N   UNL A   1      35.522  22.352  25.076  1.00  0.00    -0.342 N 
ATOM     10  C   UNL A   1      35.993  23.235  26.124  1.00  0.00     0.120 C 
ATOM     11  C   UNL A   1      36.099  21.018  25.075  1.00  0.00     0.120 C 
ATOM     12  C   UNL A   1      37.499  23.409  26.051  1.00  0.00     0.026 C 
ATOM     13  C   UNL A   1      37.632  21.096  25.042  1.00  0.00     0.026 C 
BRANCH   7  14
ATOM     14  C   UNL A   1      33.421  22.239  23.712  1.00  0.00     0.133 C 
BRANCH  14  15
ATOM     15  C   UNL A   1      32.610  21.657  24.877  1.00  0.00     0.022 C 
BRANCH  15  16
ATOM     16  C   UNL A   1      32.199  20.177  24.702  1.00  0.00    -0.016 C 
ATOM     17  C   UNL A   1      32.502  19.629  23.306  1.00  0.00     0.007 C 
ATOM     18  C   UNL A   1      32.903  19.315  25.753  1.00  0.00     0.007 C 
ENDBRANCH  15  16
ENDBRANCH  14  15
BRANCH  14  19
ATOM     19  C   UNL A   1      32.635  23.149  22.746  1.00  0.00     0.272 C 
BRANCH  19  20
ATOM     20  N   UNL A   1      32.925  22.953  21.326  1.00  0.00    -0.357 N 
ATOM     21  H   UNL A   1      33.185  21.981  21.162  1.00  0.00     0.344 HD
ATOM     22  H   UNL A   1      33.695  23.562  21.048  1.00  0.00     0.344 HD
ATOM     23  H   UNL A   1      32.097  23.181  20.775  1.00  0.00     0.344 HD
ENDBRANCH  19  20
ENDBRANCH  14  19
ENDBRANCH   7  14
ENDBRANCH   5   6
ENDBRANCH   3   5
ENDBRANCH   2   3
ENDBRANCH   1   2
BRANCH   1  24
ATOM     24  C   UNL A   1      43.763  21.525  25.161  1.00  0.00     0.275 C 
BRANCH  24  25
ATOM     25  O   UNL A   1      43.093  22.761  24.854  1.00  0.00    -0.458 OA
BRANCH  25  26
ATOM     26  C   UNL A   1      43.847  23.877  24.979  1.00  0.00     0.338 C 
ATOM     27  O   UNL A   1      44.783  24.224  24.282  1.00  0.00    -0.246 OA
BRANCH  26  28
ATOM     28  C   UNL A   1      43.279  24.723  26.040  1.00  0.00     0.060 A 
ATOM     29  C   UNL A   1      43.673  26.062  26.103  1.00  0.00     0.016 A 
ATOM     30  C   UNL A   1      42.405  24.193  26.991  1.00  0.00     0.016 A 
ATOM     31  C   UNL A   1      43.189  26.884  27.117  1.00  0.00     0.010 A 
ATOM     32  C   UNL A   1      41.923  25.018  28.012  1.00  0.00     0.010 A 
ATOM     33  C   UNL A   1      42.318  26.364  28.085  1.00  0.00    -0.014 A 
BRANCH  33  34
ATOM     34  C   UNL A   1      41.856  27.225  29.199  1.00  0.00     0.031 A 
ATOM     35  C   UNL A   1      42.596  27.222  30.504  1.00  0.00     0.074 A 
ATOM     36  C   UNL A   1      40.783  28.022  29.031  1.00  0.00     0.049 A 
ATOM     37  N   UNL A   1      42.328  27.873  31.608  1.00  0.00    -0.248 NA
ATOM     38  C   UNL A   1      43.798  26.377  30.578  1.00  0.00     0.031 C 
ATOM     39  C   UNL A   1      40.004  28.145  27.799  1.00  0.00     0.029 A 
ATOM     40  N   UNL A   1      40.168  28.881  29.907  1.00  0.00    -0.354 N 
ATOM     41  C   UNL A   1      43.318  27.509  32.509  1.00  0.00     0.074 A 
ATOM     42  C   UNL A   1      44.182  26.565  31.832  1.00  0.00     0.031 C 
ATOM     43  C   UNL A   1      39.015  29.032  27.997  1.00  0.00     0.029 A 
ATOM     44  C   UNL A   1      39.070  29.509  29.375  1.00  0.00     0.049 A 
ATOM     45  H   UNL A   1      40.484  29.030  30.828  1.00  0.00     0.167 HD
ATOM     46  C   UNL A   1      43.494  27.925  33.786  1.00  0.00     0.031 A 
ATOM     47  C   UNL A   1      38.195  30.361  29.943  1.00  0.00     0.031 A 
ATOM     48  C   UNL A   1      42.633  28.857  34.465  1.00  0.00     0.049 A 
ATOM     49  C   UNL A   1      38.374  30.753  31.384  1.00  0.00     0.074 A 
ATOM     50  C   UNL A   1      42.736  29.343  35.757  1.00  0.00     0.029 A 
ATOM     51  N   UNL A   1      41.507  29.440  33.905  1.00  0.00    -0.354 N 
ATOM     52  N   UNL A   1      39.320  30.408  32.222  1.00  0.00    -0.248 NA
ATOM     53  C   UNL A   1      37.361  31.654  31.954  1.00  0.00     0.031 C 
ATOM     54  C   UNL A   1      41.647  30.190  35.994  1.00  0.00     0.029 A 
ATOM     55  C   UNL A   1      40.894  30.265  34.833  1.00  0.00     0.049 A 
ATOM     56  H   UNL A   1      41.191  29.291  32.986  1.00  0.00     0.167 HD
ATOM     57  C   UNL A   1      39.029  31.064  33.412  1.00  0.00     0.074 A 
ATOM     58  C   UNL A   1      37.827  31.840  33.182  1.00  0.00     0.031 C 
ATOM     59  C   UNL A   1      39.698  31.027  34.589  1.00  0.00     0.031 A 
BRANCH  46  60
ATOM     60  C   UNL A   1      44.652  27.346  34.545  1.00  0.00    -0.014 A 
ATOM     61  C   UNL A   1      44.520  26.155  35.276  1.00  0.00     0.009 A 
ATOM     62  C   UNL A   1      45.902  27.984  34.501  1.00  0.00     0.009 A 
ATOM     63  C   UNL A   1      45.611  25.630  35.973  1.00  0.00     0.001 A 
ATOM     64  C   UNL A   1      46.996  27.444  35.180  1.00  0.00     0.001 A 
ATOM     65  C   UNL A   1      46.848  26.272  35.921  1.00  0.00     0.000 A 
ENDBRANCH  46  60
BRANCH  47  66
ATOM     66  C   UNL A   1      37.052  30.887  29.155  1.00  0.00    -0.014 A 
ATOM     67  C   UNL A   1      35.989  30.047  28.789  1.00  0.00     0.009 A 
ATOM     68  C   UNL A   1      37.026  32.232  28.751  1.00  0.00     0.009 A 
ATOM     69  C   UNL A   1      34.934  30.538  28.017  1.00  0.00     0.001 A 
ATOM     70  C   UNL A   1      35.957  32.726  28.001  1.00  0.00     0.001 A 
ATOM     71  C   UNL A   1      34.916  31.876  27.628  1.00  0.00     0.000 A 
ENDBRANCH  47  66
BRANCH  59  72
ATOM     72  C   UNL A   1      39.160  31.872  35.708  1.00  0.00    -0.014 A 
ATOM     73  C   UNL A   1      39.618  33.181  35.914  1.00  0.00     0.009 A 
ATOM     74  C   UNL A   1      38.156  31.360  36.545  1.00  0.00     0.009 A 
ATOM     75  C   UNL A   1      39.102  33.954  36.956  1.00  0.00     0.001 A 
ATOM     76  C   UNL A   1      37.626  32.142  37.572  1.00  0.00     0.001 A 
ATOM     77  C   UNL A   1      38.105  33.435  37.783  1.00  0.00     0.000 A 
ENDBRANCH  59  72
ENDBRANCH  33  34
ENDBRANCH  26  28
ENDBRANCH  25  26
ENDBRANCH  24  25
ENDBRANCH   1  24
TORSDOF 17
ENDMDL
MODEL 2
REMARK VINA RESULT:      -9.7      4.440      6.655
REMARK SMILES CC(C)C[C@@H](C[NH3+])C(=O)N1CCC(CC(=O)OCCOC(=O)c2ccc(-c3c4nc(c(-c5ccccc5)c5ccc([nH]5)c(-c5ccccc5)c5nc(c(-c6ccccc6)c6ccc3[nH]6)C=C5)C=C4)cc2)CC1
REMARK SMILES IDX 18 1 17 2 15 3 16 4 14 5 13 6 8 7 9 8 10 9 11 10 72 11 12 12
REMARK SMILES IDX 71 13 5 14 4 15 2 16 1 17 3 18 6 19 7 20 19 24 20 25 21 26
REMARK SMILES IDX 22 27 23 28 24 29 70 30 25 31 69 32 26 33 27 34 28 35 63 36
REMARK SMILES IDX 29 37 68 38 62 39 64 40 30 41 67 42 61 43 60 44 31 46 53 47
REMARK SMILES IDX 38 48 52 49 39 50 42 51 51 52 65 53 40 54 41 55 50 57 66 58
REMARK SMILES IDX 43 59 32 60 33 61 37 62 34 63 36 64 35 65 54 66 55 67 59 68
REMARK SMILES IDX 56 69 58 70 57 71 44 72 45 73 49 74 46 75 48 76 47 77
REMARK H PARENT 7 21 7 22 7 23 64 45 42 56
REMARK Flexibility Score: inf
ROOT
ATOM      1  C   UNL A   1      41.951  19.206  26.577  1.00  0.00     0.274 C 
ENDROOT
BRANCH   1   2
ATOM      2  O   UNL A   1      41.624  20.492  26.018  1.00  0.00    -0.462 OA
BRANCH   2   3
ATOM      3  C   UNL A   1      40.834  21.310  26.754  1.00  0.00     0.306 C 
ATOM      4  O   UNL A   1      40.753  21.292  27.976  1.00  0.00    -0.252 OA
BRANCH   3   5
ATOM      5  C   UNL A   1      39.992  22.230  25.890  1.00  0.00     0.126 C 
BRANCH   5   6
ATOM      6  C   UNL A   1      38.472  22.170  26.127  1.00  0.00     0.003 C 
ATOM      7  C   UNL A   1      35.030  22.589  23.931  1.00  0.00     0.231 C 
ATOM      8  O   UNL A   1      35.337  23.534  23.198  1.00  0.00    -0.274 OA
ATOM      9  N   UNL A   1      35.778  22.289  25.048  1.00  0.00    -0.342 N 
ATOM     10  C   UNL A   1      36.278  23.385  25.853  1.00  0.00     0.120 C 
ATOM     11  C   UNL A   1      36.318  20.979  25.370  1.00  0.00     0.120 C 
ATOM     12  C   UNL A   1      37.787  23.495  25.743  1.00  0.00     0.026 C 
ATOM     13  C   UNL A   1      37.853  21.005  25.322  1.00  0.00     0.026 C 
BRANCH   7  14
ATOM     14  C   UNL A   1      33.667  21.907  23.749  1.00  0.00     0.133 C 
BRANCH  14  15
ATOM     15  C   UNL A   1      32.865  21.609  25.022  1.00  0.00     0.022 C 
BRANCH  15  16
ATOM     16  C   UNL A   1      32.327  22.860  25.753  1.00  0.00    -0.016 C 
ATOM     17  C   UNL A   1      30.800  22.948  25.752  1.00  0.00     0.007 C 
ATOM     18  C   UNL A   1      32.839  22.880  27.195  1.00  0.00     0.007 C 
ENDBRANCH  15  16
ENDBRANCH  14  15
BRANCH  14  19
ATOM     19  C   UNL A   1      32.883  22.607  22.620  1.00  0.00     0.272 C 
BRANCH  19  20
ATOM     20  N   UNL A   1      31.789  21.826  22.042  1.00  0.00    -0.357 N 
ATOM     21  H   UNL A   1      31.839  21.871  21.024  1.00  0.00     0.344 HD
ATOM     22  H   UNL A   1      30.896  22.207  22.355  1.00  0.00     0.344 HD
ATOM     23  H   UNL A   1      31.868  20.854  22.343  1.00  0.00     0.344 HD
ENDBRANCH  19  20
ENDBRANCH  14  19
ENDBRANCH   7  14
ENDBRANCH   5   6
ENDBRANCH   3   5
ENDBRANCH   2   3
ENDBRANCH   1   2
BRANCH   1  24
ATOM     24  C   UNL A   1      43.035  18.504  25.755  1.00  0.00     0.275 C 
BRANCH  24  25
ATOM     25  O   UNL A   1      43.320  19.236  24.549  1.00  0.00    -0.458 OA
BRANCH  25  26
ATOM     26  C   UNL A   1      44.620  19.562  24.360  1.00  0.00     0.338 C 
ATOM     27  O   UNL A   1      45.492  18.878  23.857  1.00  0.00    -0.246 OA
BRANCH  26  28
ATOM     28  C   UNL A   1      44.822  20.967  24.744  1.00  0.00     0.060 A 
ATOM     29  C   UNL A   1      45.236  21.245  26.049  1.00  0.00     0.016 A 
ATOM     30  C   UNL A   1      44.559  22.003  23.844  1.00  0.00     0.016 A 
ATOM     31  C   UNL A   1      45.398  22.565  26.462  1.00  0.00     0.010 A 
ATOM     32  C   UNL A   1      44.719  23.327  24.262  1.00  0.00     0.010 A 
ATOM     33  C   UNL A   1      45.131  23.616  25.574  1.00  0.00    -0.014 A 
BRANCH  33  34
ATOM     34  C   UNL A   1      45.243  25.018  26.037  1.00  0.00     0.031 A 
ATOM     35  C   UNL A   1      46.568  25.721  25.980  1.00  0.00     0.074 A 
ATOM     36  C   UNL A   1      44.154  25.666  26.491  1.00  0.00     0.049 A 
ATOM     37  N   UNL A   1      46.880  26.930  26.373  1.00  0.00    -0.248 NA
ATOM     38  C   UNL A   1      47.691  24.964  25.404  1.00  0.00     0.031 C 
ATOM     39  C   UNL A   1      42.804  25.106  26.558  1.00  0.00     0.029 A 
ATOM     40  N   UNL A   1      44.016  26.940  26.980  1.00  0.00    -0.354 N 
ATOM     41  C   UNL A   1      48.233  27.076  26.102  1.00  0.00     0.074 A 
ATOM     42  C   UNL A   1      48.689  25.827  25.531  1.00  0.00     0.031 C 
ATOM     43  C   UNL A   1      41.971  26.036  27.057  1.00  0.00     0.029 A 
ATOM     44  C   UNL A   1      42.736  27.238  27.377  1.00  0.00     0.049 A 
ATOM     45  H   UNL A   1      44.763  27.579  27.042  1.00  0.00     0.167 HD
ATOM     46  C   UNL A   1      49.025  28.155  26.309  1.00  0.00     0.031 A 
ATOM     47  C   UNL A   1      42.239  28.351  27.951  1.00  0.00     0.031 A 
ATOM     48  C   UNL A   1      48.578  29.396  26.884  1.00  0.00     0.049 A 
ATOM     49  C   UNL A   1      43.156  29.509  28.233  1.00  0.00     0.074 A 
ATOM     50  C   UNL A   1      49.307  30.548  27.125  1.00  0.00     0.029 A 
ATOM     51  N   UNL A   1      47.283  29.645  27.310  1.00  0.00    -0.354 N 
ATOM     52  N   UNL A   1      44.432  29.637  27.965  1.00  0.00    -0.248 NA
ATOM     53  C   UNL A   1      42.559  30.676  28.899  1.00  0.00     0.031 C 
ATOM     54  C   UNL A   1      48.461  31.481  27.738  1.00  0.00     0.029 A 
ATOM     55  C   UNL A   1      47.197  30.924  27.834  1.00  0.00     0.049 A 
ATOM     56  H   UNL A   1      46.535  29.007  27.250  1.00  0.00     0.167 HD
ATOM     57  C   UNL A   1      44.787  30.904  28.408  1.00  0.00     0.074 A 
ATOM     58  C   UNL A   1      43.588  31.512  28.950  1.00  0.00     0.031 C 
ATOM     59  C   UNL A   1      45.997  31.511  28.371  1.00  0.00     0.031 A 
BRANCH  46  60
ATOM     60  C   UNL A   1      50.474  28.027  25.937  1.00  0.00    -0.014 A 
ATOM     61  C   UNL A   1      51.434  27.624  26.878  1.00  0.00     0.009 A 
ATOM     62  C   UNL A   1      50.879  28.282  24.617  1.00  0.00     0.009 A 
ATOM     63  C   UNL A   1      52.777  27.507  26.511  1.00  0.00     0.001 A 
ATOM     64  C   UNL A   1      52.217  28.141  24.248  1.00  0.00     0.001 A 
ATOM     65  C   UNL A   1      53.166  27.762  25.196  1.00  0.00     0.000 A 
ENDBRANCH  46  60
BRANCH  47  66
ATOM     66  C   UNL A   1      40.803  28.418  28.322  1.00  0.00    -0.014 A 
ATOM     67  C   UNL A   1      39.866  28.993  27.450  1.00  0.00     0.009 A 
ATOM     68  C   UNL A   1      40.364  27.918  29.559  1.00  0.00     0.009 A 
ATOM     69  C   UNL A   1      38.523  29.086  27.819  1.00  0.00     0.001 A 
ATOM     70  C   UNL A   1      39.016  27.990  29.914  1.00  0.00     0.001 A 
ATOM     71  C   UNL A   1      38.098  28.581  29.047  1.00  0.00     0.000 A 
ENDBRANCH  47  66
BRANCH  59  72
ATOM     72  C   UNL A   1      46.077  32.913  28.904  1.00  0.00    -0.014 A 
ATOM     73  C   UNL A   1      45.814  34.018  28.082  1.00  0.00     0.009 A 
ATOM     74  C   UNL A   1      46.386  33.126  30.257  1.00  0.00     0.009 A 
ATOM     75  C   UNL A   1      45.888  35.314  28.596  1.00  0.00     0.001 A 
ATOM     76  C   UNL A   1      46.437  34.421  30.774  1.00  0.00     0.001 A 
ATOM     77  C   UNL A   1      46.196  35.514  29.943  1.00  0.00     0.000 A 
ENDBRANCH  59  72
ENDBRANCH  33  34
ENDBRANCH  26  28
ENDBRANCH  25  26
ENDBRANCH  24  25
ENDBRANCH   1  24
TORSDOF 17
ENDMDL
MODEL 3
REMARK VINA RESULT:      -9.7      3.123      8.461
REMARK SMILES CC(C)C[C@@H](C[NH3+])C(=O)N1CCC(CC(=O)OCCOC(=O)c2ccc(-c3c4nc(c(-c5ccccc5)c5ccc([nH]5)c(-c5ccccc5)c5nc(c(-c6ccccc6)c6ccc3[nH]6)C=C5)C=C4)cc2)CC1
REMARK SMILES IDX 18 1 17 2 15 3 16 4 14 5 13 6 8 7 9 8 10 9 11 10 72 11 12 12
REMARK SMILES IDX 71 13 5 14 4 15 2 16 1 17 3 18 6 19 7 20 19 24 20 25 21 26
REMARK SMILES IDX 22 27 23 28 24 29 70 30 25 31 69 32 26 33 27 34 28 35 63 36
REMARK SMILES IDX 29 37 68 38 62 39 64 40 30 41 67 42 61 43 60 44 31 46 53 47
REMARK SMILES IDX 38 48 52 49 39 50 42 51 51 52 65 53 40 54 41 55 50 57 66 58
REMARK SMILES IDX 43 59 32 60 33 61 37 62 34 63 36 64 35 65 54 66 55 67 59 68
REMARK SMILES IDX 56 69 58 70 57 71 44 72 45 73 49 74 46 75 48 76 47 77
REMARK H PARENT 7 21 7 22 7 23 64 45 42 56
REMARK Flexibility Score: inf
ROOT
ATOM      1  C   UNL A   1      31.909  30.204  25.771  1.00  0.00     0.274 C 
ENDROOT
BRANCH   1   2
ATOM      2  O   UNL A   1      32.798  29.614  24.804  1.00  0.00    -0.462 OA
BRANCH   2   3
ATOM      3  C   UNL A   1      32.280  28.692  23.959  1.00  0.00     0.306 C 
ATOM      4  O   UNL A   1      31.087  28.558  23.716  1.00  0.00    -0.252 OA
BRANCH   3   5
ATOM      5  C   UNL A   1      33.343  27.780  23.378  1.00  0.00     0.126 C 
BRANCH   5   6
ATOM      6  C   UNL A   1      33.288  26.309  23.831  1.00  0.00     0.003 C 
ATOM      7  C   UNL A   1      35.851  23.118  24.133  1.00  0.00     0.231 C 
ATOM      8  O   UNL A   1      36.503  23.247  23.092  1.00  0.00    -0.274 OA
ATOM      9  N   UNL A   1      34.667  23.799  24.313  1.00  0.00    -0.342 N 
ATOM     10  C   UNL A   1      33.765  23.917  23.186  1.00  0.00     0.120 C 
ATOM     11  C   UNL A   1      34.338  24.621  25.466  1.00  0.00     0.120 C 
ATOM     12  C   UNL A   1      33.694  25.352  22.696  1.00  0.00     0.026 C 
ATOM     13  C   UNL A   1      34.206  26.095  25.055  1.00  0.00     0.026 C 
BRANCH   7  14
ATOM     14  C   UNL A   1      36.219  22.001  25.119  1.00  0.00     0.133 C 
BRANCH  14  15
ATOM     15  C   UNL A   1      35.606  20.618  24.861  1.00  0.00     0.022 C 
BRANCH  15  16
ATOM     16  C   UNL A   1      34.068  20.555  25.013  1.00  0.00    -0.016 C 
ATOM     17  C   UNL A   1      33.491  19.169  24.724  1.00  0.00     0.007 C 
ATOM     18  C   UNL A   1      33.667  20.992  26.424  1.00  0.00     0.007 C 
ENDBRANCH  15  16
ENDBRANCH  14  15
BRANCH  14  19
ATOM     19  C   UNL A   1      37.740  22.014  25.375  1.00  0.00     0.272 C 
BRANCH  19  20
ATOM     20  N   UNL A   1      38.324  23.335  25.603  1.00  0.00    -0.357 N 
ATOM     21  H   UNL A   1      37.670  24.055  25.295  1.00  0.00     0.344 HD
ATOM     22  H   UNL A   1      39.193  23.419  25.076  1.00  0.00     0.344 HD
ATOM     23  H   UNL A   1      38.517  23.455  26.598  1.00  0.00     0.344 HD
ENDBRANCH  19  20
ENDBRANCH  14  19
ENDBRANCH   7  14
ENDBRANCH   5   6
ENDBRANCH   3   5
ENDBRANCH   2   3
ENDBRANCH   1   2
BRANCH   1  24
ATOM     24  C   UNL A   1      32.349  29.878  27.200  1.00  0.00     0.275 C 
BRANCH  24  25
ATOM     25  O   UNL A   1      33.770  29.665  27.265  1.00  0.00    -0.458 OA
BRANCH  25  26
ATOM     26  C   UNL A   1      34.476  30.639  27.885  1.00  0.00     0.338 C 
ATOM     27  O   UNL A   1      34.076  31.730  28.248  1.00  0.00    -0.246 OA
BRANCH  26  28
ATOM     28  C   UNL A   1      35.822  30.133  28.194  1.00  0.00     0.060 A 
ATOM     29  C   UNL A   1      36.066  29.636  29.477  1.00  0.00     0.016 A 
ATOM     30  C   UNL A   1      36.846  30.191  27.246  1.00  0.00     0.016 A 
ATOM     31  C   UNL A   1      37.338  29.186  29.820  1.00  0.00     0.010 A 
ATOM     32  C   UNL A   1      38.125  29.743  27.593  1.00  0.00     0.010 A 
ATOM     33  C   UNL A   1      38.379  29.246  28.883  1.00  0.00    -0.014 A 
BRANCH  33  34
ATOM     34  C   UNL A   1      39.745  28.825  29.272  1.00  0.00     0.031 A 
ATOM     35  C   UNL A   1      40.264  27.483  28.848  1.00  0.00     0.074 A 
ATOM     36  C   UNL A   1      40.525  29.656  29.990  1.00  0.00     0.049 A 
ATOM     37  N   UNL A   1      41.413  26.917  29.120  1.00  0.00    -0.248 NA
ATOM     38  C   UNL A   1      39.374  26.668  28.006  1.00  0.00     0.031 C 
ATOM     39  C   UNL A   1      40.151  31.001  30.427  1.00  0.00     0.029 A 
ATOM     40  N   UNL A   1      41.798  29.484  30.474  1.00  0.00    -0.354 N 
ATOM     41  C   UNL A   1      41.381  25.679  28.493  1.00  0.00     0.074 A 
ATOM     42  C   UNL A   1      40.092  25.566  27.844  1.00  0.00     0.031 C 
ATOM     43  C   UNL A   1      41.176  31.535  31.114  1.00  0.00     0.029 A 
ATOM     44  C   UNL A   1      42.258  30.559  31.194  1.00  0.00     0.049 A 
ATOM     45  H   UNL A   1      42.328  28.670  30.320  1.00  0.00     0.167 HD
ATOM     46  C   UNL A   1      42.339  24.723  28.459  1.00  0.00     0.031 A 
ATOM     47  C   UNL A   1      43.416  30.729  31.859  1.00  0.00     0.031 A 
ATOM     48  C   UNL A   1      43.618  24.829  29.109  1.00  0.00     0.049 A 
ATOM     49  C   UNL A   1      44.435  29.623  31.862  1.00  0.00     0.074 A 
ATOM     50  C   UNL A   1      44.657  23.914  29.124  1.00  0.00     0.029 A 
ATOM     51  N   UNL A   1      44.032  25.917  29.863  1.00  0.00    -0.354 N 
ATOM     52  N   UNL A   1      44.395  28.461  31.259  1.00  0.00    -0.248 NA
ATOM     53  C   UNL A   1      45.660  29.857  32.642  1.00  0.00     0.031 C 
ATOM     54  C   UNL A   1      45.684  24.431  29.923  1.00  0.00     0.029 A 
ATOM     55  C   UNL A   1      45.301  25.686  30.366  1.00  0.00     0.049 A 
ATOM     56  H   UNL A   1      43.501  26.731  30.018  1.00  0.00     0.167 HD
ATOM     57  C   UNL A   1      45.595  27.832  31.567  1.00  0.00     0.074 A 
ATOM     58  C   UNL A   1      46.349  28.749  32.399  1.00  0.00     0.031 C 
ATOM     59  C   UNL A   1      46.034  26.606  31.194  1.00  0.00     0.031 A 
BRANCH  46  60
ATOM     60  C   UNL A   1      42.024  23.459  27.713  1.00  0.00    -0.014 A 
ATOM     61  C   UNL A   1      41.305  22.418  28.320  1.00  0.00     0.009 A 
ATOM     62  C   UNL A   1      42.425  23.322  26.375  1.00  0.00     0.009 A 
ATOM     63  C   UNL A   1      41.018  21.250  27.608  1.00  0.00     0.001 A 
ATOM     64  C   UNL A   1      42.116  22.163  25.660  1.00  0.00     0.001 A 
ATOM     65  C   UNL A   1      41.420  21.126  26.279  1.00  0.00     0.000 A 
ENDBRANCH  46  60
BRANCH  47  66
ATOM     66  C   UNL A   1      43.669  31.990  32.600  1.00  0.00    -0.014 A 
ATOM     67  C   UNL A   1      43.272  32.123  33.940  1.00  0.00     0.009 A 
ATOM     68  C   UNL A   1      44.298  33.074  31.966  1.00  0.00     0.009 A 
ATOM     69  C   UNL A   1      43.480  33.324  34.622  1.00  0.00     0.001 A 
ATOM     70  C   UNL A   1      44.527  34.264  32.659  1.00  0.00     0.001 A 
ATOM     71  C   UNL A   1      44.110  34.391  33.983  1.00  0.00     0.000 A 
ENDBRANCH  47  66
BRANCH  59  72
ATOM     72  C   UNL A   1      47.403  26.199  31.660  1.00  0.00    -0.014 A 
ATOM     73  C   UNL A   1      48.544  26.488  30.898  1.00  0.00     0.009 A 
ATOM     74  C   UNL A   1      47.552  25.547  32.894  1.00  0.00     0.009 A 
ATOM     75  C   UNL A   1      49.809  26.106  31.350  1.00  0.00     0.001 A 
ATOM     76  C   UNL A   1      48.819  25.186  33.354  1.00  0.00     0.001 A 
ATOM     77  C   UNL A   1      49.946  25.458  32.578  1.00  0.00     0.000 A 
ENDBRANCH  59  72
ENDBRANCH  33  34
ENDBRANCH  26  28
ENDBRANCH  25  26
ENDBRANCH  24  25
ENDBRANCH   1  24
TORSDOF 17
ENDMDL
