MODEL 1
REMARK VINA RESULT:     -10.8      0.000      0.000
REMARK SMILES CCCCCCNC(=O)Nc1cccc(-c2ccc([C@@H](C)C(=O)OCCOC(=O)c3ccc(-c4c5nc(c(-c6ccccc6)c6ccc([nH]6)c(-c6ccccc6)c6nc(c(-c7ccccc7)c7ccc4[nH]7)C=C6)C=C5)cc3)cc2F)c1
REMARK SMILES IDX 20 1 21 2 19 3 16 4 17 5 79 6 18 7 78 8 80 9 15 10 11 11
REMARK SMILES IDX 12 12 81 13 13 14 14 15 10 16 7 17 8 18 9 20 6 22 5 23 4 24
REMARK SMILES IDX 3 25 2 26 1 27 22 28 23 29 24 30 25 31 26 32 27 33 28 34
REMARK SMILES IDX 29 35 30 36 31 37 77 38 32 39 76 40 33 41 34 42 35 43 70 44
REMARK SMILES IDX 36 45 75 46 69 47 71 48 37 49 74 50 68 51 67 52 38 54 60 55
REMARK SMILES IDX 45 56 59 57 46 58 49 59 58 60 72 61 47 62 48 63 57 65 73 66
REMARK SMILES IDX 50 67 39 68 40 69 44 70 41 71 43 72 42 73 61 74 62 75 66 76
REMARK SMILES IDX 63 77 65 78 64 79 51 80 52 81 56 82 53 83 55 84 54 85
REMARK H PARENT 7 19 10 21 71 53 49 64
REMARK Flexibility Score: inf
ROOT
ATOM      1  C   UNL A   1      35.479  32.907  28.642  1.00  0.00     0.126 C 
ATOM      2  C   UNL A   1      36.982  33.048  28.412  1.00  0.00     0.025 C 
ENDROOT
BRANCH   1   3
ATOM      3  C   UNL A   1      34.915  31.633  28.031  1.00  0.00    -0.031 A 
ATOM      4  C   UNL A   1      33.764  29.235  27.009  1.00  0.00     0.018 A 
ATOM      5  C   UNL A   1      35.120  29.295  27.373  1.00  0.00     0.012 A 
ATOM      6  C   UNL A   1      33.010  30.405  27.144  1.00  0.00     0.131 A 
ATOM      7  C   UNL A   1      35.687  30.474  27.876  1.00  0.00     0.005 A 
ATOM      8  C   UNL A   1      33.566  31.581  27.650  1.00  0.00     0.044 A 
ATOM      9  F   UNL A   1      31.711  30.416  26.809  1.00  0.00    -0.206 F 
BRANCH   4  10
ATOM     10  C   UNL A   1      33.182  27.992  26.486  1.00  0.00    -0.013 A 
ATOM     11  C   UNL A   1      33.281  26.115  24.930  1.00  0.00     0.043 A 
ATOM     12  C   UNL A   1      32.167  25.537  25.538  1.00  0.00     0.026 A 
ATOM     13  C   UNL A   1      33.730  27.370  25.354  1.00  0.00     0.035 A 
ATOM     14  C   UNL A   1      31.592  26.152  26.651  1.00  0.00     0.003 A 
ATOM     15  C   UNL A   1      32.111  27.356  27.134  1.00  0.00     0.009 A 
BRANCH  11  16
ATOM     16  N   UNL A   1      33.948  25.383  23.936  1.00  0.00    -0.308 N 
ATOM     17  N   UNL A   1      32.694  25.810  21.973  1.00  0.00    -0.338 N 
ATOM     18  C   UNL A   1      33.550  25.036  22.686  1.00  0.00     0.319 C 
ATOM     19  H   UNL A   1      32.331  25.389  21.160  1.00  0.00     0.165 HD
ATOM     20  O   UNL A   1      34.055  24.055  22.137  1.00  0.00    -0.249 OA
ATOM     21  H   UNL A   1      34.849  25.072  24.186  1.00  0.00     0.171 HD
BRANCH  17  22
ATOM     22  C   UNL A   1      32.227  27.163  22.224  1.00  0.00     0.117 C 
BRANCH  22  23
ATOM     23  C   UNL A   1      30.718  27.274  22.418  1.00  0.00     0.021 C 
BRANCH  23  24
ATOM     24  C   UNL A   1      30.263  27.943  23.716  1.00  0.00     0.002 C 
BRANCH  24  25
ATOM     25  C   UNL A   1      30.391  29.469  23.773  1.00  0.00    -0.000 C 
BRANCH  25  26
ATOM     26  C   UNL A   1      29.233  30.268  23.169  1.00  0.00    -0.003 C 
ATOM     27  C   UNL A   1      28.971  31.593  23.864  1.00  0.00     0.004 C 
ENDBRANCH  25  26
ENDBRANCH  24  25
ENDBRANCH  23  24
ENDBRANCH  22  23
ENDBRANCH  17  22
ENDBRANCH  11  16
ENDBRANCH   4  10
ENDBRANCH   1   3
BRANCH   1  28
ATOM     28  C   UNL A   1      34.779  34.210  28.279  1.00  0.00     0.313 C 
ATOM     29  O   UNL A   1      34.794  34.650  27.132  1.00  0.00    -0.252 OA
BRANCH  28  30
ATOM     30  O   UNL A   1      34.109  34.790  29.309  1.00  0.00    -0.462 OA
BRANCH  30  31
ATOM     31  C   UNL A   1      33.452  36.038  29.015  1.00  0.00     0.274 C 
BRANCH  31  32
ATOM     32  C   UNL A   1      32.559  36.510  30.165  1.00  0.00     0.275 C 
BRANCH  32  33
ATOM     33  O   UNL A   1      32.410  35.503  31.179  1.00  0.00    -0.458 OA
BRANCH  33  34
ATOM     34  C   UNL A   1      32.786  35.884  32.422  1.00  0.00     0.338 C 
ATOM     35  O   UNL A   1      32.240  36.688  33.155  1.00  0.00    -0.246 OA
BRANCH  34  36
ATOM     36  C   UNL A   1      33.955  35.094  32.822  1.00  0.00     0.060 A 
ATOM     37  C   UNL A   1      35.226  35.644  32.642  1.00  0.00     0.016 A 
ATOM     38  C   UNL A   1      33.799  33.797  33.309  1.00  0.00     0.016 A 
ATOM     39  C   UNL A   1      36.357  34.890  32.936  1.00  0.00     0.010 A 
ATOM     40  C   UNL A   1      34.936  33.046  33.621  1.00  0.00     0.010 A 
ATOM     41  C   UNL A   1      36.220  33.585  33.425  1.00  0.00    -0.014 A 
BRANCH  41  42
ATOM     42  C   UNL A   1      37.423  32.771  33.709  1.00  0.00     0.031 A 
ATOM     43  C   UNL A   1      38.204  33.001  34.970  1.00  0.00     0.074 A 
ATOM     44  C   UNL A   1      37.816  31.832  32.829  1.00  0.00     0.049 A 
ATOM     45  N   UNL A   1      39.331  32.457  35.353  1.00  0.00    -0.248 NA
ATOM     46  C   UNL A   1      37.646  33.976  35.919  1.00  0.00     0.031 C 
ATOM     47  C   UNL A   1      37.122  31.495  31.585  1.00  0.00     0.029 A 
ATOM     48  N   UNL A   1      38.902  30.995  32.846  1.00  0.00    -0.354 N 
ATOM     49  C   UNL A   1      39.631  33.043  36.577  1.00  0.00     0.074 A 
ATOM     50  C   UNL A   1      38.576  33.991  36.863  1.00  0.00     0.031 C 
ATOM     51  C   UNL A   1      37.803  30.525  30.955  1.00  0.00     0.029 A 
ATOM     52  C   UNL A   1      39.000  30.205  31.727  1.00  0.00     0.049 A 
ATOM     53  H   UNL A   1      39.549  30.965  33.588  1.00  0.00     0.167 HD
ATOM     54  C   UNL A   1      40.692  32.809  37.385  1.00  0.00     0.031 A 
ATOM     55  C   UNL A   1      39.961  29.341  31.353  1.00  0.00     0.031 A 
ATOM     56  C   UNL A   1      41.739  31.864  37.098  1.00  0.00     0.049 A 
ATOM     57  C   UNL A   1      41.151  29.131  32.246  1.00  0.00     0.074 A 
ATOM     58  C   UNL A   1      42.844  31.541  37.866  1.00  0.00     0.029 A 
ATOM     59  N   UNL A   1      41.808  31.092  35.949  1.00  0.00    -0.354 N 
ATOM     60  N   UNL A   1      41.419  29.682  33.405  1.00  0.00    -0.248 NA
ATOM     61  C   UNL A   1      42.169  28.180  31.780  1.00  0.00     0.031 C 
ATOM     62  C   UNL A   1      43.607  30.604  37.159  1.00  0.00     0.029 A 
ATOM     63  C   UNL A   1      42.950  30.310  35.975  1.00  0.00     0.049 A 
ATOM     64  H   UNL A   1      41.144  31.100  35.222  1.00  0.00     0.167 HD
ATOM     65  C   UNL A   1      42.628  29.135  33.814  1.00  0.00     0.074 A 
ATOM     66  C   UNL A   1      43.031  28.197  32.786  1.00  0.00     0.031 C 
ATOM     67  C   UNL A   1      43.339  29.387  34.939  1.00  0.00     0.031 A 
BRANCH  54  68
ATOM     68  C   UNL A   1      40.789  33.627  38.642  1.00  0.00    -0.014 A 
ATOM     69  C   UNL A   1      41.456  34.861  38.661  1.00  0.00     0.009 A 
ATOM     70  C   UNL A   1      40.189  33.159  39.821  1.00  0.00     0.009 A 
ATOM     71  C   UNL A   1      41.552  35.594  39.847  1.00  0.00     0.001 A 
ATOM     72  C   UNL A   1      40.265  33.904  40.999  1.00  0.00     0.001 A 
ATOM     73  C   UNL A   1      40.954  35.115  41.014  1.00  0.00     0.000 A 
ENDBRANCH  54  68
BRANCH  55  74
ATOM     74  C   UNL A   1      39.849  28.634  30.053  1.00  0.00    -0.014 A 
ATOM     75  C   UNL A   1      40.261  29.252  28.863  1.00  0.00     0.009 A 
ATOM     76  C   UNL A   1      39.341  27.326  29.999  1.00  0.00     0.009 A 
ATOM     77  C   UNL A   1      40.150  28.580  27.644  1.00  0.00     0.001 A 
ATOM     78  C   UNL A   1      39.256  26.648  28.782  1.00  0.00     0.001 A 
ATOM     79  C   UNL A   1      39.654  27.278  27.605  1.00  0.00     0.000 A 
ENDBRANCH  55  74
BRANCH  67  80
ATOM     80  C   UNL A   1      44.615  28.617  35.126  1.00  0.00    -0.014 A 
ATOM     81  C   UNL A   1      45.841  29.128  34.677  1.00  0.00     0.009 A 
ATOM     82  C   UNL A   1      44.591  27.383  35.794  1.00  0.00     0.009 A 
ATOM     83  C   UNL A   1      47.019  28.401  34.867  1.00  0.00     0.001 A 
ATOM     84  C   UNL A   1      45.772  26.671  36.004  1.00  0.00     0.001 A 
ATOM     85  C   UNL A   1      46.983  27.176  35.533  1.00  0.00     0.000 A 
ENDBRANCH  67  80
ENDBRANCH  41  42
ENDBRANCH  34  36
ENDBRANCH  33  34
ENDBRANCH  32  33
ENDBRANCH  31  32
ENDBRANCH  30  31
ENDBRANCH  28  30
ENDBRANCH   1  28
TORSDOF 19
ENDMDL
MODEL 2
REMARK VINA RESULT:     -10.7      7.078     12.290
REMARK SMILES CCCCCCNC(=O)Nc1cccc(-c2ccc([C@@H](C)C(=O)OCCOC(=O)c3ccc(-c4c5nc(c(-c6ccccc6)c6ccc([nH]6)c(-c6ccccc6)c6nc(c(-c7ccccc7)c7ccc4[nH]7)C=C6)C=C5)cc3)cc2F)c1
REMARK SMILES IDX 20 1 21 2 19 3 16 4 17 5 79 6 18 7 78 8 80 9 15 10 11 11
REMARK SMILES IDX 12 12 81 13 13 14 14 15 10 16 7 17 8 18 9 20 6 22 5 23 4 24
REMARK SMILES IDX 3 25 2 26 1 27 22 28 23 29 24 30 25 31 26 32 27 33 28 34
REMARK SMILES IDX 29 35 30 36 31 37 77 38 32 39 76 40 33 41 34 42 35 43 70 44
REMARK SMILES IDX 36 45 75 46 69 47 71 48 37 49 74 50 68 51 67 52 38 54 60 55
REMARK SMILES IDX 45 56 59 57 46 58 49 59 58 60 72 61 47 62 48 63 57 65 73 66
REMARK SMILES IDX 50 67 39 68 40 69 44 70 41 71 43 72 42 73 61 74 62 75 66 76
REMARK SMILES IDX 63 77 65 78 64 79 51 80 52 81 56 82 53 83 55 84 54 85
REMARK H PARENT 7 19 10 21 71 53 49 64
REMARK Flexibility Score: inf
ROOT
ATOM      1  C   UNL A   1      40.949  21.421  26.177  1.00  0.00     0.126 C 
ATOM      2  C   UNL A   1      41.933  22.384  26.838  1.00  0.00     0.025 C 
ENDROOT
BRANCH   1   3
ATOM      3  C   UNL A   1      39.540  21.988  26.109  1.00  0.00    -0.031 A 
ATOM      4  C   UNL A   1      36.913  23.055  25.825  1.00  0.00     0.018 A 
ATOM      5  C   UNL A   1      37.924  23.774  26.485  1.00  0.00     0.012 A 
ATOM      6  C   UNL A   1      37.240  21.786  25.336  1.00  0.00     0.131 A 
ATOM      7  C   UNL A   1      39.216  23.250  26.625  1.00  0.00     0.005 A 
ATOM      8  C   UNL A   1      38.527  21.261  25.467  1.00  0.00     0.044 A 
ATOM      9  F   UNL A   1      36.318  21.047  24.701  1.00  0.00    -0.206 F 
BRANCH   4  10
ATOM     10  C   UNL A   1      35.563  23.617  25.683  1.00  0.00    -0.013 A 
ATOM     11  C   UNL A   1      33.922  24.837  24.352  1.00  0.00     0.043 A 
ATOM     12  C   UNL A   1      32.945  24.602  25.320  1.00  0.00     0.026 A 
ATOM     13  C   UNL A   1      35.236  24.414  24.576  1.00  0.00     0.035 A 
ATOM     14  C   UNL A   1      33.256  23.832  26.440  1.00  0.00     0.003 A 
ATOM     15  C   UNL A   1      34.547  23.325  26.608  1.00  0.00     0.009 A 
BRANCH  11  16
ATOM     16  N   UNL A   1      33.532  25.451  23.152  1.00  0.00    -0.308 N 
ATOM     17  N   UNL A   1      32.533  23.699  21.911  1.00  0.00    -0.338 N 
ATOM     18  C   UNL A   1      33.152  24.905  21.970  1.00  0.00     0.319 C 
ATOM     19  H   UNL A   1      32.459  23.313  21.008  1.00  0.00     0.165 HD
ATOM     20  O   UNL A   1      33.270  25.557  20.931  1.00  0.00    -0.249 OA
ATOM     21  H   UNL A   1      33.534  26.436  23.172  1.00  0.00     0.171 HD
BRANCH  17  22
ATOM     22  C   UNL A   1      31.964  22.888  22.975  1.00  0.00     0.117 C 
BRANCH  22  23
ATOM     23  C   UNL A   1      32.727  21.596  23.249  1.00  0.00     0.021 C 
BRANCH  23  24
ATOM     24  C   UNL A   1      32.296  20.822  24.495  1.00  0.00     0.002 C 
BRANCH  24  25
ATOM     25  C   UNL A   1      33.374  19.967  25.168  1.00  0.00    -0.000 C 
BRANCH  25  26
ATOM     26  C   UNL A   1      33.673  18.616  24.513  1.00  0.00    -0.003 C 
ATOM     27  C   UNL A   1      32.551  17.601  24.657  1.00  0.00     0.004 C 
ENDBRANCH  25  26
ENDBRANCH  24  25
ENDBRANCH  23  24
ENDBRANCH  22  23
ENDBRANCH  17  22
ENDBRANCH  11  16
ENDBRANCH   4  10
ENDBRANCH   1   3
BRANCH   1  28
ATOM     28  C   UNL A   1      41.102  20.033  26.785  1.00  0.00     0.313 C 
ATOM     29  O   UNL A   1      40.753  19.794  27.938  1.00  0.00    -0.252 OA
BRANCH  28  30
ATOM     30  O   UNL A   1      41.597  19.101  25.929  1.00  0.00    -0.462 OA
BRANCH  30  31
ATOM     31  C   UNL A   1      42.652  18.265  26.445  1.00  0.00     0.274 C 
BRANCH  31  32
ATOM     32  C   UNL A   1      43.844  18.179  25.488  1.00  0.00     0.275 C 
BRANCH  32  33
ATOM     33  O   UNL A   1      43.817  19.220  24.499  1.00  0.00    -0.458 OA
BRANCH  33  34
ATOM     34  C   UNL A   1      45.022  19.763  24.207  1.00  0.00     0.338 C 
ATOM     35  O   UNL A   1      45.938  19.260  23.583  1.00  0.00    -0.246 OA
BRANCH  34  36
ATOM     36  C   UNL A   1      45.046  21.146  24.698  1.00  0.00     0.060 A 
ATOM     37  C   UNL A   1      44.609  22.163  23.849  1.00  0.00     0.016 A 
ATOM     38  C   UNL A   1      45.558  21.438  25.962  1.00  0.00     0.016 A 
ATOM     39  C   UNL A   1      44.695  23.491  24.253  1.00  0.00     0.010 A 
ATOM     40  C   UNL A   1      45.628  22.771  26.375  1.00  0.00     0.010 A 
ATOM     41  C   UNL A   1      45.208  23.805  25.518  1.00  0.00    -0.014 A 
BRANCH  41  42
ATOM     42  C   UNL A   1      45.328  25.219  25.939  1.00  0.00     0.031 A 
ATOM     43  C   UNL A   1      46.663  25.903  25.897  1.00  0.00     0.074 A 
ATOM     44  C   UNL A   1      44.239  25.883  26.365  1.00  0.00     0.049 A 
ATOM     45  N   UNL A   1      46.990  27.101  26.308  1.00  0.00    -0.248 NA
ATOM     46  C   UNL A   1      47.778  25.133  25.324  1.00  0.00     0.031 C 
ATOM     47  C   UNL A   1      42.882  25.335  26.421  1.00  0.00     0.029 A 
ATOM     48  N   UNL A   1      44.105  27.162  26.840  1.00  0.00    -0.354 N 
ATOM     49  C   UNL A   1      48.353  27.221  26.068  1.00  0.00     0.074 A 
ATOM     50  C   UNL A   1      48.793  25.970  25.489  1.00  0.00     0.031 C 
ATOM     51  C   UNL A   1      42.054  26.272  26.908  1.00  0.00     0.029 A 
ATOM     52  C   UNL A   1      42.826  27.466  27.237  1.00  0.00     0.049 A 
ATOM     53  H   UNL A   1      44.853  27.800  26.891  1.00  0.00     0.167 HD
ATOM     54  C   UNL A   1      49.161  28.280  26.310  1.00  0.00     0.031 A 
ATOM     55  C   UNL A   1      42.339  28.572  27.829  1.00  0.00     0.031 A 
ATOM     56  C   UNL A   1      48.721  29.523  26.885  1.00  0.00     0.049 A 
ATOM     57  C   UNL A   1      43.264  29.717  28.128  1.00  0.00     0.074 A 
ATOM     58  C   UNL A   1      49.461  30.663  27.149  1.00  0.00     0.029 A 
ATOM     59  N   UNL A   1      47.421  29.787  27.286  1.00  0.00    -0.354 N 
ATOM     60  N   UNL A   1      44.548  29.822  27.887  1.00  0.00    -0.248 NA
ATOM     61  C   UNL A   1      42.673  30.893  28.780  1.00  0.00     0.031 C 
ATOM     62  C   UNL A   1      48.616  31.601  27.752  1.00  0.00     0.029 A 
ATOM     63  C   UNL A   1      47.341  31.063  27.818  1.00  0.00     0.049 A 
ATOM     64  H   UNL A   1      46.665  29.160  27.205  1.00  0.00     0.167 HD
ATOM     65  C   UNL A   1      44.916  31.081  28.343  1.00  0.00     0.074 A 
ATOM     66  C   UNL A   1      43.716  31.707  28.859  1.00  0.00     0.031 C 
ATOM     67  C   UNL A   1      46.139  31.665  28.334  1.00  0.00     0.031 A 
BRANCH  54  68
ATOM     68  C   UNL A   1      50.620  28.115  25.989  1.00  0.00    -0.014 A 
ATOM     69  C   UNL A   1      51.563  27.840  26.991  1.00  0.00     0.009 A 
ATOM     70  C   UNL A   1      51.053  28.222  24.658  1.00  0.00     0.009 A 
ATOM     71  C   UNL A   1      52.917  27.713  26.671  1.00  0.00     0.001 A 
ATOM     72  C   UNL A   1      52.403  28.070  24.338  1.00  0.00     0.001 A 
ATOM     73  C   UNL A   1      53.335  27.826  25.344  1.00  0.00     0.000 A 
ENDBRANCH  54  68
BRANCH  55  74
ATOM     74  C   UNL A   1      40.904  28.632  28.205  1.00  0.00    -0.014 A 
ATOM     75  C   UNL A   1      40.474  28.187  29.464  1.00  0.00     0.009 A 
ATOM     76  C   UNL A   1      39.957  29.152  27.308  1.00  0.00     0.009 A 
ATOM     77  C   UNL A   1      39.122  28.247  29.809  1.00  0.00     0.001 A 
ATOM     78  C   UNL A   1      38.610  29.234  27.665  1.00  0.00     0.001 A 
ATOM     79  C   UNL A   1      38.193  28.775  28.913  1.00  0.00     0.000 A 
ENDBRANCH  55  74
BRANCH  67  80
ATOM     80  C   UNL A   1      46.231  33.062  28.879  1.00  0.00    -0.014 A 
ATOM     81  C   UNL A   1      46.520  33.294  30.232  1.00  0.00     0.009 A 
ATOM     82  C   UNL A   1      46.062  34.157  28.018  1.00  0.00     0.009 A 
ATOM     83  C   UNL A   1      46.609  34.600  30.719  1.00  0.00     0.001 A 
ATOM     84  C   UNL A   1      46.177  35.461  28.503  1.00  0.00     0.001 A 
ATOM     85  C   UNL A   1      46.441  35.681  29.854  1.00  0.00     0.000 A 
ENDBRANCH  67  80
ENDBRANCH  41  42
ENDBRANCH  34  36
ENDBRANCH  33  34
ENDBRANCH  32  33
ENDBRANCH  31  32
ENDBRANCH  30  31
ENDBRANCH  28  30
ENDBRANCH   1  28
TORSDOF 19
ENDMDL
MODEL 3
REMARK VINA RESULT:     -10.6      6.705     12.056
REMARK SMILES CCCCCCNC(=O)Nc1cccc(-c2ccc([C@@H](C)C(=O)OCCOC(=O)c3ccc(-c4c5nc(c(-c6ccccc6)c6ccc([nH]6)c(-c6ccccc6)c6nc(c(-c7ccccc7)c7ccc4[nH]7)C=C6)C=C5)cc3)cc2F)c1
REMARK SMILES IDX 20 1 21 2 19 3 16 4 17 5 79 6 18 7 78 8 80 9 15 10 11 11
REMARK SMILES IDX 12 12 81 13 13 14 14 15 10 16 7 17 8 18 9 20 6 22 5 23 4 24
REMARK SMILES IDX 3 25 2 26 1 27 22 28 23 29 24 30 25 31 26 32 27 33 28 34
REMARK SMILES IDX 29 35 30 36 31 37 77 38 32 39 76 40 33 41 34 42 35 43 70 44
REMARK SMILES IDX 36 45 75 46 69 47 71 48 37 49 74 50 68 51 67 52 38 54 60 55
REMARK SMILES IDX 45 56 59 57 46 58 49 59 58 60 72 61 47 62 48 63 57 65 73 66
REMARK SMILES IDX 50 67 39 68 40 69 44 70 41 71 43 72 42 73 61 74 62 75 66 76
REMARK SMILES IDX 63 77 65 78 64 79 51 80 52 81 56 82 53 83 55 84 54 85
REMARK H PARENT 7 19 10 21 71 53 49 64
REMARK Flexibility Score: inf
ROOT
ATOM      1  C   UNL A   1      40.297  21.957  26.508  1.00  0.00     0.126 C 
ATOM      2  C   UNL A   1      40.513  22.872  27.712  1.00  0.00     0.025 C 
ENDROOT
BRANCH   1   3
ATOM      3  C   UNL A   1      38.906  22.104  25.910  1.00  0.00    -0.031 A 
ATOM      4  C   UNL A   1      36.245  22.396  24.935  1.00  0.00     0.018 A 
ATOM      5  C   UNL A   1      36.956  21.197  24.762  1.00  0.00     0.012 A 
ATOM      6  C   UNL A   1      36.903  23.447  25.583  1.00  0.00     0.131 A 
ATOM      7  C   UNL A   1      38.266  21.052  25.241  1.00  0.00     0.005 A 
ATOM      8  C   UNL A   1      38.204  23.308  26.068  1.00  0.00     0.044 A 
ATOM      9  F   UNL A   1      36.280  24.620  25.775  1.00  0.00    -0.206 F 
BRANCH   4  10
ATOM     10  C   UNL A   1      34.872  22.533  24.430  1.00  0.00    -0.013 A 
ATOM     11  C   UNL A   1      32.468  22.550  24.849  1.00  0.00     0.043 A 
ATOM     12  C   UNL A   1      32.228  22.914  23.524  1.00  0.00     0.026 A 
ATOM     13  C   UNL A   1      33.775  22.286  25.270  1.00  0.00     0.035 A 
ATOM     14  C   UNL A   1      33.304  23.142  22.667  1.00  0.00     0.003 A 
ATOM     15  C   UNL A   1      34.614  22.976  23.123  1.00  0.00     0.009 A 
BRANCH  11  16
ATOM     16  N   UNL A   1      31.380  22.511  25.734  1.00  0.00    -0.308 N 
ATOM     17  N   UNL A   1      31.392  24.652  26.748  1.00  0.00    -0.338 N 
ATOM     18  C   UNL A   1      31.053  23.339  26.759  1.00  0.00     0.319 C 
ATOM     19  H   UNL A   1      31.268  25.121  27.605  1.00  0.00     0.165 HD
ATOM     20  O   UNL A   1      30.341  22.922  27.674  1.00  0.00    -0.249 OA
ATOM     21  H   UNL A   1      30.753  21.766  25.587  1.00  0.00     0.171 HD
BRANCH  17  22
ATOM     22  C   UNL A   1      31.911  25.474  25.667  1.00  0.00     0.117 C 
BRANCH  22  23
ATOM     23  C   UNL A   1      33.361  25.905  25.854  1.00  0.00     0.021 C 
BRANCH  23  24
ATOM     24  C   UNL A   1      33.833  27.052  24.960  1.00  0.00     0.002 C 
BRANCH  24  25
ATOM     25  C   UNL A   1      33.675  28.465  25.530  1.00  0.00    -0.000 C 
BRANCH  25  26
ATOM     26  C   UNL A   1      33.858  28.609  27.044  1.00  0.00    -0.003 C 
ATOM     27  C   UNL A   1      35.128  29.341  27.443  1.00  0.00     0.004 C 
ENDBRANCH  25  26
ENDBRANCH  24  25
ENDBRANCH  23  24
ENDBRANCH  22  23
ENDBRANCH  17  22
ENDBRANCH  11  16
ENDBRANCH   4  10
ENDBRANCH   1   3
BRANCH   1  28
ATOM     28  C   UNL A   1      40.753  20.545  26.849  1.00  0.00     0.313 C 
ATOM     29  O   UNL A   1      40.634  20.087  27.983  1.00  0.00    -0.252 OA
BRANCH  28  30
ATOM     30  O   UNL A   1      41.238  19.845  25.791  1.00  0.00    -0.462 OA
BRANCH  30  31
ATOM     31  C   UNL A   1      41.962  18.638  26.108  1.00  0.00     0.274 C 
BRANCH  31  32
ATOM     32  C   UNL A   1      43.449  18.745  25.761  1.00  0.00     0.275 C 
BRANCH  32  33
ATOM     33  O   UNL A   1      43.664  19.428  24.516  1.00  0.00    -0.458 OA
BRANCH  33  34
ATOM     34  C   UNL A   1      44.950  19.764  24.263  1.00  0.00     0.338 C 
ATOM     35  O   UNL A   1      45.811  19.084  23.735  1.00  0.00    -0.246 OA
BRANCH  34  36
ATOM     36  C   UNL A   1      45.156  21.162  24.654  1.00  0.00     0.060 A 
ATOM     37  C   UNL A   1      45.551  21.437  25.965  1.00  0.00     0.016 A 
ATOM     38  C   UNL A   1      44.898  22.195  23.753  1.00  0.00     0.016 A 
ATOM     39  C   UNL A   1      45.677  22.755  26.391  1.00  0.00     0.010 A 
ATOM     40  C   UNL A   1      45.042  23.518  24.177  1.00  0.00     0.010 A 
ATOM     41  C   UNL A   1      45.421  23.805  25.501  1.00  0.00    -0.014 A 
BRANCH  41  42
ATOM     42  C   UNL A   1      45.525  25.208  25.961  1.00  0.00     0.031 A 
ATOM     43  C   UNL A   1      46.846  25.918  25.910  1.00  0.00     0.074 A 
ATOM     44  C   UNL A   1      44.434  25.838  26.431  1.00  0.00     0.049 A 
ATOM     45  N   UNL A   1      47.160  27.110  26.349  1.00  0.00    -0.248 NA
ATOM     46  C   UNL A   1      47.961  25.187  25.288  1.00  0.00     0.031 C 
ATOM     47  C   UNL A   1      43.089  25.263  26.502  1.00  0.00     0.029 A 
ATOM     48  N   UNL A   1      44.288  27.100  26.948  1.00  0.00    -0.354 N 
ATOM     49  C   UNL A   1      48.515  27.263  26.082  1.00  0.00     0.074 A 
ATOM     50  C   UNL A   1      48.964  26.038  25.455  1.00  0.00     0.031 C 
ATOM     51  C   UNL A   1      42.255  26.169  27.036  1.00  0.00     0.029 A 
ATOM     52  C   UNL A   1      43.013  27.367  27.384  1.00  0.00     0.049 A 
ATOM     53  H   UNL A   1      45.025  27.750  27.002  1.00  0.00     0.167 HD
ATOM     54  C   UNL A   1      49.309  28.329  26.337  1.00  0.00     0.031 A 
ATOM     55  C   UNL A   1      42.519  28.445  28.020  1.00  0.00     0.031 A 
ATOM     56  C   UNL A   1      48.859  29.546  26.960  1.00  0.00     0.049 A 
ATOM     57  C   UNL A   1      43.431  29.598  28.332  1.00  0.00     0.074 A 
ATOM     58  C   UNL A   1      49.584  30.691  27.241  1.00  0.00     0.029 A 
ATOM     59  N   UNL A   1      47.564  29.773  27.399  1.00  0.00    -0.354 N 
ATOM     60  N   UNL A   1      44.707  29.735  28.065  1.00  0.00    -0.248 NA
ATOM     61  C   UNL A   1      42.833  30.743  29.033  1.00  0.00     0.031 C 
ATOM     62  C   UNL A   1      48.736  31.595  27.891  1.00  0.00     0.029 A 
ATOM     63  C   UNL A   1      47.474  31.031  27.970  1.00  0.00     0.049 A 
ATOM     64  H   UNL A   1      46.819  29.134  27.316  1.00  0.00     0.167 HD
ATOM     65  C   UNL A   1      45.062  30.987  28.551  1.00  0.00     0.074 A 
ATOM     66  C   UNL A   1      43.863  31.573  29.113  1.00  0.00     0.031 C 
ATOM     67  C   UNL A   1      46.273  31.594  28.532  1.00  0.00     0.031 A 
BRANCH  54  68
ATOM     68  C   UNL A   1      50.763  28.202  25.978  1.00  0.00    -0.014 A 
ATOM     69  C   UNL A   1      51.237  28.567  24.709  1.00  0.00     0.009 A 
ATOM     70  C   UNL A   1      51.673  27.723  26.934  1.00  0.00     0.009 A 
ATOM     71  C   UNL A   1      52.590  28.419  24.392  1.00  0.00     0.001 A 
ATOM     72  C   UNL A   1      53.028  27.600  26.622  1.00  0.00     0.001 A 
ATOM     73  C   UNL A   1      53.484  27.938  25.349  1.00  0.00     0.000 A 
ENDBRANCH  54  68
BRANCH  55  74
ATOM     74  C   UNL A   1      41.093  28.467  28.431  1.00  0.00    -0.014 A 
ATOM     75  C   UNL A   1      40.701  27.979  29.686  1.00  0.00     0.009 A 
ATOM     76  C   UNL A   1      40.116  28.992  27.570  1.00  0.00     0.009 A 
ATOM     77  C   UNL A   1      39.357  28.002  30.064  1.00  0.00     0.001 A 
ATOM     78  C   UNL A   1      38.776  29.037  27.960  1.00  0.00     0.001 A 
ATOM     79  C   UNL A   1      38.398  28.536  29.204  1.00  0.00     0.000 A 
ENDBRANCH  55  74
BRANCH  67  80
ATOM     80  C   UNL A   1      46.352  32.975  29.117  1.00  0.00    -0.014 A 
ATOM     81  C   UNL A   1      46.077  34.109  28.338  1.00  0.00     0.009 A 
ATOM     82  C   UNL A   1      46.669  33.138  30.474  1.00  0.00     0.009 A 
ATOM     83  C   UNL A   1      46.149  35.385  28.902  1.00  0.00     0.001 A 
ATOM     84  C   UNL A   1      46.716  34.413  31.040  1.00  0.00     0.001 A 
ATOM     85  C   UNL A   1      46.464  35.535  30.252  1.00  0.00     0.000 A 
ENDBRANCH  67  80
ENDBRANCH  41  42
ENDBRANCH  34  36
ENDBRANCH  33  34
ENDBRANCH  32  33
ENDBRANCH  31  32
ENDBRANCH  30  31
ENDBRANCH  28  30
ENDBRANCH   1  28
TORSDOF 19
ENDMDL
