MODEL 1
REMARK VINA RESULT:      -9.5      0.000      0.000
REMARK SMILES CC(C)Cc1ccc([C@H](CF)C(=O)OCCOC(=O)c2ccc(-c3c4nc(c(-c5ccccc5)c5ccc([nH]5)c(-c5ccccc5)c5nc(c(-c6ccccc6)c6ccc3[nH]6)C=C5)C=C4)cc2)cc1
REMARK SMILES IDX 15 1 14 2 12 3 13 4 9 5 8 6 5 7 6 8 69 9 7 10 68 11 4 12
REMARK SMILES IDX 2 13 1 14 3 15 10 16 11 17 16 18 17 19 18 20 19 21 20 22
REMARK SMILES IDX 21 23 67 24 22 25 66 26 23 27 24 28 25 29 60 30 26 31 65 32
REMARK SMILES IDX 59 33 61 34 27 35 64 36 58 37 57 38 28 40 50 41 35 42 49 43
REMARK SMILES IDX 36 44 39 45 48 46 62 47 37 48 38 49 47 51 63 52 40 53 29 54
REMARK SMILES IDX 30 55 34 56 31 57 33 58 32 59 51 60 52 61 56 62 53 63 55 64
REMARK SMILES IDX 54 65 41 66 42 67 46 68 43 69 45 70 44 71
REMARK H PARENT 61 39 39 50
REMARK Flexibility Score: inf
ROOT
ATOM      1  C   UNL A   1      44.150  21.739  25.063  1.00  0.00     0.274 C 
ENDROOT
BRANCH   1   2
ATOM      2  O   UNL A   1      42.722  21.849  25.225  1.00  0.00    -0.462 OA
BRANCH   2   3
ATOM      3  C   UNL A   1      42.113  20.790  25.825  1.00  0.00     0.316 C 
ATOM      4  O   UNL A   1      42.229  19.626  25.453  1.00  0.00    -0.251 OA
BRANCH   3   5
ATOM      5  C   UNL A   1      41.225  21.192  26.996  1.00  0.00     0.160 C 
BRANCH   5   6
ATOM      6  C   UNL A   1      40.004  21.932  26.482  1.00  0.00    -0.031 A 
ATOM      7  C   UNL A   1      37.626  23.320  25.884  1.00  0.00    -0.048 A 
ATOM      8  C   UNL A   1      38.670  23.971  26.545  1.00  0.00     0.004 A 
ATOM      9  C   UNL A   1      37.814  22.002  25.448  1.00  0.00     0.004 A 
ATOM     10  C   UNL A   1      39.846  23.285  26.837  1.00  0.00     0.005 A 
ATOM     11  C   UNL A   1      38.987  21.311  25.750  1.00  0.00     0.005 A 
BRANCH   7  12
ATOM     12  C   UNL A   1      36.286  23.994  25.724  1.00  0.00     0.038 C 
BRANCH  12  13
ATOM     13  C   UNL A   1      35.289  23.131  24.917  1.00  0.00    -0.013 C 
ATOM     14  C   UNL A   1      34.018  22.814  25.715  1.00  0.00     0.008 C 
ATOM     15  C   UNL A   1      34.921  23.835  23.613  1.00  0.00     0.008 C 
ENDBRANCH  12  13
ENDBRANCH   7  12
ENDBRANCH   5   6
BRANCH   5  16
ATOM     16  C   UNL A   1      42.032  21.852  28.109  1.00  0.00     0.234 C 
ATOM     17  F   UNL A   1      41.210  22.103  29.167  1.00  0.00    -0.250 F 
ENDBRANCH   5  16
ENDBRANCH   3   5
ENDBRANCH   2   3
ENDBRANCH   1   2
BRANCH   1  18
ATOM     18  C   UNL A   1      44.757  22.967  24.376  1.00  0.00     0.275 C 
BRANCH  18  19
ATOM     19  O   UNL A   1      43.960  24.151  24.566  1.00  0.00    -0.458 OA
BRANCH  19  20
ATOM     20  C   UNL A   1      44.627  25.214  25.071  1.00  0.00     0.338 C 
ATOM     21  O   UNL A   1      45.663  25.702  24.651  1.00  0.00    -0.246 OA
BRANCH  20  22
ATOM     22  C   UNL A   1      43.843  25.836  26.147  1.00  0.00     0.060 A 
ATOM     23  C   UNL A   1      44.077  27.184  26.429  1.00  0.00     0.016 A 
ATOM     24  C   UNL A   1      42.971  25.088  26.936  1.00  0.00     0.016 A 
ATOM     25  C   UNL A   1      43.442  27.799  27.500  1.00  0.00     0.010 A 
ATOM     26  C   UNL A   1      42.332  25.706  28.017  1.00  0.00     0.010 A 
ATOM     27  C   UNL A   1      42.574  27.061  28.310  1.00  0.00    -0.014 A 
BRANCH  27  28
ATOM     28  C   UNL A   1      41.967  27.705  29.494  1.00  0.00     0.031 A 
ATOM     29  C   UNL A   1      40.647  28.404  29.369  1.00  0.00     0.074 A 
ATOM     30  C   UNL A   1      42.583  27.629  30.687  1.00  0.00     0.049 A 
ATOM     31  N   UNL A   1      39.985  29.088  30.268  1.00  0.00    -0.248 NA
ATOM     32  C   UNL A   1      39.980  28.323  28.060  1.00  0.00     0.031 C 
ATOM     33  C   UNL A   1      43.840  26.922  30.946  1.00  0.00     0.029 A 
ATOM     34  N   UNL A   1      42.232  28.151  31.905  1.00  0.00    -0.354 N 
ATOM     35  C   UNL A   1      38.841  29.542  29.628  1.00  0.00     0.074 A 
ATOM     36  C   UNL A   1      38.898  29.061  28.263  1.00  0.00     0.031 C 
ATOM     37  C   UNL A   1      44.153  27.056  32.245  1.00  0.00     0.029 A 
ATOM     38  C   UNL A   1      43.148  27.891  32.895  1.00  0.00     0.049 A 
ATOM     39  H   UNL A   1      41.405  28.661  32.055  1.00  0.00     0.167 HD
ATOM     40  C   UNL A   1      37.836  30.297  30.131  1.00  0.00     0.031 A 
ATOM     41  C   UNL A   1      43.186  28.306  34.174  1.00  0.00     0.031 A 
ATOM     42  C   UNL A   1      37.777  30.768  31.489  1.00  0.00     0.049 A 
ATOM     43  C   UNL A   1      42.090  29.191  34.693  1.00  0.00     0.074 A 
ATOM     44  C   UNL A   1      36.795  31.531  32.097  1.00  0.00     0.029 A 
ATOM     45  N   UNL A   1      38.745  30.520  32.450  1.00  0.00    -0.354 N 
ATOM     46  N   UNL A   1      41.021  29.630  34.073  1.00  0.00    -0.248 NA
ATOM     47  C   UNL A   1      42.208  29.642  36.087  1.00  0.00     0.031 C 
ATOM     48  C   UNL A   1      37.190  31.779  33.417  1.00  0.00     0.029 A 
ATOM     49  C   UNL A   1      38.396  31.135  33.640  1.00  0.00     0.049 A 
ATOM     50  H   UNL A   1      39.559  29.986  32.307  1.00  0.00     0.167 HD
ATOM     51  C   UNL A   1      40.335  30.400  35.002  1.00  0.00     0.074 A 
ATOM     52  C   UNL A   1      41.100  30.354  36.233  1.00  0.00     0.031 C 
ATOM     53  C   UNL A   1      39.177  31.087  34.850  1.00  0.00     0.031 A 
BRANCH  40  54
ATOM     54  C   UNL A   1      36.741  30.698  29.186  1.00  0.00    -0.014 A 
ATOM     55  C   UNL A   1      36.626  32.013  28.712  1.00  0.00     0.009 A 
ATOM     56  C   UNL A   1      35.817  29.733  28.753  1.00  0.00     0.009 A 
ATOM     57  C   UNL A   1      35.586  32.362  27.849  1.00  0.00     0.001 A 
ATOM     58  C   UNL A   1      34.791  30.080  27.872  1.00  0.00     0.001 A 
ATOM     59  C   UNL A   1      34.671  31.396  27.428  1.00  0.00     0.000 A 
ENDBRANCH  40  54
BRANCH  41  60
ATOM     60  C   UNL A   1      44.328  27.917  35.038  1.00  0.00    -0.014 A 
ATOM     61  C   UNL A   1      44.304  26.715  35.757  1.00  0.00     0.009 A 
ATOM     62  C   UNL A   1      45.457  28.746  35.132  1.00  0.00     0.009 A 
ATOM     63  C   UNL A   1      45.386  26.354  36.563  1.00  0.00     0.001 A 
ATOM     64  C   UNL A   1      46.547  28.372  35.921  1.00  0.00     0.001 A 
ATOM     65  C   UNL A   1      46.508  27.178  36.639  1.00  0.00     0.000 A 
ENDBRANCH  41  60
BRANCH  53  66
ATOM     66  C   UNL A   1      38.664  31.829  36.048  1.00  0.00    -0.014 A 
ATOM     67  C   UNL A   1      37.904  31.176  37.030  1.00  0.00     0.009 A 
ATOM     68  C   UNL A   1      38.970  33.189  36.212  1.00  0.00     0.009 A 
ATOM     69  C   UNL A   1      37.437  31.878  38.142  1.00  0.00     0.001 A 
ATOM     70  C   UNL A   1      38.520  33.883  37.336  1.00  0.00     0.001 A 
ATOM     71  C   UNL A   1      37.747  33.230  38.295  1.00  0.00     0.000 A 
ENDBRANCH  53  66
ENDBRANCH  27  28
ENDBRANCH  20  22
ENDBRANCH  19  20
ENDBRANCH  18  19
ENDBRANCH   1  18
TORSDOF 15
ENDMDL
MODEL 2
REMARK VINA RESULT:      -9.4      4.238      9.206
REMARK SMILES CC(C)Cc1ccc([C@H](CF)C(=O)OCCOC(=O)c2ccc(-c3c4nc(c(-c5ccccc5)c5ccc([nH]5)c(-c5ccccc5)c5nc(c(-c6ccccc6)c6ccc3[nH]6)C=C5)C=C4)cc2)cc1
REMARK SMILES IDX 15 1 14 2 12 3 13 4 9 5 8 6 5 7 6 8 69 9 7 10 68 11 4 12
REMARK SMILES IDX 2 13 1 14 3 15 10 16 11 17 16 18 17 19 18 20 19 21 20 22
REMARK SMILES IDX 21 23 67 24 22 25 66 26 23 27 24 28 25 29 60 30 26 31 65 32
REMARK SMILES IDX 59 33 61 34 27 35 64 36 58 37 57 38 28 40 50 41 35 42 49 43
REMARK SMILES IDX 36 44 39 45 48 46 62 47 37 48 38 49 47 51 63 52 40 53 29 54
REMARK SMILES IDX 30 55 34 56 31 57 33 58 32 59 51 60 52 61 56 62 53 63 55 64
REMARK SMILES IDX 54 65 41 66 42 67 46 68 43 69 45 70 44 71
REMARK H PARENT 61 39 39 50
REMARK Flexibility Score: inf
ROOT
ATOM      1  C   UNL A   1      31.416  32.141  26.594  1.00  0.00     0.274 C 
ENDROOT
BRANCH   1   2
ATOM      2  O   UNL A   1      32.181  30.981  26.978  1.00  0.00    -0.462 OA
BRANCH   2   3
ATOM      3  C   UNL A   1      32.319  30.022  26.021  1.00  0.00     0.316 C 
ATOM      4  O   UNL A   1      31.396  29.595  25.335  1.00  0.00    -0.251 OA
BRANCH   3   5
ATOM      5  C   UNL A   1      33.742  29.489  25.907  1.00  0.00     0.160 C 
BRANCH   5   6
ATOM      6  C   UNL A   1      33.721  28.104  25.286  1.00  0.00    -0.031 A 
ATOM      7  C   UNL A   1      33.354  25.632  23.984  1.00  0.00    -0.048 A 
ATOM      8  C   UNL A   1      33.642  26.779  23.241  1.00  0.00     0.004 A 
ATOM      9  C   UNL A   1      33.339  25.713  25.382  1.00  0.00     0.004 A 
ATOM     10  C   UNL A   1      33.826  28.000  23.886  1.00  0.00     0.005 A 
ATOM     11  C   UNL A   1      33.512  26.938  26.028  1.00  0.00     0.005 A 
BRANCH   7  12
ATOM     12  C   UNL A   1      32.976  24.348  23.289  1.00  0.00     0.038 C 
BRANCH  12  13
ATOM     13  C   UNL A   1      33.706  23.123  23.883  1.00  0.00    -0.013 C 
ATOM     14  C   UNL A   1      32.989  21.807  23.562  1.00  0.00     0.008 C 
ATOM     15  C   UNL A   1      35.144  23.069  23.371  1.00  0.00     0.008 C 
ENDBRANCH  12  13
ENDBRANCH   7  12
ENDBRANCH   5   6
BRANCH   5  16
ATOM     16  C   UNL A   1      34.511  29.665  27.211  1.00  0.00     0.234 C 
ATOM     17  F   UNL A   1      35.157  30.866  27.188  1.00  0.00    -0.250 F 
ENDBRANCH   5  16
ENDBRANCH   3   5
ENDBRANCH   2   3
ENDBRANCH   1   2
BRANCH   1  18
ATOM     18  C   UNL A   1      32.182  33.448  26.821  1.00  0.00     0.275 C 
BRANCH  18  19
ATOM     19  O   UNL A   1      32.206  33.835  28.208  1.00  0.00    -0.458 OA
BRANCH  19  20
ATOM     20  C   UNL A   1      33.225  34.653  28.555  1.00  0.00     0.338 C 
ATOM     21  O   UNL A   1      33.196  35.868  28.655  1.00  0.00    -0.246 OA
BRANCH  20  22
ATOM     22  C   UNL A   1      34.392  33.858  28.963  1.00  0.00     0.060 A 
ATOM     23  C   UNL A   1      34.171  32.741  29.771  1.00  0.00     0.016 A 
ATOM     24  C   UNL A   1      35.690  34.259  28.648  1.00  0.00     0.016 A 
ATOM     25  C   UNL A   1      35.241  32.012  30.272  1.00  0.00     0.010 A 
ATOM     26  C   UNL A   1      36.770  33.526  29.155  1.00  0.00     0.010 A 
ATOM     27  C   UNL A   1      36.549  32.406  29.977  1.00  0.00    -0.014 A 
BRANCH  27  28
ATOM     28  C   UNL A   1      37.679  31.670  30.583  1.00  0.00     0.031 A 
ATOM     29  C   UNL A   1      38.092  31.966  31.994  1.00  0.00     0.074 A 
ATOM     30  C   UNL A   1      38.307  30.710  29.880  1.00  0.00     0.049 A 
ATOM     31  N   UNL A   1      39.097  31.483  32.679  1.00  0.00    -0.248 NA
ATOM     32  C   UNL A   1      37.265  32.934  32.732  1.00  0.00     0.031 C 
ATOM     33  C   UNL A   1      37.955  30.289  28.523  1.00  0.00     0.029 A 
ATOM     34  N   UNL A   1      39.373  29.916  30.214  1.00  0.00    -0.354 N 
ATOM     35  C   UNL A   1      39.042  32.107  33.918  1.00  0.00     0.074 A 
ATOM     36  C   UNL A   1      37.907  33.006  33.890  1.00  0.00     0.031 C 
ATOM     37  C   UNL A   1      38.791  29.311  28.141  1.00  0.00     0.029 A 
ATOM     38  C   UNL A   1      39.762  29.071  29.205  1.00  0.00     0.049 A 
ATOM     39  H   UNL A   1      39.816  29.948  31.092  1.00  0.00     0.167 HD
ATOM     40  C   UNL A   1      39.865  31.947  34.980  1.00  0.00     0.031 A 
ATOM     41  C   UNL A   1      40.802  28.221  29.136  1.00  0.00     0.031 A 
ATOM     42  C   UNL A   1      40.987  31.048  35.009  1.00  0.00     0.049 A 
ATOM     43  C   UNL A   1      41.736  28.104  30.305  1.00  0.00     0.074 A 
ATOM     44  C   UNL A   1      41.876  30.808  36.042  1.00  0.00     0.029 A 
ATOM     45  N   UNL A   1      41.375  30.240  33.951  1.00  0.00    -0.354 N 
ATOM     46  N   UNL A   1      41.685  28.713  31.465  1.00  0.00    -0.248 NA
ATOM     47  C   UNL A   1      42.874  27.188  30.153  1.00  0.00     0.031 C 
ATOM     48  C   UNL A   1      42.827  29.883  35.594  1.00  0.00     0.029 A 
ATOM     49  C   UNL A   1      42.503  29.518  34.298  1.00  0.00     0.049 A 
ATOM     50  H   UNL A   1      40.914  30.188  33.082  1.00  0.00     0.167 HD
ATOM     51  C   UNL A   1      42.777  28.247  32.184  1.00  0.00     0.074 A 
ATOM     52  C   UNL A   1      43.462  27.292  31.337  1.00  0.00     0.031 C 
ATOM     53  C   UNL A   1      43.178  28.582  33.435  1.00  0.00     0.031 A 
BRANCH  40  54
ATOM     54  C   UNL A   1      39.604  32.806  36.183  1.00  0.00    -0.014 A 
ATOM     55  C   UNL A   1      38.729  32.396  37.201  1.00  0.00     0.009 A 
ATOM     56  C   UNL A   1      40.258  34.042  36.303  1.00  0.00     0.009 A 
ATOM     57  C   UNL A   1      38.489  33.224  38.299  1.00  0.00     0.001 A 
ATOM     58  C   UNL A   1      40.034  34.857  37.414  1.00  0.00     0.001 A 
ATOM     59  C   UNL A   1      39.143  34.452  38.406  1.00  0.00     0.000 A 
ENDBRANCH  40  54
BRANCH  41  60
ATOM     60  C   UNL A   1      41.033  27.444  27.892  1.00  0.00    -0.014 A 
ATOM     61  C   UNL A   1      41.851  27.950  26.873  1.00  0.00     0.009 A 
ATOM     62  C   UNL A   1      40.444  26.180  27.729  1.00  0.00     0.009 A 
ATOM     63  C   UNL A   1      42.068  27.209  25.709  1.00  0.00     0.001 A 
ATOM     64  C   UNL A   1      40.680  25.432  26.575  1.00  0.00     0.001 A 
ATOM     65  C   UNL A   1      41.488  25.950  25.564  1.00  0.00     0.000 A 
ENDBRANCH  41  60
BRANCH  53  66
ATOM     66  C   UNL A   1      44.404  27.898  33.961  1.00  0.00    -0.014 A 
ATOM     67  C   UNL A   1      44.315  26.663  34.622  1.00  0.00     0.009 A 
ATOM     68  C   UNL A   1      45.667  28.479  33.766  1.00  0.00     0.009 A 
ATOM     69  C   UNL A   1      45.466  26.036  35.102  1.00  0.00     0.001 A 
ATOM     70  C   UNL A   1      46.817  27.840  34.229  1.00  0.00     0.001 A 
ATOM     71  C   UNL A   1      46.715  26.623  34.903  1.00  0.00     0.000 A 
ENDBRANCH  53  66
ENDBRANCH  27  28
ENDBRANCH  20  22
ENDBRANCH  19  20
ENDBRANCH  18  19
ENDBRANCH   1  18
TORSDOF 15
ENDMDL
MODEL 3
REMARK VINA RESULT:      -9.4      4.687      9.322
REMARK SMILES CC(C)Cc1ccc([C@H](CF)C(=O)OCCOC(=O)c2ccc(-c3c4nc(c(-c5ccccc5)c5ccc([nH]5)c(-c5ccccc5)c5nc(c(-c6ccccc6)c6ccc3[nH]6)C=C5)C=C4)cc2)cc1
REMARK SMILES IDX 15 1 14 2 12 3 13 4 9 5 8 6 5 7 6 8 69 9 7 10 68 11 4 12
REMARK SMILES IDX 2 13 1 14 3 15 10 16 11 17 16 18 17 19 18 20 19 21 20 22
REMARK SMILES IDX 21 23 67 24 22 25 66 26 23 27 24 28 25 29 60 30 26 31 65 32
REMARK SMILES IDX 59 33 61 34 27 35 64 36 58 37 57 38 28 40 50 41 35 42 49 43
REMARK SMILES IDX 36 44 39 45 48 46 62 47 37 48 38 49 47 51 63 52 40 53 29 54
REMARK SMILES IDX 30 55 34 56 31 57 33 58 32 59 51 60 52 61 56 62 53 63 55 64
REMARK SMILES IDX 54 65 41 66 42 67 46 68 43 69 45 70 44 71
REMARK H PARENT 61 39 39 50
REMARK Flexibility Score: inf
ROOT
ATOM      1  C   UNL A   1      31.943  27.828  27.264  1.00  0.00     0.274 C 
ENDROOT
BRANCH   1   2
ATOM      2  O   UNL A   1      31.760  27.288  25.939  1.00  0.00    -0.462 OA
BRANCH   2   3
ATOM      3  C   UNL A   1      31.554  25.943  25.874  1.00  0.00     0.316 C 
ATOM      4  O   UNL A   1      31.346  25.230  26.850  1.00  0.00    -0.251 OA
BRANCH   3   5
ATOM      5  C   UNL A   1      31.651  25.390  24.457  1.00  0.00     0.160 C 
BRANCH   5   6
ATOM      6  C   UNL A   1      33.042  24.830  24.220  1.00  0.00    -0.031 A 
ATOM      7  C   UNL A   1      35.482  23.462  23.886  1.00  0.00    -0.048 A 
ATOM      8  C   UNL A   1      34.425  23.237  23.001  1.00  0.00     0.004 A 
ATOM      9  C   UNL A   1      35.339  24.439  24.881  1.00  0.00     0.004 A 
ATOM     10  C   UNL A   1      33.220  23.916  23.166  1.00  0.00     0.005 A 
ATOM     11  C   UNL A   1      34.129  25.111  25.053  1.00  0.00     0.005 A 
BRANCH   7  12
ATOM     12  C   UNL A   1      36.722  22.606  23.829  1.00  0.00     0.038 C 
BRANCH  12  13
ATOM     13  C   UNL A   1      36.955  21.824  25.141  1.00  0.00    -0.013 C 
ATOM     14  C   UNL A   1      37.020  20.309  24.911  1.00  0.00     0.008 C 
ATOM     15  C   UNL A   1      38.239  22.302  25.816  1.00  0.00     0.008 C 
ENDBRANCH  12  13
ENDBRANCH   7  12
ENDBRANCH   5   6
BRANCH   5  16
ATOM     16  C   UNL A   1      31.104  26.377  23.433  1.00  0.00     0.234 C 
ATOM     17  F   UNL A   1      32.147  26.984  22.798  1.00  0.00    -0.250 F 
ENDBRANCH   5  16
ENDBRANCH   3   5
ENDBRANCH   2   3
ENDBRANCH   1   2
BRANCH   1  18
ATOM     18  C   UNL A   1      32.513  29.250  27.242  1.00  0.00     0.275 C 
BRANCH  18  19
ATOM     19  O   UNL A   1      33.953  29.262  27.231  1.00  0.00    -0.458 OA
BRANCH  19  20
ATOM     20  C   UNL A   1      34.519  30.339  27.822  1.00  0.00     0.338 C 
ATOM     21  O   UNL A   1      33.976  31.391  28.116  1.00  0.00    -0.246 OA
BRANCH  20  22
ATOM     22  C   UNL A   1      35.897  30.026  28.225  1.00  0.00     0.060 A 
ATOM     23  C   UNL A   1      36.897  30.113  27.254  1.00  0.00     0.016 A 
ATOM     24  C   UNL A   1      36.190  29.550  29.503  1.00  0.00     0.016 A 
ATOM     25  C   UNL A   1      38.199  29.731  27.548  1.00  0.00     0.010 A 
ATOM     26  C   UNL A   1      37.501  29.162  29.799  1.00  0.00     0.010 A 
ATOM     27  C   UNL A   1      38.508  29.241  28.820  1.00  0.00    -0.014 A 
BRANCH  27  28
ATOM     28  C   UNL A   1      39.880  28.760  29.096  1.00  0.00     0.031 A 
ATOM     29  C   UNL A   1      40.857  29.657  29.794  1.00  0.00     0.074 A 
ATOM     30  C   UNL A   1      40.232  27.508  28.754  1.00  0.00     0.049 A 
ATOM     31  N   UNL A   1      42.122  29.450  30.063  1.00  0.00    -0.248 NA
ATOM     32  C   UNL A   1      40.347  30.959  30.251  1.00  0.00     0.031 C 
ATOM     33  C   UNL A   1      39.348  26.522  28.128  1.00  0.00     0.029 A 
ATOM     34  N   UNL A   1      41.428  26.852  28.889  1.00  0.00    -0.354 N 
ATOM     35  C   UNL A   1      42.566  30.604  30.694  1.00  0.00     0.074 A 
ATOM     36  C   UNL A   1      41.438  31.509  30.765  1.00  0.00     0.031 C 
ATOM     37  C   UNL A   1      40.035  25.385  27.934  1.00  0.00     0.029 A 
ATOM     38  C   UNL A   1      41.412  25.578  28.378  1.00  0.00     0.049 A 
ATOM     39  H   UNL A   1      42.220  27.256  29.311  1.00  0.00     0.167 HD
ATOM     40  C   UNL A   1      43.803  30.884  31.166  1.00  0.00     0.031 A 
ATOM     41  C   UNL A   1      42.406  24.679  28.255  1.00  0.00     0.031 A 
ATOM     42  C   UNL A   1      44.919  29.980  31.102  1.00  0.00     0.049 A 
ATOM     43  C   UNL A   1      43.783  25.035  28.734  1.00  0.00     0.074 A 
ATOM     44  C   UNL A   1      46.211  30.169  31.562  1.00  0.00     0.029 A 
ATOM     45  N   UNL A   1      44.876  28.714  30.538  1.00  0.00    -0.354 N 
ATOM     46  N   UNL A   1      44.197  26.136  29.313  1.00  0.00    -0.248 NA
ATOM     47  C   UNL A   1      44.833  24.025  28.537  1.00  0.00     0.031 C 
ATOM     48  C   UNL A   1      46.960  29.031  31.239  1.00  0.00     0.029 A 
ATOM     49  C   UNL A   1      46.123  28.119  30.617  1.00  0.00     0.049 A 
ATOM     50  H   UNL A   1      44.075  28.301  30.141  1.00  0.00     0.167 HD
ATOM     51  C   UNL A   1      45.550  25.950  29.558  1.00  0.00     0.074 A 
ATOM     52  C   UNL A   1      45.884  24.623  29.081  1.00  0.00     0.031 C 
ATOM     53  C   UNL A   1      46.438  26.802  30.125  1.00  0.00     0.031 A 
BRANCH  40  54
ATOM     54  C   UNL A   1      44.018  32.248  31.753  1.00  0.00    -0.014 A 
ATOM     55  C   UNL A   1      44.416  33.334  30.959  1.00  0.00     0.009 A 
ATOM     56  C   UNL A   1      43.806  32.450  33.126  1.00  0.00     0.009 A 
ATOM     57  C   UNL A   1      44.629  34.588  31.535  1.00  0.00     0.001 A 
ATOM     58  C   UNL A   1      43.997  33.709  33.696  1.00  0.00     0.001 A 
ATOM     59  C   UNL A   1      44.417  34.775  32.901  1.00  0.00     0.000 A 
ENDBRANCH  40  54
BRANCH  41  60
ATOM     60  C   UNL A   1      42.134  23.369  27.614  1.00  0.00    -0.014 A 
ATOM     61  C   UNL A   1      41.585  22.311  28.352  1.00  0.00     0.009 A 
ATOM     62  C   UNL A   1      42.410  23.178  26.251  1.00  0.00     0.009 A 
ATOM     63  C   UNL A   1      41.327  21.083  27.739  1.00  0.00     0.001 A 
ATOM     64  C   UNL A   1      42.131  21.957  25.635  1.00  0.00     0.001 A 
ATOM     65  C   UNL A   1      41.594  20.909  26.381  1.00  0.00     0.000 A 
ENDBRANCH  41  60
BRANCH  53  66
ATOM     66  C   UNL A   1      47.849  26.316  30.271  1.00  0.00    -0.014 A 
ATOM     67  C   UNL A   1      48.767  26.436  29.217  1.00  0.00     0.009 A 
ATOM     68  C   UNL A   1      48.274  25.761  31.488  1.00  0.00     0.009 A 
ATOM     69  C   UNL A   1      50.078  25.983  29.370  1.00  0.00     0.001 A 
ATOM     70  C   UNL A   1      49.591  25.328  31.645  1.00  0.00     0.001 A 
ATOM     71  C   UNL A   1      50.490  25.432  30.584  1.00  0.00     0.000 A 
ENDBRANCH  53  66
ENDBRANCH  27  28
ENDBRANCH  20  22
ENDBRANCH  19  20
ENDBRANCH  18  19
ENDBRANCH   1  18
TORSDOF 15
ENDMDL
