MODEL 1
REMARK VINA RESULT:     -10.5      0.000      0.000
REMARK SMILES Cc1cccc(/C=C(/F)C(=O)OCCOC(=O)c2ccc(-c3c4nc(c(-c5ccccc5)c5ccc([nH]5)c(-c5ccccc5)c5nc(c(-c6ccccc6)c6ccc3[nH]6)C=C5)C=C4)cc2)c1C
REMARK SMILES IDX 14 1 13 2 12 3 10 4 11 5 8 6 7 7 9 8 6 9 1 10 2 11 3 12
REMARK SMILES IDX 66 13 4 14 67 15 5 16 15 17 16 18 17 19 18 20 19 21 65 22
REMARK SMILES IDX 20 23 64 24 21 25 22 26 23 27 58 28 24 29 63 30 57 31 59 32
REMARK SMILES IDX 25 33 62 34 56 35 55 36 26 38 48 39 33 40 47 41 34 42 37 43
REMARK SMILES IDX 46 44 60 45 35 46 36 47 45 49 61 50 38 51 27 52 28 53 32 54
REMARK SMILES IDX 29 55 31 56 30 57 49 58 50 59 54 60 51 61 53 62 52 63 39 64
REMARK SMILES IDX 40 65 44 66 41 67 43 68 42 69
REMARK H PARENT 59 37 37 48
REMARK Flexibility Score: inf
ROOT
ATOM      1  C   UNL A   1      36.012  20.295  24.988  1.00  0.00     0.275 C 
ENDROOT
BRANCH   1   2
ATOM      2  C   UNL A   1      34.534  20.375  25.395  1.00  0.00     0.275 C 
BRANCH   2   3
ATOM      3  O   UNL A   1      33.476  20.099  24.445  1.00  0.00    -0.457 OA
BRANCH   3   4
ATOM      4  C   UNL A   1      32.348  20.827  24.314  1.00  0.00     0.367 C 
ATOM      5  O   UNL A   1      31.470  21.015  25.143  1.00  0.00    -0.243 OA
BRANCH   4   6
ATOM      6  C   UNL A   1      32.307  21.375  22.941  1.00  0.00     0.208 C 
ATOM      7  C   UNL A   1      32.639  22.626  22.593  1.00  0.00     0.055 C 
ATOM      8  F   UNL A   1      31.911  20.499  21.994  1.00  0.00    -0.199 F 
BRANCH   7   9
ATOM      9  C   UNL A   1      33.143  23.653  23.510  1.00  0.00    -0.019 A 
ATOM     10  C   UNL A   1      32.077  26.065  26.287  1.00  0.00     0.044 C 
ATOM     11  C   UNL A   1      32.890  25.291  25.280  1.00  0.00    -0.048 A 
ATOM     12  C   UNL A   1      34.267  25.237  25.428  1.00  0.00     0.004 A 
ATOM     13  C   UNL A   1      32.326  24.558  24.234  1.00  0.00    -0.041 A 
ATOM     14  C   UNL A   1      35.110  24.483  24.629  1.00  0.00     0.001 A 
ATOM     15  C   UNL A   1      30.880  24.803  23.935  1.00  0.00     0.045 C 
ATOM     16  C   UNL A   1      34.538  23.658  23.686  1.00  0.00     0.008 A 
ENDBRANCH   7   9
ENDBRANCH   4   6
ENDBRANCH   3   4
ENDBRANCH   2   3
ENDBRANCH   1   2
BRANCH   1  17
ATOM     17  O   UNL A   1      36.811  21.372  25.518  1.00  0.00    -0.458 OA
BRANCH  17  18
ATOM     18  C   UNL A   1      38.139  21.079  25.632  1.00  0.00     0.338 C 
ATOM     19  O   UNL A   1      38.679  20.010  25.390  1.00  0.00    -0.246 OA
BRANCH  18  20
ATOM     20  C   UNL A   1      38.901  22.266  26.084  1.00  0.00     0.060 A 
ATOM     21  C   UNL A   1      38.346  23.536  25.932  1.00  0.00     0.016 A 
ATOM     22  C   UNL A   1      40.208  22.142  26.569  1.00  0.00     0.016 A 
ATOM     23  C   UNL A   1      39.078  24.672  26.319  1.00  0.00     0.010 A 
ATOM     24  C   UNL A   1      40.941  23.285  26.956  1.00  0.00     0.010 A 
ATOM     25  C   UNL A   1      40.381  24.566  26.857  1.00  0.00    -0.014 A 
BRANCH  25  26
ATOM     26  C   UNL A   1      41.167  25.823  27.119  1.00  0.00     0.031 A 
ATOM     27  C   UNL A   1      40.645  26.741  28.187  1.00  0.00     0.074 A 
ATOM     28  C   UNL A   1      42.331  26.160  26.517  1.00  0.00     0.049 A 
ATOM     29  N   UNL A   1      41.150  27.865  28.624  1.00  0.00    -0.248 NA
ATOM     30  C   UNL A   1      39.354  26.376  28.791  1.00  0.00     0.031 C 
ATOM     31  C   UNL A   1      42.928  25.496  25.373  1.00  0.00     0.029 A 
ATOM     32  N   UNL A   1      43.274  27.123  26.823  1.00  0.00    -0.354 N 
ATOM     33  C   UNL A   1      40.216  28.366  29.516  1.00  0.00     0.074 A 
ATOM     34  C   UNL A   1      39.132  27.411  29.585  1.00  0.00     0.031 C 
ATOM     35  C   UNL A   1      44.217  25.846  25.254  1.00  0.00     0.029 A 
ATOM     36  C   UNL A   1      44.455  26.997  26.114  1.00  0.00     0.049 A 
ATOM     37  H   UNL A   1      43.120  27.835  27.486  1.00  0.00     0.167 HD
ATOM     38  C   UNL A   1      40.230  29.546  30.177  1.00  0.00     0.031 A 
ATOM     39  C   UNL A   1      45.565  27.766  26.060  1.00  0.00     0.031 A 
ATOM     40  C   UNL A   1      41.264  30.535  30.056  1.00  0.00     0.049 A 
ATOM     41  C   UNL A   1      45.537  29.087  26.776  1.00  0.00     0.074 A 
ATOM     42  C   UNL A   1      41.334  31.778  30.660  1.00  0.00     0.029 A 
ATOM     43  N   UNL A   1      42.396  30.408  29.267  1.00  0.00    -0.354 N 
ATOM     44  N   UNL A   1      44.628  29.561  27.590  1.00  0.00    -0.248 NA
ATOM     45  C   UNL A   1      46.646  30.015  26.505  1.00  0.00     0.031 C 
ATOM     46  C   UNL A   1      42.481  32.427  30.193  1.00  0.00     0.029 A 
ATOM     47  C   UNL A   1      43.165  31.557  29.359  1.00  0.00     0.049 A 
ATOM     48  H   UNL A   1      42.621  29.619  28.724  1.00  0.00     0.167 HD
ATOM     49  C   UNL A   1      45.047  30.842  27.921  1.00  0.00     0.074 A 
ATOM     50  C   UNL A   1      46.314  31.056  27.253  1.00  0.00     0.031 C 
ATOM     51  C   UNL A   1      44.424  31.762  28.695  1.00  0.00     0.031 A 
BRANCH  38  52
ATOM     52  C   UNL A   1      39.025  29.857  31.012  1.00  0.00    -0.014 A 
ATOM     53  C   UNL A   1      38.960  29.501  32.368  1.00  0.00     0.009 A 
ATOM     54  C   UNL A   1      37.928  30.502  30.420  1.00  0.00     0.009 A 
ATOM     55  C   UNL A   1      37.804  29.757  33.106  1.00  0.00     0.001 A 
ATOM     56  C   UNL A   1      36.787  30.786  31.170  1.00  0.00     0.001 A 
ATOM     57  C   UNL A   1      36.723  30.405  32.509  1.00  0.00     0.000 A 
ENDBRANCH  38  52
BRANCH  39  58
ATOM     58  C   UNL A   1      46.724  27.422  25.175  1.00  0.00    -0.014 A 
ATOM     59  C   UNL A   1      46.815  27.927  23.867  1.00  0.00     0.009 A 
ATOM     60  C   UNL A   1      47.726  26.537  25.613  1.00  0.00     0.009 A 
ATOM     61  C   UNL A   1      47.871  27.552  23.026  1.00  0.00     0.001 A 
ATOM     62  C   UNL A   1      48.808  26.208  24.793  1.00  0.00     0.001 A 
ATOM     63  C   UNL A   1      48.874  26.707  23.495  1.00  0.00     0.000 A 
ENDBRANCH  39  58
BRANCH  51  64
ATOM     64  C   UNL A   1      45.140  33.062  28.917  1.00  0.00    -0.014 A 
ATOM     65  C   UNL A   1      44.914  34.182  28.102  1.00  0.00     0.009 A 
ATOM     66  C   UNL A   1      46.045  33.168  29.985  1.00  0.00     0.009 A 
ATOM     67  C   UNL A   1      45.610  35.369  28.330  1.00  0.00     0.001 A 
ATOM     68  C   UNL A   1      46.715  34.366  30.230  1.00  0.00     0.001 A 
ATOM     69  C   UNL A   1      46.506  35.462  29.395  1.00  0.00     0.000 A 
ENDBRANCH  51  64
ENDBRANCH  25  26
ENDBRANCH  18  20
ENDBRANCH  17  18
ENDBRANCH   1  17
TORSDOF 12
ENDMDL
MODEL 2
REMARK VINA RESULT:     -10.1      4.231      8.824
REMARK SMILES Cc1cccc(/C=C(/F)C(=O)OCCOC(=O)c2ccc(-c3c4nc(c(-c5ccccc5)c5ccc([nH]5)c(-c5ccccc5)c5nc(c(-c6ccccc6)c6ccc3[nH]6)C=C5)C=C4)cc2)c1C
REMARK SMILES IDX 14 1 13 2 12 3 10 4 11 5 8 6 7 7 9 8 6 9 1 10 2 11 3 12
REMARK SMILES IDX 66 13 4 14 67 15 5 16 15 17 16 18 17 19 18 20 19 21 65 22
REMARK SMILES IDX 20 23 64 24 21 25 22 26 23 27 58 28 24 29 63 30 57 31 59 32
REMARK SMILES IDX 25 33 62 34 56 35 55 36 26 38 48 39 33 40 47 41 34 42 37 43
REMARK SMILES IDX 46 44 60 45 35 46 36 47 45 49 61 50 38 51 27 52 28 53 32 54
REMARK SMILES IDX 29 55 31 56 30 57 49 58 50 59 54 60 51 61 53 62 52 63 39 64
REMARK SMILES IDX 40 65 44 66 41 67 43 68 42 69
REMARK H PARENT 59 37 37 48
REMARK Flexibility Score: inf
ROOT
ATOM      1  C   UNL A   1      31.180  30.284  25.225  1.00  0.00     0.275 C 
ENDROOT
BRANCH   1   2
ATOM      2  C   UNL A   1      31.288  29.476  23.925  1.00  0.00     0.275 C 
BRANCH   2   3
ATOM      3  O   UNL A   1      30.135  28.810  23.355  1.00  0.00    -0.457 OA
BRANCH   3   4
ATOM      4  C   UNL A   1      30.127  27.542  22.895  1.00  0.00     0.367 C 
ATOM      5  O   UNL A   1      30.632  27.107  21.871  1.00  0.00    -0.243 OA
BRANCH   4   6
ATOM      6  C   UNL A   1      29.353  26.711  23.842  1.00  0.00     0.208 C 
ATOM      7  C   UNL A   1      29.877  25.891  24.764  1.00  0.00     0.055 C 
ATOM      8  F   UNL A   1      28.013  26.835  23.739  1.00  0.00    -0.199 F 
BRANCH   7   9
ATOM      9  C   UNL A   1      31.309  25.713  25.021  1.00  0.00    -0.019 A 
ATOM     10  C   UNL A   1      34.519  24.229  23.552  1.00  0.00     0.044 C 
ATOM     11  C   UNL A   1      33.533  24.933  24.449  1.00  0.00    -0.048 A 
ATOM     12  C   UNL A   1      34.008  25.804  25.417  1.00  0.00     0.004 A 
ATOM     13  C   UNL A   1      32.148  24.813  24.317  1.00  0.00    -0.041 A 
ATOM     14  C   UNL A   1      33.203  26.580  26.233  1.00  0.00     0.001 A 
ATOM     15  C   UNL A   1      31.643  23.708  23.441  1.00  0.00     0.045 C 
ATOM     16  C   UNL A   1      31.845  26.559  26.008  1.00  0.00     0.008 A 
ENDBRANCH   7   9
ENDBRANCH   4   6
ENDBRANCH   3   4
ENDBRANCH   2   3
ENDBRANCH   1   2
BRANCH   1  17
ATOM     17  O   UNL A   1      32.302  30.095  26.112  1.00  0.00    -0.458 OA
BRANCH  17  18
ATOM     18  C   UNL A   1      32.633  31.202  26.838  1.00  0.00     0.338 C 
ATOM     19  O   UNL A   1      31.980  32.229  26.950  1.00  0.00    -0.246 OA
BRANCH  18  20
ATOM     20  C   UNL A   1      33.926  31.007  27.533  1.00  0.00     0.060 A 
ATOM     21  C   UNL A   1      34.405  29.713  27.739  1.00  0.00     0.016 A 
ATOM     22  C   UNL A   1      34.625  32.092  28.074  1.00  0.00     0.016 A 
ATOM     23  C   UNL A   1      35.611  29.515  28.434  1.00  0.00     0.010 A 
ATOM     24  C   UNL A   1      35.835  31.889  28.773  1.00  0.00     0.010 A 
ATOM     25  C   UNL A   1      36.359  30.600  28.947  1.00  0.00    -0.014 A 
BRANCH  25  26
ATOM     26  C   UNL A   1      37.564  30.316  29.803  1.00  0.00     0.031 A 
ATOM     27  C   UNL A   1      38.747  29.689  29.124  1.00  0.00     0.074 A 
ATOM     28  C   UNL A   1      37.688  30.636  31.112  1.00  0.00     0.049 A 
ATOM     29  N   UNL A   1      39.912  29.373  29.627  1.00  0.00    -0.248 NA
ATOM     30  C   UNL A   1      38.568  29.307  27.714  1.00  0.00     0.031 C 
ATOM     31  C   UNL A   1      36.629  31.111  31.983  1.00  0.00     0.029 A 
ATOM     32  N   UNL A   1      38.792  30.671  31.944  1.00  0.00    -0.354 N 
ATOM     33  C   UNL A   1      40.586  28.713  28.612  1.00  0.00     0.074 A 
ATOM     34  C   UNL A   1      39.716  28.702  27.457  1.00  0.00     0.031 C 
ATOM     35  C   UNL A   1      37.151  31.657  33.091  1.00  0.00     0.029 A 
ATOM     36  C   UNL A   1      38.557  31.289  33.159  1.00  0.00     0.049 A 
ATOM     37  H   UNL A   1      39.665  30.292  31.694  1.00  0.00     0.167 HD
ATOM     38  C   UNL A   1      41.798  28.116  28.655  1.00  0.00     0.031 A 
ATOM     39  C   UNL A   1      39.330  31.450  34.256  1.00  0.00     0.031 A 
ATOM     40  C   UNL A   1      42.635  28.054  29.820  1.00  0.00     0.049 A 
ATOM     41  C   UNL A   1      40.658  30.746  34.287  1.00  0.00     0.074 A 
ATOM     42  C   UNL A   1      43.862  27.431  29.960  1.00  0.00     0.029 A 
ATOM     43  N   UNL A   1      42.328  28.615  31.049  1.00  0.00    -0.354 N 
ATOM     44  N   UNL A   1      41.265  30.095  33.327  1.00  0.00    -0.248 NA
ATOM     45  C   UNL A   1      41.370  30.726  35.574  1.00  0.00     0.031 C 
ATOM     46  C   UNL A   1      44.272  27.565  31.289  1.00  0.00     0.029 A 
ATOM     47  C   UNL A   1      43.338  28.340  31.958  1.00  0.00     0.049 A 
ATOM     48  H   UNL A   1      41.514  29.132  31.248  1.00  0.00     0.167 HD
ATOM     49  C   UNL A   1      42.423  29.582  33.893  1.00  0.00     0.074 A 
ATOM     50  C   UNL A   1      42.456  30.031  35.269  1.00  0.00     0.031 C 
ATOM     51  C   UNL A   1      43.364  28.792  33.323  1.00  0.00     0.031 A 
BRANCH  38  52
ATOM     52  C   UNL A   1      42.230  27.395  27.414  1.00  0.00    -0.014 A 
ATOM     53  C   UNL A   1      41.882  26.056  27.186  1.00  0.00     0.009 A 
ATOM     54  C   UNL A   1      43.019  28.068  26.469  1.00  0.00     0.009 A 
ATOM     55  C   UNL A   1      42.343  25.395  26.046  1.00  0.00     0.001 A 
ATOM     56  C   UNL A   1      43.451  27.415  25.315  1.00  0.00     0.001 A 
ATOM     57  C   UNL A   1      43.121  26.077  25.110  1.00  0.00     0.000 A 
ENDBRANCH  38  52
BRANCH  39  58
ATOM     58  C   UNL A   1      38.827  32.149  35.483  1.00  0.00    -0.014 A 
ATOM     59  C   UNL A   1      39.033  33.527  35.670  1.00  0.00     0.009 A 
ATOM     60  C   UNL A   1      38.185  31.432  36.507  1.00  0.00     0.009 A 
ATOM     61  C   UNL A   1      38.615  34.161  36.847  1.00  0.00     0.001 A 
ATOM     62  C   UNL A   1      37.718  32.076  37.656  1.00  0.00     0.001 A 
ATOM     63  C   UNL A   1      37.943  33.438  37.830  1.00  0.00     0.000 A 
ENDBRANCH  39  58
BRANCH  51  64
ATOM     64  C   UNL A   1      44.546  28.421  34.170  1.00  0.00    -0.014 A 
ATOM     65  C   UNL A   1      44.570  27.244  34.934  1.00  0.00     0.009 A 
ATOM     66  C   UNL A   1      45.669  29.264  34.181  1.00  0.00     0.009 A 
ATOM     67  C   UNL A   1      45.681  26.940  35.722  1.00  0.00     0.001 A 
ATOM     68  C   UNL A   1      46.790  28.941  34.944  1.00  0.00     0.001 A 
ATOM     69  C   UNL A   1      46.791  27.785  35.723  1.00  0.00     0.000 A 
ENDBRANCH  51  64
ENDBRANCH  25  26
ENDBRANCH  18  20
ENDBRANCH  17  18
ENDBRANCH   1  17
TORSDOF 12
ENDMDL
MODEL 3
REMARK VINA RESULT:     -10.1      1.024      6.421
REMARK SMILES Cc1cccc(/C=C(/F)C(=O)OCCOC(=O)c2ccc(-c3c4nc(c(-c5ccccc5)c5ccc([nH]5)c(-c5ccccc5)c5nc(c(-c6ccccc6)c6ccc3[nH]6)C=C5)C=C4)cc2)c1C
REMARK SMILES IDX 14 1 13 2 12 3 10 4 11 5 8 6 7 7 9 8 6 9 1 10 2 11 3 12
REMARK SMILES IDX 66 13 4 14 67 15 5 16 15 17 16 18 17 19 18 20 19 21 65 22
REMARK SMILES IDX 20 23 64 24 21 25 22 26 23 27 58 28 24 29 63 30 57 31 59 32
REMARK SMILES IDX 25 33 62 34 56 35 55 36 26 38 48 39 33 40 47 41 34 42 37 43
REMARK SMILES IDX 46 44 60 45 35 46 36 47 45 49 61 50 38 51 27 52 28 53 32 54
REMARK SMILES IDX 29 55 31 56 30 57 49 58 50 59 54 60 51 61 53 62 52 63 39 64
REMARK SMILES IDX 40 65 44 66 41 67 43 68 42 69
REMARK H PARENT 59 37 37 48
REMARK Flexibility Score: inf
ROOT
ATOM      1  C   UNL A   1      36.573  20.435  25.002  1.00  0.00     0.275 C 
ENDROOT
BRANCH   1   2
ATOM      2  C   UNL A   1      35.080  20.263  25.317  1.00  0.00     0.275 C 
BRANCH   2   3
ATOM      3  O   UNL A   1      34.228  19.429  24.495  1.00  0.00    -0.457 OA
BRANCH   3   4
ATOM      4  C   UNL A   1      32.881  19.420  24.544  1.00  0.00     0.367 C 
ATOM      5  O   UNL A   1      32.158  18.892  25.377  1.00  0.00    -0.243 OA
BRANCH   4   6
ATOM      6  C   UNL A   1      32.370  20.154  23.367  1.00  0.00     0.208 C 
ATOM      7  C   UNL A   1      32.115  21.470  23.322  1.00  0.00     0.055 C 
ATOM      8  F   UNL A   1      32.174  19.397  22.267  1.00  0.00    -0.199 F 
BRANCH   7   9
ATOM      9  C   UNL A   1      32.343  22.413  24.422  1.00  0.00    -0.019 A 
ATOM     10  C   UNL A   1      34.239  25.601  25.374  1.00  0.00     0.044 C 
ATOM     11  C   UNL A   1      33.343  24.388  25.410  1.00  0.00    -0.048 A 
ATOM     12  C   UNL A   1      32.366  24.304  26.390  1.00  0.00     0.004 A 
ATOM     13  C   UNL A   1      33.393  23.364  24.462  1.00  0.00    -0.041 A 
ATOM     14  C   UNL A   1      31.424  23.292  26.469  1.00  0.00     0.001 A 
ATOM     15  C   UNL A   1      34.584  23.336  23.555  1.00  0.00     0.045 C 
ATOM     16  C   UNL A   1      31.392  22.359  25.456  1.00  0.00     0.008 A 
ENDBRANCH   7   9
ENDBRANCH   4   6
ENDBRANCH   3   4
ENDBRANCH   2   3
ENDBRANCH   1   2
BRANCH   1  17
ATOM     17  O   UNL A   1      37.184  21.536  25.705  1.00  0.00    -0.458 OA
BRANCH  17  18
ATOM     18  C   UNL A   1      38.525  21.389  25.915  1.00  0.00     0.338 C 
ATOM     19  O   UNL A   1      39.204  20.406  25.664  1.00  0.00    -0.246 OA
BRANCH  18  20
ATOM     20  C   UNL A   1      39.104  22.626  26.488  1.00  0.00     0.060 A 
ATOM     21  C   UNL A   1      38.522  23.857  26.190  1.00  0.00     0.016 A 
ATOM     22  C   UNL A   1      40.282  22.587  27.243  1.00  0.00     0.016 A 
ATOM     23  C   UNL A   1      39.089  25.041  26.696  1.00  0.00     0.010 A 
ATOM     24  C   UNL A   1      40.850  23.778  27.748  1.00  0.00     0.010 A 
ATOM     25  C   UNL A   1      40.251  25.021  27.500  1.00  0.00    -0.014 A 
BRANCH  25  26
ATOM     26  C   UNL A   1      40.890  26.327  27.892  1.00  0.00     0.031 A 
ATOM     27  C   UNL A   1      42.191  26.674  27.228  1.00  0.00     0.074 A 
ATOM     28  C   UNL A   1      40.359  27.236  28.743  1.00  0.00     0.049 A 
ATOM     29  N   UNL A   1      42.925  27.746  27.368  1.00  0.00    -0.248 NA
ATOM     30  C   UNL A   1      42.771  25.648  26.347  1.00  0.00     0.031 C 
ATOM     31  C   UNL A   1      39.196  27.039  29.590  1.00  0.00     0.029 A 
ATOM     32  N   UNL A   1      40.691  28.553  28.999  1.00  0.00    -0.354 N 
ATOM     33  C   UNL A   1      44.075  27.505  26.632  1.00  0.00     0.074 A 
ATOM     34  C   UNL A   1      43.928  26.203  26.022  1.00  0.00     0.031 C 
ATOM     35  C   UNL A   1      38.739  28.221  30.029  1.00  0.00     0.029 A 
ATOM     36  C   UNL A   1      39.754  29.229  29.758  1.00  0.00     0.049 A 
ATOM     37  H   UNL A   1      41.518  28.972  28.669  1.00  0.00     0.167 HD
ATOM     38  C   UNL A   1      45.181  28.274  26.520  1.00  0.00     0.031 A 
ATOM     39  C   UNL A   1      39.743  30.474  30.284  1.00  0.00     0.031 A 
ATOM     40  C   UNL A   1      45.368  29.534  27.184  1.00  0.00     0.049 A 
ATOM     41  C   UNL A   1      41.000  31.292  30.174  1.00  0.00     0.074 A 
ATOM     42  C   UNL A   1      46.479  30.358  27.158  1.00  0.00     0.029 A 
ATOM     43  N   UNL A   1      44.436  30.142  28.009  1.00  0.00    -0.354 N 
ATOM     44  N   UNL A   1      42.092  31.032  29.501  1.00  0.00    -0.248 NA
ATOM     45  C   UNL A   1      41.056  32.534  30.960  1.00  0.00     0.031 C 
ATOM     46  C   UNL A   1      46.241  31.439  28.012  1.00  0.00     0.029 A 
ATOM     47  C   UNL A   1      44.952  31.328  28.509  1.00  0.00     0.049 A 
ATOM     48  H   UNL A   1      43.541  29.787  28.210  1.00  0.00     0.167 HD
ATOM     49  C   UNL A   1      42.968  32.069  29.788  1.00  0.00     0.074 A 
ATOM     50  C   UNL A   1      42.266  32.985  30.662  1.00  0.00     0.031 C 
ATOM     51  C   UNL A   1      44.247  32.234  29.375  1.00  0.00     0.031 A 
BRANCH  38  52
ATOM     52  C   UNL A   1      46.312  27.704  25.719  1.00  0.00    -0.014 A 
ATOM     53  C   UNL A   1      46.500  28.045  24.371  1.00  0.00     0.009 A 
ATOM     54  C   UNL A   1      47.191  26.793  26.324  1.00  0.00     0.009 A 
ATOM     55  C   UNL A   1      47.530  27.458  23.636  1.00  0.00     0.001 A 
ATOM     56  C   UNL A   1      48.240  26.233  25.595  1.00  0.00     0.001 A 
ATOM     57  C   UNL A   1      48.402  26.558  24.250  1.00  0.00     0.000 A 
ENDBRANCH  38  52
BRANCH  39  58
ATOM     58  C   UNL A   1      38.597  30.976  31.110  1.00  0.00    -0.014 A 
ATOM     59  C   UNL A   1      38.527  30.714  32.489  1.00  0.00     0.009 A 
ATOM     60  C   UNL A   1      37.532  31.674  30.515  1.00  0.00     0.009 A 
ATOM     61  C   UNL A   1      37.423  31.133  33.243  1.00  0.00     0.001 A 
ATOM     62  C   UNL A   1      36.459  32.141  31.278  1.00  0.00     0.001 A 
ATOM     63  C   UNL A   1      36.399  31.860  32.640  1.00  0.00     0.000 A 
ENDBRANCH  39  58
BRANCH  51  64
ATOM     64  C   UNL A   1      44.948  33.488  29.810  1.00  0.00    -0.014 A 
ATOM     65  C   UNL A   1      45.715  33.539  30.984  1.00  0.00     0.009 A 
ATOM     66  C   UNL A   1      44.850  34.636  29.009  1.00  0.00     0.009 A 
ATOM     67  C   UNL A   1      46.339  34.728  31.365  1.00  0.00     0.001 A 
ATOM     68  C   UNL A   1      45.501  35.814  29.375  1.00  0.00     0.001 A 
ATOM     69  C   UNL A   1      46.236  35.861  30.559  1.00  0.00     0.000 A 
ENDBRANCH  51  64
ENDBRANCH  25  26
ENDBRANCH  18  20
ENDBRANCH  17  18
ENDBRANCH   1  17
TORSDOF 12
ENDMDL
