MODEL 1
REMARK VINA RESULT:     -10.7      0.000      0.000
REMARK SMILES O=C(OCCOC(=O)c1ccccc1Nc1cccc(S(F)(F)(F)(F)F)c1)c1ccc(-c2c3nc(c(-c4ccccc4)c4ccc([nH]4)c(-c4ccccc4)c4nc(c(-c5ccccc5)c5ccc2[nH]5)C=C4)C=C3)cc1
REMARK SMILES IDX 5 1 4 2 3 3 2 4 1 5 28 6 29 7 75 8 30 9 74 10 31 11 32 12
REMARK SMILES IDX 33 13 68 14 34 15 73 16 67 17 69 18 35 19 72 20 66 21 65 22
REMARK SMILES IDX 36 24 58 25 43 26 57 27 44 28 47 29 56 30 70 31 45 32 46 33
REMARK SMILES IDX 55 35 71 36 48 37 37 38 38 39 42 40 39 41 41 42 40 43 59 44
REMARK SMILES IDX 60 45 64 46 61 47 63 48 62 49 49 50 50 51 54 52 51 53 53 54
REMARK SMILES IDX 52 55 6 56 7 57 8 58 9 59 10 60 14 61 11 62 13 63 12 64
REMARK SMILES IDX 15 65 16 67 17 68 27 69 18 70 20 71 19 72 21 73 22 74 23 75
REMARK SMILES IDX 24 76 25 77 26 78
REMARK H PARENT 69 23 47 34 15 66
REMARK Flexibility Score: inf
ROOT
ATOM      1  C   UNL A   1      32.986  33.805  27.769  1.00  0.00     0.275 C 
ENDROOT
BRANCH   1   2
ATOM      2  C   UNL A   1      33.027  32.288  27.826  1.00  0.00     0.275 C 
BRANCH   2   3
ATOM      3  O   UNL A   1      34.294  31.866  28.308  1.00  0.00    -0.458 OA
BRANCH   3   4
ATOM      4  C   UNL A   1      34.721  30.527  28.105  1.00  0.00     0.338 C 
ATOM      5  O   UNL A   1      33.904  29.659  27.665  1.00  0.00    -0.246 OA
BRANCH   4   6
ATOM      6  C   UNL A   1      36.156  30.132  28.414  1.00  0.00     0.060 A 
ATOM      7  C   UNL A   1      37.124  30.332  27.444  1.00  0.00     0.016 A 
ATOM      8  C   UNL A   1      36.448  29.544  29.568  1.00  0.00     0.016 A 
ATOM      9  C   UNL A   1      38.321  29.612  27.670  1.00  0.00     0.010 A 
ATOM     10  C   UNL A   1      37.685  28.979  29.772  1.00  0.00     0.010 A 
ATOM     11  C   UNL A   1      38.671  29.087  28.831  1.00  0.00    -0.014 A 
BRANCH  11  12
ATOM     12  C   UNL A   1      40.093  28.628  29.105  1.00  0.00     0.031 A 
ATOM     13  C   UNL A   1      40.480  27.344  28.719  1.00  0.00     0.074 A 
ATOM     14  C   UNL A   1      40.951  29.557  29.669  1.00  0.00     0.049 A 
ATOM     15  N   UNL A   1      41.699  26.807  28.784  1.00  0.00    -0.248 NA
ATOM     16  C   UNL A   1      39.563  26.343  28.151  1.00  0.00     0.031 C 
ATOM     17  C   UNL A   1      40.571  30.859  30.054  1.00  0.00     0.029 A 
ATOM     18  N   UNL A   1      42.289  29.407  29.957  1.00  0.00    -0.354 N 
ATOM     19  C   UNL A   1      41.681  25.561  28.303  1.00  0.00     0.074 A 
ATOM     20  C   UNL A   1      40.305  25.244  27.895  1.00  0.00     0.031 C 
ATOM     21  C   UNL A   1      41.662  31.478  30.576  1.00  0.00     0.029 A 
ATOM     22  C   UNL A   1      42.741  30.577  30.525  1.00  0.00     0.049 A 
ATOM     23  H   UNL A   1      42.830  28.602  29.784  1.00  0.00     0.167 HD
ATOM     24  C   UNL A   1      42.756  24.680  28.188  1.00  0.00     0.031 A 
ATOM     25  C   UNL A   1      44.019  30.860  30.984  1.00  0.00     0.031 A 
ATOM     26  C   UNL A   1      44.043  24.979  28.606  1.00  0.00     0.049 A 
ATOM     27  C   UNL A   1      45.082  29.957  30.921  1.00  0.00     0.074 A 
ATOM     28  C   UNL A   1      45.140  24.104  28.488  1.00  0.00     0.029 A 
ATOM     29  N   UNL A   1      44.489  26.140  29.198  1.00  0.00    -0.354 N 
ATOM     30  N   UNL A   1      45.073  28.727  30.405  1.00  0.00    -0.248 NA
ATOM     31  C   UNL A   1      46.431  30.234  31.433  1.00  0.00     0.031 C 
ATOM     32  C   UNL A   1      46.231  24.725  29.012  1.00  0.00     0.029 A 
ATOM     33  C   UNL A   1      45.833  25.997  29.464  1.00  0.00     0.049 A 
ATOM     34  H   UNL A   1      43.942  26.933  29.396  1.00  0.00     0.167 HD
ATOM     35  C   UNL A   1      46.283  28.174  30.509  1.00  0.00     0.074 A 
ATOM     36  C   UNL A   1      47.173  29.133  31.178  1.00  0.00     0.031 C 
ATOM     37  C   UNL A   1      46.682  26.912  30.069  1.00  0.00     0.031 A 
BRANCH  24  38
ATOM     38  C   UNL A   1      42.501  23.315  27.567  1.00  0.00    -0.014 A 
ATOM     39  C   UNL A   1      42.715  23.232  26.201  1.00  0.00     0.009 A 
ATOM     40  C   UNL A   1      42.160  22.247  28.278  1.00  0.00     0.009 A 
ATOM     41  C   UNL A   1      42.258  22.025  25.622  1.00  0.00     0.001 A 
ATOM     42  C   UNL A   1      41.857  21.061  27.654  1.00  0.00     0.001 A 
ATOM     43  C   UNL A   1      41.988  20.924  26.301  1.00  0.00     0.000 A 
ENDBRANCH  24  38
BRANCH  25  44
ATOM     44  C   UNL A   1      44.276  32.230  31.589  1.00  0.00    -0.014 A 
ATOM     45  C   UNL A   1      44.044  32.463  32.934  1.00  0.00     0.009 A 
ATOM     46  C   UNL A   1      44.634  33.212  30.771  1.00  0.00     0.009 A 
ATOM     47  C   UNL A   1      43.935  33.835  33.267  1.00  0.00     0.001 A 
ATOM     48  C   UNL A   1      44.636  34.517  31.203  1.00  0.00     0.001 A 
ATOM     49  C   UNL A   1      44.359  34.827  32.505  1.00  0.00     0.000 A 
ENDBRANCH  25  44
BRANCH  37  50
ATOM     50  C   UNL A   1      48.136  26.514  30.264  1.00  0.00    -0.014 A 
ATOM     51  C   UNL A   1      49.046  26.803  29.260  1.00  0.00     0.009 A 
ATOM     52  C   UNL A   1      48.502  25.855  31.356  1.00  0.00     0.009 A 
ATOM     53  C   UNL A   1      50.267  26.096  29.372  1.00  0.00     0.001 A 
ATOM     54  C   UNL A   1      49.758  25.307  31.455  1.00  0.00     0.001 A 
ATOM     55  C   UNL A   1      50.690  25.502  30.474  1.00  0.00     0.000 A 
ENDBRANCH  37  50
ENDBRANCH  11  12
ENDBRANCH   4   6
ENDBRANCH   3   4
ENDBRANCH   2   3
ENDBRANCH   1   2
BRANCH   1  56
ATOM     56  O   UNL A   1      32.816  34.325  29.080  1.00  0.00    -0.458 OA
BRANCH  56  57
ATOM     57  C   UNL A   1      33.468  35.530  29.455  1.00  0.00     0.340 C 
ATOM     58  O   UNL A   1      34.044  36.242  28.574  1.00  0.00    -0.246 OA
BRANCH  57  59
ATOM     59  C   UNL A   1      33.475  35.967  30.911  1.00  0.00     0.083 A 
ATOM     60  C   UNL A   1      33.181  37.278  31.244  1.00  0.00     0.018 A 
ATOM     61  C   UNL A   1      33.871  35.095  31.831  1.00  0.00     0.053 A 
ATOM     62  C   UNL A   1      33.615  37.653  32.537  1.00  0.00     0.001 A 
ATOM     63  C   UNL A   1      34.147  35.507  33.113  1.00  0.00     0.027 A 
ATOM     64  C   UNL A   1      33.935  36.803  33.495  1.00  0.00     0.002 A 
BRANCH  61  65
ATOM     65  N   UNL A   1      34.014  33.676  31.476  1.00  0.00    -0.355 N 
ATOM     66  H   UNL A   1      33.225  33.154  31.203  1.00  0.00     0.167 HD
BRANCH  65  67
ATOM     67  C   UNL A   1      35.337  33.036  31.527  1.00  0.00     0.040 A 
ATOM     68  C   UNL A   1      35.605  32.053  32.466  1.00  0.00     0.026 A 
ATOM     69  C   UNL A   1      36.287  33.499  30.724  1.00  0.00     0.050 A 
ATOM     70  C   UNL A   1      36.985  31.824  32.678  1.00  0.00     0.004 A 
ATOM     71  C   UNL A   1      37.598  33.128  30.904  1.00  0.00     0.109 A 
ATOM     72  C   UNL A   1      37.943  32.204  31.852  1.00  0.00     0.024 A 
BRANCH  71  73
ATOM     73  S   UNL A   1      38.885  33.869  29.870  1.00  0.00     0.310 S 
ATOM     74  F   UNL A   1      37.765  34.911  29.454  1.00  0.00    -0.094 F 
ATOM     75  F   UNL A   1      38.460  33.014  28.618  1.00  0.00    -0.094 F 
ATOM     76  F   UNL A   1      39.883  34.691  29.006  1.00  0.00    -0.094 F 
ATOM     77  F   UNL A   1      39.196  34.806  31.104  1.00  0.00    -0.094 F 
ATOM     78  F   UNL A   1      37.795  33.119  30.734  1.00  0.00    -0.094 F 
ENDBRANCH  71  73
ENDBRANCH  65  67
ENDBRANCH  61  65
ENDBRANCH  57  59
ENDBRANCH  56  57
ENDBRANCH   1  56
TORSDOF 14
ENDMDL
MODEL 2
REMARK VINA RESULT:     -10.4      6.692     10.961
REMARK SMILES O=C(OCCOC(=O)c1ccccc1Nc1cccc(S(F)(F)(F)(F)F)c1)c1ccc(-c2c3nc(c(-c4ccccc4)c4ccc([nH]4)c(-c4ccccc4)c4nc(c(-c5ccccc5)c5ccc2[nH]5)C=C4)C=C3)cc1
REMARK SMILES IDX 5 1 4 2 3 3 2 4 1 5 28 6 29 7 75 8 30 9 74 10 31 11 32 12
REMARK SMILES IDX 33 13 68 14 34 15 73 16 67 17 69 18 35 19 72 20 66 21 65 22
REMARK SMILES IDX 36 24 58 25 43 26 57 27 44 28 47 29 56 30 70 31 45 32 46 33
REMARK SMILES IDX 55 35 71 36 48 37 37 38 38 39 42 40 39 41 41 42 40 43 59 44
REMARK SMILES IDX 60 45 64 46 61 47 63 48 62 49 49 50 50 51 54 52 51 53 53 54
REMARK SMILES IDX 52 55 6 56 7 57 8 58 9 59 10 60 14 61 11 62 13 63 12 64
REMARK SMILES IDX 15 65 16 67 17 68 27 69 18 70 20 71 19 72 21 73 22 74 23 75
REMARK SMILES IDX 24 76 25 77 26 78
REMARK H PARENT 69 23 47 34 15 66
REMARK Flexibility Score: inf
ROOT
ATOM      1  C   UNL A   1      37.776  20.855  24.525  1.00  0.00     0.275 C 
ENDROOT
BRANCH   1   2
ATOM      2  C   UNL A   1      38.335  20.140  25.744  1.00  0.00     0.275 C 
BRANCH   2   3
ATOM      3  O   UNL A   1      39.441  19.339  25.356  1.00  0.00    -0.458 OA
BRANCH   3   4
ATOM      4  C   UNL A   1      40.720  19.568  25.930  1.00  0.00     0.338 C 
ATOM      5  O   UNL A   1      41.585  18.638  25.948  1.00  0.00    -0.246 OA
BRANCH   4   6
ATOM      6  C   UNL A   1      41.054  20.928  26.523  1.00  0.00     0.060 A 
ATOM      7  C   UNL A   1      41.408  21.957  25.666  1.00  0.00     0.016 A 
ATOM      8  C   UNL A   1      41.069  21.091  27.840  1.00  0.00     0.016 A 
ATOM      9  C   UNL A   1      42.046  23.044  26.309  1.00  0.00     0.010 A 
ATOM     10  C   UNL A   1      41.584  22.238  28.397  1.00  0.00     0.010 A 
ATOM     11  C   UNL A   1      42.008  23.272  27.610  1.00  0.00    -0.014 A 
BRANCH  11  12
ATOM     12  C   UNL A   1      42.413  24.613  28.199  1.00  0.00     0.031 A 
ATOM     13  C   UNL A   1      43.753  24.840  28.516  1.00  0.00     0.074 A 
ATOM     14  C   UNL A   1      41.418  25.568  28.322  1.00  0.00     0.049 A 
ATOM     15  N   UNL A   1      44.308  25.975  28.943  1.00  0.00    -0.248 NA
ATOM     16  C   UNL A   1      44.807  23.817  28.419  1.00  0.00     0.031 C 
ATOM     17  C   UNL A   1      40.063  25.350  27.997  1.00  0.00     0.029 A 
ATOM     18  N   UNL A   1      41.540  26.865  28.767  1.00  0.00    -0.354 N 
ATOM     19  C   UNL A   1      45.621  25.808  29.121  1.00  0.00     0.074 A 
ATOM     20  C   UNL A   1      45.958  24.417  28.793  1.00  0.00     0.031 C 
ATOM     21  C   UNL A   1      39.380  26.496  28.252  1.00  0.00     0.029 A 
ATOM     22  C   UNL A   1      40.293  27.449  28.741  1.00  0.00     0.049 A 
ATOM     23  H   UNL A   1      42.376  27.300  29.053  1.00  0.00     0.167 HD
ATOM     24  C   UNL A   1      46.548  26.762  29.542  1.00  0.00     0.031 A 
ATOM     25  C   UNL A   1      39.951  28.737  29.120  1.00  0.00     0.031 A 
ATOM     26  C   UNL A   1      46.213  28.063  29.880  1.00  0.00     0.049 A 
ATOM     27  C   UNL A   1      40.870  29.675  29.597  1.00  0.00     0.074 A 
ATOM     28  C   UNL A   1      47.138  29.039  30.299  1.00  0.00     0.029 A 
ATOM     29  N   UNL A   1      44.962  28.640  29.878  1.00  0.00    -0.354 N 
ATOM     30  N   UNL A   1      42.188  29.520  29.738  1.00  0.00    -0.248 NA
ATOM     31  C   UNL A   1      40.514  31.032  30.033  1.00  0.00     0.031 C 
ATOM     32  C   UNL A   1      46.452  30.185  30.555  1.00  0.00     0.029 A 
ATOM     33  C   UNL A   1      45.089  29.944  30.302  1.00  0.00     0.049 A 
ATOM     34  H   UNL A   1      44.123  28.195  29.619  1.00  0.00     0.167 HD
ATOM     35  C   UNL A   1      42.736  30.643  30.205  1.00  0.00     0.074 A 
ATOM     36  C   UNL A   1      41.666  31.630  30.408  1.00  0.00     0.031 C 
ATOM     37  C   UNL A   1      44.085  30.887  30.465  1.00  0.00     0.031 A 
BRANCH  24  38
ATOM     38  C   UNL A   1      48.009  26.349  29.635  1.00  0.00    -0.014 A 
ATOM     39  C   UNL A   1      48.758  26.547  28.487  1.00  0.00     0.009 A 
ATOM     40  C   UNL A   1      48.564  25.890  30.750  1.00  0.00     0.009 A 
ATOM     41  C   UNL A   1      50.041  25.951  28.531  1.00  0.00     0.001 A 
ATOM     42  C   UNL A   1      49.866  25.451  30.753  1.00  0.00     0.001 A 
ATOM     43  C   UNL A   1      50.647  25.560  29.637  1.00  0.00     0.000 A 
ENDBRANCH  24  38
BRANCH  25  44
ATOM     44  C   UNL A   1      38.493  29.154  29.012  1.00  0.00    -0.014 A 
ATOM     45  C   UNL A   1      38.004  29.715  27.844  1.00  0.00     0.009 A 
ATOM     46  C   UNL A   1      37.736  29.051  30.097  1.00  0.00     0.009 A 
ATOM     47  C   UNL A   1      36.782  30.410  28.011  1.00  0.00     0.001 A 
ATOM     48  C   UNL A   1      36.494  29.639  30.142  1.00  0.00     0.001 A 
ATOM     49  C   UNL A   1      35.972  30.263  29.044  1.00  0.00     0.000 A 
ENDBRANCH  25  44
BRANCH  37  50
ATOM     50  C   UNL A   1      44.479  32.269  30.959  1.00  0.00    -0.014 A 
ATOM     51  C   UNL A   1      44.497  32.510  32.323  1.00  0.00     0.009 A 
ATOM     52  C   UNL A   1      44.746  33.233  30.086  1.00  0.00     0.009 A 
ATOM     53  C   UNL A   1      44.526  33.884  32.662  1.00  0.00     0.001 A 
ATOM     54  C   UNL A   1      44.898  34.533  30.504  1.00  0.00     0.001 A 
ATOM     55  C   UNL A   1      44.868  34.853  31.833  1.00  0.00     0.000 A 
ENDBRANCH  37  50
ENDBRANCH  11  12
ENDBRANCH   4   6
ENDBRANCH   3   4
ENDBRANCH   2   3
ENDBRANCH   1   2
BRANCH   1  56
ATOM     56  O   UNL A   1      37.320  22.147  24.900  1.00  0.00    -0.458 OA
BRANCH  56  57
ATOM     57  C   UNL A   1      36.390  22.837  24.078  1.00  0.00     0.340 C 
ATOM     58  O   UNL A   1      36.585  22.914  22.824  1.00  0.00    -0.246 OA
BRANCH  57  59
ATOM     59  C   UNL A   1      35.160  23.482  24.698  1.00  0.00     0.083 A 
ATOM     60  C   UNL A   1      34.900  24.825  24.487  1.00  0.00     0.018 A 
ATOM     61  C   UNL A   1      34.413  22.756  25.521  1.00  0.00     0.053 A 
ATOM     62  C   UNL A   1      33.998  25.388  25.419  1.00  0.00     0.001 A 
ATOM     63  C   UNL A   1      33.455  23.353  26.305  1.00  0.00     0.027 A 
ATOM     64  C   UNL A   1      33.186  24.688  26.191  1.00  0.00     0.002 A 
BRANCH  61  65
ATOM     65  N   UNL A   1      34.612  21.302  25.595  1.00  0.00    -0.355 N 
ATOM     66  H   UNL A   1      35.212  20.920  26.277  1.00  0.00     0.167 HD
BRANCH  65  67
ATOM     67  C   UNL A   1      33.917  20.416  24.650  1.00  0.00     0.040 A 
ATOM     68  C   UNL A   1      33.066  20.942  23.691  1.00  0.00     0.026 A 
ATOM     69  C   UNL A   1      34.046  19.104  24.812  1.00  0.00     0.050 A 
ATOM     70  C   UNL A   1      32.171  19.996  23.139  1.00  0.00     0.004 A 
ATOM     71  C   UNL A   1      33.226  18.232  24.138  1.00  0.00     0.109 A 
ATOM     72  C   UNL A   1      32.322  18.686  23.217  1.00  0.00     0.024 A 
BRANCH  71  73
ATOM     73  S   UNL A   1      33.345  16.457  24.471  1.00  0.00     0.310 S 
ATOM     74  F   UNL A   1      34.750  16.808  25.116  1.00  0.00    -0.094 F 
ATOM     75  F   UNL A   1      34.107  16.191  23.119  1.00  0.00    -0.094 F 
ATOM     76  F   UNL A   1      33.573  14.987  24.922  1.00  0.00    -0.094 F 
ATOM     77  F   UNL A   1      32.700  16.779  25.877  1.00  0.00    -0.094 F 
ATOM     78  F   UNL A   1      33.204  17.981  24.074  1.00  0.00    -0.094 F 
ENDBRANCH  71  73
ENDBRANCH  65  67
ENDBRANCH  61  65
ENDBRANCH  57  59
ENDBRANCH  56  57
ENDBRANCH   1  56
TORSDOF 14
ENDMDL
MODEL 3
REMARK VINA RESULT:     -10.3      5.002      9.439
REMARK SMILES O=C(OCCOC(=O)c1ccccc1Nc1cccc(S(F)(F)(F)(F)F)c1)c1ccc(-c2c3nc(c(-c4ccccc4)c4ccc([nH]4)c(-c4ccccc4)c4nc(c(-c5ccccc5)c5ccc2[nH]5)C=C4)C=C3)cc1
REMARK SMILES IDX 5 1 4 2 3 3 2 4 1 5 28 6 29 7 75 8 30 9 74 10 31 11 32 12
REMARK SMILES IDX 33 13 68 14 34 15 73 16 67 17 69 18 35 19 72 20 66 21 65 22
REMARK SMILES IDX 36 24 58 25 43 26 57 27 44 28 47 29 56 30 70 31 45 32 46 33
REMARK SMILES IDX 55 35 71 36 48 37 37 38 38 39 42 40 39 41 41 42 40 43 59 44
REMARK SMILES IDX 60 45 64 46 61 47 63 48 62 49 49 50 50 51 54 52 51 53 53 54
REMARK SMILES IDX 52 55 6 56 7 57 8 58 9 59 10 60 14 61 11 62 13 63 12 64
REMARK SMILES IDX 15 65 16 67 17 68 27 69 18 70 20 71 19 72 21 73 22 74 23 75
REMARK SMILES IDX 24 76 25 77 26 78
REMARK H PARENT 69 23 47 34 15 66
REMARK Flexibility Score: inf
ROOT
ATOM      1  C   UNL A   1      32.479  30.752  26.762  1.00  0.00     0.275 C 
ENDROOT
BRANCH   1   2
ATOM      2  C   UNL A   1      31.597  31.926  27.152  1.00  0.00     0.275 C 
BRANCH   2   3
ATOM      3  O   UNL A   1      32.287  33.141  26.900  1.00  0.00    -0.458 OA
BRANCH   3   4
ATOM      4  C   UNL A   1      32.985  33.792  27.952  1.00  0.00     0.338 C 
ATOM      5  O   UNL A   1      32.498  34.838  28.485  1.00  0.00    -0.246 OA
BRANCH   4   6
ATOM      6  C   UNL A   1      34.313  33.237  28.441  1.00  0.00     0.060 A 
ATOM      7  C   UNL A   1      34.312  32.357  29.511  1.00  0.00     0.016 A 
ATOM      8  C   UNL A   1      35.448  33.650  27.890  1.00  0.00     0.016 A 
ATOM      9  C   UNL A   1      35.579  32.191  30.118  1.00  0.00     0.010 A 
ATOM     10  C   UNL A   1      36.658  33.338  28.462  1.00  0.00     0.010 A 
ATOM     11  C   UNL A   1      36.728  32.521  29.556  1.00  0.00    -0.014 A 
BRANCH  11  12
ATOM     12  C   UNL A   1      38.056  32.019  30.097  1.00  0.00     0.031 A 
ATOM     13  C   UNL A   1      38.700  32.744  31.101  1.00  0.00     0.074 A 
ATOM     14  C   UNL A   1      38.518  30.813  29.598  1.00  0.00     0.049 A 
ATOM     15  N   UNL A   1      39.809  32.411  31.762  1.00  0.00    -0.248 NA
ATOM     16  C   UNL A   1      38.230  34.043  31.609  1.00  0.00     0.031 C 
ATOM     17  C   UNL A   1      37.870  30.070  28.590  1.00  0.00     0.029 A 
ATOM     18  N   UNL A   1      39.652  30.124  29.965  1.00  0.00    -0.354 N 
ATOM     19  C   UNL A   1      40.108  33.349  32.664  1.00  0.00     0.074 A 
ATOM     20  C   UNL A   1      39.100  34.414  32.573  1.00  0.00     0.031 C 
ATOM     21  C   UNL A   1      38.609  28.956  28.347  1.00  0.00     0.029 A 
ATOM     22  C   UNL A   1      39.730  28.983  29.199  1.00  0.00     0.049 A 
ATOM     23  H   UNL A   1      40.295  30.399  30.658  1.00  0.00     0.167 HD
ATOM     24  C   UNL A   1      41.179  33.357  33.557  1.00  0.00     0.031 A 
ATOM     25  C   UNL A   1      40.717  28.009  29.222  1.00  0.00     0.031 A 
ATOM     26  C   UNL A   1      42.143  32.362  33.612  1.00  0.00     0.049 A 
ATOM     27  C   UNL A   1      41.821  28.046  30.077  1.00  0.00     0.074 A 
ATOM     28  C   UNL A   1      43.224  32.351  34.513  1.00  0.00     0.029 A 
ATOM     29  N   UNL A   1      42.234  31.233  32.827  1.00  0.00    -0.354 N 
ATOM     30  N   UNL A   1      42.098  28.964  31.005  1.00  0.00    -0.248 NA
ATOM     31  C   UNL A   1      42.889  27.038  30.089  1.00  0.00     0.031 C 
ATOM     32  C   UNL A   1      43.964  31.236  34.269  1.00  0.00     0.029 A 
ATOM     33  C   UNL A   1      43.356  30.534  33.211  1.00  0.00     0.049 A 
ATOM     34  H   UNL A   1      41.606  30.973  32.116  1.00  0.00     0.167 HD
ATOM     35  C   UNL A   1      43.231  28.652  31.638  1.00  0.00     0.074 A 
ATOM     36  C   UNL A   1      43.760  27.412  31.053  1.00  0.00     0.031 C 
ATOM     37  C   UNL A   1      43.842  29.347  32.681  1.00  0.00     0.031 A 
BRANCH  24  38
ATOM     38  C   UNL A   1      41.296  34.523  34.527  1.00  0.00    -0.014 A 
ATOM     39  C   UNL A   1      40.670  34.346  35.750  1.00  0.00     0.009 A 
ATOM     40  C   UNL A   1      42.000  35.618  34.265  1.00  0.00     0.009 A 
ATOM     41  C   UNL A   1      40.604  35.521  36.535  1.00  0.00     0.001 A 
ATOM     42  C   UNL A   1      41.998  36.676  35.141  1.00  0.00     0.001 A 
ATOM     43  C   UNL A   1      41.351  36.593  36.342  1.00  0.00     0.000 A 
ENDBRANCH  24  38
BRANCH  25  44
ATOM     44  C   UNL A   1      40.591  26.836  28.264  1.00  0.00    -0.014 A 
ATOM     45  C   UNL A   1      41.150  26.894  26.999  1.00  0.00     0.009 A 
ATOM     46  C   UNL A   1      39.849  25.803  28.643  1.00  0.00     0.009 A 
ATOM     47  C   UNL A   1      40.626  25.938  26.096  1.00  0.00     0.001 A 
ATOM     48  C   UNL A   1      39.487  24.832  27.740  1.00  0.00     0.001 A 
ATOM     49  C   UNL A   1      39.955  24.858  26.455  1.00  0.00     0.000 A 
ENDBRANCH  25  44
BRANCH  37  50
ATOM     50  C   UNL A   1      45.117  28.771  33.274  1.00  0.00    -0.014 A 
ATOM     51  C   UNL A   1      45.018  27.888  34.338  1.00  0.00     0.009 A 
ATOM     52  C   UNL A   1      46.298  29.156  32.806  1.00  0.00     0.009 A 
ATOM     53  C   UNL A   1      46.235  27.690  35.033  1.00  0.00     0.001 A 
ATOM     54  C   UNL A   1      47.456  28.811  33.460  1.00  0.00     0.001 A 
ATOM     55  C   UNL A   1      47.429  27.991  34.554  1.00  0.00     0.000 A 
ENDBRANCH  37  50
ENDBRANCH  11  12
ENDBRANCH   4   6
ENDBRANCH   3   4
ENDBRANCH   2   3
ENDBRANCH   1   2
BRANCH   1  56
ATOM     56  O   UNL A   1      31.718  29.813  26.016  1.00  0.00    -0.458 OA
BRANCH  56  57
ATOM     57  C   UNL A   1      32.375  28.864  25.189  1.00  0.00     0.340 C 
ATOM     58  O   UNL A   1      33.263  29.247  24.364  1.00  0.00    -0.246 OA
BRANCH  57  59
ATOM     59  C   UNL A   1      32.017  27.390  25.290  1.00  0.00     0.083 A 
ATOM     60  C   UNL A   1      32.359  26.668  26.421  1.00  0.00     0.018 A 
ATOM     61  C   UNL A   1      31.469  26.799  24.235  1.00  0.00     0.053 A 
ATOM     62  C   UNL A   1      32.350  25.266  26.231  1.00  0.00     0.001 A 
ATOM     63  C   UNL A   1      31.367  25.430  24.175  1.00  0.00     0.027 A 
ATOM     64  C   UNL A   1      31.743  24.650  25.233  1.00  0.00     0.002 A 
BRANCH  61  65
ATOM     65  N   UNL A   1      30.966  27.616  23.121  1.00  0.00    -0.355 N 
ATOM     66  H   UNL A   1      31.481  27.677  22.284  1.00  0.00     0.167 HD
BRANCH  65  67
ATOM     67  C   UNL A   1      29.695  28.343  23.258  1.00  0.00     0.040 A 
ATOM     68  C   UNL A   1      28.499  27.652  23.362  1.00  0.00     0.026 A 
ATOM     69  C   UNL A   1      29.721  29.667  23.173  1.00  0.00     0.050 A 
ATOM     70  C   UNL A   1      27.357  28.436  23.077  1.00  0.00     0.004 A 
ATOM     71  C   UNL A   1      28.556  30.382  23.031  1.00  0.00     0.109 A 
ATOM     72  C   UNL A   1      27.340  29.757  23.067  1.00  0.00     0.024 A 
BRANCH  71  73
ATOM     73  S   UNL A   1      28.631  32.174  22.796  1.00  0.00     0.310 S 
ATOM     74  F   UNL A   1      27.207  32.192  23.493  1.00  0.00    -0.094 F 
ATOM     75  F   UNL A   1      27.879  32.088  21.415  1.00  0.00    -0.094 F 
ATOM     76  F   UNL A   1      28.568  33.728  22.766  1.00  0.00    -0.094 F 
ATOM     77  F   UNL A   1      29.261  32.237  24.244  1.00  0.00    -0.094 F 
ATOM     78  F   UNL A   1      28.603  30.597  22.893  1.00  0.00    -0.094 F 
ENDBRANCH  71  73
ENDBRANCH  65  67
ENDBRANCH  61  65
ENDBRANCH  57  59
ENDBRANCH  56  57
ENDBRANCH   1  56
TORSDOF 14
ENDMDL
