MODEL 1
REMARK VINA RESULT:      -9.9      0.000      0.000
REMARK SMILES C[NH2+][C@@]1(C(=O)OCCOC(=O)c2ccc(-c3c4nc(c(-c5ccccc5)c5ccc([nH]5)c(-c5ccccc5)c5nc(c(-c6ccccc6)c6ccc3[nH]6)C=C5)C=C4)cc2)CC[C@H]([NH+]2CC[NH+](C)CC2)C1
REMARK SMILES IDX 8 1 7 2 6 3 4 4 5 5 3 6 60 7 70 8 61 9 62 10 2 11 1 12 63 15
REMARK SMILES IDX 64 16 69 17 65 19 68 20 66 21 67 22 9 24 10 25 11 26 12 27
REMARK SMILES IDX 13 28 59 29 14 30 58 31 15 32 16 33 17 34 52 35 18 36 57 37
REMARK SMILES IDX 51 38 53 39 19 40 56 41 50 42 49 43 20 45 42 46 27 47 41 48
REMARK SMILES IDX 28 49 31 50 40 51 54 52 29 53 30 54 39 56 55 57 32 58 21 59
REMARK SMILES IDX 22 60 26 61 23 62 25 63 24 64 43 65 44 66 48 67 45 68 47 69
REMARK SMILES IDX 46 70 33 71 34 72 38 73 35 74 37 75 36 76
REMARK H PARENT 2 13 2 14 63 18 66 23 53 44 31 55
REMARK Flexibility Score: inf
ROOT
ATOM      1  C   UNL A   1      33.363  33.153  28.104  1.00  0.00     0.275 C 
ENDROOT
BRANCH   1   2
ATOM      2  C   UNL A   1      33.553  34.568  28.656  1.00  0.00     0.274 C 
BRANCH   2   3
ATOM      3  O   UNL A   1      33.280  34.529  30.066  1.00  0.00    -0.457 OA
BRANCH   3   4
ATOM      4  C   UNL A   1      32.868  35.675  30.664  1.00  0.00     0.368 C 
ATOM      5  O   UNL A   1      32.545  36.686  30.052  1.00  0.00    -0.245 OA
BRANCH   4   6
ATOM      6  C   UNL A   1      32.757  35.489  32.206  1.00  0.00     0.200 C 
ATOM      7  C   UNL A   1      33.290  36.709  32.973  1.00  0.00     0.087 C 
ATOM      8  C   UNL A   1      33.703  34.376  32.718  1.00  0.00     0.146 C 
ATOM      9  C   UNL A   1      34.807  36.553  32.934  1.00  0.00     0.072 C 
ATOM     10  C   UNL A   1      35.085  35.039  32.950  1.00  0.00     0.191 C 
BRANCH   6  11
ATOM     11  N   UNL A   1      31.354  35.187  32.600  1.00  0.00    -0.334 N 
ATOM     12  C   UNL A   1      30.635  36.300  33.210  1.00  0.00     0.331 C 
ATOM     13  H   UNL A   1      30.845  34.901  31.763  1.00  0.00     0.347 HD
ATOM     14  H   UNL A   1      31.407  34.456  33.308  1.00  0.00     0.347 HD
ENDBRANCH   6  11
BRANCH  10  15
ATOM     15  N   UNL A   1      36.230  34.507  32.195  1.00  0.00    -0.323 N 
ATOM     16  C   UNL A   1      36.114  33.093  31.792  1.00  0.00     0.324 C 
ATOM     17  C   UNL A   1      37.582  34.709  32.724  1.00  0.00     0.324 C 
ATOM     18  H   UNL A   1      36.141  35.123  31.386  1.00  0.00     0.348 HD
ATOM     19  C   UNL A   1      36.545  32.046  32.853  1.00  0.00     0.324 C 
ATOM     20  C   UNL A   1      37.952  33.779  33.892  1.00  0.00     0.324 C 
ATOM     21  N   UNL A   1      37.780  32.346  33.607  1.00  0.00    -0.328 N 
ATOM     22  C   UNL A   1      37.809  31.589  34.863  1.00  0.00     0.333 C 
ATOM     23  H   UNL A   1      38.556  32.064  33.008  1.00  0.00     0.348 HD
ENDBRANCH  10  15
ENDBRANCH   4   6
ENDBRANCH   3   4
ENDBRANCH   2   3
ENDBRANCH   1   2
BRANCH   1  24
ATOM     24  O   UNL A   1      34.490  32.353  28.503  1.00  0.00    -0.458 OA
BRANCH  24  25
ATOM     25  C   UNL A   1      34.542  31.117  27.945  1.00  0.00     0.338 C 
ATOM     26  O   UNL A   1      33.768  30.638  27.133  1.00  0.00    -0.246 OA
BRANCH  25  27
ATOM     27  C   UNL A   1      35.831  30.506  28.326  1.00  0.00     0.060 A 
ATOM     28  C   UNL A   1      35.950  29.952  29.606  1.00  0.00     0.016 A 
ATOM     29  C   UNL A   1      36.889  30.423  27.419  1.00  0.00     0.016 A 
ATOM     30  C   UNL A   1      37.117  29.282  29.971  1.00  0.00     0.010 A 
ATOM     31  C   UNL A   1      38.067  29.779  27.792  1.00  0.00     0.010 A 
ATOM     32  C   UNL A   1      38.185  29.210  29.070  1.00  0.00    -0.014 A 
BRANCH  32  33
ATOM     33  C   UNL A   1      39.496  28.690  29.505  1.00  0.00     0.031 A 
ATOM     34  C   UNL A   1      40.330  29.550  30.405  1.00  0.00     0.074 A 
ATOM     35  C   UNL A   1      39.947  27.501  29.069  1.00  0.00     0.049 A 
ATOM     36  N   UNL A   1      41.536  29.345  30.863  1.00  0.00    -0.248 NA
ATOM     37  C   UNL A   1      39.720  30.817  30.846  1.00  0.00     0.031 C 
ATOM     38  C   UNL A   1      39.202  26.571  28.222  1.00  0.00     0.029 A 
ATOM     39  N   UNL A   1      41.155  26.885  29.269  1.00  0.00    -0.354 N 
ATOM     40  C   UNL A   1      41.825  30.449  31.654  1.00  0.00     0.074 A 
ATOM     41  C   UNL A   1      40.683  31.333  31.593  1.00  0.00     0.031 C 
ATOM     42  C   UNL A   1      39.981  25.506  27.958  1.00  0.00     0.029 A 
ATOM     43  C   UNL A   1      41.284  25.698  28.590  1.00  0.00     0.049 A 
ATOM     44  H   UNL A   1      41.862  27.256  29.844  1.00  0.00     0.167 HD
ATOM     45  C   UNL A   1      42.948  30.707  32.363  1.00  0.00     0.031 A 
ATOM     46  C   UNL A   1      42.347  24.878  28.479  1.00  0.00     0.031 A 
ATOM     47  C   UNL A   1      44.106  29.858  32.362  1.00  0.00     0.049 A 
ATOM     48  C   UNL A   1      43.625  25.242  29.190  1.00  0.00     0.074 A 
ATOM     49  C   UNL A   1      45.308  30.034  33.024  1.00  0.00     0.029 A 
ATOM     50  N   UNL A   1      44.213  28.679  31.638  1.00  0.00    -0.354 N 
ATOM     51  N   UNL A   1      43.877  26.269  29.967  1.00  0.00    -0.248 NA
ATOM     52  C   UNL A   1      44.765  24.330  29.012  1.00  0.00     0.031 C 
ATOM     53  C   UNL A   1      46.162  28.990  32.652  1.00  0.00     0.029 A 
ATOM     54  C   UNL A   1      45.470  28.131  31.811  1.00  0.00     0.049 A 
ATOM     55  H   UNL A   1      43.498  28.291  31.082  1.00  0.00     0.167 HD
ATOM     56  C   UNL A   1      45.190  26.110  30.395  1.00  0.00     0.074 A 
ATOM     57  C   UNL A   1      45.677  24.882  29.800  1.00  0.00     0.031 C 
ATOM     58  C   UNL A   1      45.928  26.905  31.209  1.00  0.00     0.031 A 
BRANCH  45  59
ATOM     59  C   UNL A   1      42.978  31.986  33.147  1.00  0.00    -0.014 A 
ATOM     60  C   UNL A   1      43.422  33.185  32.565  1.00  0.00     0.009 A 
ATOM     61  C   UNL A   1      42.568  31.993  34.489  1.00  0.00     0.009 A 
ATOM     62  C   UNL A   1      43.491  34.355  33.323  1.00  0.00     0.001 A 
ATOM     63  C   UNL A   1      42.614  33.170  35.237  1.00  0.00     0.001 A 
ATOM     64  C   UNL A   1      43.085  34.348  34.657  1.00  0.00     0.000 A 
ENDBRANCH  45  59
BRANCH  46  65
ATOM     65  C   UNL A   1      42.267  23.647  27.648  1.00  0.00    -0.014 A 
ATOM     66  C   UNL A   1      42.651  23.669  26.298  1.00  0.00     0.009 A 
ATOM     67  C   UNL A   1      41.775  22.449  28.190  1.00  0.00     0.009 A 
ATOM     68  C   UNL A   1      42.517  22.528  25.502  1.00  0.00     0.001 A 
ATOM     69  C   UNL A   1      41.669  21.301  27.400  1.00  0.00     0.001 A 
ATOM     70  C   UNL A   1      42.031  21.345  26.055  1.00  0.00     0.000 A 
ENDBRANCH  46  65
BRANCH  58  71
ATOM     71  C   UNL A   1      47.323  26.451  31.536  1.00  0.00    -0.014 A 
ATOM     72  C   UNL A   1      47.589  25.660  32.663  1.00  0.00     0.009 A 
ATOM     73  C   UNL A   1      48.377  26.778  30.668  1.00  0.00     0.009 A 
ATOM     74  C   UNL A   1      48.891  25.229  32.929  1.00  0.00     0.001 A 
ATOM     75  C   UNL A   1      49.670  26.321  30.919  1.00  0.00     0.001 A 
ATOM     76  C   UNL A   1      49.927  25.554  32.055  1.00  0.00     0.000 A 
ENDBRANCH  58  71
ENDBRANCH  32  33
ENDBRANCH  25  27
ENDBRANCH  24  25
ENDBRANCH   1  24
TORSDOF 13
ENDMDL
MODEL 2
REMARK VINA RESULT:      -9.7      4.027      6.349
REMARK SMILES C[NH2+][C@@]1(C(=O)OCCOC(=O)c2ccc(-c3c4nc(c(-c5ccccc5)c5ccc([nH]5)c(-c5ccccc5)c5nc(c(-c6ccccc6)c6ccc3[nH]6)C=C5)C=C4)cc2)CC[C@H]([NH+]2CC[NH+](C)CC2)C1
REMARK SMILES IDX 8 1 7 2 6 3 4 4 5 5 3 6 60 7 70 8 61 9 62 10 2 11 1 12 63 15
REMARK SMILES IDX 64 16 69 17 65 19 68 20 66 21 67 22 9 24 10 25 11 26 12 27
REMARK SMILES IDX 13 28 59 29 14 30 58 31 15 32 16 33 17 34 52 35 18 36 57 37
REMARK SMILES IDX 51 38 53 39 19 40 56 41 50 42 49 43 20 45 42 46 27 47 41 48
REMARK SMILES IDX 28 49 31 50 40 51 54 52 29 53 30 54 39 56 55 57 32 58 21 59
REMARK SMILES IDX 22 60 26 61 23 62 25 63 24 64 43 65 44 66 48 67 45 68 47 69
REMARK SMILES IDX 46 70 33 71 34 72 38 73 35 74 37 75 36 76
REMARK H PARENT 2 13 2 14 63 18 66 23 53 44 31 55
REMARK Flexibility Score: inf
ROOT
ATOM      1  C   UNL A   1      32.708  30.459  27.042  1.00  0.00     0.275 C 
ENDROOT
BRANCH   1   2
ATOM      2  C   UNL A   1      32.074  29.213  26.420  1.00  0.00     0.274 C 
BRANCH   2   3
ATOM      3  O   UNL A   1      31.604  29.568  25.109  1.00  0.00    -0.457 OA
BRANCH   3   4
ATOM      4  C   UNL A   1      32.265  29.060  24.039  1.00  0.00     0.368 C 
ATOM      5  O   UNL A   1      33.479  28.898  24.001  1.00  0.00    -0.245 OA
BRANCH   4   6
ATOM      6  C   UNL A   1      31.268  28.615  22.929  1.00  0.00     0.200 C 
ATOM      7  C   UNL A   1      29.941  28.111  23.514  1.00  0.00     0.087 C 
ATOM      8  C   UNL A   1      31.767  27.352  22.185  1.00  0.00     0.146 C 
ATOM      9  C   UNL A   1      30.243  26.694  23.989  1.00  0.00     0.072 C 
ATOM     10  C   UNL A   1      31.299  26.132  23.020  1.00  0.00     0.191 C 
BRANCH   6  11
ATOM     11  N   UNL A   1      31.035  29.719  21.959  1.00  0.00    -0.334 N 
ATOM     12  C   UNL A   1      29.644  30.142  21.834  1.00  0.00     0.331 C 
ATOM     13  H   UNL A   1      31.585  30.525  22.258  1.00  0.00     0.347 HD
ATOM     14  H   UNL A   1      31.309  29.360  21.045  1.00  0.00     0.347 HD
ENDBRANCH   6  11
BRANCH  10  15
ATOM     15  N   UNL A   1      32.336  25.220  23.529  1.00  0.00    -0.323 N 
ATOM     16  C   UNL A   1      32.040  23.784  23.377  1.00  0.00     0.324 C 
ATOM     17  C   UNL A   1      32.854  25.426  24.885  1.00  0.00     0.324 C 
ATOM     18  H   UNL A   1      33.077  25.508  22.890  1.00  0.00     0.348 HD
ATOM     19  C   UNL A   1      31.171  23.146  24.493  1.00  0.00     0.324 C 
ATOM     20  C   UNL A   1      31.914  24.943  26.003  1.00  0.00     0.324 C 
ATOM     21  N   UNL A   1      31.494  23.538  25.880  1.00  0.00    -0.328 N 
ATOM     22  C   UNL A   1      30.348  23.290  26.762  1.00  0.00     0.333 C 
ATOM     23  H   UNL A   1      32.287  22.962  26.162  1.00  0.00     0.348 HD
ENDBRANCH  10  15
ENDBRANCH   4   6
ENDBRANCH   3   4
ENDBRANCH   2   3
ENDBRANCH   1   2
BRANCH   1  24
ATOM     24  O   UNL A   1      34.124  30.239  27.160  1.00  0.00    -0.458 OA
BRANCH  24  25
ATOM     25  C   UNL A   1      34.746  30.994  28.101  1.00  0.00     0.338 C 
ATOM     26  O   UNL A   1      34.267  31.908  28.752  1.00  0.00    -0.246 OA
BRANCH  25  27
ATOM     27  C   UNL A   1      36.063  30.384  28.369  1.00  0.00     0.060 A 
ATOM     28  C   UNL A   1      36.259  29.739  29.596  1.00  0.00     0.016 A 
ATOM     29  C   UNL A   1      37.073  30.391  27.405  1.00  0.00     0.016 A 
ATOM     30  C   UNL A   1      37.455  29.068  29.849  1.00  0.00     0.010 A 
ATOM     31  C   UNL A   1      38.280  29.746  27.668  1.00  0.00     0.010 A 
ATOM     32  C   UNL A   1      38.475  29.086  28.892  1.00  0.00    -0.014 A 
BRANCH  32  33
ATOM     33  C   UNL A   1      39.815  28.563  29.220  1.00  0.00     0.031 A 
ATOM     34  C   UNL A   1      40.773  29.473  29.927  1.00  0.00     0.074 A 
ATOM     35  C   UNL A   1      40.181  27.322  28.852  1.00  0.00     0.049 A 
ATOM     36  N   UNL A   1      42.020  29.268  30.258  1.00  0.00    -0.248 NA
ATOM     37  C   UNL A   1      40.251  30.797  30.309  1.00  0.00     0.031 C 
ATOM     38  C   UNL A   1      39.317  26.343  28.194  1.00  0.00     0.029 A 
ATOM     39  N   UNL A   1      41.389  26.684  28.969  1.00  0.00    -0.354 N 
ATOM     40  C   UNL A   1      42.428  30.431  30.897  1.00  0.00     0.074 A 
ATOM     41  C   UNL A   1      41.309  31.346  30.884  1.00  0.00     0.031 C 
ATOM     42  C   UNL A   1      40.033  25.231  27.946  1.00  0.00     0.029 A 
ATOM     43  C   UNL A   1      41.407  25.435  28.399  1.00  0.00     0.049 A 
ATOM     44  H   UNL A   1      42.169  27.083  29.418  1.00  0.00     0.167 HD
ATOM     45  C   UNL A   1      43.634  30.714  31.441  1.00  0.00     0.031 A 
ATOM     46  C   UNL A   1      42.428  24.570  28.245  1.00  0.00     0.031 A 
ATOM     47  C   UNL A   1      44.763  29.828  31.387  1.00  0.00     0.049 A 
ATOM     48  C   UNL A   1      43.791  24.954  28.762  1.00  0.00     0.074 A 
ATOM     49  C   UNL A   1      46.039  30.022  31.883  1.00  0.00     0.029 A 
ATOM     50  N   UNL A   1      44.753  28.583  30.775  1.00  0.00    -0.354 N 
ATOM     51  N   UNL A   1      44.159  26.039  29.400  1.00  0.00    -0.248 NA
ATOM     52  C   UNL A   1      44.878  23.988  28.542  1.00  0.00     0.031 C 
ATOM     53  C   UNL A   1      46.817  28.918  31.518  1.00  0.00     0.029 A 
ATOM     54  C   UNL A   1      46.008  28.009  30.853  1.00  0.00     0.049 A 
ATOM     55  H   UNL A   1      43.967  28.170  30.347  1.00  0.00     0.167 HD
ATOM     56  C   UNL A   1      45.510  25.874  29.684  1.00  0.00     0.074 A 
ATOM     57  C   UNL A   1      45.892  24.579  29.160  1.00  0.00     0.031 C 
ATOM     58  C   UNL A   1      46.360  26.716  30.324  1.00  0.00     0.031 A 
BRANCH  45  59
ATOM     59  C   UNL A   1      43.790  32.060  32.087  1.00  0.00    -0.014 A 
ATOM     60  C   UNL A   1      43.476  32.256  33.443  1.00  0.00     0.009 A 
ATOM     61  C   UNL A   1      44.243  33.151  31.329  1.00  0.00     0.009 A 
ATOM     62  C   UNL A   1      43.579  33.525  34.015  1.00  0.00     0.001 A 
ATOM     63  C   UNL A   1      44.368  34.413  31.911  1.00  0.00     0.001 A 
ATOM     64  C   UNL A   1      44.026  34.601  33.250  1.00  0.00     0.000 A 
ENDBRANCH  45  59
BRANCH  46  65
ATOM     65  C   UNL A   1      42.219  23.270  27.553  1.00  0.00    -0.014 A 
ATOM     66  C   UNL A   1      41.713  22.162  28.251  1.00  0.00     0.009 A 
ATOM     67  C   UNL A   1      42.554  23.119  26.198  1.00  0.00     0.009 A 
ATOM     68  C   UNL A   1      41.574  20.925  27.616  1.00  0.00     0.001 A 
ATOM     69  C   UNL A   1      42.387  21.888  25.558  1.00  0.00     0.001 A 
ATOM     70  C   UNL A   1      41.908  20.791  26.269  1.00  0.00     0.000 A 
ENDBRANCH  46  65
BRANCH  58  71
ATOM     71  C   UNL A   1      47.772  26.245  30.528  1.00  0.00    -0.014 A 
ATOM     72  C   UNL A   1      48.736  26.359  29.516  1.00  0.00     0.009 A 
ATOM     73  C   UNL A   1      48.154  25.728  31.778  1.00  0.00     0.009 A 
ATOM     74  C   UNL A   1      50.048  25.939  29.742  1.00  0.00     0.001 A 
ATOM     75  C   UNL A   1      49.472  25.338  32.010  1.00  0.00     0.001 A 
ATOM     76  C   UNL A   1      50.416  25.435  30.989  1.00  0.00     0.000 A 
ENDBRANCH  58  71
ENDBRANCH  32  33
ENDBRANCH  25  27
ENDBRANCH  24  25
ENDBRANCH   1  24
TORSDOF 13
ENDMDL
MODEL 3
REMARK VINA RESULT:      -9.5      4.685     10.250
REMARK SMILES C[NH2+][C@@]1(C(=O)OCCOC(=O)c2ccc(-c3c4nc(c(-c5ccccc5)c5ccc([nH]5)c(-c5ccccc5)c5nc(c(-c6ccccc6)c6ccc3[nH]6)C=C5)C=C4)cc2)CC[C@H]([NH+]2CC[NH+](C)CC2)C1
REMARK SMILES IDX 8 1 7 2 6 3 4 4 5 5 3 6 60 7 70 8 61 9 62 10 2 11 1 12 63 15
REMARK SMILES IDX 64 16 69 17 65 19 68 20 66 21 67 22 9 24 10 25 11 26 12 27
REMARK SMILES IDX 13 28 59 29 14 30 58 31 15 32 16 33 17 34 52 35 18 36 57 37
REMARK SMILES IDX 51 38 53 39 19 40 56 41 50 42 49 43 20 45 42 46 27 47 41 48
REMARK SMILES IDX 28 49 31 50 40 51 54 52 29 53 30 54 39 56 55 57 32 58 21 59
REMARK SMILES IDX 22 60 26 61 23 62 25 63 24 64 43 65 44 66 48 67 45 68 47 69
REMARK SMILES IDX 46 70 33 71 34 72 38 73 35 74 37 75 36 76
REMARK H PARENT 2 13 2 14 63 18 66 23 53 44 31 55
REMARK Flexibility Score: inf
ROOT
ATOM      1  C   UNL A   1      39.203  20.004  25.303  1.00  0.00     0.275 C 
ENDROOT
BRANCH   1   2
ATOM      2  C   UNL A   1      38.553  21.344  25.653  1.00  0.00     0.274 C 
BRANCH   2   3
ATOM      3  O   UNL A   1      37.284  21.405  24.983  1.00  0.00    -0.457 OA
BRANCH   3   4
ATOM      4  C   UNL A   1      36.565  22.550  25.089  1.00  0.00     0.368 C 
ATOM      5  O   UNL A   1      36.986  23.654  24.762  1.00  0.00    -0.245 OA
BRANCH   4   6
ATOM      6  C   UNL A   1      35.114  22.254  25.573  1.00  0.00     0.200 C 
ATOM      7  C   UNL A   1      34.306  21.476  24.525  1.00  0.00     0.087 C 
ATOM      8  C   UNL A   1      34.277  23.551  25.697  1.00  0.00     0.146 C 
ATOM      9  C   UNL A   1      33.887  22.529  23.504  1.00  0.00     0.072 C 
ATOM     10  C   UNL A   1      33.693  23.838  24.290  1.00  0.00     0.191 C 
BRANCH   6  11
ATOM     11  N   UNL A   1      35.131  21.531  26.874  1.00  0.00    -0.334 N 
ATOM     12  C   UNL A   1      33.997  21.815  27.747  1.00  0.00     0.331 C 
ATOM     13  H   UNL A   1      35.140  20.530  26.679  1.00  0.00     0.347 HD
ATOM     14  H   UNL A   1      35.962  21.853  27.369  1.00  0.00     0.347 HD
ENDBRANCH   6  11
BRANCH  10  15
ATOM     15  N   UNL A   1      34.043  25.120  23.658  1.00  0.00    -0.323 N 
ATOM     16  C   UNL A   1      33.939  26.301  24.534  1.00  0.00     0.324 C 
ATOM     17  C   UNL A   1      33.431  25.465  22.371  1.00  0.00     0.324 C 
ATOM     18  H   UNL A   1      35.020  24.898  23.463  1.00  0.00     0.348 HD
ATOM     19  C   UNL A   1      32.529  26.939  24.651  1.00  0.00     0.324 C 
ATOM     20  C   UNL A   1      31.972  25.941  22.471  1.00  0.00     0.324 C 
ATOM     21  N   UNL A   1      31.760  27.065  23.396  1.00  0.00    -0.328 N 
ATOM     22  C   UNL A   1      30.328  27.199  23.685  1.00  0.00     0.333 C 
ATOM     23  H   UNL A   1      32.106  27.905  22.932  1.00  0.00     0.348 HD
ENDBRANCH  10  15
ENDBRANCH   4   6
ENDBRANCH   3   4
ENDBRANCH   2   3
ENDBRANCH   1   2
BRANCH   1  24
ATOM     24  O   UNL A   1      40.122  19.655  26.353  1.00  0.00    -0.458 OA
BRANCH  24  25
ATOM     25  C   UNL A   1      41.432  19.862  26.060  1.00  0.00     0.338 C 
ATOM     26  O   UNL A   1      42.164  19.146  25.397  1.00  0.00    -0.246 OA
BRANCH  25  27
ATOM     27  C   UNL A   1      41.782  21.224  26.507  1.00  0.00     0.060 A 
ATOM     28  C   UNL A   1      41.639  21.536  27.864  1.00  0.00     0.016 A 
ATOM     29  C   UNL A   1      42.302  22.166  25.617  1.00  0.00     0.016 A 
ATOM     30  C   UNL A   1      42.048  22.780  28.342  1.00  0.00     0.010 A 
ATOM     31  C   UNL A   1      42.685  23.421  26.088  1.00  0.00     0.010 A 
ATOM     32  C   UNL A   1      42.556  23.732  27.450  1.00  0.00    -0.014 A 
BRANCH  32  33
ATOM     33  C   UNL A   1      42.800  25.117  27.897  1.00  0.00     0.031 A 
ATOM     34  C   UNL A   1      44.206  25.508  28.239  1.00  0.00     0.074 A 
ATOM     35  C   UNL A   1      41.785  25.987  28.038  1.00  0.00     0.049 A 
ATOM     36  N   UNL A   1      44.659  26.637  28.717  1.00  0.00    -0.248 NA
ATOM     37  C   UNL A   1      45.240  24.484  28.014  1.00  0.00     0.031 C 
ATOM     38  C   UNL A   1      40.388  25.721  27.699  1.00  0.00     0.029 A 
ATOM     39  N   UNL A   1      41.778  27.269  28.523  1.00  0.00    -0.354 N 
ATOM     40  C   UNL A   1      46.031  26.462  28.838  1.00  0.00     0.074 A 
ATOM     41  C   UNL A   1      46.334  25.114  28.413  1.00  0.00     0.031 C 
ATOM     42  C   UNL A   1      39.653  26.805  28.007  1.00  0.00     0.029 A 
ATOM     43  C   UNL A   1      40.523  27.823  28.592  1.00  0.00     0.049 A 
ATOM     44  H   UNL A   1      42.594  27.747  28.797  1.00  0.00     0.167 HD
ATOM     45  C   UNL A   1      46.957  27.346  29.276  1.00  0.00     0.031 A 
ATOM     46  C   UNL A   1      40.129  29.009  29.094  1.00  0.00     0.031 A 
ATOM     47  C   UNL A   1      46.640  28.659  29.765  1.00  0.00     0.049 A 
ATOM     48  C   UNL A   1      41.167  29.934  29.676  1.00  0.00     0.074 A 
ATOM     49  C   UNL A   1      47.496  29.629  30.255  1.00  0.00     0.029 A 
ATOM     50  N   UNL A   1      45.355  29.175  29.848  1.00  0.00    -0.354 N 
ATOM     51  N   UNL A   1      42.467  29.777  29.752  1.00  0.00    -0.248 NA
ATOM     52  C   UNL A   1      40.681  31.203  30.238  1.00  0.00     0.031 C 
ATOM     53  C   UNL A   1      46.720  30.709  30.689  1.00  0.00     0.029 A 
ATOM     54  C   UNL A   1      45.389  30.437  30.410  1.00  0.00     0.049 A 
ATOM     55  H   UNL A   1      44.539  28.709  29.551  1.00  0.00     0.167 HD
ATOM     56  C   UNL A   1      42.957  30.938  30.340  1.00  0.00     0.074 A 
ATOM     57  C   UNL A   1      41.815  31.794  30.589  1.00  0.00     0.031 C 
ATOM     58  C   UNL A   1      44.236  31.269  30.644  1.00  0.00     0.031 A 
BRANCH  45  59
ATOM     59  C   UNL A   1      48.385  26.885  29.287  1.00  0.00    -0.014 A 
ATOM     60  C   UNL A   1      48.908  26.166  30.375  1.00  0.00     0.009 A 
ATOM     61  C   UNL A   1      49.224  27.182  28.202  1.00  0.00     0.009 A 
ATOM     62  C   UNL A   1      50.252  25.788  30.391  1.00  0.00     0.001 A 
ATOM     63  C   UNL A   1      50.560  26.781  28.210  1.00  0.00     0.001 A 
ATOM     64  C   UNL A   1      51.076  26.093  29.309  1.00  0.00     0.000 A 
ENDBRANCH  45  59
BRANCH  46  65
ATOM     65  C   UNL A   1      38.690  29.388  29.094  1.00  0.00    -0.014 A 
ATOM     66  C   UNL A   1      37.866  29.064  30.184  1.00  0.00     0.009 A 
ATOM     67  C   UNL A   1      38.124  30.047  27.991  1.00  0.00     0.009 A 
ATOM     68  C   UNL A   1      36.502  29.366  30.156  1.00  0.00     0.001 A 
ATOM     69  C   UNL A   1      36.765  30.373  27.979  1.00  0.00     0.001 A 
ATOM     70  C   UNL A   1      35.954  30.024  29.056  1.00  0.00     0.000 A 
ENDBRANCH  46  65
BRANCH  58  71
ATOM     71  C   UNL A   1      44.473  32.628  31.241  1.00  0.00    -0.014 A 
ATOM     72  C   UNL A   1      44.499  32.823  32.630  1.00  0.00     0.009 A 
ATOM     73  C   UNL A   1      44.728  33.719  30.394  1.00  0.00     0.009 A 
ATOM     74  C   UNL A   1      44.748  34.092  33.158  1.00  0.00     0.001 A 
ATOM     75  C   UNL A   1      45.006  34.978  30.925  1.00  0.00     0.001 A 
ATOM     76  C   UNL A   1      45.007  35.165  32.306  1.00  0.00     0.000 A 
ENDBRANCH  58  71
ENDBRANCH  32  33
ENDBRANCH  25  27
ENDBRANCH  24  25
ENDBRANCH   1  24
TORSDOF 13
ENDMDL
