MODEL 1
REMARK VINA RESULT:      -9.4      0.000      0.000
REMARK SMILES CS(=O)(=O)c1ccc(/C=C(/C(=O)OCCOC(=O)c2ccc(-c3c4nc(c(-c5ccccc5)c5ccc([nH]5)c(-c5ccccc5)c5nc(c(-c6ccccc6)c6ccc3[nH]6)C=C5)C=C4)cc2)c2cccc(-c3ccc(S(C)(=O)=O)cc3)c2)cc1
REMARK SMILES IDX 14 1 13 2 11 3 12 4 10 5 9 6 8 7 5 8 6 9 84 10 7 11 83 12
REMARK SMILES IDX 2 13 1 14 3 15 4 16 67 17 68 18 82 19 69 20 71 21 70 22
REMARK SMILES IDX 72 23 73 24 81 25 74 26 80 27 75 28 76 29 77 30 78 31 79 32
REMARK SMILES IDX 15 33 16 34 17 35 18 36 19 37 20 38 66 39 21 40 65 41 22 42
REMARK SMILES IDX 23 43 24 44 59 45 25 46 64 47 58 48 60 49 26 50 63 51 57 52
REMARK SMILES IDX 56 53 27 55 49 56 34 57 48 58 35 59 38 60 47 61 61 62 36 63
REMARK SMILES IDX 37 64 46 66 62 67 39 68 28 69 29 70 33 71 30 72 32 73 31 74
REMARK SMILES IDX 50 75 51 76 55 77 52 78 54 79 53 80 40 81 41 82 45 83 42 84
REMARK SMILES IDX 44 85 43 86
REMARK H PARENT 60 54 38 65
REMARK Flexibility Score: inf
ROOT
ATOM      1  C   UNL A   1      33.673  34.233  28.381  1.00  0.00     0.275 C 
ENDROOT
BRANCH   1   2
ATOM      2  O   UNL A   1      35.098  34.175  28.167  1.00  0.00    -0.458 OA
BRANCH   2   3
ATOM      3  C   UNL A   1      35.612  32.926  28.033  1.00  0.00     0.338 C 
ATOM      4  O   UNL A   1      35.144  32.035  27.338  1.00  0.00    -0.246 OA
BRANCH   3   5
ATOM      5  C   UNL A   1      36.870  32.749  28.815  1.00  0.00     0.067 C 
ATOM      6  C   UNL A   1      37.579  33.842  29.181  1.00  0.00     0.024 C 
BRANCH   6   7
ATOM      7  C   UNL A   1      38.664  33.885  30.189  1.00  0.00    -0.025 A 
ATOM      8  C   UNL A   1      40.904  34.264  31.828  1.00  0.00     0.067 A 
ATOM      9  C   UNL A   1      39.657  34.716  32.253  1.00  0.00     0.021 A 
ATOM     10  C   UNL A   1      41.029  33.533  30.648  1.00  0.00     0.021 A 
ATOM     11  C   UNL A   1      38.539  34.497  31.445  1.00  0.00     0.009 A 
ATOM     12  C   UNL A   1      39.910  33.350  29.831  1.00  0.00     0.009 A 
BRANCH   8  13
ATOM     13  S   UNL A   1      42.337  34.644  32.806  1.00  0.00     0.175 S 
ATOM     14  C   UNL A   1      41.659  35.005  34.409  1.00  0.00     0.163 C 
ATOM     15  O   UNL A   1      42.918  35.866  32.282  1.00  0.00    -0.224 OA
ATOM     16  O   UNL A   1      43.120  33.428  32.906  1.00  0.00    -0.224 OA
ENDBRANCH   8  13
ENDBRANCH   6   7
BRANCH   5  17
ATOM     17  C   UNL A   1      37.195  31.394  29.304  1.00  0.00    -0.010 A 
ATOM     18  C   UNL A   1      36.367  30.788  30.258  1.00  0.00     0.009 A 
ATOM     19  C   UNL A   1      38.234  30.653  28.725  1.00  0.00     0.017 A 
ATOM     20  C   UNL A   1      36.586  29.466  30.638  1.00  0.00     0.001 A 
ATOM     21  C   UNL A   1      38.428  29.299  29.050  1.00  0.00    -0.018 A 
ATOM     22  C   UNL A   1      37.609  28.730  30.040  1.00  0.00     0.009 A 
BRANCH  21  23
ATOM     23  C   UNL A   1      39.359  28.477  28.259  1.00  0.00    -0.018 A 
ATOM     24  C   UNL A   1      40.105  29.072  27.224  1.00  0.00     0.010 A 
ATOM     25  C   UNL A   1      39.616  27.131  28.575  1.00  0.00     0.010 A 
ATOM     26  C   UNL A   1      41.103  28.365  26.553  1.00  0.00     0.021 A 
ATOM     27  C   UNL A   1      40.612  26.413  27.906  1.00  0.00     0.021 A 
ATOM     28  C   UNL A   1      41.354  27.039  26.905  1.00  0.00     0.067 A 
BRANCH  28  29
ATOM     29  S   UNL A   1      42.703  26.194  26.119  1.00  0.00     0.175 S 
ATOM     30  C   UNL A   1      43.859  27.488  25.755  1.00  0.00     0.163 C 
ATOM     31  O   UNL A   1      43.286  25.325  27.124  1.00  0.00    -0.224 OA
ATOM     32  O   UNL A   1      42.219  25.662  24.859  1.00  0.00    -0.224 OA
ENDBRANCH  28  29
ENDBRANCH  21  23
ENDBRANCH   5  17
ENDBRANCH   3   5
ENDBRANCH   2   3
ENDBRANCH   1   2
BRANCH   1  33
ATOM     33  C   UNL A   1      33.330  35.161  29.545  1.00  0.00     0.275 C 
BRANCH  33  34
ATOM     34  O   UNL A   1      34.234  34.946  30.645  1.00  0.00    -0.458 OA
BRANCH  34  35
ATOM     35  C   UNL A   1      33.651  34.792  31.854  1.00  0.00     0.338 C 
ATOM     36  O   UNL A   1      32.511  35.083  32.173  1.00  0.00    -0.246 OA
BRANCH  35  37
ATOM     37  C   UNL A   1      34.592  34.178  32.806  1.00  0.00     0.060 A 
ATOM     38  C   UNL A   1      35.350  34.982  33.652  1.00  0.00     0.016 A 
ATOM     39  C   UNL A   1      34.865  32.814  32.711  1.00  0.00     0.016 A 
ATOM     40  C   UNL A   1      36.468  34.450  34.294  1.00  0.00     0.010 A 
ATOM     41  C   UNL A   1      35.917  32.264  33.451  1.00  0.00     0.010 A 
ATOM     42  C   UNL A   1      36.772  33.084  34.208  1.00  0.00    -0.014 A 
BRANCH  42  43
ATOM     43  C   UNL A   1      37.997  32.516  34.847  1.00  0.00     0.031 A 
ATOM     44  C   UNL A   1      38.274  32.756  36.313  1.00  0.00     0.074 A 
ATOM     45  C   UNL A   1      38.880  31.782  34.137  1.00  0.00     0.049 A 
ATOM     46  N   UNL A   1      39.390  32.599  36.983  1.00  0.00    -0.248 NA
ATOM     47  C   UNL A   1      37.153  33.250  37.130  1.00  0.00     0.031 C 
ATOM     48  C   UNL A   1      38.735  31.390  32.735  1.00  0.00     0.029 A 
ATOM     49  N   UNL A   1      40.086  31.236  34.509  1.00  0.00    -0.354 N 
ATOM     50  C   UNL A   1      39.129  33.057  38.270  1.00  0.00     0.074 A 
ATOM     51  C   UNL A   1      37.744  33.475  38.296  1.00  0.00     0.031 C 
ATOM     52  C   UNL A   1      39.782  30.632  32.378  1.00  0.00     0.029 A 
ATOM     53  C   UNL A   1      40.729  30.584  33.484  1.00  0.00     0.049 A 
ATOM     54  H   UNL A   1      40.453  31.304  35.419  1.00  0.00     0.167 HD
ATOM     55  C   UNL A   1      39.972  33.137  39.328  1.00  0.00     0.031 A 
ATOM     56  C   UNL A   1      41.967  30.063  33.407  1.00  0.00     0.031 A 
ATOM     57  C   UNL A   1      41.331  32.662  39.324  1.00  0.00     0.049 A 
ATOM     58  C   UNL A   1      42.898  30.189  34.577  1.00  0.00     0.074 A 
ATOM     59  C   UNL A   1      42.262  32.696  40.350  1.00  0.00     0.029 A 
ATOM     60  N   UNL A   1      41.946  32.042  38.248  1.00  0.00    -0.354 N 
ATOM     61  N   UNL A   1      42.675  30.724  35.752  1.00  0.00    -0.248 NA
ATOM     62  C   UNL A   1      44.259  29.666  34.396  1.00  0.00     0.031 C 
ATOM     63  C   UNL A   1      43.450  32.122  39.884  1.00  0.00     0.029 A 
ATOM     64  C   UNL A   1      43.243  31.692  38.583  1.00  0.00     0.049 A 
ATOM     65  H   UNL A   1      41.524  31.875  37.375  1.00  0.00     0.167 HD
ATOM     66  C   UNL A   1      43.866  30.596  36.453  1.00  0.00     0.074 A 
ATOM     67  C   UNL A   1      44.800  29.916  35.581  1.00  0.00     0.031 C 
ATOM     68  C   UNL A   1      44.160  31.014  37.707  1.00  0.00     0.031 A 
BRANCH  55  69
ATOM     69  C   UNL A   1      39.470  33.810  40.576  1.00  0.00    -0.014 A 
ATOM     70  C   UNL A   1      38.940  33.081  41.650  1.00  0.00     0.009 A 
ATOM     71  C   UNL A   1      39.584  35.207  40.693  1.00  0.00     0.009 A 
ATOM     72  C   UNL A   1      38.510  33.739  42.806  1.00  0.00     0.001 A 
ATOM     73  C   UNL A   1      39.176  35.858  41.858  1.00  0.00     0.001 A 
ATOM     74  C   UNL A   1      38.634  35.125  42.911  1.00  0.00     0.000 A 
ENDBRANCH  55  69
BRANCH  56  75
ATOM     75  C   UNL A   1      42.423  29.438  32.138  1.00  0.00    -0.014 A 
ATOM     76  C   UNL A   1      42.393  28.046  31.976  1.00  0.00     0.009 A 
ATOM     77  C   UNL A   1      42.866  30.237  31.071  1.00  0.00     0.009 A 
ATOM     78  C   UNL A   1      42.803  27.467  30.774  1.00  0.00     0.001 A 
ATOM     79  C   UNL A   1      43.246  29.658  29.861  1.00  0.00     0.001 A 
ATOM     80  C   UNL A   1      43.220  28.273  29.715  1.00  0.00     0.000 A 
ENDBRANCH  56  75
BRANCH  68  81
ATOM     81  C   UNL A   1      45.536  30.710  38.223  1.00  0.00    -0.014 A 
ATOM     82  C   UNL A   1      46.591  31.620  38.057  1.00  0.00     0.009 A 
ATOM     83  C   UNL A   1      45.772  29.506  38.904  1.00  0.00     0.009 A 
ATOM     84  C   UNL A   1      47.865  31.315  38.540  1.00  0.00     0.001 A 
ATOM     85  C   UNL A   1      47.040  29.214  39.405  1.00  0.00     0.001 A 
ATOM     86  C   UNL A   1      48.088  30.115  39.216  1.00  0.00     0.000 A 
ENDBRANCH  68  81
ENDBRANCH  42  43
ENDBRANCH  35  37
ENDBRANCH  34  35
ENDBRANCH  33  34
ENDBRANCH   1  33
TORSDOF 16
ENDMDL
MODEL 2
REMARK VINA RESULT:      -8.9      5.682     10.908
REMARK SMILES CS(=O)(=O)c1ccc(/C=C(/C(=O)OCCOC(=O)c2ccc(-c3c4nc(c(-c5ccccc5)c5ccc([nH]5)c(-c5ccccc5)c5nc(c(-c6ccccc6)c6ccc3[nH]6)C=C5)C=C4)cc2)c2cccc(-c3ccc(S(C)(=O)=O)cc3)c2)cc1
REMARK SMILES IDX 14 1 13 2 11 3 12 4 10 5 9 6 8 7 5 8 6 9 84 10 7 11 83 12
REMARK SMILES IDX 2 13 1 14 3 15 4 16 67 17 68 18 82 19 69 20 71 21 70 22
REMARK SMILES IDX 72 23 73 24 81 25 74 26 80 27 75 28 76 29 77 30 78 31 79 32
REMARK SMILES IDX 15 33 16 34 17 35 18 36 19 37 20 38 66 39 21 40 65 41 22 42
REMARK SMILES IDX 23 43 24 44 59 45 25 46 64 47 58 48 60 49 26 50 63 51 57 52
REMARK SMILES IDX 56 53 27 55 49 56 34 57 48 58 35 59 38 60 47 61 61 62 36 63
REMARK SMILES IDX 37 64 46 66 62 67 39 68 28 69 29 70 33 71 30 72 32 73 31 74
REMARK SMILES IDX 50 75 51 76 55 77 52 78 54 79 53 80 40 81 41 82 45 83 42 84
REMARK SMILES IDX 44 85 43 86
REMARK H PARENT 60 54 38 65
REMARK Flexibility Score: inf
ROOT
ATOM      1  C   UNL A   1      41.417  20.330  26.308  1.00  0.00     0.275 C 
ENDROOT
BRANCH   1   2
ATOM      2  O   UNL A   1      42.658  20.949  26.703  1.00  0.00    -0.458 OA
BRANCH   2   3
ATOM      3  C   UNL A   1      42.932  22.134  26.098  1.00  0.00     0.338 C 
ATOM      4  O   UNL A   1      42.739  22.391  24.918  1.00  0.00    -0.246 OA
BRANCH   3   5
ATOM      5  C   UNL A   1      43.478  23.140  27.055  1.00  0.00     0.067 C 
ATOM      6  C   UNL A   1      42.956  23.217  28.301  1.00  0.00     0.024 C 
BRANCH   6   7
ATOM      7  C   UNL A   1      43.551  23.928  29.457  1.00  0.00    -0.025 A 
ATOM      8  C   UNL A   1      44.257  25.353  31.763  1.00  0.00     0.067 A 
ATOM      9  C   UNL A   1      44.488  23.980  31.706  1.00  0.00     0.021 A 
ATOM     10  C   UNL A   1      43.778  26.040  30.648  1.00  0.00     0.021 A 
ATOM     11  C   UNL A   1      44.161  23.281  30.541  1.00  0.00     0.009 A 
ATOM     12  C   UNL A   1      43.422  25.324  29.502  1.00  0.00     0.009 A 
BRANCH   8  13
ATOM     13  S   UNL A   1      44.570  26.216  33.283  1.00  0.00     0.175 S 
ATOM     14  C   UNL A   1      44.996  24.915  34.416  1.00  0.00     0.163 C 
ATOM     15  O   UNL A   1      43.316  26.800  33.725  1.00  0.00    -0.224 OA
ATOM     16  O   UNL A   1      45.744  27.040  33.072  1.00  0.00    -0.224 OA
ENDBRANCH   8  13
ENDBRANCH   6   7
BRANCH   5  17
ATOM     17  C   UNL A   1      44.682  23.893  26.653  1.00  0.00    -0.010 A 
ATOM     18  C   UNL A   1      44.682  24.596  25.441  1.00  0.00     0.009 A 
ATOM     19  C   UNL A   1      45.768  24.030  27.527  1.00  0.00     0.017 A 
ATOM     20  C   UNL A   1      45.760  25.412  25.103  1.00  0.00     0.001 A 
ATOM     21  C   UNL A   1      46.833  24.898  27.231  1.00  0.00    -0.018 A 
ATOM     22  C   UNL A   1      46.826  25.559  25.991  1.00  0.00     0.009 A 
BRANCH  21  23
ATOM     23  C   UNL A   1      47.837  25.214  28.261  1.00  0.00    -0.018 A 
ATOM     24  C   UNL A   1      47.415  25.573  29.556  1.00  0.00     0.010 A 
ATOM     25  C   UNL A   1      49.215  25.059  28.031  1.00  0.00     0.010 A 
ATOM     26  C   UNL A   1      48.329  25.734  30.597  1.00  0.00     0.021 A 
ATOM     27  C   UNL A   1      50.140  25.221  29.067  1.00  0.00     0.021 A 
ATOM     28  C   UNL A   1      49.688  25.550  30.345  1.00  0.00     0.067 A 
BRANCH  28  29
ATOM     29  S   UNL A   1      50.824  25.645  31.706  1.00  0.00     0.175 S 
ATOM     30  C   UNL A   1      51.059  23.953  32.181  1.00  0.00     0.163 C 
ATOM     31  O   UNL A   1      52.072  26.149  31.166  1.00  0.00    -0.224 OA
ATOM     32  O   UNL A   1      50.151  26.324  32.797  1.00  0.00    -0.224 OA
ENDBRANCH  28  29
ENDBRANCH  21  23
ENDBRANCH   5  17
ENDBRANCH   3   5
ENDBRANCH   2   3
ENDBRANCH   1   2
BRANCH   1  33
ATOM     33  C   UNL A   1      40.219  21.105  26.854  1.00  0.00     0.275 C 
BRANCH  33  34
ATOM     34  O   UNL A   1      39.587  21.861  25.805  1.00  0.00    -0.458 OA
BRANCH  34  35
ATOM     35  C   UNL A   1      38.742  22.833  26.217  1.00  0.00     0.338 C 
ATOM     36  O   UNL A   1      37.523  22.811  26.207  1.00  0.00    -0.246 OA
BRANCH  35  37
ATOM     37  C   UNL A   1      39.496  23.989  26.729  1.00  0.00     0.060 A 
ATOM     38  C   UNL A   1      39.358  24.377  28.058  1.00  0.00     0.016 A 
ATOM     39  C   UNL A   1      40.181  24.807  25.832  1.00  0.00     0.016 A 
ATOM     40  C   UNL A   1      39.782  25.644  28.457  1.00  0.00     0.010 A 
ATOM     41  C   UNL A   1      40.708  26.028  26.268  1.00  0.00     0.010 A 
ATOM     42  C   UNL A   1      40.464  26.492  27.573  1.00  0.00    -0.014 A 
BRANCH  42  43
ATOM     43  C   UNL A   1      40.874  27.872  27.974  1.00  0.00     0.031 A 
ATOM     44  C   UNL A   1      42.326  28.286  27.910  1.00  0.00     0.074 A 
ATOM     45  C   UNL A   1      39.966  28.774  28.401  1.00  0.00     0.049 A 
ATOM     46  N   UNL A   1      42.921  29.313  28.466  1.00  0.00    -0.248 NA
ATOM     47  C   UNL A   1      43.230  27.424  27.131  1.00  0.00     0.031 C 
ATOM     48  C   UNL A   1      38.518  28.572  28.456  1.00  0.00     0.029 A 
ATOM     49  N   UNL A   1      40.137  30.053  28.877  1.00  0.00    -0.354 N 
ATOM     50  C   UNL A   1      44.274  29.171  28.178  1.00  0.00     0.074 A 
ATOM     51  C   UNL A   1      44.412  27.973  27.379  1.00  0.00     0.031 C 
ATOM     52  C   UNL A   1      37.931  29.695  28.893  1.00  0.00     0.029 A 
ATOM     53  C   UNL A   1      38.963  30.654  29.263  1.00  0.00     0.049 A 
ATOM     54  H   UNL A   1      41.014  30.494  28.937  1.00  0.00     0.167 HD
ATOM     55  C   UNL A   1      45.309  29.959  28.560  1.00  0.00     0.031 A 
ATOM     56  C   UNL A   1      38.733  31.814  29.905  1.00  0.00     0.031 A 
ATOM     57  C   UNL A   1      45.168  31.186  29.300  1.00  0.00     0.049 A 
ATOM     58  C   UNL A   1      39.892  32.657  30.349  1.00  0.00     0.074 A 
ATOM     59  C   UNL A   1      46.158  32.054  29.730  1.00  0.00     0.029 A 
ATOM     60  N   UNL A   1      43.959  31.732  29.698  1.00  0.00    -0.354 N 
ATOM     61  N   UNL A   1      41.174  32.456  30.167  1.00  0.00    -0.248 NA
ATOM     62  C   UNL A   1      39.570  33.871  31.112  1.00  0.00     0.031 C 
ATOM     63  C   UNL A   1      45.549  33.112  30.413  1.00  0.00     0.029 A 
ATOM     64  C   UNL A   1      44.177  32.923  30.369  1.00  0.00     0.049 A 
ATOM     65  H   UNL A   1      43.075  31.333  29.528  1.00  0.00     0.167 HD
ATOM     66  C   UNL A   1      41.811  33.521  30.788  1.00  0.00     0.074 A 
ATOM     67  C   UNL A   1      40.777  34.376  31.332  1.00  0.00     0.031 C 
ATOM     68  C   UNL A   1      43.139  33.763  30.903  1.00  0.00     0.031 A 
BRANCH  55  69
ATOM     69  C   UNL A   1      46.701  29.496  28.230  1.00  0.00    -0.014 A 
ATOM     70  C   UNL A   1      47.135  29.335  26.906  1.00  0.00     0.009 A 
ATOM     71  C   UNL A   1      47.613  29.270  29.276  1.00  0.00     0.009 A 
ATOM     72  C   UNL A   1      48.446  28.932  26.638  1.00  0.00     0.001 A 
ATOM     73  C   UNL A   1      48.928  28.890  29.004  1.00  0.00     0.001 A 
ATOM     74  C   UNL A   1      49.342  28.715  27.685  1.00  0.00     0.000 A 
ENDBRANCH  55  69
BRANCH  56  75
ATOM     75  C   UNL A   1      37.338  32.206  30.235  1.00  0.00    -0.014 A 
ATOM     76  C   UNL A   1      36.584  32.979  29.341  1.00  0.00     0.009 A 
ATOM     77  C   UNL A   1      36.747  31.785  31.437  1.00  0.00     0.009 A 
ATOM     78  C   UNL A   1      35.266  33.326  29.648  1.00  0.00     0.001 A 
ATOM     79  C   UNL A   1      35.421  32.108  31.727  1.00  0.00     0.001 A 
ATOM     80  C   UNL A   1      34.684  32.884  30.836  1.00  0.00     0.000 A 
ENDBRANCH  56  75
BRANCH  68  81
ATOM     81  C   UNL A   1      43.543  35.023  31.610  1.00  0.00    -0.014 A 
ATOM     82  C   UNL A   1      43.662  36.238  30.918  1.00  0.00     0.009 A 
ATOM     83  C   UNL A   1      43.786  34.997  32.992  1.00  0.00     0.009 A 
ATOM     84  C   UNL A   1      44.043  37.398  31.594  1.00  0.00     0.001 A 
ATOM     85  C   UNL A   1      44.145  36.163  33.669  1.00  0.00     0.001 A 
ATOM     86  C   UNL A   1      44.282  37.361  32.968  1.00  0.00     0.000 A 
ENDBRANCH  68  81
ENDBRANCH  42  43
ENDBRANCH  35  37
ENDBRANCH  34  35
ENDBRANCH  33  34
ENDBRANCH   1  33
TORSDOF 16
ENDMDL
MODEL 3
REMARK VINA RESULT:      -8.3      5.754     10.153
REMARK SMILES CS(=O)(=O)c1ccc(/C=C(/C(=O)OCCOC(=O)c2ccc(-c3c4nc(c(-c5ccccc5)c5ccc([nH]5)c(-c5ccccc5)c5nc(c(-c6ccccc6)c6ccc3[nH]6)C=C5)C=C4)cc2)c2cccc(-c3ccc(S(C)(=O)=O)cc3)c2)cc1
REMARK SMILES IDX 14 1 13 2 11 3 12 4 10 5 9 6 8 7 5 8 6 9 84 10 7 11 83 12
REMARK SMILES IDX 2 13 1 14 3 15 4 16 67 17 68 18 82 19 69 20 71 21 70 22
REMARK SMILES IDX 72 23 73 24 81 25 74 26 80 27 75 28 76 29 77 30 78 31 79 32
REMARK SMILES IDX 15 33 16 34 17 35 18 36 19 37 20 38 66 39 21 40 65 41 22 42
REMARK SMILES IDX 23 43 24 44 59 45 25 46 64 47 58 48 60 49 26 50 63 51 57 52
REMARK SMILES IDX 56 53 27 55 49 56 34 57 48 58 35 59 38 60 47 61 61 62 36 63
REMARK SMILES IDX 37 64 46 66 62 67 39 68 28 69 29 70 33 71 30 72 32 73 31 74
REMARK SMILES IDX 50 75 51 76 55 77 52 78 54 79 53 80 40 81 41 82 45 83 42 84
REMARK SMILES IDX 44 85 43 86
REMARK H PARENT 60 54 38 65
REMARK Flexibility Score: inf
ROOT
ATOM      1  C   UNL A   1      37.057  28.961  30.401  1.00  0.00     0.275 C 
ENDROOT
BRANCH   1   2
ATOM      2  O   UNL A   1      37.894  29.732  29.513  1.00  0.00    -0.458 OA
BRANCH   2   3
ATOM      3  C   UNL A   1      37.241  30.361  28.503  1.00  0.00     0.338 C 
ATOM      4  O   UNL A   1      37.097  29.924  27.369  1.00  0.00    -0.246 OA
BRANCH   3   5
ATOM      5  C   UNL A   1      36.666  31.668  28.934  1.00  0.00     0.067 C 
ATOM      6  C   UNL A   1      35.330  31.863  28.846  1.00  0.00     0.024 C 
BRANCH   6   7
ATOM      7  C   UNL A   1      34.560  32.954  29.488  1.00  0.00    -0.025 A 
ATOM      8  C   UNL A   1      33.498  35.196  30.789  1.00  0.00     0.067 A 
ATOM      9  C   UNL A   1      33.324  35.052  29.414  1.00  0.00     0.021 A 
ATOM     10  C   UNL A   1      34.101  34.186  31.537  1.00  0.00     0.021 A 
ATOM     11  C   UNL A   1      33.829  33.917  28.777  1.00  0.00     0.009 A 
ATOM     12  C   UNL A   1      34.633  33.072  30.884  1.00  0.00     0.009 A 
BRANCH   8  13
ATOM     13  S   UNL A   1      32.952  36.692  31.574  1.00  0.00     0.175 S 
ATOM     14  C   UNL A   1      34.191  36.983  32.815  1.00  0.00     0.163 C 
ATOM     15  O   UNL A   1      31.701  36.404  32.251  1.00  0.00    -0.224 OA
ATOM     16  O   UNL A   1      33.039  37.750  30.586  1.00  0.00    -0.224 OA
ENDBRANCH   8  13
ENDBRANCH   6   7
BRANCH   5  17
ATOM     17  C   UNL A   1      37.565  32.633  29.598  1.00  0.00    -0.010 A 
ATOM     18  C   UNL A   1      38.094  33.701  28.861  1.00  0.00     0.009 A 
ATOM     19  C   UNL A   1      37.782  32.576  30.980  1.00  0.00     0.017 A 
ATOM     20  C   UNL A   1      38.841  34.689  29.498  1.00  0.00     0.001 A 
ATOM     21  C   UNL A   1      38.480  33.599  31.648  1.00  0.00    -0.018 A 
ATOM     22  C   UNL A   1      39.034  34.636  30.879  1.00  0.00     0.009 A 
BRANCH  21  23
ATOM     23  C   UNL A   1      38.487  33.648  33.119  1.00  0.00    -0.018 A 
ATOM     24  C   UNL A   1      37.778  32.677  33.851  1.00  0.00     0.010 A 
ATOM     25  C   UNL A   1      39.275  34.571  33.829  1.00  0.00     0.010 A 
ATOM     26  C   UNL A   1      37.881  32.599  35.240  1.00  0.00     0.021 A 
ATOM     27  C   UNL A   1      39.383  34.503  35.222  1.00  0.00     0.021 A 
ATOM     28  C   UNL A   1      38.690  33.512  35.916  1.00  0.00     0.067 A 
BRANCH  28  29
ATOM     29  S   UNL A   1      38.898  33.325  37.669  1.00  0.00     0.175 S 
ATOM     30  C   UNL A   1      37.273  32.911  38.246  1.00  0.00     0.163 C 
ATOM     31  O   UNL A   1      39.761  32.176  37.862  1.00  0.00    -0.224 OA
ATOM     32  O   UNL A   1      39.246  34.623  38.214  1.00  0.00    -0.224 OA
ENDBRANCH  28  29
ENDBRANCH  21  23
ENDBRANCH   5  17
ENDBRANCH   3   5
ENDBRANCH   2   3
ENDBRANCH   1   2
BRANCH   1  33
ATOM     33  C   UNL A   1      37.840  28.498  31.628  1.00  0.00     0.275 C 
BRANCH  33  34
ATOM     34  O   UNL A   1      38.384  29.628  32.335  1.00  0.00    -0.458 OA
BRANCH  34  35
ATOM     35  C   UNL A   1      39.642  29.470  32.802  1.00  0.00     0.338 C 
ATOM     36  O   UNL A   1      40.043  28.630  33.590  1.00  0.00    -0.246 OA
BRANCH  35  37
ATOM     37  C   UNL A   1      40.542  30.473  32.209  1.00  0.00     0.060 A 
ATOM     38  C   UNL A   1      40.768  30.479  30.836  1.00  0.00     0.016 A 
ATOM     39  C   UNL A   1      41.318  31.273  33.047  1.00  0.00     0.016 A 
ATOM     40  C   UNL A   1      41.858  31.178  30.317  1.00  0.00     0.010 A 
ATOM     41  C   UNL A   1      42.337  32.063  32.504  1.00  0.00     0.010 A 
ATOM     42  C   UNL A   1      42.661  31.983  31.138  1.00  0.00    -0.014 A 
BRANCH  42  43
ATOM     43  C   UNL A   1      43.863  32.691  30.602  1.00  0.00     0.031 A 
ATOM     44  C   UNL A   1      43.738  34.088  30.040  1.00  0.00     0.074 A 
ATOM     45  C   UNL A   1      45.078  32.105  30.604  1.00  0.00     0.049 A 
ATOM     46  N   UNL A   1      44.574  34.756  29.285  1.00  0.00    -0.248 NA
ATOM     47  C   UNL A   1      42.503  34.824  30.358  1.00  0.00     0.031 C 
ATOM     48  C   UNL A   1      45.397  30.795  31.173  1.00  0.00     0.029 A 
ATOM     49  N   UNL A   1      46.280  32.546  30.103  1.00  0.00    -0.354 N 
ATOM     50  C   UNL A   1      43.933  35.949  28.966  1.00  0.00     0.074 A 
ATOM     51  C   UNL A   1      42.646  35.924  29.629  1.00  0.00     0.031 C 
ATOM     52  C   UNL A   1      46.709  30.558  31.030  1.00  0.00     0.029 A 
ATOM     53  C   UNL A   1      47.302  31.640  30.256  1.00  0.00     0.049 A 
ATOM     54  H   UNL A   1      46.398  33.424  29.675  1.00  0.00     0.167 HD
ATOM     55  C   UNL A   1      44.369  36.962  28.181  1.00  0.00     0.031 A 
ATOM     56  C   UNL A   1      48.559  31.634  29.775  1.00  0.00     0.031 A 
ATOM     57  C   UNL A   1      45.673  37.018  27.573  1.00  0.00     0.049 A 
ATOM     58  C   UNL A   1      49.014  32.748  28.880  1.00  0.00     0.074 A 
ATOM     59  C   UNL A   1      46.207  38.007  26.762  1.00  0.00     0.029 A 
ATOM     60  N   UNL A   1      46.657  36.057  27.731  1.00  0.00    -0.354 N 
ATOM     61  N   UNL A   1      48.359  33.816  28.497  1.00  0.00    -0.248 NA
ATOM     62  C   UNL A   1      50.372  32.639  28.329  1.00  0.00     0.031 C 
ATOM     63  C   UNL A   1      47.506  37.629  26.407  1.00  0.00     0.029 A 
ATOM     64  C   UNL A   1      47.794  36.426  27.032  1.00  0.00     0.049 A 
ATOM     65  H   UNL A   1      46.564  35.233  28.261  1.00  0.00     0.167 HD
ATOM     66  C   UNL A   1      49.226  34.509  27.664  1.00  0.00     0.074 A 
ATOM     67  C   UNL A   1      50.461  33.753  27.615  1.00  0.00     0.031 C 
ATOM     68  C   UNL A   1      49.015  35.667  26.993  1.00  0.00     0.031 A 
BRANCH  55  69
ATOM     69  C   UNL A   1      43.409  38.082  27.884  1.00  0.00    -0.014 A 
ATOM     70  C   UNL A   1      42.505  38.018  26.813  1.00  0.00     0.009 A 
ATOM     71  C   UNL A   1      43.377  39.200  28.734  1.00  0.00     0.009 A 
ATOM     72  C   UNL A   1      41.607  39.065  26.586  1.00  0.00     0.001 A 
ATOM     73  C   UNL A   1      42.463  40.233  28.519  1.00  0.00     0.001 A 
ATOM     74  C   UNL A   1      41.583  40.168  27.441  1.00  0.00     0.000 A 
ENDBRANCH  55  69
BRANCH  56  75
ATOM     75  C   UNL A   1      49.454  30.485  30.074  1.00  0.00    -0.014 A 
ATOM     76  C   UNL A   1      49.465  29.355  29.245  1.00  0.00     0.009 A 
ATOM     77  C   UNL A   1      50.320  30.527  31.178  1.00  0.00     0.009 A 
ATOM     78  C   UNL A   1      50.323  28.288  29.519  1.00  0.00     0.001 A 
ATOM     79  C   UNL A   1      51.197  29.473  31.433  1.00  0.00     0.001 A 
ATOM     80  C   UNL A   1      51.193  28.352  30.607  1.00  0.00     0.000 A 
ENDBRANCH  56  75
BRANCH  68  81
ATOM     81  C   UNL A   1      50.157  36.204  26.183  1.00  0.00    -0.014 A 
ATOM     82  C   UNL A   1      50.324  35.847  24.836  1.00  0.00     0.009 A 
ATOM     83  C   UNL A   1      51.065  37.099  26.770  1.00  0.00     0.009 A 
ATOM     84  C   UNL A   1      51.396  36.355  24.101  1.00  0.00     0.001 A 
ATOM     85  C   UNL A   1      52.122  37.623  26.027  1.00  0.00     0.001 A 
ATOM     86  C   UNL A   1      52.292  37.244  24.695  1.00  0.00     0.000 A 
ENDBRANCH  68  81
ENDBRANCH  42  43
ENDBRANCH  35  37
ENDBRANCH  34  35
ENDBRANCH  33  34
ENDBRANCH   1  33
TORSDOF 16
ENDMDL
