MODEL 1
REMARK VINA RESULT:     -12.2      0.000      0.000
REMARK SMILES O=C(Nc1ccccc1C(=O)OCCOC(=O)c1ccc(-c2c3nc(c(-c4ccccc4)c4ccc([nH]4)c(-c4ccccc4)c4nc(c(-c5ccccc5)c5ccc2[nH]5)C=C4)C=C3)cc1)c1ccc(N2C(=O)[C@H]3CC=CC[C@H]3C2=O)cc1
REMARK SMILES IDX 13 1 12 2 10 3 11 4 9 5 4 6 5 7 6 8 8 9 7 10 3 11 1 12 2 13
REMARK SMILES IDX 66 15 67 16 82 17 68 18 81 19 69 20 70 21 71 22 79 23 72 24
REMARK SMILES IDX 73 25 78 26 80 27 74 28 77 29 75 30 76 31 14 32 15 33 16 34
REMARK SMILES IDX 17 35 18 36 19 37 65 38 20 39 64 40 21 41 22 42 23 43 58 44
REMARK SMILES IDX 24 45 63 46 57 47 59 48 25 49 62 50 56 51 55 52 26 54 48 55
REMARK SMILES IDX 33 56 47 57 34 58 37 59 46 60 60 61 35 62 36 63 45 65 61 66
REMARK SMILES IDX 38 67 27 68 28 69 32 70 29 71 31 72 30 73 49 74 50 75 54 76
REMARK SMILES IDX 51 77 53 78 52 79 39 80 40 81 44 82 41 83 43 84 42 85
REMARK H PARENT 3 14 59 53 37 64
REMARK Flexibility Score: inf
ROOT
ATOM      1  C   UNL A   1      32.987  34.423  28.424  1.00  0.00     0.275 C 
ENDROOT
BRANCH   1   2
ATOM      2  O   UNL A   1      33.876  33.338  28.781  1.00  0.00    -0.458 OA
BRANCH   2   3
ATOM      3  C   UNL A   1      34.976  33.200  27.999  1.00  0.00     0.340 C 
ATOM      4  O   UNL A   1      35.532  34.086  27.379  1.00  0.00    -0.246 OA
BRANCH   3   5
ATOM      5  C   UNL A   1      35.484  31.809  27.972  1.00  0.00     0.083 A 
ATOM      6  C   UNL A   1      34.678  30.674  27.809  1.00  0.00     0.056 A 
ATOM      7  C   UNL A   1      35.285  29.405  27.902  1.00  0.00     0.027 A 
ATOM      8  C   UNL A   1      36.670  29.264  28.028  1.00  0.00     0.002 A 
ATOM      9  C   UNL A   1      36.878  31.647  28.100  1.00  0.00     0.018 A 
ATOM     10  C   UNL A   1      37.472  30.389  28.108  1.00  0.00     0.001 A 
BRANCH   6  11
ATOM     11  N   UNL A   1      33.294  30.650  27.543  1.00  0.00    -0.321 N 
ATOM     12  O   UNL A   1      31.391  30.319  26.382  1.00  0.00    -0.269 OA
ATOM     13  C   UNL A   1      32.540  29.954  26.626  1.00  0.00     0.255 C 
ATOM     14  H   UNL A   1      32.765  31.244  28.124  1.00  0.00     0.170 HD
BRANCH  13  15
ATOM     15  C   UNL A   1      33.044  28.719  25.976  1.00  0.00     0.040 A 
ATOM     16  C   UNL A   1      33.699  28.729  24.739  1.00  0.00     0.016 A 
ATOM     17  C   UNL A   1      32.819  27.507  26.630  1.00  0.00     0.016 A 
ATOM     18  C   UNL A   1      34.027  27.518  24.112  1.00  0.00     0.027 A 
ATOM     19  C   UNL A   1      33.082  26.305  25.973  1.00  0.00     0.027 A 
ATOM     20  C   UNL A   1      33.663  26.297  24.697  1.00  0.00     0.052 A 
BRANCH  20  21
ATOM     21  N   UNL A   1      33.867  25.065  24.038  1.00  0.00    -0.250 N 
ATOM     22  C   UNL A   1      34.914  24.217  24.285  1.00  0.00     0.238 C 
ATOM     23  C   UNL A   1      33.021  24.586  23.067  1.00  0.00     0.238 C 
ATOM     24  O   UNL A   1      35.889  24.405  25.000  1.00  0.00    -0.274 OA
ATOM     25  C   UNL A   1      34.652  22.903  23.582  1.00  0.00     0.096 C 
ATOM     26  C   UNL A   1      33.457  23.197  22.669  1.00  0.00     0.096 C 
ATOM     27  O   UNL A   1      32.082  25.161  22.530  1.00  0.00    -0.274 OA
ATOM     28  C   UNL A   1      34.418  21.802  24.628  1.00  0.00     0.041 C 
ATOM     29  C   UNL A   1      32.255  22.260  22.813  1.00  0.00     0.041 C 
ATOM     30  C   UNL A   1      32.996  21.730  25.103  1.00  0.00    -0.030 C 
ATOM     31  C   UNL A   1      31.982  21.935  24.252  1.00  0.00    -0.030 C 
ENDBRANCH  20  21
ENDBRANCH  13  15
ENDBRANCH   6  11
ENDBRANCH   3   5
ENDBRANCH   2   3
ENDBRANCH   1   2
BRANCH   1  32
ATOM     32  C   UNL A   1      32.904  35.531  29.473  1.00  0.00     0.275 C 
BRANCH  32  33
ATOM     33  O   UNL A   1      32.594  34.997  30.770  1.00  0.00    -0.458 OA
BRANCH  33  34
ATOM     34  C   UNL A   1      32.962  35.797  31.789  1.00  0.00     0.338 C 
ATOM     35  O   UNL A   1      32.550  36.917  32.046  1.00  0.00    -0.246 OA
BRANCH  34  36
ATOM     36  C   UNL A   1      33.895  35.106  32.682  1.00  0.00     0.060 A 
ATOM     37  C   UNL A   1      35.157  35.665  32.829  1.00  0.00     0.016 A 
ATOM     38  C   UNL A   1      33.644  33.814  33.128  1.00  0.00     0.016 A 
ATOM     39  C   UNL A   1      36.225  34.900  33.246  1.00  0.00     0.010 A 
ATOM     40  C   UNL A   1      34.696  33.078  33.678  1.00  0.00     0.010 A 
ATOM     41  C   UNL A   1      36.007  33.596  33.683  1.00  0.00    -0.014 A 
BRANCH  41  42
ATOM     42  C   UNL A   1      37.166  32.764  34.072  1.00  0.00     0.031 A 
ATOM     43  C   UNL A   1      37.841  33.016  35.389  1.00  0.00     0.074 A 
ATOM     44  C   UNL A   1      37.581  31.767  33.269  1.00  0.00     0.049 A 
ATOM     45  N   UNL A   1      38.990  32.573  35.825  1.00  0.00    -0.248 NA
ATOM     46  C   UNL A   1      37.139  33.903  36.334  1.00  0.00     0.031 C 
ATOM     47  C   UNL A   1      36.941  31.361  32.012  1.00  0.00     0.029 A 
ATOM     48  N   UNL A   1      38.640  30.908  33.391  1.00  0.00    -0.354 N 
ATOM     49  C   UNL A   1      39.182  33.182  37.060  1.00  0.00     0.074 A 
ATOM     50  C   UNL A   1      38.035  34.028  37.302  1.00  0.00     0.031 C 
ATOM     51  C   UNL A   1      37.607  30.320  31.495  1.00  0.00     0.029 A 
ATOM     52  C   UNL A   1      38.779  30.062  32.319  1.00  0.00     0.049 A 
ATOM     53  H   UNL A   1      39.242  30.897  34.170  1.00  0.00     0.167 HD
ATOM     54  C   UNL A   1      40.232  33.050  37.903  1.00  0.00     0.031 A 
ATOM     55  C   UNL A   1      39.777  29.223  31.995  1.00  0.00     0.031 A 
ATOM     56  C   UNL A   1      41.349  32.180  37.646  1.00  0.00     0.049 A 
ATOM     57  C   UNL A   1      40.966  29.146  32.906  1.00  0.00     0.074 A 
ATOM     58  C   UNL A   1      42.475  31.963  38.420  1.00  0.00     0.029 A 
ATOM     59  N   UNL A   1      41.470  31.369  36.525  1.00  0.00    -0.354 N 
ATOM     60  N   UNL A   1      41.181  29.778  34.034  1.00  0.00    -0.248 NA
ATOM     61  C   UNL A   1      42.052  28.252  32.494  1.00  0.00     0.031 C 
ATOM     62  C   UNL A   1      43.301  31.062  37.741  1.00  0.00     0.029 A 
ATOM     63  C   UNL A   1      42.661  30.665  36.577  1.00  0.00     0.049 A 
ATOM     64  H   UNL A   1      40.807  31.304  35.801  1.00  0.00     0.167 HD
ATOM     65  C   UNL A   1      42.421  29.347  34.480  1.00  0.00     0.074 A 
ATOM     66  C   UNL A   1      42.898  28.382  33.507  1.00  0.00     0.031 C 
ATOM     67  C   UNL A   1      43.107  29.715  35.590  1.00  0.00     0.031 A 
BRANCH  54  68
ATOM     68  C   UNL A   1      40.244  33.911  39.137  1.00  0.00    -0.014 A 
ATOM     69  C   UNL A   1      40.819  35.191  39.146  1.00  0.00     0.009 A 
ATOM     70  C   UNL A   1      39.663  33.423  40.320  1.00  0.00     0.009 A 
ATOM     71  C   UNL A   1      40.853  35.945  40.323  1.00  0.00     0.001 A 
ATOM     72  C   UNL A   1      39.667  34.192  41.486  1.00  0.00     0.001 A 
ATOM     73  C   UNL A   1      40.273  35.446  41.490  1.00  0.00     0.000 A 
ENDBRANCH  54  68
BRANCH  55  74
ATOM     74  C   UNL A   1      39.716  28.458  30.722  1.00  0.00    -0.014 A 
ATOM     75  C   UNL A   1      38.967  27.277  30.630  1.00  0.00     0.009 A 
ATOM     76  C   UNL A   1      40.385  28.927  29.577  1.00  0.00     0.009 A 
ATOM     77  C   UNL A   1      38.900  26.574  29.424  1.00  0.00     0.001 A 
ATOM     78  C   UNL A   1      40.287  28.243  28.365  1.00  0.00     0.001 A 
ATOM     79  C   UNL A   1      39.552  27.062  28.292  1.00  0.00     0.000 A 
ENDBRANCH  55  74
BRANCH  67  80
ATOM     80  C   UNL A   1      44.424  29.032  35.824  1.00  0.00    -0.014 A 
ATOM     81  C   UNL A   1      45.626  29.577  35.348  1.00  0.00     0.009 A 
ATOM     82  C   UNL A   1      44.458  27.838  36.561  1.00  0.00     0.009 A 
ATOM     83  C   UNL A   1      46.835  28.918  35.574  1.00  0.00     0.001 A 
ATOM     84  C   UNL A   1      45.671  27.198  36.813  1.00  0.00     0.001 A 
ATOM     85  C   UNL A   1      46.857  27.733  36.311  1.00  0.00     0.000 A 
ENDBRANCH  67  80
ENDBRANCH  41  42
ENDBRANCH  34  36
ENDBRANCH  33  34
ENDBRANCH  32  33
ENDBRANCH   1  32
TORSDOF 14
ENDMDL
MODEL 2
REMARK VINA RESULT:     -12.0      6.664     12.211
REMARK SMILES O=C(Nc1ccccc1C(=O)OCCOC(=O)c1ccc(-c2c3nc(c(-c4ccccc4)c4ccc([nH]4)c(-c4ccccc4)c4nc(c(-c5ccccc5)c5ccc2[nH]5)C=C4)C=C3)cc1)c1ccc(N2C(=O)[C@H]3CC=CC[C@H]3C2=O)cc1
REMARK SMILES IDX 13 1 12 2 10 3 11 4 9 5 4 6 5 7 6 8 8 9 7 10 3 11 1 12 2 13
REMARK SMILES IDX 66 15 67 16 82 17 68 18 81 19 69 20 70 21 71 22 79 23 72 24
REMARK SMILES IDX 73 25 78 26 80 27 74 28 77 29 75 30 76 31 14 32 15 33 16 34
REMARK SMILES IDX 17 35 18 36 19 37 65 38 20 39 64 40 21 41 22 42 23 43 58 44
REMARK SMILES IDX 24 45 63 46 57 47 59 48 25 49 62 50 56 51 55 52 26 54 48 55
REMARK SMILES IDX 33 56 47 57 34 58 37 59 46 60 60 61 35 62 36 63 45 65 61 66
REMARK SMILES IDX 38 67 27 68 28 69 32 70 29 71 31 72 30 73 49 74 50 75 54 76
REMARK SMILES IDX 51 77 53 78 52 79 39 80 40 81 44 82 41 83 43 84 42 85
REMARK H PARENT 3 14 59 53 37 64
REMARK Flexibility Score: inf
ROOT
ATOM      1  C   UNL A   1      42.131  18.880  26.874  1.00  0.00     0.275 C 
ENDROOT
BRANCH   1   2
ATOM      2  O   UNL A   1      41.532  20.183  26.685  1.00  0.00    -0.458 OA
BRANCH   2   3
ATOM      3  C   UNL A   1      40.271  20.180  26.182  1.00  0.00     0.340 C 
ATOM      4  O   UNL A   1      39.693  19.227  25.696  1.00  0.00    -0.246 OA
BRANCH   3   5
ATOM      5  C   UNL A   1      39.611  21.502  26.294  1.00  0.00     0.083 A 
ATOM      6  C   UNL A   1      38.356  21.810  25.753  1.00  0.00     0.056 A 
ATOM      7  C   UNL A   1      37.894  23.137  25.852  1.00  0.00     0.027 A 
ATOM      8  C   UNL A   1      38.596  24.105  26.576  1.00  0.00     0.002 A 
ATOM      9  C   UNL A   1      40.306  22.490  27.019  1.00  0.00     0.018 A 
ATOM     10  C   UNL A   1      39.798  23.776  27.178  1.00  0.00     0.001 A 
BRANCH   6  11
ATOM     11  N   UNL A   1      37.470  20.920  25.112  1.00  0.00    -0.321 N 
ATOM     12  O   UNL A   1      35.545  19.825  24.689  1.00  0.00    -0.269 OA
ATOM     13  C   UNL A   1      36.095  20.861  25.060  1.00  0.00     0.255 C 
ATOM     14  H   UNL A   1      37.918  20.205  24.605  1.00  0.00     0.170 HD
BRANCH  13  15
ATOM     15  C   UNL A   1      35.250  22.042  25.364  1.00  0.00     0.040 A 
ATOM     16  C   UNL A   1      34.735  22.296  26.640  1.00  0.00     0.016 A 
ATOM     17  C   UNL A   1      34.945  22.905  24.310  1.00  0.00     0.016 A 
ATOM     18  C   UNL A   1      33.830  23.350  26.832  1.00  0.00     0.027 A 
ATOM     19  C   UNL A   1      33.992  23.908  24.489  1.00  0.00     0.027 A 
ATOM     20  C   UNL A   1      33.404  24.124  25.744  1.00  0.00     0.052 A 
BRANCH  20  21
ATOM     21  N   UNL A   1      32.403  25.111  25.878  1.00  0.00    -0.250 N 
ATOM     22  C   UNL A   1      32.648  26.431  26.151  1.00  0.00     0.238 C 
ATOM     23  C   UNL A   1      31.062  24.842  25.746  1.00  0.00     0.238 C 
ATOM     24  O   UNL A   1      33.714  26.962  26.434  1.00  0.00    -0.274 OA
ATOM     25  C   UNL A   1      31.366  27.212  25.962  1.00  0.00     0.096 C 
ATOM     26  C   UNL A   1      30.286  26.133  25.820  1.00  0.00     0.096 C 
ATOM     27  O   UNL A   1      30.517  23.750  25.638  1.00  0.00    -0.274 OA
ATOM     28  C   UNL A   1      31.512  28.152  24.756  1.00  0.00     0.041 C 
ATOM     29  C   UNL A   1      29.401  26.230  24.575  1.00  0.00     0.041 C 
ATOM     30  C   UNL A   1      31.195  27.487  23.448  1.00  0.00    -0.030 C 
ATOM     31  C   UNL A   1      30.201  26.595  23.360  1.00  0.00    -0.030 C 
ENDBRANCH  20  21
ENDBRANCH  13  15
ENDBRANCH   6  11
ENDBRANCH   3   5
ENDBRANCH   2   3
ENDBRANCH   1   2
BRANCH   1  32
ATOM     32  C   UNL A   1      43.298  18.588  25.931  1.00  0.00     0.275 C 
BRANCH  32  33
ATOM     33  O   UNL A   1      43.390  19.581  24.895  1.00  0.00    -0.458 OA
BRANCH  33  34
ATOM     34  C   UNL A   1      44.609  19.666  24.331  1.00  0.00     0.338 C 
ATOM     35  O   UNL A   1      45.208  18.801  23.711  1.00  0.00    -0.246 OA
BRANCH  34  36
ATOM     36  C   UNL A   1      45.145  21.023  24.452  1.00  0.00     0.060 A 
ATOM     37  C   UNL A   1      45.757  21.353  25.654  1.00  0.00     0.016 A 
ATOM     38  C   UNL A   1      44.807  22.016  23.542  1.00  0.00     0.016 A 
ATOM     39  C   UNL A   1      45.877  22.669  26.049  1.00  0.00     0.010 A 
ATOM     40  C   UNL A   1      45.050  23.349  23.882  1.00  0.00     0.010 A 
ATOM     41  C   UNL A   1      45.530  23.686  25.163  1.00  0.00    -0.014 A 
BRANCH  41  42
ATOM     42  C   UNL A   1      45.605  25.091  25.616  1.00  0.00     0.031 A 
ATOM     43  C   UNL A   1      46.911  25.825  25.519  1.00  0.00     0.074 A 
ATOM     44  C   UNL A   1      44.501  25.713  26.073  1.00  0.00     0.049 A 
ATOM     45  N   UNL A   1      47.259  26.963  26.057  1.00  0.00    -0.248 NA
ATOM     46  C   UNL A   1      47.974  25.181  24.728  1.00  0.00     0.031 C 
ATOM     47  C   UNL A   1      43.154  25.135  26.120  1.00  0.00     0.029 A 
ATOM     48  N   UNL A   1      44.336  26.973  26.583  1.00  0.00    -0.354 N 
ATOM     49  C   UNL A   1      48.599  27.137  25.731  1.00  0.00     0.074 A 
ATOM     50  C   UNL A   1      49.002  25.986  24.953  1.00  0.00     0.031 C 
ATOM     51  C   UNL A   1      42.300  26.045  26.606  1.00  0.00     0.029 A 
ATOM     52  C   UNL A   1      43.056  27.221  27.011  1.00  0.00     0.049 A 
ATOM     53  H   UNL A   1      45.063  27.635  26.636  1.00  0.00     0.167 HD
ATOM     54  C   UNL A   1      49.416  28.163  26.067  1.00  0.00     0.031 A 
ATOM     55  C   UNL A   1      42.558  28.250  27.717  1.00  0.00     0.031 A 
ATOM     56  C   UNL A   1      48.979  29.308  26.822  1.00  0.00     0.049 A 
ATOM     57  C   UNL A   1      43.495  29.341  28.143  1.00  0.00     0.074 A 
ATOM     58  C   UNL A   1      49.712  30.408  27.229  1.00  0.00     0.029 A 
ATOM     59  N   UNL A   1      47.680  29.501  27.273  1.00  0.00    -0.354 N 
ATOM     60  N   UNL A   1      44.777  29.467  27.899  1.00  0.00    -0.248 NA
ATOM     61  C   UNL A   1      42.922  30.422  28.950  1.00  0.00     0.031 C 
ATOM     62  C   UNL A   1      48.868  31.240  27.972  1.00  0.00     0.029 A 
ATOM     63  C   UNL A   1      47.594  30.693  27.971  1.00  0.00     0.049 A 
ATOM     64  H   UNL A   1      46.930  28.882  27.119  1.00  0.00     0.167 HD
ATOM     65  C   UNL A   1      45.164  30.651  28.507  1.00  0.00     0.074 A 
ATOM     66  C   UNL A   1      43.972  31.215  29.112  1.00  0.00     0.031 C 
ATOM     67  C   UNL A   1      46.393  31.222  28.564  1.00  0.00     0.031 A 
BRANCH  54  68
ATOM     68  C   UNL A   1      50.864  28.054  25.675  1.00  0.00    -0.014 A 
ATOM     69  C   UNL A   1      51.319  28.421  24.399  1.00  0.00     0.009 A 
ATOM     70  C   UNL A   1      51.794  27.568  26.609  1.00  0.00     0.009 A 
ATOM     71  C   UNL A   1      52.665  28.264  24.054  1.00  0.00     0.001 A 
ATOM     72  C   UNL A   1      53.144  27.444  26.273  1.00  0.00     0.001 A 
ATOM     73  C   UNL A   1      53.576  27.779  24.992  1.00  0.00     0.000 A 
ENDBRANCH  54  68
BRANCH  55  74
ATOM     74  C   UNL A   1      41.127  28.247  28.120  1.00  0.00    -0.014 A 
ATOM     75  C   UNL A   1      40.171  28.949  27.375  1.00  0.00     0.009 A 
ATOM     76  C   UNL A   1      40.705  27.509  29.241  1.00  0.00     0.009 A 
ATOM     77  C   UNL A   1      38.825  28.925  27.750  1.00  0.00     0.001 A 
ATOM     78  C   UNL A   1      39.356  27.458  29.593  1.00  0.00     0.001 A 
ATOM     79  C   UNL A   1      38.418  28.173  28.852  1.00  0.00     0.000 A 
ENDBRANCH  55  74
BRANCH  67  80
ATOM     80  C   UNL A   1      46.487  32.544  29.270  1.00  0.00    -0.014 A 
ATOM     81  C   UNL A   1      46.796  32.624  30.636  1.00  0.00     0.009 A 
ATOM     82  C   UNL A   1      46.293  33.729  28.542  1.00  0.00     0.009 A 
ATOM     83  C   UNL A   1      46.872  33.865  31.269  1.00  0.00     0.001 A 
ATOM     84  C   UNL A   1      46.401  34.969  29.170  1.00  0.00     0.001 A 
ATOM     85  C   UNL A   1      46.679  35.037  30.534  1.00  0.00     0.000 A 
ENDBRANCH  67  80
ENDBRANCH  41  42
ENDBRANCH  34  36
ENDBRANCH  33  34
ENDBRANCH  32  33
ENDBRANCH   1  32
TORSDOF 14
ENDMDL
MODEL 3
REMARK VINA RESULT:     -11.7      5.316     10.742
REMARK SMILES O=C(Nc1ccccc1C(=O)OCCOC(=O)c1ccc(-c2c3nc(c(-c4ccccc4)c4ccc([nH]4)c(-c4ccccc4)c4nc(c(-c5ccccc5)c5ccc2[nH]5)C=C4)C=C3)cc1)c1ccc(N2C(=O)[C@H]3CC=CC[C@H]3C2=O)cc1
REMARK SMILES IDX 13 1 12 2 10 3 11 4 9 5 4 6 5 7 6 8 8 9 7 10 3 11 1 12 2 13
REMARK SMILES IDX 66 15 67 16 82 17 68 18 81 19 69 20 70 21 71 22 79 23 72 24
REMARK SMILES IDX 73 25 78 26 80 27 74 28 77 29 75 30 76 31 14 32 15 33 16 34
REMARK SMILES IDX 17 35 18 36 19 37 65 38 20 39 64 40 21 41 22 42 23 43 58 44
REMARK SMILES IDX 24 45 63 46 57 47 59 48 25 49 62 50 56 51 55 52 26 54 48 55
REMARK SMILES IDX 33 56 47 57 34 58 37 59 46 60 60 61 35 62 36 63 45 65 61 66
REMARK SMILES IDX 38 67 27 68 28 69 32 70 29 71 31 72 30 73 49 74 50 75 54 76
REMARK SMILES IDX 51 77 53 78 52 79 39 80 40 81 44 82 41 83 43 84 42 85
REMARK H PARENT 3 14 59 53 37 64
REMARK Flexibility Score: inf
ROOT
ATOM      1  C   UNL A   1      42.367  18.925  26.326  1.00  0.00     0.275 C 
ENDROOT
BRANCH   1   2
ATOM      2  O   UNL A   1      41.564  20.083  26.653  1.00  0.00    -0.458 OA
BRANCH   2   3
ATOM      3  C   UNL A   1      40.316  20.100  26.119  1.00  0.00     0.340 C 
ATOM      4  O   UNL A   1      39.745  19.162  25.598  1.00  0.00    -0.246 OA
BRANCH   3   5
ATOM      5  C   UNL A   1      39.662  21.423  26.245  1.00  0.00     0.083 A 
ATOM      6  C   UNL A   1      38.397  21.735  25.728  1.00  0.00     0.056 A 
ATOM      7  C   UNL A   1      37.941  23.063  25.837  1.00  0.00     0.027 A 
ATOM      8  C   UNL A   1      38.660  24.029  26.547  1.00  0.00     0.002 A 
ATOM      9  C   UNL A   1      40.374  22.410  26.955  1.00  0.00     0.018 A 
ATOM     10  C   UNL A   1      39.873  23.697  27.125  1.00  0.00     0.001 A 
BRANCH   6  11
ATOM     11  N   UNL A   1      37.496  20.847  25.106  1.00  0.00    -0.321 N 
ATOM     12  O   UNL A   1      35.558  19.765  24.714  1.00  0.00    -0.269 OA
ATOM     13  C   UNL A   1      36.120  20.799  25.071  1.00  0.00     0.255 C 
ATOM     14  H   UNL A   1      37.933  20.125  24.599  1.00  0.00     0.170 HD
BRANCH  13  15
ATOM     15  C   UNL A   1      35.289  21.990  25.375  1.00  0.00     0.040 A 
ATOM     16  C   UNL A   1      34.827  22.280  26.664  1.00  0.00     0.016 A 
ATOM     17  C   UNL A   1      34.941  22.823  24.312  1.00  0.00     0.016 A 
ATOM     18  C   UNL A   1      33.931  23.340  26.863  1.00  0.00     0.027 A 
ATOM     19  C   UNL A   1      33.996  23.832  24.500  1.00  0.00     0.027 A 
ATOM     20  C   UNL A   1      33.461  24.084  25.772  1.00  0.00     0.052 A 
BRANCH  20  21
ATOM     21  N   UNL A   1      32.466  25.075  25.918  1.00  0.00    -0.250 N 
ATOM     22  C   UNL A   1      32.722  26.408  26.109  1.00  0.00     0.238 C 
ATOM     23  C   UNL A   1      31.121  24.799  25.885  1.00  0.00     0.238 C 
ATOM     24  O   UNL A   1      33.802  26.954  26.298  1.00  0.00    -0.274 OA
ATOM     25  C   UNL A   1      31.428  27.177  25.962  1.00  0.00     0.096 C 
ATOM     26  C   UNL A   1      30.346  26.092  25.942  1.00  0.00     0.096 C 
ATOM     27  O   UNL A   1      30.574  23.703  25.866  1.00  0.00    -0.274 OA
ATOM     28  C   UNL A   1      31.495  28.055  24.704  1.00  0.00     0.041 C 
ATOM     29  C   UNL A   1      29.384  26.126  24.752  1.00  0.00     0.041 C 
ATOM     30  C   UNL A   1      31.099  27.326  23.453  1.00  0.00    -0.030 C 
ATOM     31  C   UNL A   1      30.105  26.430  23.472  1.00  0.00    -0.030 C 
ENDBRANCH  20  21
ENDBRANCH  13  15
ENDBRANCH   6  11
ENDBRANCH   3   5
ENDBRANCH   2   3
ENDBRANCH   1   2
BRANCH   1  32
ATOM     32  C   UNL A   1      43.542  19.225  25.395  1.00  0.00     0.275 C 
BRANCH  32  33
ATOM     33  O   UNL A   1      43.426  20.535  24.818  1.00  0.00    -0.458 OA
BRANCH  33  34
ATOM     34  C   UNL A   1      44.435  21.365  25.147  1.00  0.00     0.338 C 
ATOM     35  O   UNL A   1      45.623  21.232  24.897  1.00  0.00    -0.246 OA
BRANCH  34  36
ATOM     36  C   UNL A   1      43.923  22.577  25.789  1.00  0.00     0.060 A 
ATOM     37  C   UNL A   1      43.567  23.629  24.955  1.00  0.00     0.016 A 
ATOM     38  C   UNL A   1      44.056  22.780  27.157  1.00  0.00     0.016 A 
ATOM     39  C   UNL A   1      43.519  24.922  25.430  1.00  0.00     0.010 A 
ATOM     40  C   UNL A   1      43.875  24.069  27.664  1.00  0.00     0.010 A 
ATOM     41  C   UNL A   1      43.665  25.158  26.795  1.00  0.00    -0.014 A 
BRANCH  41  42
ATOM     42  C   UNL A   1      43.672  26.553  27.287  1.00  0.00     0.031 A 
ATOM     43  C   UNL A   1      44.979  27.280  27.413  1.00  0.00     0.074 A 
ATOM     44  C   UNL A   1      42.512  27.171  27.579  1.00  0.00     0.049 A 
ATOM     45  N   UNL A   1      45.241  28.404  28.026  1.00  0.00    -0.248 NA
ATOM     46  C   UNL A   1      46.152  26.647  26.784  1.00  0.00     0.031 C 
ATOM     47  C   UNL A   1      41.172  26.601  27.400  1.00  0.00     0.029 A 
ATOM     48  N   UNL A   1      42.273  28.421  28.085  1.00  0.00    -0.354 N 
ATOM     49  C   UNL A   1      46.617  28.576  27.919  1.00  0.00     0.074 A 
ATOM     50  C   UNL A   1      47.133  27.441  27.187  1.00  0.00     0.031 C 
ATOM     51  C   UNL A   1      40.255  27.506  27.767  1.00  0.00     0.029 A 
ATOM     52  C   UNL A   1      40.942  28.667  28.313  1.00  0.00     0.049 A 
ATOM     53  H   UNL A   1      42.984  29.077  28.268  1.00  0.00     0.167 HD
ATOM     54  C   UNL A   1      47.374  29.588  28.403  1.00  0.00     0.031 A 
ATOM     55  C   UNL A   1      40.341  29.683  28.956  1.00  0.00     0.031 A 
ATOM     56  C   UNL A   1      46.827  30.719  29.106  1.00  0.00     0.049 A 
ATOM     57  C   UNL A   1      41.203  30.758  29.549  1.00  0.00     0.074 A 
ATOM     58  C   UNL A   1      47.489  31.805  29.649  1.00  0.00     0.029 A 
ATOM     59  N   UNL A   1      45.473  30.910  29.351  1.00  0.00    -0.354 N 
ATOM     60  N   UNL A   1      42.508  30.881  29.512  1.00  0.00    -0.248 NA
ATOM     61  C   UNL A   1      40.513  31.824  30.280  1.00  0.00     0.031 C 
ATOM     62  C   UNL A   1      46.541  32.625  30.269  1.00  0.00     0.029 A 
ATOM     63  C   UNL A   1      45.282  32.087  30.055  1.00  0.00     0.049 A 
ATOM     64  H   UNL A   1      44.755  30.299  29.067  1.00  0.00     0.167 HD
ATOM     65  C   UNL A   1      42.798  32.049  30.201  1.00  0.00     0.074 A 
ATOM     66  C   UNL A   1      41.527  32.606  30.625  1.00  0.00     0.031 C 
ATOM     67  C   UNL A   1      44.004  32.611  30.464  1.00  0.00     0.031 A 
BRANCH  54  68
ATOM     68  C   UNL A   1      48.865  29.479  28.241  1.00  0.00    -0.014 A 
ATOM     69  C   UNL A   1      49.656  28.727  29.124  1.00  0.00     0.009 A 
ATOM     70  C   UNL A   1      49.491  30.148  27.176  1.00  0.00     0.009 A 
ATOM     71  C   UNL A   1      51.045  28.685  28.970  1.00  0.00     0.001 A 
ATOM     72  C   UNL A   1      50.875  30.076  27.004  1.00  0.00     0.001 A 
ATOM     73  C   UNL A   1      51.653  29.356  27.908  1.00  0.00     0.000 A 
ENDBRANCH  54  68
BRANCH  55  74
ATOM     74  C   UNL A   1      38.865  29.680  29.129  1.00  0.00    -0.014 A 
ATOM     75  C   UNL A   1      38.286  29.273  30.338  1.00  0.00     0.009 A 
ATOM     76  C   UNL A   1      38.026  30.118  28.089  1.00  0.00     0.009 A 
ATOM     77  C   UNL A   1      36.897  29.292  30.499  1.00  0.00     0.001 A 
ATOM     78  C   UNL A   1      36.642  30.169  28.264  1.00  0.00     0.001 A 
ATOM     79  C   UNL A   1      36.079  29.747  29.466  1.00  0.00     0.000 A 
ENDBRANCH  55  74
BRANCH  67  80
ATOM     80  C   UNL A   1      43.990  33.916  31.207  1.00  0.00    -0.014 A 
ATOM     81  C   UNL A   1      44.141  33.966  32.601  1.00  0.00     0.009 A 
ATOM     82  C   UNL A   1      43.853  35.115  30.489  1.00  0.00     0.009 A 
ATOM     83  C   UNL A   1      44.118  35.192  33.266  1.00  0.00     0.001 A 
ATOM     84  C   UNL A   1      43.863  36.340  31.154  1.00  0.00     0.001 A 
ATOM     85  C   UNL A   1      43.985  36.378  32.542  1.00  0.00     0.000 A 
ENDBRANCH  67  80
ENDBRANCH  41  42
ENDBRANCH  34  36
ENDBRANCH  33  34
ENDBRANCH  32  33
ENDBRANCH   1  32
TORSDOF 14
ENDMDL
