MODEL 1
REMARK VINA RESULT:     -10.8      0.000      0.000
REMARK SMILES C[C@@H](Oc1ccc(-c2ccccc2)cc1)C(=O)N1CCC[C@H](C(=O)OCCOC(=O)c2ccc(-c3c4nc(c(-c5ccccc5)c5ccc([nH]5)c(-c5ccccc5)c5nc(c(-c6ccccc6)c6ccc3[nH]6)C=C5)C=C4)cc2)C1
REMARK SMILES IDX 25 1 23 2 24 3 22 4 18 5 19 6 79 7 20 8 21 9 16 10 17 11
REMARK SMILES IDX 2 12 1 13 3 14 4 15 5 16 15 17 6 18 14 19 7 20 8 21 9 22
REMARK SMILES IDX 13 23 10 24 12 25 11 26 26 27 27 28 28 29 29 30 30 31 31 32
REMARK SMILES IDX 32 33 78 34 33 35 77 36 34 37 35 38 36 39 71 40 37 41 76 42
REMARK SMILES IDX 70 43 72 44 38 45 75 46 69 47 68 48 39 50 61 51 46 52 60 53
REMARK SMILES IDX 47 54 50 55 59 56 73 57 48 58 49 59 58 61 74 62 51 63 40 64
REMARK SMILES IDX 41 65 45 66 42 67 44 68 43 69 62 70 63 71 67 72 64 73 66 74
REMARK SMILES IDX 65 75 52 76 53 77 57 78 54 79 56 80 55 81
REMARK H PARENT 72 49 50 60
REMARK Flexibility Score: inf
ROOT
ATOM      1  O   UNL A   1      32.013  28.722  25.915  1.00  0.00    -0.462 OA
ENDROOT
BRANCH   1   2
ATOM      2  C   UNL A   1      32.983  28.448  25.010  1.00  0.00     0.310 C 
ATOM      3  O   UNL A   1      34.038  27.876  25.268  1.00  0.00    -0.252 OA
BRANCH   2   4
ATOM      4  C   UNL A   1      32.654  28.949  23.610  1.00  0.00     0.119 C 
ATOM      5  N   UNL A   1      30.925  27.286  23.136  1.00  0.00    -0.339 N 
ATOM      6  C   UNL A   1      31.670  26.677  22.039  1.00  0.00     0.119 C 
ATOM      7  C   UNL A   1      31.175  28.709  23.340  1.00  0.00     0.134 C 
ATOM      8  C   UNL A   1      33.172  26.935  22.118  1.00  0.00     0.022 C 
ATOM      9  C   UNL A   1      33.510  28.385  22.471  1.00  0.00     0.019 C 
BRANCH   5  10
ATOM     10  C   UNL A   1      30.014  26.518  23.854  1.00  0.00     0.263 C 
ATOM     11  O   UNL A   1      28.801  26.594  23.634  1.00  0.00    -0.271 OA
BRANCH  10  12
ATOM     12  C   UNL A   1      30.521  25.593  24.981  1.00  0.00     0.259 C 
ATOM     13  C   UNL A   1      29.554  25.480  26.156  1.00  0.00     0.064 C 
BRANCH  12  14
ATOM     14  O   UNL A   1      30.781  24.314  24.387  1.00  0.00    -0.481 OA
BRANCH  14  15
ATOM     15  C   UNL A   1      32.096  23.963  24.404  1.00  0.00     0.120 A 
ATOM     16  C   UNL A   1      32.501  22.734  23.894  1.00  0.00     0.047 A 
ATOM     17  C   UNL A   1      32.985  24.774  25.095  1.00  0.00     0.047 A 
ATOM     18  C   UNL A   1      33.820  22.309  24.085  1.00  0.00     0.012 A 
ATOM     19  C   UNL A   1      34.299  24.351  25.278  1.00  0.00     0.012 A 
ATOM     20  C   UNL A   1      34.735  23.103  24.800  1.00  0.00    -0.018 A 
BRANCH  20  21
ATOM     21  C   UNL A   1      36.097  22.634  25.102  1.00  0.00    -0.018 A 
ATOM     22  C   UNL A   1      37.023  23.439  25.779  1.00  0.00     0.009 A 
ATOM     23  C   UNL A   1      36.499  21.340  24.724  1.00  0.00     0.009 A 
ATOM     24  C   UNL A   1      38.301  22.959  26.085  1.00  0.00     0.001 A 
ATOM     25  C   UNL A   1      37.773  20.858  25.029  1.00  0.00     0.001 A 
ATOM     26  C   UNL A   1      38.673  21.669  25.714  1.00  0.00     0.000 A 
ENDBRANCH  20  21
ENDBRANCH  14  15
ENDBRANCH  12  14
ENDBRANCH  10  12
ENDBRANCH   5  10
ENDBRANCH   2   4
ENDBRANCH   1   2
BRANCH   1  27
ATOM     27  C   UNL A   1      32.404  29.293  27.176  1.00  0.00     0.274 C 
BRANCH  27  28
ATOM     28  C   UNL A   1      33.018  30.677  26.966  1.00  0.00     0.275 C 
BRANCH  28  29
ATOM     29  O   UNL A   1      34.451  30.620  27.082  1.00  0.00    -0.458 OA
BRANCH  29  30
ATOM     30  C   UNL A   1      34.941  30.982  28.289  1.00  0.00     0.338 C 
ATOM     31  O   UNL A   1      34.420  31.690  29.131  1.00  0.00    -0.246 OA
BRANCH  30  32
ATOM     32  C   UNL A   1      36.209  30.283  28.516  1.00  0.00     0.060 A 
ATOM     33  C   UNL A   1      36.446  29.717  29.771  1.00  0.00     0.016 A 
ATOM     34  C   UNL A   1      37.190  30.270  27.526  1.00  0.00     0.016 A 
ATOM     35  C   UNL A   1      37.682  29.149  30.057  1.00  0.00     0.010 A 
ATOM     36  C   UNL A   1      38.426  29.691  27.810  1.00  0.00     0.010 A 
ATOM     37  C   UNL A   1      38.683  29.145  29.080  1.00  0.00    -0.014 A 
BRANCH  37  38
ATOM     38  C   UNL A   1      40.036  28.642  29.399  1.00  0.00     0.031 A 
ATOM     39  C   UNL A   1      40.993  29.534  30.131  1.00  0.00     0.074 A 
ATOM     40  C   UNL A   1      40.406  27.409  29.015  1.00  0.00     0.049 A 
ATOM     41  N   UNL A   1      42.273  29.378  30.341  1.00  0.00    -0.248 NA
ATOM     42  C   UNL A   1      40.432  30.773  30.697  1.00  0.00     0.031 C 
ATOM     43  C   UNL A   1      39.539  26.427  28.363  1.00  0.00     0.029 A 
ATOM     44  N   UNL A   1      41.621  26.781  29.104  1.00  0.00    -0.354 N 
ATOM     45  C   UNL A   1      42.681  30.512  31.031  1.00  0.00     0.074 A 
ATOM     46  C   UNL A   1      41.513  31.350  31.201  1.00  0.00     0.031 C 
ATOM     47  C   UNL A   1      40.256  25.322  28.099  1.00  0.00     0.029 A 
ATOM     48  C   UNL A   1      41.639  25.545  28.508  1.00  0.00     0.049 A 
ATOM     49  H   UNL A   1      42.404  27.178  29.550  1.00  0.00     0.167 HD
ATOM     50  C   UNL A   1      43.921  30.827  31.471  1.00  0.00     0.031 A 
ATOM     51  C   UNL A   1      42.668  24.707  28.278  1.00  0.00     0.031 A 
ATOM     52  C   UNL A   1      45.075  29.987  31.295  1.00  0.00     0.049 A 
ATOM     53  C   UNL A   1      44.050  25.114  28.707  1.00  0.00     0.074 A 
ATOM     54  C   UNL A   1      46.380  30.215  31.694  1.00  0.00     0.029 A 
ATOM     55  N   UNL A   1      45.056  28.752  30.666  1.00  0.00    -0.354 N 
ATOM     56  N   UNL A   1      44.436  26.204  29.325  1.00  0.00    -0.248 NA
ATOM     57  C   UNL A   1      45.139  24.177  28.398  1.00  0.00     0.031 C 
ATOM     58  C   UNL A   1      47.158  29.132  31.272  1.00  0.00     0.029 A 
ATOM     59  C   UNL A   1      46.329  28.210  30.654  1.00  0.00     0.049 A 
ATOM     60  H   UNL A   1      44.255  28.323  30.285  1.00  0.00     0.167 HD
ATOM     61  C   UNL A   1      45.807  26.073  29.504  1.00  0.00     0.074 A 
ATOM     62  C   UNL A   1      46.183  24.795  28.934  1.00  0.00     0.031 C 
ATOM     63  C   UNL A   1      46.676  26.932  30.090  1.00  0.00     0.031 A 
BRANCH  50  64
ATOM     64  C   UNL A   1      44.094  32.159  32.140  1.00  0.00    -0.014 A 
ATOM     65  C   UNL A   1      43.969  32.304  33.530  1.00  0.00     0.009 A 
ATOM     66  C   UNL A   1      44.405  33.288  31.365  1.00  0.00     0.009 A 
ATOM     67  C   UNL A   1      44.116  33.558  34.126  1.00  0.00     0.001 A 
ATOM     68  C   UNL A   1      44.576  34.536  31.966  1.00  0.00     0.001 A 
ATOM     69  C   UNL A   1      44.422  34.672  33.345  1.00  0.00     0.000 A 
ENDBRANCH  50  64
BRANCH  51  70
ATOM     70  C   UNL A   1      42.433  23.423  27.572  1.00  0.00    -0.014 A 
ATOM     71  C   UNL A   1      42.052  22.278  28.287  1.00  0.00     0.009 A 
ATOM     72  C   UNL A   1      42.582  23.337  26.179  1.00  0.00     0.009 A 
ATOM     73  C   UNL A   1      41.840  21.068  27.621  1.00  0.00     0.001 A 
ATOM     74  C   UNL A   1      42.345  22.133  25.513  1.00  0.00     0.001 A 
ATOM     75  C   UNL A   1      41.981  20.999  26.236  1.00  0.00     0.000 A 
ENDBRANCH  51  70
BRANCH  63  76
ATOM     76  C   UNL A   1      48.107  26.493  30.193  1.00  0.00    -0.014 A 
ATOM     77  C   UNL A   1      48.575  25.784  31.308  1.00  0.00     0.009 A 
ATOM     78  C   UNL A   1      48.985  26.751  29.128  1.00  0.00     0.009 A 
ATOM     79  C   UNL A   1      49.904  25.361  31.365  1.00  0.00     0.001 A 
ATOM     80  C   UNL A   1      50.306  26.308  29.178  1.00  0.00     0.001 A 
ATOM     81  C   UNL A   1      50.766  25.619  30.299  1.00  0.00     0.000 A 
ENDBRANCH  63  76
ENDBRANCH  37  38
ENDBRANCH  30  32
ENDBRANCH  29  30
ENDBRANCH  28  29
ENDBRANCH  27  28
ENDBRANCH   1  27
TORSDOF 16
ENDMDL
MODEL 2
REMARK VINA RESULT:     -10.5      2.656      7.980
REMARK SMILES C[C@@H](Oc1ccc(-c2ccccc2)cc1)C(=O)N1CCC[C@H](C(=O)OCCOC(=O)c2ccc(-c3c4nc(c(-c5ccccc5)c5ccc([nH]5)c(-c5ccccc5)c5nc(c(-c6ccccc6)c6ccc3[nH]6)C=C5)C=C4)cc2)C1
REMARK SMILES IDX 25 1 23 2 24 3 22 4 18 5 19 6 79 7 20 8 21 9 16 10 17 11
REMARK SMILES IDX 2 12 1 13 3 14 4 15 5 16 15 17 6 18 14 19 7 20 8 21 9 22
REMARK SMILES IDX 13 23 10 24 12 25 11 26 26 27 27 28 28 29 29 30 30 31 31 32
REMARK SMILES IDX 32 33 78 34 33 35 77 36 34 37 35 38 36 39 71 40 37 41 76 42
REMARK SMILES IDX 70 43 72 44 38 45 75 46 69 47 68 48 39 50 61 51 46 52 60 53
REMARK SMILES IDX 47 54 50 55 59 56 73 57 48 58 49 59 58 61 74 62 51 63 40 64
REMARK SMILES IDX 41 65 45 66 42 67 44 68 43 69 62 70 63 71 67 72 64 73 66 74
REMARK SMILES IDX 65 75 52 76 53 77 57 78 54 79 56 80 55 81
REMARK H PARENT 72 49 50 60
REMARK Flexibility Score: inf
ROOT
ATOM      1  O   UNL A   1      35.820  21.522  24.785  1.00  0.00    -0.462 OA
ENDROOT
BRANCH   1   2
ATOM      2  C   UNL A   1      35.130  22.132  25.778  1.00  0.00     0.310 C 
ATOM      3  O   UNL A   1      35.303  23.292  26.138  1.00  0.00    -0.252 OA
BRANCH   2   4
ATOM      4  C   UNL A   1      34.111  21.219  26.447  1.00  0.00     0.119 C 
ATOM      5  N   UNL A   1      32.327  21.578  24.813  1.00  0.00    -0.339 N 
ATOM      6  C   UNL A   1      31.431  22.206  25.779  1.00  0.00     0.119 C 
ATOM      7  C   UNL A   1      33.241  20.585  25.369  1.00  0.00     0.134 C 
ATOM      8  C   UNL A   1      32.164  22.790  26.983  1.00  0.00     0.022 C 
ATOM      9  C   UNL A   1      33.243  21.858  27.536  1.00  0.00     0.019 C 
BRANCH   5  10
ATOM     10  C   UNL A   1      32.218  21.907  23.465  1.00  0.00     0.263 C 
ATOM     11  O   UNL A   1      31.734  21.114  22.651  1.00  0.00    -0.271 OA
BRANCH  10  12
ATOM     12  C   UNL A   1      32.761  23.264  22.968  1.00  0.00     0.259 C 
ATOM     13  C   UNL A   1      33.336  23.208  21.556  1.00  0.00     0.064 C 
BRANCH  12  14
ATOM     14  O   UNL A   1      31.683  24.204  23.061  1.00  0.00    -0.481 OA
BRANCH  14  15
ATOM     15  C   UNL A   1      31.912  25.208  23.951  1.00  0.00     0.120 A 
ATOM     16  C   UNL A   1      30.939  26.175  24.184  1.00  0.00     0.047 A 
ATOM     17  C   UNL A   1      33.188  25.343  24.477  1.00  0.00     0.047 A 
ATOM     18  C   UNL A   1      31.254  27.298  24.956  1.00  0.00     0.012 A 
ATOM     19  C   UNL A   1      33.498  26.460  25.249  1.00  0.00     0.012 A 
ATOM     20  C   UNL A   1      32.547  27.469  25.482  1.00  0.00    -0.018 A 
BRANCH  20  21
ATOM     21  C   UNL A   1      32.932  28.689  26.210  1.00  0.00    -0.018 A 
ATOM     22  C   UNL A   1      34.213  28.851  26.756  1.00  0.00     0.009 A 
ATOM     23  C   UNL A   1      32.011  29.742  26.362  1.00  0.00     0.009 A 
ATOM     24  C   UNL A   1      34.567  30.034  27.413  1.00  0.00     0.001 A 
ATOM     25  C   UNL A   1      32.362  30.924  27.017  1.00  0.00     0.001 A 
ATOM     26  C   UNL A   1      33.644  31.069  27.539  1.00  0.00     0.000 A 
ENDBRANCH  20  21
ENDBRANCH  14  15
ENDBRANCH  12  14
ENDBRANCH  10  12
ENDBRANCH   5  10
ENDBRANCH   2   4
ENDBRANCH   1   2
BRANCH   1  27
ATOM     27  C   UNL A   1      37.086  22.083  24.395  1.00  0.00     0.274 C 
BRANCH  27  28
ATOM     28  C   UNL A   1      38.163  21.734  25.423  1.00  0.00     0.275 C 
BRANCH  28  29
ATOM     29  O   UNL A   1      38.430  22.858  26.280  1.00  0.00    -0.458 OA
BRANCH  29  30
ATOM     30  C   UNL A   1      39.741  23.126  26.477  1.00  0.00     0.338 C 
ATOM     31  O   UNL A   1      40.703  22.451  26.161  1.00  0.00    -0.246 OA
BRANCH  30  32
ATOM     32  C   UNL A   1      39.869  24.467  27.055  1.00  0.00     0.060 A 
ATOM     33  C   UNL A   1      40.552  25.446  26.329  1.00  0.00     0.016 A 
ATOM     34  C   UNL A   1      39.400  24.724  28.342  1.00  0.00     0.016 A 
ATOM     35  C   UNL A   1      40.792  26.692  26.896  1.00  0.00     0.010 A 
ATOM     36  C   UNL A   1      39.632  25.977  28.907  1.00  0.00     0.010 A 
ATOM     37  C   UNL A   1      40.344  26.958  28.195  1.00  0.00    -0.014 A 
BRANCH  37  38
ATOM     38  C   UNL A   1      40.681  28.238  28.853  1.00  0.00     0.031 A 
ATOM     39  C   UNL A   1      42.047  28.416  29.447  1.00  0.00     0.074 A 
ATOM     40  C   UNL A   1      39.765  29.217  28.938  1.00  0.00     0.049 A 
ATOM     41  N   UNL A   1      42.491  29.363  30.230  1.00  0.00    -0.248 NA
ATOM     42  C   UNL A   1      43.044  27.383  29.117  1.00  0.00     0.031 C 
ATOM     43  C   UNL A   1      38.431  29.186  28.336  1.00  0.00     0.029 A 
ATOM     44  N   UNL A   1      39.816  30.424  29.584  1.00  0.00    -0.354 N 
ATOM     45  C   UNL A   1      43.807  29.025  30.517  1.00  0.00     0.074 A 
ATOM     46  C   UNL A   1      44.088  27.783  29.827  1.00  0.00     0.031 C 
ATOM     47  C   UNL A   1      37.785  30.320  28.653  1.00  0.00     0.029 A 
ATOM     48  C   UNL A   1      38.636  31.123  29.526  1.00  0.00     0.049 A 
ATOM     49  H   UNL A   1      40.620  30.758  30.046  1.00  0.00     0.167 HD
ATOM     50  C   UNL A   1      44.693  29.687  31.296  1.00  0.00     0.031 A 
ATOM     51  C   UNL A   1      38.269  32.260  30.146  1.00  0.00     0.031 A 
ATOM     52  C   UNL A   1      44.402  30.918  31.978  1.00  0.00     0.049 A 
ATOM     53  C   UNL A   1      39.245  32.936  31.068  1.00  0.00     0.074 A 
ATOM     54  C   UNL A   1      45.225  31.668  32.800  1.00  0.00     0.029 A 
ATOM     55  N   UNL A   1      43.187  31.583  31.912  1.00  0.00    -0.354 N 
ATOM     56  N   UNL A   1      40.474  32.592  31.367  1.00  0.00    -0.248 NA
ATOM     57  C   UNL A   1      38.778  34.154  31.745  1.00  0.00     0.031 C 
ATOM     58  C   UNL A   1      44.493  32.768  33.262  1.00  0.00     0.029 A 
ATOM     59  C   UNL A   1      43.232  32.727  32.688  1.00  0.00     0.049 A 
ATOM     60  H   UNL A   1      42.407  31.285  31.389  1.00  0.00     0.167 HD
ATOM     61  C   UNL A   1      40.937  33.563  32.243  1.00  0.00     0.074 A 
ATOM     62  C   UNL A   1      39.858  34.513  32.424  1.00  0.00     0.031 C 
ATOM     63  C   UNL A   1      42.149  33.662  32.843  1.00  0.00     0.031 A 
BRANCH  50  64
ATOM     64  C   UNL A   1      46.043  29.058  31.488  1.00  0.00    -0.014 A 
ATOM     65  C   UNL A   1      46.285  28.143  32.523  1.00  0.00     0.009 A 
ATOM     66  C   UNL A   1      47.087  29.379  30.605  1.00  0.00     0.009 A 
ATOM     67  C   UNL A   1      47.556  27.587  32.691  1.00  0.00     0.001 A 
ATOM     68  C   UNL A   1      48.349  28.803  30.760  1.00  0.00     0.001 A 
ATOM     69  C   UNL A   1      48.585  27.915  31.809  1.00  0.00     0.000 A 
ENDBRANCH  50  64
BRANCH  51  70
ATOM     70  C   UNL A   1      36.903  32.804  29.946  1.00  0.00    -0.014 A 
ATOM     71  C   UNL A   1      35.869  32.477  30.837  1.00  0.00     0.009 A 
ATOM     72  C   UNL A   1      36.626  33.659  28.866  1.00  0.00     0.009 A 
ATOM     73  C   UNL A   1      34.582  32.983  30.640  1.00  0.00     0.001 A 
ATOM     74  C   UNL A   1      35.344  34.183  28.688  1.00  0.00     0.001 A 
ATOM     75  C   UNL A   1      34.322  33.838  29.571  1.00  0.00     0.000 A 
ENDBRANCH  51  70
BRANCH  63  76
ATOM     76  C   UNL A   1      42.389  34.866  33.707  1.00  0.00    -0.014 A 
ATOM     77  C   UNL A   1      42.190  34.819  35.094  1.00  0.00     0.009 A 
ATOM     78  C   UNL A   1      42.872  36.048  33.123  1.00  0.00     0.009 A 
ATOM     79  C   UNL A   1      42.449  35.945  35.879  1.00  0.00     0.001 A 
ATOM     80  C   UNL A   1      43.151  37.162  33.912  1.00  0.00     0.001 A 
ATOM     81  C   UNL A   1      42.933  37.112  35.289  1.00  0.00     0.000 A 
ENDBRANCH  63  76
ENDBRANCH  37  38
ENDBRANCH  30  32
ENDBRANCH  29  30
ENDBRANCH  28  29
ENDBRANCH  27  28
ENDBRANCH   1  27
TORSDOF 16
ENDMDL
MODEL 3
REMARK VINA RESULT:     -10.5      2.983      6.919
REMARK SMILES C[C@@H](Oc1ccc(-c2ccccc2)cc1)C(=O)N1CCC[C@H](C(=O)OCCOC(=O)c2ccc(-c3c4nc(c(-c5ccccc5)c5ccc([nH]5)c(-c5ccccc5)c5nc(c(-c6ccccc6)c6ccc3[nH]6)C=C5)C=C4)cc2)C1
REMARK SMILES IDX 25 1 23 2 24 3 22 4 18 5 19 6 79 7 20 8 21 9 16 10 17 11
REMARK SMILES IDX 2 12 1 13 3 14 4 15 5 16 15 17 6 18 14 19 7 20 8 21 9 22
REMARK SMILES IDX 13 23 10 24 12 25 11 26 26 27 27 28 28 29 29 30 30 31 31 32
REMARK SMILES IDX 32 33 78 34 33 35 77 36 34 37 35 38 36 39 71 40 37 41 76 42
REMARK SMILES IDX 70 43 72 44 38 45 75 46 69 47 68 48 39 50 61 51 46 52 60 53
REMARK SMILES IDX 47 54 50 55 59 56 73 57 48 58 49 59 58 61 74 62 51 63 40 64
REMARK SMILES IDX 41 65 45 66 42 67 44 68 43 69 62 70 63 71 67 72 64 73 66 74
REMARK SMILES IDX 65 75 52 76 53 77 57 78 54 79 56 80 55 81
REMARK H PARENT 72 49 50 60
REMARK Flexibility Score: inf
ROOT
ATOM      1  O   UNL A   1      35.185  22.546  23.825  1.00  0.00    -0.462 OA
ENDROOT
BRANCH   1   2
ATOM      2  C   UNL A   1      34.662  22.862  25.034  1.00  0.00     0.310 C 
ATOM      3  O   UNL A   1      34.929  23.879  25.665  1.00  0.00    -0.252 OA
BRANCH   2   4
ATOM      4  C   UNL A   1      33.707  21.803  25.568  1.00  0.00     0.119 C 
ATOM      5  N   UNL A   1      31.659  22.864  24.755  1.00  0.00    -0.339 N 
ATOM      6  C   UNL A   1      31.125  23.090  26.095  1.00  0.00     0.119 C 
ATOM      7  C   UNL A   1      32.519  21.693  24.621  1.00  0.00     0.134 C 
ATOM      8  C   UNL A   1      32.203  23.111  27.174  1.00  0.00     0.022 C 
ATOM      9  C   UNL A   1      33.231  21.989  27.012  1.00  0.00     0.019 C 
BRANCH   5  10
ATOM     10  C   UNL A   1      31.281  23.709  23.717  1.00  0.00     0.263 C 
ATOM     11  O   UNL A   1      30.255  23.500  23.063  1.00  0.00    -0.271 OA
BRANCH  10  12
ATOM     12  C   UNL A   1      32.189  24.899  23.338  1.00  0.00     0.259 C 
ATOM     13  C   UNL A   1      32.744  24.813  21.919  1.00  0.00     0.064 C 
BRANCH  12  14
ATOM     14  O   UNL A   1      31.415  26.091  23.530  1.00  0.00    -0.481 OA
BRANCH  14  15
ATOM     15  C   UNL A   1      31.933  26.930  24.468  1.00  0.00     0.120 A 
ATOM     16  C   UNL A   1      31.370  28.186  24.673  1.00  0.00     0.047 A 
ATOM     17  C   UNL A   1      33.126  26.577  25.081  1.00  0.00     0.047 A 
ATOM     18  C   UNL A   1      32.021  29.105  25.503  1.00  0.00     0.012 A 
ATOM     19  C   UNL A   1      33.769  27.493  25.911  1.00  0.00     0.012 A 
ATOM     20  C   UNL A   1      33.243  28.780  26.118  1.00  0.00    -0.018 A 
BRANCH  20  21
ATOM     21  C   UNL A   1      33.997  29.763  26.913  1.00  0.00    -0.018 A 
ATOM     22  C   UNL A   1      35.331  29.547  27.284  1.00  0.00     0.009 A 
ATOM     23  C   UNL A   1      33.387  30.968  27.310  1.00  0.00     0.009 A 
ATOM     24  C   UNL A   1      36.038  30.512  28.011  1.00  0.00     0.001 A 
ATOM     25  C   UNL A   1      34.090  31.932  28.034  1.00  0.00     0.001 A 
ATOM     26  C   UNL A   1      35.419  31.704  28.380  1.00  0.00     0.000 A 
ENDBRANCH  20  21
ENDBRANCH  14  15
ENDBRANCH  12  14
ENDBRANCH  10  12
ENDBRANCH   5  10
ENDBRANCH   2   4
ENDBRANCH   1   2
BRANCH   1  27
ATOM     27  C   UNL A   1      36.616  22.444  23.710  1.00  0.00     0.274 C 
BRANCH  27  28
ATOM     28  C   UNL A   1      37.140  21.301  24.579  1.00  0.00     0.275 C 
BRANCH  28  29
ATOM     29  O   UNL A   1      37.598  21.797  25.850  1.00  0.00    -0.458 OA
BRANCH  29  30
ATOM     30  C   UNL A   1      38.891  21.525  26.136  1.00  0.00     0.338 C 
ATOM     31  O   UNL A   1      39.509  20.498  25.925  1.00  0.00    -0.246 OA
BRANCH  30  32
ATOM     32  C   UNL A   1      39.524  22.736  26.666  1.00  0.00     0.060 A 
ATOM     33  C   UNL A   1      39.061  23.979  26.227  1.00  0.00     0.016 A 
ATOM     34  C   UNL A   1      40.625  22.639  27.514  1.00  0.00     0.016 A 
ATOM     35  C   UNL A   1      39.713  25.143  26.618  1.00  0.00     0.010 A 
ATOM     36  C   UNL A   1      41.273  23.807  27.914  1.00  0.00     0.010 A 
ATOM     37  C   UNL A   1      40.832  25.060  27.454  1.00  0.00    -0.014 A 
BRANCH  37  38
ATOM     38  C   UNL A   1      41.601  26.275  27.795  1.00  0.00     0.031 A 
ATOM     39  C   UNL A   1      40.996  27.285  28.724  1.00  0.00     0.074 A 
ATOM     40  C   UNL A   1      42.816  26.479  27.259  1.00  0.00     0.049 A 
ATOM     41  N   UNL A   1      41.400  28.496  29.005  1.00  0.00    -0.248 NA
ATOM     42  C   UNL A   1      39.768  26.877  29.426  1.00  0.00     0.031 C 
ATOM     43  C   UNL A   1      43.535  25.535  26.402  1.00  0.00     0.029 A 
ATOM     44  N   UNL A   1      43.651  27.562  27.344  1.00  0.00    -0.354 N 
ATOM     45  C   UNL A   1      40.459  29.009  29.887  1.00  0.00     0.074 A 
ATOM     46  C   UNL A   1      39.461  27.980  30.093  1.00  0.00     0.031 C 
ATOM     47  C   UNL A   1      44.701  26.088  26.030  1.00  0.00     0.029 A 
ATOM     48  C   UNL A   1      44.779  27.440  26.572  1.00  0.00     0.049 A 
ATOM     49  H   UNL A   1      43.461  28.350  27.903  1.00  0.00     0.167 HD
ATOM     50  C   UNL A   1      40.427  30.233  30.462  1.00  0.00     0.031 A 
ATOM     51  C   UNL A   1      45.744  28.339  26.297  1.00  0.00     0.031 A 
ATOM     52  C   UNL A   1      41.422  31.249  30.250  1.00  0.00     0.049 A 
ATOM     53  C   UNL A   1      45.646  29.718  26.886  1.00  0.00     0.074 A 
ATOM     54  C   UNL A   1      41.481  32.527  30.777  1.00  0.00     0.029 A 
ATOM     55  N   UNL A   1      42.539  31.095  29.442  1.00  0.00    -0.354 N 
ATOM     56  N   UNL A   1      44.734  30.211  27.689  1.00  0.00    -0.248 NA
ATOM     57  C   UNL A   1      46.707  30.667  26.523  1.00  0.00     0.031 C 
ATOM     58  C   UNL A   1      42.615  33.160  30.256  1.00  0.00     0.029 A 
ATOM     59  C   UNL A   1      43.287  32.258  29.445  1.00  0.00     0.049 A 
ATOM     60  H   UNL A   1      42.766  30.278  28.942  1.00  0.00     0.167 HD
ATOM     61  C   UNL A   1      45.124  31.517  27.949  1.00  0.00     0.074 A 
ATOM     62  C   UNL A   1      46.358  31.738  27.223  1.00  0.00     0.031 C 
ATOM     63  C   UNL A   1      44.517  32.450  28.723  1.00  0.00     0.031 A 
BRANCH  50  64
ATOM     64  C   UNL A   1      39.248  30.551  31.336  1.00  0.00    -0.014 A 
ATOM     65  C   UNL A   1      38.104  31.180  30.824  1.00  0.00     0.009 A 
ATOM     66  C   UNL A   1      39.280  30.201  32.696  1.00  0.00     0.009 A 
ATOM     67  C   UNL A   1      37.028  31.483  31.662  1.00  0.00     0.001 A 
ATOM     68  C   UNL A   1      38.194  30.482  33.526  1.00  0.00     0.001 A 
ATOM     69  C   UNL A   1      37.073  31.131  33.011  1.00  0.00     0.000 A 
ENDBRANCH  50  64
BRANCH  51  70
ATOM     70  C   UNL A   1      46.859  27.972  25.390  1.00  0.00    -0.014 A 
ATOM     71  C   UNL A   1      48.073  27.499  25.910  1.00  0.00     0.009 A 
ATOM     72  C   UNL A   1      46.714  28.086  23.998  1.00  0.00     0.009 A 
ATOM     73  C   UNL A   1      49.125  27.163  25.054  1.00  0.00     0.001 A 
ATOM     74  C   UNL A   1      47.758  27.726  23.144  1.00  0.00     0.001 A 
ATOM     75  C   UNL A   1      48.965  27.272  23.673  1.00  0.00     0.000 A 
ENDBRANCH  51  70
BRANCH  63  76
ATOM     76  C   UNL A   1      45.207  33.774  28.866  1.00  0.00    -0.014 A 
ATOM     77  C   UNL A   1      44.909  34.848  28.016  1.00  0.00     0.009 A 
ATOM     78  C   UNL A   1      46.133  33.961  29.906  1.00  0.00     0.009 A 
ATOM     79  C   UNL A   1      45.544  36.080  28.189  1.00  0.00     0.001 A 
ATOM     80  C   UNL A   1      46.748  35.198  30.091  1.00  0.00     0.001 A 
ATOM     81  C   UNL A   1      46.458  36.255  29.228  1.00  0.00     0.000 A 
ENDBRANCH  63  76
ENDBRANCH  37  38
ENDBRANCH  30  32
ENDBRANCH  29  30
ENDBRANCH  28  29
ENDBRANCH  27  28
ENDBRANCH   1  27
TORSDOF 16
ENDMDL
