MODEL 1
REMARK VINA RESULT:     -11.5      0.000      0.000
REMARK SMILES COc1cccc([C@@H]2CC(c3cccc(C)c3)=NN2C(=O)CCC(=O)OCCOC(=O)c2ccc(-c3c4nc(c(-c5ccccc5)c5ccc([nH]5)c(-c5ccccc5)c5nc(c(-c6ccccc6)c6ccc3[nH]6)C=C5)C=C4)cc2)c1
REMARK SMILES IDX 26 1 24 2 25 3 23 4 22 5 20 6 21 7 19 8 8 9 9 10 10 11 18 12
REMARK SMILES IDX 7 13 3 14 4 15 80 16 5 17 6 18 2 19 1 20 11 21 12 22 17 23
REMARK SMILES IDX 13 24 15 25 14 26 16 27 27 28 28 29 29 30 30 31 31 32 32 33
REMARK SMILES IDX 33 34 79 35 34 36 78 37 35 38 36 39 37 40 72 41 38 42 77 43
REMARK SMILES IDX 71 44 73 45 39 46 76 47 70 48 69 49 40 51 62 52 47 53 61 54
REMARK SMILES IDX 48 55 51 56 60 57 74 58 49 59 50 60 59 62 75 63 52 64 41 65
REMARK SMILES IDX 42 66 46 67 43 68 45 69 44 70 63 71 64 72 68 73 65 74 67 75
REMARK SMILES IDX 66 76 53 77 54 78 58 79 55 80 57 81 56 82
REMARK H PARENT 73 50 51 61
REMARK Flexibility Score: inf
ROOT
ATOM      1  O   UNL A   1      30.757  28.338  25.101  1.00  0.00    -0.462 OA
ENDROOT
BRANCH   1   2
ATOM      2  C   UNL A   1      30.302  27.461  24.168  1.00  0.00     0.306 C 
ATOM      3  O   UNL A   1      29.980  27.773  23.026  1.00  0.00    -0.252 OA
BRANCH   2   4
ATOM      4  C   UNL A   1      30.171  26.051  24.687  1.00  0.00     0.132 C 
BRANCH   4   5
ATOM      5  C   UNL A   1      30.571  25.825  26.147  1.00  0.00     0.114 C 
BRANCH   5   6
ATOM      6  C   UNL A   1      31.066  24.409  26.343  1.00  0.00     0.243 C 
ATOM      7  O   UNL A   1      30.460  23.693  27.151  1.00  0.00    -0.273 OA
BRANCH   6   8
ATOM      8  N   UNL A   1      32.214  24.002  25.680  1.00  0.00    -0.225 N 
ATOM      9  C   UNL A   1      33.532  24.658  25.562  1.00  0.00     0.147 C 
ATOM     10  C   UNL A   1      34.491  23.527  25.207  1.00  0.00     0.091 C 
ATOM     11  C   UNL A   1      33.530  22.382  25.181  1.00  0.00     0.071 C 
ATOM     12  N   UNL A   1      32.282  22.664  25.358  1.00  0.00    -0.174 NA
BRANCH   9  13
ATOM     13  C   UNL A   1      33.638  25.809  24.571  1.00  0.00    -0.019 A 
ATOM     14  C   UNL A   1      33.524  26.569  22.236  1.00  0.00     0.119 A 
ATOM     15  C   UNL A   1      33.887  27.847  22.659  1.00  0.00     0.046 A 
ATOM     16  C   UNL A   1      33.360  25.574  23.200  1.00  0.00     0.052 A 
ATOM     17  C   UNL A   1      34.090  28.122  24.014  1.00  0.00     0.004 A 
ATOM     18  C   UNL A   1      33.976  27.107  24.965  1.00  0.00     0.006 A 
BRANCH  14  19
ATOM     19  O   UNL A   1      33.416  26.441  20.882  1.00  0.00    -0.497 OA
ATOM     20  C   UNL A   1      32.669  25.376  20.311  1.00  0.00     0.278 C 
ENDBRANCH  14  19
ENDBRANCH   9  13
BRANCH  11  21
ATOM     21  C   UNL A   1      34.006  21.010  25.036  1.00  0.00    -0.002 A 
ATOM     22  C   UNL A   1      35.373  20.750  25.049  1.00  0.00     0.010 A 
ATOM     23  C   UNL A   1      33.073  20.001  24.773  1.00  0.00     0.013 A 
ATOM     24  C   UNL A   1      35.812  19.448  24.830  1.00  0.00     0.001 A 
ATOM     25  C   UNL A   1      33.515  18.700  24.524  1.00  0.00    -0.050 A 
ATOM     26  C   UNL A   1      34.890  18.429  24.569  1.00  0.00     0.003 A 
ATOM     27  C   UNL A   1      32.543  17.609  24.181  1.00  0.00     0.044 C 
ENDBRANCH  11  21
ENDBRANCH   6   8
ENDBRANCH   5   6
ENDBRANCH   4   5
ENDBRANCH   2   4
ENDBRANCH   1   2
BRANCH   1  28
ATOM     28  C   UNL A   1      31.028  29.673  24.625  1.00  0.00     0.274 C 
BRANCH  28  29
ATOM     29  C   UNL A   1      31.498  30.628  25.731  1.00  0.00     0.275 C 
BRANCH  29  30
ATOM     30  O   UNL A   1      32.878  30.429  26.096  1.00  0.00    -0.458 OA
BRANCH  30  31
ATOM     31  C   UNL A   1      33.284  31.282  27.058  1.00  0.00     0.338 C 
ATOM     32  O   UNL A   1      32.718  32.304  27.391  1.00  0.00    -0.246 OA
BRANCH  31  33
ATOM     33  C   UNL A   1      34.589  30.999  27.620  1.00  0.00     0.060 A 
ATOM     34  C   UNL A   1      35.471  31.997  28.016  1.00  0.00     0.016 A 
ATOM     35  C   UNL A   1      34.963  29.654  27.599  1.00  0.00     0.016 A 
ATOM     36  C   UNL A   1      36.731  31.618  28.477  1.00  0.00     0.010 A 
ATOM     37  C   UNL A   1      36.182  29.272  28.116  1.00  0.00     0.010 A 
ATOM     38  C   UNL A   1      37.056  30.250  28.600  1.00  0.00    -0.014 A 
BRANCH  38  39
ATOM     39  C   UNL A   1      38.156  29.801  29.478  1.00  0.00     0.031 A 
ATOM     40  C   UNL A   1      38.241  30.202  30.918  1.00  0.00     0.074 A 
ATOM     41  C   UNL A   1      39.195  29.204  28.861  1.00  0.00     0.049 A 
ATOM     42  N   UNL A   1      39.203  29.967  31.774  1.00  0.00    -0.248 NA
ATOM     43  C   UNL A   1      37.147  31.026  31.454  1.00  0.00     0.031 C 
ATOM     44  C   UNL A   1      39.282  28.943  27.417  1.00  0.00     0.029 A 
ATOM     45  N   UNL A   1      40.375  28.721  29.352  1.00  0.00    -0.354 N 
ATOM     46  C   UNL A   1      38.861  30.659  32.928  1.00  0.00     0.074 A 
ATOM     47  C   UNL A   1      37.610  31.336  32.658  1.00  0.00     0.031 C 
ATOM     48  C   UNL A   1      40.414  28.280  27.155  1.00  0.00     0.029 A 
ATOM     49  C   UNL A   1      41.149  28.111  28.396  1.00  0.00     0.049 A 
ATOM     50  H   UNL A   1      40.643  28.803  30.296  1.00  0.00     0.167 HD
ATOM     51  C   UNL A   1      39.537  30.717  34.100  1.00  0.00     0.031 A 
ATOM     52  C   UNL A   1      42.320  27.464  28.511  1.00  0.00     0.031 A 
ATOM     53  C   UNL A   1      40.762  29.996  34.348  1.00  0.00     0.049 A 
ATOM     54  C   UNL A   1      42.939  27.365  29.866  1.00  0.00     0.074 A 
ATOM     55  C   UNL A   1      41.470  29.873  35.531  1.00  0.00     0.029 A 
ATOM     56  N   UNL A   1      41.452  29.267  33.390  1.00  0.00    -0.354 N 
ATOM     57  N   UNL A   1      42.546  27.920  30.986  1.00  0.00    -0.248 NA
ATOM     58  C   UNL A   1      44.145  26.539  29.981  1.00  0.00     0.031 C 
ATOM     59  C   UNL A   1      42.600  29.085  35.281  1.00  0.00     0.029 A 
ATOM     60  C   UNL A   1      42.577  28.689  33.953  1.00  0.00     0.049 A 
ATOM     61  H   UNL A   1      41.182  29.174  32.448  1.00  0.00     0.167 HD
ATOM     62  C   UNL A   1      43.454  27.509  31.947  1.00  0.00     0.074 A 
ATOM     63  C   UNL A   1      44.399  26.634  31.279  1.00  0.00     0.031 C 
ATOM     64  C   UNL A   1      43.506  27.834  33.261  1.00  0.00     0.031 A 
BRANCH  51  65
ATOM     65  C   UNL A   1      38.975  31.578  35.199  1.00  0.00    -0.014 A 
ATOM     66  C   UNL A   1      38.239  31.025  36.259  1.00  0.00     0.009 A 
ATOM     67  C   UNL A   1      39.223  32.961  35.200  1.00  0.00     0.009 A 
ATOM     68  C   UNL A   1      37.732  31.841  37.274  1.00  0.00     0.001 A 
ATOM     69  C   UNL A   1      38.740  33.770  36.231  1.00  0.00     0.001 A 
ATOM     70  C   UNL A   1      37.986  33.212  37.262  1.00  0.00     0.000 A 
ENDBRANCH  51  65
BRANCH  52  71
ATOM     71  C   UNL A   1      42.891  26.789  27.322  1.00  0.00    -0.014 A 
ATOM     72  C   UNL A   1      44.069  27.281  26.742  1.00  0.00     0.009 A 
ATOM     73  C   UNL A   1      42.330  25.602  26.826  1.00  0.00     0.009 A 
ATOM     74  C   UNL A   1      44.669  26.606  25.678  1.00  0.00     0.001 A 
ATOM     75  C   UNL A   1      42.946  24.916  25.777  1.00  0.00     0.001 A 
ATOM     76  C   UNL A   1      44.111  25.422  25.202  1.00  0.00     0.000 A 
ENDBRANCH  52  71
BRANCH  64  77
ATOM     77  C   UNL A   1      44.626  27.228  34.049  1.00  0.00    -0.014 A 
ATOM     78  C   UNL A   1      44.456  26.006  34.719  1.00  0.00     0.009 A 
ATOM     79  C   UNL A   1      45.864  27.882  34.114  1.00  0.00     0.009 A 
ATOM     80  C   UNL A   1      45.500  25.467  35.468  1.00  0.00     0.001 A 
ATOM     81  C   UNL A   1      46.914  27.329  34.846  1.00  0.00     0.001 A 
ATOM     82  C   UNL A   1      46.728  26.126  35.530  1.00  0.00     0.000 A 
ENDBRANCH  64  77
ENDBRANCH  38  39
ENDBRANCH  31  33
ENDBRANCH  30  31
ENDBRANCH  29  30
ENDBRANCH  28  29
ENDBRANCH   1  28
TORSDOF 17
ENDMDL
MODEL 2
REMARK VINA RESULT:     -11.5      0.472      5.742
REMARK SMILES COc1cccc([C@@H]2CC(c3cccc(C)c3)=NN2C(=O)CCC(=O)OCCOC(=O)c2ccc(-c3c4nc(c(-c5ccccc5)c5ccc([nH]5)c(-c5ccccc5)c5nc(c(-c6ccccc6)c6ccc3[nH]6)C=C5)C=C4)cc2)c1
REMARK SMILES IDX 26 1 24 2 25 3 23 4 22 5 20 6 21 7 19 8 8 9 9 10 10 11 18 12
REMARK SMILES IDX 7 13 3 14 4 15 80 16 5 17 6 18 2 19 1 20 11 21 12 22 17 23
REMARK SMILES IDX 13 24 15 25 14 26 16 27 27 28 28 29 29 30 30 31 31 32 32 33
REMARK SMILES IDX 33 34 79 35 34 36 78 37 35 38 36 39 37 40 72 41 38 42 77 43
REMARK SMILES IDX 71 44 73 45 39 46 76 47 70 48 69 49 40 51 62 52 47 53 61 54
REMARK SMILES IDX 48 55 51 56 60 57 74 58 49 59 50 60 59 62 75 63 52 64 41 65
REMARK SMILES IDX 42 66 46 67 43 68 45 69 44 70 63 71 64 72 68 73 65 74 67 75
REMARK SMILES IDX 66 76 53 77 54 78 58 79 55 80 57 81 56 82
REMARK H PARENT 73 50 51 61
REMARK Flexibility Score: inf
ROOT
ATOM      1  O   UNL A   1      30.813  28.289  25.208  1.00  0.00    -0.462 OA
ENDROOT
BRANCH   1   2
ATOM      2  C   UNL A   1      30.366  27.370  24.313  1.00  0.00     0.306 C 
ATOM      3  O   UNL A   1      30.064  27.627  23.152  1.00  0.00    -0.252 OA
BRANCH   2   4
ATOM      4  C   UNL A   1      30.218  25.988  24.900  1.00  0.00     0.132 C 
BRANCH   4   5
ATOM      5  C   UNL A   1      30.805  25.777  26.297  1.00  0.00     0.114 C 
BRANCH   5   6
ATOM      6  C   UNL A   1      31.325  24.364  26.442  1.00  0.00     0.243 C 
ATOM      7  O   UNL A   1      30.762  23.622  27.256  1.00  0.00    -0.273 OA
BRANCH   6   8
ATOM      8  N   UNL A   1      32.451  23.988  25.724  1.00  0.00    -0.225 N 
ATOM      9  C   UNL A   1      33.731  24.696  25.515  1.00  0.00     0.147 C 
ATOM     10  C   UNL A   1      34.716  23.598  25.134  1.00  0.00     0.091 C 
ATOM     11  C   UNL A   1      33.808  22.413  25.192  1.00  0.00     0.071 C 
ATOM     12  N   UNL A   1      32.560  22.646  25.433  1.00  0.00    -0.174 NA
BRANCH   9  13
ATOM     13  C   UNL A   1      33.729  25.822  24.490  1.00  0.00    -0.019 A 
ATOM     14  C   UNL A   1      33.453  26.511  22.146  1.00  0.00     0.119 A 
ATOM     15  C   UNL A   1      33.780  27.815  22.515  1.00  0.00     0.046 A 
ATOM     16  C   UNL A   1      33.388  25.537  23.143  1.00  0.00     0.052 A 
ATOM     17  C   UNL A   1      34.044  28.136  23.849  1.00  0.00     0.004 A 
ATOM     18  C   UNL A   1      34.029  27.145  24.831  1.00  0.00     0.006 A 
BRANCH  14  19
ATOM     19  O   UNL A   1      33.277  26.340  20.804  1.00  0.00    -0.497 OA
ATOM     20  C   UNL A   1      32.531  25.240  20.304  1.00  0.00     0.278 C 
ENDBRANCH  14  19
ENDBRANCH   9  13
BRANCH  11  21
ATOM     21  C   UNL A   1      34.335  21.059  25.056  1.00  0.00    -0.002 A 
ATOM     22  C   UNL A   1      35.710  20.848  25.088  1.00  0.00     0.010 A 
ATOM     23  C   UNL A   1      33.443  20.016  24.781  1.00  0.00     0.013 A 
ATOM     24  C   UNL A   1      36.199  19.562  24.876  1.00  0.00     0.001 A 
ATOM     25  C   UNL A   1      33.935  18.732  24.539  1.00  0.00    -0.050 A 
ATOM     26  C   UNL A   1      35.318  18.511  24.604  1.00  0.00     0.003 A 
ATOM     27  C   UNL A   1      33.008  17.606  24.184  1.00  0.00     0.044 C 
ENDBRANCH  11  21
ENDBRANCH   6   8
ENDBRANCH   5   6
ENDBRANCH   4   5
ENDBRANCH   2   4
ENDBRANCH   1   2
BRANCH   1  28
ATOM     28  C   UNL A   1      31.021  29.620  24.688  1.00  0.00     0.274 C 
BRANCH  28  29
ATOM     29  C   UNL A   1      31.491  30.620  25.752  1.00  0.00     0.275 C 
BRANCH  29  30
ATOM     30  O   UNL A   1      32.776  30.283  26.312  1.00  0.00    -0.458 OA
BRANCH  30  31
ATOM     31  C   UNL A   1      33.220  31.215  27.180  1.00  0.00     0.338 C 
ATOM     32  O   UNL A   1      32.643  32.240  27.483  1.00  0.00    -0.246 OA
BRANCH  31  33
ATOM     33  C   UNL A   1      34.571  31.013  27.660  1.00  0.00     0.060 A 
ATOM     34  C   UNL A   1      35.417  32.064  27.995  1.00  0.00     0.016 A 
ATOM     35  C   UNL A   1      35.021  29.692  27.624  1.00  0.00     0.016 A 
ATOM     36  C   UNL A   1      36.723  31.762  28.378  1.00  0.00     0.010 A 
ATOM     37  C   UNL A   1      36.290  29.385  28.066  1.00  0.00     0.010 A 
ATOM     38  C   UNL A   1      37.134  30.416  28.489  1.00  0.00    -0.014 A 
BRANCH  38  39
ATOM     39  C   UNL A   1      38.310  30.040  29.299  1.00  0.00     0.031 A 
ATOM     40  C   UNL A   1      39.387  29.141  28.774  1.00  0.00     0.074 A 
ATOM     41  C   UNL A   1      38.250  30.360  30.606  1.00  0.00     0.049 A 
ATOM     42  N   UNL A   1      40.419  28.648  29.409  1.00  0.00    -0.248 NA
ATOM     43  C   UNL A   1      39.261  28.681  27.382  1.00  0.00     0.031 C 
ATOM     44  C   UNL A   1      37.139  31.075  31.250  1.00  0.00     0.029 A 
ATOM     45  N   UNL A   1      39.123  30.124  31.631  1.00  0.00    -0.354 N 
ATOM     46  C   UNL A   1      41.032  27.777  28.518  1.00  0.00     0.074 A 
ATOM     47  C   UNL A   1      40.247  27.797  27.303  1.00  0.00     0.031 C 
ATOM     48  C   UNL A   1      37.433  31.284  32.538  1.00  0.00     0.029 A 
ATOM     49  C   UNL A   1      38.726  30.683  32.820  1.00  0.00     0.049 A 
ATOM     50  H   UNL A   1      39.953  29.604  31.526  1.00  0.00     0.167 HD
ATOM     51  C   UNL A   1      42.147  27.033  28.710  1.00  0.00     0.031 A 
ATOM     52  C   UNL A   1      39.347  30.727  34.009  1.00  0.00     0.031 A 
ATOM     53  C   UNL A   1      42.929  27.068  29.922  1.00  0.00     0.049 A 
ATOM     54  C   UNL A   1      40.683  30.071  34.129  1.00  0.00     0.074 A 
ATOM     55  C   UNL A   1      44.143  26.461  30.187  1.00  0.00     0.029 A 
ATOM     56  N   UNL A   1      42.568  27.762  31.069  1.00  0.00    -0.354 N 
ATOM     57  N   UNL A   1      41.321  29.347  33.241  1.00  0.00    -0.248 NA
ATOM     58  C   UNL A   1      41.394  30.250  35.398  1.00  0.00     0.031 C 
ATOM     59  C   UNL A   1      44.507  26.771  31.503  1.00  0.00     0.029 A 
ATOM     60  C   UNL A   1      43.537  27.601  32.044  1.00  0.00     0.049 A 
ATOM     61  H   UNL A   1      41.745  28.291  31.174  1.00  0.00     0.167 HD
ATOM     62  C   UNL A   1      42.515  28.985  33.840  1.00  0.00     0.074 A 
ATOM     63  C   UNL A   1      42.522  29.595  35.157  1.00  0.00     0.031 C 
ATOM     64  C   UNL A   1      43.511  28.210  33.349  1.00  0.00     0.031 A 
BRANCH  51  65
ATOM     65  C   UNL A   1      42.593  26.126  27.595  1.00  0.00    -0.014 A 
ATOM     66  C   UNL A   1      42.050  24.842  27.434  1.00  0.00     0.009 A 
ATOM     67  C   UNL A   1      43.539  26.580  26.661  1.00  0.00     0.009 A 
ATOM     68  C   UNL A   1      42.471  24.017  26.387  1.00  0.00     0.001 A 
ATOM     69  C   UNL A   1      43.938  25.765  25.598  1.00  0.00     0.001 A 
ATOM     70  C   UNL A   1      43.411  24.481  25.467  1.00  0.00     0.000 A 
ENDBRANCH  51  65
BRANCH  52  71
ATOM     71  C   UNL A   1      38.740  31.506  35.113  1.00  0.00    -0.014 A 
ATOM     72  C   UNL A   1      38.163  30.836  36.202  1.00  0.00     0.009 A 
ATOM     73  C   UNL A   1      38.823  32.906  35.140  1.00  0.00     0.009 A 
ATOM     74  C   UNL A   1      37.667  31.554  37.291  1.00  0.00     0.001 A 
ATOM     75  C   UNL A   1      38.347  33.619  36.242  1.00  0.00     0.001 A 
ATOM     76  C   UNL A   1      37.765  32.943  37.313  1.00  0.00     0.000 A 
ENDBRANCH  52  71
BRANCH  64  77
ATOM     77  C   UNL A   1      44.687  27.991  34.251  1.00  0.00    -0.014 A 
ATOM     78  C   UNL A   1      44.652  27.009  35.252  1.00  0.00     0.009 A 
ATOM     79  C   UNL A   1      45.841  28.770  34.089  1.00  0.00     0.009 A 
ATOM     80  C   UNL A   1      45.746  26.834  36.099  1.00  0.00     0.001 A 
ATOM     81  C   UNL A   1      46.941  28.577  34.924  1.00  0.00     0.001 A 
ATOM     82  C   UNL A   1      46.889  27.616  35.934  1.00  0.00     0.000 A 
ENDBRANCH  64  77
ENDBRANCH  38  39
ENDBRANCH  31  33
ENDBRANCH  30  31
ENDBRANCH  29  30
ENDBRANCH  28  29
ENDBRANCH   1  28
TORSDOF 17
ENDMDL
MODEL 3
REMARK VINA RESULT:     -11.5      3.016      7.932
REMARK SMILES COc1cccc([C@@H]2CC(c3cccc(C)c3)=NN2C(=O)CCC(=O)OCCOC(=O)c2ccc(-c3c4nc(c(-c5ccccc5)c5ccc([nH]5)c(-c5ccccc5)c5nc(c(-c6ccccc6)c6ccc3[nH]6)C=C5)C=C4)cc2)c1
REMARK SMILES IDX 26 1 24 2 25 3 23 4 22 5 20 6 21 7 19 8 8 9 9 10 10 11 18 12
REMARK SMILES IDX 7 13 3 14 4 15 80 16 5 17 6 18 2 19 1 20 11 21 12 22 17 23
REMARK SMILES IDX 13 24 15 25 14 26 16 27 27 28 28 29 29 30 30 31 31 32 32 33
REMARK SMILES IDX 33 34 79 35 34 36 78 37 35 38 36 39 37 40 72 41 38 42 77 43
REMARK SMILES IDX 71 44 73 45 39 46 76 47 70 48 69 49 40 51 62 52 47 53 61 54
REMARK SMILES IDX 48 55 51 56 60 57 74 58 49 59 50 60 59 62 75 63 52 64 41 65
REMARK SMILES IDX 42 66 46 67 43 68 45 69 44 70 63 71 64 72 68 73 65 74 67 75
REMARK SMILES IDX 66 76 53 77 54 78 58 79 55 80 57 81 56 82
REMARK H PARENT 73 50 51 61
REMARK Flexibility Score: inf
ROOT
ATOM      1  O   UNL A   1      39.829  21.656  25.874  1.00  0.00    -0.462 OA
ENDROOT
BRANCH   1   2
ATOM      2  C   UNL A   1      38.990  20.656  25.494  1.00  0.00     0.306 C 
ATOM      3  O   UNL A   1      39.319  19.478  25.396  1.00  0.00    -0.252 OA
BRANCH   2   4
ATOM      4  C   UNL A   1      37.605  21.141  25.143  1.00  0.00     0.132 C 
BRANCH   4   5
ATOM      5  C   UNL A   1      37.406  22.658  25.105  1.00  0.00     0.114 C 
BRANCH   5   6
ATOM      6  C   UNL A   1      36.337  23.022  24.098  1.00  0.00     0.243 C 
ATOM      7  O   UNL A   1      36.681  23.172  22.919  1.00  0.00    -0.273 OA
BRANCH   6   8
ATOM      8  N   UNL A   1      35.044  23.251  24.546  1.00  0.00    -0.225 N 
ATOM      9  C   UNL A   1      34.109  22.356  25.259  1.00  0.00     0.147 C 
ATOM     10  C   UNL A   1      33.120  23.298  25.935  1.00  0.00     0.091 C 
ATOM     11  C   UNL A   1      33.673  24.611  25.482  1.00  0.00     0.071 C 
ATOM     12  N   UNL A   1      34.669  24.571  24.660  1.00  0.00    -0.174 NA
BRANCH   9  13
ATOM     13  C   UNL A   1      33.393  21.306  24.420  1.00  0.00    -0.019 A 
ATOM     14  C   UNL A   1      32.812  18.941  24.088  1.00  0.00     0.119 A 
ATOM     15  C   UNL A   1      32.171  19.290  22.899  1.00  0.00     0.046 A 
ATOM     16  C   UNL A   1      33.378  19.957  24.858  1.00  0.00     0.052 A 
ATOM     17  C   UNL A   1      32.104  20.622  22.487  1.00  0.00     0.004 A 
ATOM     18  C   UNL A   1      32.720  21.626  23.237  1.00  0.00     0.006 A 
BRANCH  14  19
ATOM     19  O   UNL A   1      32.843  17.599  24.329  1.00  0.00    -0.497 OA
ATOM     20  C   UNL A   1      33.675  16.741  23.560  1.00  0.00     0.278 C 
ENDBRANCH  14  19
ENDBRANCH   9  13
BRANCH  11  21
ATOM     21  C   UNL A   1      33.149  25.866  26.010  1.00  0.00    -0.002 A 
ATOM     22  C   UNL A   1      31.776  26.024  26.177  1.00  0.00     0.010 A 
ATOM     23  C   UNL A   1      34.037  26.924  26.230  1.00  0.00     0.013 A 
ATOM     24  C   UNL A   1      31.287  27.253  26.606  1.00  0.00     0.001 A 
ATOM     25  C   UNL A   1      33.544  28.168  26.632  1.00  0.00    -0.050 A 
ATOM     26  C   UNL A   1      32.164  28.319  26.833  1.00  0.00     0.003 A 
ATOM     27  C   UNL A   1      34.465  29.338  26.819  1.00  0.00     0.044 C 
ENDBRANCH  11  21
ENDBRANCH   6   8
ENDBRANCH   5   6
ENDBRANCH   4   5
ENDBRANCH   2   4
ENDBRANCH   1   2
BRANCH   1  28
ATOM     28  C   UNL A   1      41.029  21.238  26.559  1.00  0.00     0.274 C 
BRANCH  28  29
ATOM     29  C   UNL A   1      42.310  21.820  25.948  1.00  0.00     0.275 C 
BRANCH  29  30
ATOM     30  O   UNL A   1      42.815  22.957  26.676  1.00  0.00    -0.458 OA
BRANCH  30  31
ATOM     31  C   UNL A   1      42.480  24.129  26.098  1.00  0.00     0.338 C 
ATOM     32  O   UNL A   1      42.768  24.476  24.970  1.00  0.00    -0.246 OA
BRANCH  31  33
ATOM     33  C   UNL A   1      41.849  25.091  26.978  1.00  0.00     0.060 A 
ATOM     34  C   UNL A   1      40.695  24.808  27.700  1.00  0.00     0.016 A 
ATOM     35  C   UNL A   1      42.396  26.375  26.941  1.00  0.00     0.016 A 
ATOM     36  C   UNL A   1      40.129  25.829  28.463  1.00  0.00     0.010 A 
ATOM     37  C   UNL A   1      41.877  27.367  27.746  1.00  0.00     0.010 A 
ATOM     38  C   UNL A   1      40.766  27.086  28.546  1.00  0.00    -0.014 A 
BRANCH  38  39
ATOM     39  C   UNL A   1      40.477  28.017  29.655  1.00  0.00     0.031 A 
ATOM     40  C   UNL A   1      39.355  29.007  29.594  1.00  0.00     0.074 A 
ATOM     41  C   UNL A   1      41.411  28.085  30.625  1.00  0.00     0.049 A 
ATOM     42  N   UNL A   1      39.053  29.951  30.449  1.00  0.00    -0.248 NA
ATOM     43  C   UNL A   1      38.502  28.985  28.396  1.00  0.00     0.031 C 
ATOM     44  C   UNL A   1      42.643  27.286  30.667  1.00  0.00     0.029 A 
ATOM     45  N   UNL A   1      41.486  28.860  31.748  1.00  0.00    -0.354 N 
ATOM     46  C   UNL A   1      38.017  30.671  29.869  1.00  0.00     0.074 A 
ATOM     47  C   UNL A   1      37.752  30.064  28.582  1.00  0.00     0.031 C 
ATOM     48  C   UNL A   1      43.309  27.557  31.795  1.00  0.00     0.029 A 
ATOM     49  C   UNL A   1      42.578  28.575  32.530  1.00  0.00     0.049 A 
ATOM     50  H   UNL A   1      40.823  29.553  31.973  1.00  0.00     0.167 HD
ATOM     51  C   UNL A   1      37.356  31.739  30.375  1.00  0.00     0.031 A 
ATOM     52  C   UNL A   1      42.942  29.067  33.724  1.00  0.00     0.031 A 
ATOM     53  C   UNL A   1      37.620  32.294  31.680  1.00  0.00     0.049 A 
ATOM     54  C   UNL A   1      42.069  30.102  34.355  1.00  0.00     0.074 A 
ATOM     55  C   UNL A   1      36.934  33.289  32.353  1.00  0.00     0.029 A 
ATOM     56  N   UNL A   1      38.653  31.885  32.513  1.00  0.00    -0.354 N 
ATOM     57  N   UNL A   1      41.013  30.695  33.854  1.00  0.00    -0.248 NA
ATOM     58  C   UNL A   1      42.420  30.520  35.715  1.00  0.00     0.031 C 
ATOM     59  C   UNL A   1      37.566  33.497  33.585  1.00  0.00     0.029 A 
ATOM     60  C   UNL A   1      38.623  32.607  33.694  1.00  0.00     0.049 A 
ATOM     61  H   UNL A   1      39.311  31.186  32.295  1.00  0.00     0.167 HD
ATOM     62  C   UNL A   1      40.566  31.559  34.839  1.00  0.00     0.074 A 
ATOM     63  C   UNL A   1      41.450  31.386  35.977  1.00  0.00     0.031 C 
ATOM     64  C   UNL A   1      39.523  32.422  34.802  1.00  0.00     0.031 A 
BRANCH  51  65
ATOM     65  C   UNL A   1      36.288  32.376  29.527  1.00  0.00    -0.014 A 
ATOM     66  C   UNL A   1      34.971  31.892  29.522  1.00  0.00     0.009 A 
ATOM     67  C   UNL A   1      36.593  33.507  28.752  1.00  0.00     0.009 A 
ATOM     68  C   UNL A   1      33.991  32.501  28.733  1.00  0.00     0.001 A 
ATOM     69  C   UNL A   1      35.605  34.133  27.986  1.00  0.00     0.001 A 
ATOM     70  C   UNL A   1      34.308  33.624  27.970  1.00  0.00     0.000 A 
ENDBRANCH  51  65
BRANCH  52  71
ATOM     71  C   UNL A   1      44.123  28.494  34.411  1.00  0.00    -0.014 A 
ATOM     72  C   UNL A   1      45.367  29.133  34.306  1.00  0.00     0.009 A 
ATOM     73  C   UNL A   1      43.998  27.378  35.253  1.00  0.00     0.009 A 
ATOM     74  C   UNL A   1      46.469  28.657  35.018  1.00  0.00     0.001 A 
ATOM     75  C   UNL A   1      45.097  26.919  35.982  1.00  0.00     0.001 A 
ATOM     76  C   UNL A   1      46.331  27.556  35.860  1.00  0.00     0.000 A 
ENDBRANCH  52  71
BRANCH  64  77
ATOM     77  C   UNL A   1      39.293  33.236  36.038  1.00  0.00    -0.014 A 
ATOM     78  C   UNL A   1      39.917  34.483  36.204  1.00  0.00     0.009 A 
ATOM     79  C   UNL A   1      38.439  32.755  37.039  1.00  0.00     0.009 A 
ATOM     80  C   UNL A   1      39.712  35.218  37.370  1.00  0.00     0.001 A 
ATOM     81  C   UNL A   1      38.219  33.503  38.195  1.00  0.00     0.001 A 
ATOM     82  C   UNL A   1      38.862  34.730  38.364  1.00  0.00     0.000 A 
ENDBRANCH  64  77
ENDBRANCH  38  39
ENDBRANCH  31  33
ENDBRANCH  30  31
ENDBRANCH  29  30
ENDBRANCH  28  29
ENDBRANCH   1  28
TORSDOF 17
ENDMDL
