MODEL 1
REMARK VINA RESULT:      -9.3      0.000      0.000
REMARK SMILES CC(C)C[C@H](NC(=O)[C@@H](NC(=O)[C@H](C)NC(=O)CNC(=O)OCc1ccccc1)C(C)C)C(=O)OCCOC(=O)c1ccc(-c2c3nc(c(-c4ccccc4)c4ccc([nH]4)c(-c4ccccc4)c4nc(c(-c5ccccc5)c5ccc2[nH]5)C=C4)C=C3)cc1
REMARK SMILES IDX 6 1 7 2 8 3 5 5 4 6 2 7 1 8 3 9 33 10 34 11 35 12 36 13
REMARK SMILES IDX 37 14 38 15 39 16 40 17 41 18 42 19 88 20 43 21 87 22 44 23
REMARK SMILES IDX 45 24 46 25 81 26 47 27 86 28 80 29 82 30 48 31 85 32 79 33
REMARK SMILES IDX 78 34 49 36 71 37 56 38 70 39 57 40 60 41 69 42 83 43 58 44
REMARK SMILES IDX 59 45 68 47 84 48 61 49 50 50 51 51 55 52 52 53 54 54 53 55
REMARK SMILES IDX 72 56 73 57 77 58 74 59 76 60 75 61 62 62 63 63 67 64 64 65
REMARK SMILES IDX 66 66 65 67 9 68 10 69 11 70 12 72 13 73 14 74 15 75 16 76
REMARK SMILES IDX 17 78 18 79 19 80 20 81 21 83 22 84 23 85 24 86 25 87 29 88
REMARK SMILES IDX 26 89 28 90 27 91 30 92 31 93 32 94
REMARK H PARENT 6 4 82 35 60 46 10 71 15 77 19 82
REMARK Flexibility Score: inf
ROOT
ATOM      1  N   UNL A   1      39.246  23.198  27.155  1.00  0.00    -0.341 N 
ATOM      2  C   UNL A   1      38.078  23.761  26.695  1.00  0.00     0.243 C 
ATOM      3  O   UNL A   1      37.954  24.944  27.080  1.00  0.00    -0.273 OA
ATOM      4  H   UNL A   1      39.650  23.735  27.875  1.00  0.00     0.164 HD
ENDROOT
BRANCH   1   5
ATOM      5  C   UNL A   1      40.054  21.997  26.849  1.00  0.00     0.192 C 
BRANCH   5   6
ATOM      6  C   UNL A   1      39.606  21.235  25.570  1.00  0.00     0.040 C 
BRANCH   6   7
ATOM      7  C   UNL A   1      38.848  19.913  25.770  1.00  0.00    -0.015 C 
ATOM      8  C   UNL A   1      37.761  19.732  24.718  1.00  0.00     0.007 C 
ATOM      9  C   UNL A   1      39.853  18.751  25.699  1.00  0.00     0.007 C 
ENDBRANCH   6   7
ENDBRANCH   5   6
BRANCH   5  10
ATOM     10  C   UNL A   1      41.627  21.960  26.705  1.00  0.00     0.328 C 
ATOM     11  O   UNL A   1      42.332  21.622  27.657  1.00  0.00    -0.250 OA
BRANCH  10  12
ATOM     12  O   UNL A   1      42.138  22.303  25.491  1.00  0.00    -0.461 OA
BRANCH  12  13
ATOM     13  C   UNL A   1      43.128  23.375  25.516  1.00  0.00     0.274 C 
BRANCH  13  14
ATOM     14  C   UNL A   1      44.471  23.023  24.811  1.00  0.00     0.275 C 
BRANCH  14  15
ATOM     15  O   UNL A   1      45.344  24.147  24.560  1.00  0.00    -0.458 OA
BRANCH  15  16
ATOM     16  C   UNL A   1      46.132  24.396  25.613  1.00  0.00     0.338 C 
ATOM     17  O   UNL A   1      46.742  23.533  26.207  1.00  0.00    -0.246 OA
BRANCH  16  18
ATOM     18  C   UNL A   1      46.233  25.805  26.011  1.00  0.00     0.060 A 
ATOM     19  C   UNL A   1      46.461  26.309  27.753  1.00  0.00     0.016 A 
ATOM     20  C   UNL A   1      46.205  27.105  24.755  1.00  0.00     0.016 A 
ATOM     21  C   UNL A   1      46.684  28.035  28.194  1.00  0.00     0.010 A 
ATOM     22  C   UNL A   1      46.432  28.841  25.247  1.00  0.00     0.010 A 
ATOM     23  C   UNL A   1      46.746  29.324  26.945  1.00  0.00    -0.014 A 
BRANCH  23  24
ATOM     24  C   UNL A   1      46.933  30.817  27.317  1.00  0.00     0.031 A 
ATOM     25  C   UNL A   1      45.777  31.736  27.749  1.00  0.00     0.074 A 
ATOM     26  C   UNL A   1      48.142  31.436  27.264  1.00  0.00     0.049 A 
ATOM     27  N   UNL A   1      45.766  33.050  27.886  1.00  0.00    -0.248 NA
ATOM     28  C   UNL A   1      44.508  31.112  28.143  1.00  0.00     0.031 C 
ATOM     29  C   UNL A   1      49.443  30.802  27.117  1.00  0.00     0.029 A 
ATOM     30  N   UNL A   1      48.461  32.790  27.233  1.00  0.00    -0.354 N 
ATOM     31  C   UNL A   1      44.520  33.393  28.419  1.00  0.00     0.074 A 
ATOM     32  C   UNL A   1      43.772  32.157  28.510  1.00  0.00     0.031 C 
ATOM     33  C   UNL A   1      50.373  31.730  26.831  1.00  0.00     0.029 A 
ATOM     34  C   UNL A   1      49.743  33.031  26.775  1.00  0.00     0.049 A 
ATOM     35  H   UNL A   1      47.840  33.501  27.509  1.00  0.00     0.167 HD
ATOM     36  C   UNL A   1      44.048  34.601  28.837  1.00  0.00     0.031 A 
ATOM     37  C   UNL A   1      50.355  34.137  26.306  1.00  0.00     0.031 A 
ATOM     38  C   UNL A   1      44.772  35.852  28.783  1.00  0.00     0.049 A 
ATOM     39  C   UNL A   1      49.718  35.475  26.476  1.00  0.00     0.074 A 
ATOM     40  C   UNL A   1      44.398  37.092  29.287  1.00  0.00     0.029 A 
ATOM     41  N   UNL A   1      45.998  36.037  28.172  1.00  0.00    -0.354 N 
ATOM     42  N   UNL A   1      48.552  35.761  26.989  1.00  0.00    -0.248 NA
ATOM     43  C   UNL A   1      50.526  36.646  26.101  1.00  0.00     0.031 C 
ATOM     44  C   UNL A   1      45.358  38.038  28.910  1.00  0.00     0.029 A 
ATOM     45  C   UNL A   1      46.361  37.377  28.227  1.00  0.00     0.049 A 
ATOM     46  H   UNL A   1      46.535  35.324  27.758  1.00  0.00     0.167 HD
ATOM     47  C   UNL A   1      48.523  37.143  27.087  1.00  0.00     0.074 A 
ATOM     48  C   UNL A   1      49.767  37.640  26.538  1.00  0.00     0.031 C 
ATOM     49  C   UNL A   1      47.563  37.911  27.649  1.00  0.00     0.031 A 
BRANCH  36  50
ATOM     50  C   UNL A   1      42.657  34.670  29.430  1.00  0.00    -0.014 A 
ATOM     51  C   UNL A   1      41.559  35.101  28.668  1.00  0.00     0.009 A 
ATOM     52  C   UNL A   1      42.416  34.151  30.715  1.00  0.00     0.009 A 
ATOM     53  C   UNL A   1      40.260  35.035  29.186  1.00  0.00     0.001 A 
ATOM     54  C   UNL A   1      41.115  34.062  31.222  1.00  0.00     0.001 A 
ATOM     55  C   UNL A   1      40.039  34.510  30.459  1.00  0.00     0.000 A 
ENDBRANCH  36  50
BRANCH  37  56
ATOM     56  C   UNL A   1      51.662  34.061  25.598  1.00  0.00    -0.014 A 
ATOM     57  C   UNL A   1      52.876  34.264  26.267  1.00  0.00     0.009 A 
ATOM     58  C   UNL A   1      51.679  33.884  24.207  1.00  0.00     0.009 A 
ATOM     59  C   UNL A   1      54.080  34.282  25.555  1.00  0.00     0.001 A 
ATOM     60  C   UNL A   1      52.883  33.903  23.499  1.00  0.00     0.001 A 
ATOM     61  C   UNL A   1      54.085  34.094  24.174  1.00  0.00     0.000 A 
ENDBRANCH  37  56
BRANCH  49  62
ATOM     62  C   UNL A   1      47.841  39.383  27.733  1.00  0.00    -0.014 A 
ATOM     63  C   UNL A   1      48.545  39.933  28.815  1.00  0.00     0.009 A 
ATOM     64  C   UNL A   1      47.353  40.239  26.733  1.00  0.00     0.009 A 
ATOM     65  C   UNL A   1      48.719  41.314  28.915  1.00  0.00     0.001 A 
ATOM     66  C   UNL A   1      47.555  41.617  26.819  1.00  0.00     0.001 A 
ATOM     67  C   UNL A   1      48.227  42.154  27.917  1.00  0.00     0.000 A 
ENDBRANCH  49  62
ENDBRANCH  23  24
ENDBRANCH  16  18
ENDBRANCH  15  16
ENDBRANCH  14  15
ENDBRANCH  13  14
ENDBRANCH  12  13
ENDBRANCH  10  12
ENDBRANCH   5  10
ENDBRANCH   1   5
BRANCH   2  68
ATOM     68  C   UNL A   1      36.796  23.149  25.840  1.00  0.00     0.174 C 
BRANCH  68  69
ATOM     69  N   UNL A   1      35.661  22.371  26.578  1.00  0.00    -0.342 N 
ATOM     70  C   UNL A   1      34.529  21.460  26.666  1.00  0.00     0.242 C 
ATOM     71  H   UNL A   1      35.777  22.658  27.513  1.00  0.00     0.164 HD
ATOM     72  O   UNL A   1      34.411  21.672  27.927  1.00  0.00    -0.273 OA
BRANCH  70  73
ATOM     73  C   UNL A   1      33.461  20.078  25.325  1.00  0.00     0.168 C 
ATOM     74  C   UNL A   1      33.993  18.592  24.608  1.00  0.00     0.041 C 
BRANCH  73  75
ATOM     75  N   UNL A   1      32.649  20.490  23.795  1.00  0.00    -0.343 N 
ATOM     76  C   UNL A   1      32.303  21.404  22.856  1.00  0.00     0.240 C 
ATOM     77  H   UNL A   1      32.267  19.640  23.474  1.00  0.00     0.164 HD
ATOM     78  O   UNL A   1      31.836  20.935  21.804  1.00  0.00    -0.273 OA
BRANCH  76  79
ATOM     79  C   UNL A   1      32.113  22.881  23.063  1.00  0.00     0.219 C 
BRANCH  79  80
ATOM     80  N   UNL A   1      32.815  23.414  21.905  1.00  0.00    -0.312 N 
ATOM     81  C   UNL A   1      32.747  24.739  21.624  1.00  0.00     0.407 C 
ATOM     82  H   UNL A   1      33.339  22.813  21.326  1.00  0.00     0.167 HD
ATOM     83  O   UNL A   1      33.068  25.236  20.559  1.00  0.00    -0.225 OA
BRANCH  81  84
ATOM     84  O   UNL A   1      32.239  25.372  22.695  1.00  0.00    -0.445 OA
BRANCH  84  85
ATOM     85  C   UNL A   1      30.990  26.032  22.621  1.00  0.00     0.270 C 
BRANCH  85  86
ATOM     86  C   UNL A   1      31.046  27.408  23.176  1.00  0.00    -0.011 A 
ATOM     87  C   UNL A   1      31.809  27.637  24.319  1.00  0.00     0.007 A 
ATOM     88  C   UNL A   1      30.194  28.397  22.664  1.00  0.00     0.007 A 
ATOM     89  C   UNL A   1      31.681  28.844  24.986  1.00  0.00     0.000 A 
ATOM     90  C   UNL A   1      30.068  29.602  23.336  1.00  0.00     0.000 A 
ATOM     91  C   UNL A   1      30.802  29.816  24.503  1.00  0.00     0.000 A 
ENDBRANCH  85  86
ENDBRANCH  84  85
ENDBRANCH  81  84
ENDBRANCH  79  80
ENDBRANCH  76  79
ENDBRANCH  73  75
ENDBRANCH  70  73
ENDBRANCH  68  69
BRANCH  68  92
ATOM     92  C   UNL A   1      36.504  23.837  24.388  1.00  0.00     0.015 C 
ATOM     93  C   UNL A   1      36.677  22.867  23.200  1.00  0.00     0.010 C 
ATOM     94  C   UNL A   1      35.193  24.618  24.208  1.00  0.00     0.010 C 
ENDBRANCH  68  92
ENDBRANCH   2  68
TORSDOF 24
ENDMDL
MODEL 2
REMARK VINA RESULT:      -9.2      8.060     14.314
REMARK SMILES CC(C)C[C@H](NC(=O)[C@@H](NC(=O)[C@H](C)NC(=O)CNC(=O)OCc1ccccc1)C(C)C)C(=O)OCCOC(=O)c1ccc(-c2c3nc(c(-c4ccccc4)c4ccc([nH]4)c(-c4ccccc4)c4nc(c(-c5ccccc5)c5ccc2[nH]5)C=C4)C=C3)cc1
REMARK SMILES IDX 6 1 7 2 8 3 5 5 4 6 2 7 1 8 3 9 33 10 34 11 35 12 36 13
REMARK SMILES IDX 37 14 38 15 39 16 40 17 41 18 42 19 88 20 43 21 87 22 44 23
REMARK SMILES IDX 45 24 46 25 81 26 47 27 86 28 80 29 82 30 48 31 85 32 79 33
REMARK SMILES IDX 78 34 49 36 71 37 56 38 70 39 57 40 60 41 69 42 83 43 58 44
REMARK SMILES IDX 59 45 68 47 84 48 61 49 50 50 51 51 55 52 52 53 54 54 53 55
REMARK SMILES IDX 72 56 73 57 77 58 74 59 76 60 75 61 62 62 63 63 67 64 64 65
REMARK SMILES IDX 66 66 65 67 9 68 10 69 11 70 12 72 13 73 14 74 15 75 16 76
REMARK SMILES IDX 17 78 18 79 19 80 20 81 21 83 22 84 23 85 24 86 25 87 29 88
REMARK SMILES IDX 26 89 28 90 27 91 30 92 31 93 32 94
REMARK H PARENT 6 4 82 35 60 46 10 71 15 77 19 82
REMARK Flexibility Score: inf
ROOT
ATOM      1  N   UNL A   1      38.934  27.130  29.887  1.00  0.00    -0.341 N 
ATOM      2  C   UNL A   1      39.970  26.770  29.056  1.00  0.00     0.243 C 
ATOM      3  O   UNL A   1      39.723  25.707  28.447  1.00  0.00    -0.273 OA
ATOM      4  H   UNL A   1      38.302  26.387  30.025  1.00  0.00     0.164 HD
ENDROOT
BRANCH   1   5
ATOM      5  C   UNL A   1      38.522  28.342  30.628  1.00  0.00     0.192 C 
BRANCH   5   6
ATOM      6  C   UNL A   1      39.603  29.461  30.673  1.00  0.00     0.040 C 
BRANCH   6   7
ATOM      7  C   UNL A   1      39.905  30.089  32.043  1.00  0.00    -0.015 C 
ATOM      8  C   UNL A   1      40.963  29.295  32.797  1.00  0.00     0.007 C 
ATOM      9  C   UNL A   1      40.381  31.536  31.828  1.00  0.00     0.007 C 
ENDBRANCH   6   7
ENDBRANCH   5   6
BRANCH   5  10
ATOM     10  C   UNL A   1      37.210  29.181  30.361  1.00  0.00     0.328 C 
ATOM     11  O   UNL A   1      36.353  29.293  31.238  1.00  0.00    -0.250 OA
BRANCH  10  12
ATOM     12  O   UNL A   1      37.097  29.766  29.137  1.00  0.00    -0.461 OA
BRANCH  12  13
ATOM     13  C   UNL A   1      37.392  31.195  29.103  1.00  0.00     0.274 C 
BRANCH  13  14
ATOM     14  C   UNL A   1      36.150  32.111  29.314  1.00  0.00     0.275 C 
BRANCH  14  15
ATOM     15  O   UNL A   1      36.422  33.368  29.971  1.00  0.00    -0.458 OA
BRANCH  15  16
ATOM     16  C   UNL A   1      35.898  33.397  31.203  1.00  0.00     0.338 C 
ATOM     17  O   UNL A   1      34.711  33.514  31.419  1.00  0.00    -0.246 OA
BRANCH  16  18
ATOM     18  C   UNL A   1      36.858  33.259  32.304  1.00  0.00     0.060 A 
ATOM     19  C   UNL A   1      38.051  34.577  32.725  1.00  0.00     0.016 A 
ATOM     20  C   UNL A   1      36.840  31.778  33.341  1.00  0.00     0.016 A 
ATOM     21  C   UNL A   1      39.142  34.420  34.142  1.00  0.00     0.010 A 
ATOM     22  C   UNL A   1      37.965  31.658  34.765  1.00  0.00     0.010 A 
ATOM     23  C   UNL A   1      39.071  32.992  35.228  1.00  0.00    -0.014 A 
BRANCH  23  24
ATOM     24  C   UNL A   1      40.012  32.845  36.451  1.00  0.00     0.031 A 
ATOM     25  C   UNL A   1      41.454  32.316  36.353  1.00  0.00     0.074 A 
ATOM     26  C   UNL A   1      39.620  33.152  37.715  1.00  0.00     0.049 A 
ATOM     27  N   UNL A   1      42.273  31.950  37.323  1.00  0.00    -0.248 NA
ATOM     28  C   UNL A   1      42.080  32.256  35.027  1.00  0.00     0.031 C 
ATOM     29  C   UNL A   1      38.421  33.878  38.107  1.00  0.00     0.029 A 
ATOM     30  N   UNL A   1      40.169  32.794  38.942  1.00  0.00    -0.354 N 
ATOM     31  C   UNL A   1      43.506  31.666  36.729  1.00  0.00     0.074 A 
ATOM     32  C   UNL A   1      43.308  31.828  35.305  1.00  0.00     0.031 C 
ATOM     33  C   UNL A   1      38.225  33.756  39.431  1.00  0.00     0.029 A 
ATOM     34  C   UNL A   1      39.284  32.946  39.994  1.00  0.00     0.049 A 
ATOM     35  H   UNL A   1      41.090  32.467  39.051  1.00  0.00     0.167 HD
ATOM     36  C   UNL A   1      44.701  31.346  37.300  1.00  0.00     0.031 A 
ATOM     37  C   UNL A   1      39.266  32.462  41.252  1.00  0.00     0.031 A 
ATOM     38  C   UNL A   1      44.943  31.197  38.719  1.00  0.00     0.049 A 
ATOM     39  C   UNL A   1      40.483  31.817  41.825  1.00  0.00     0.074 A 
ATOM     40  C   UNL A   1      46.149  30.982  39.374  1.00  0.00     0.029 A 
ATOM     41  N   UNL A   1      43.969  31.220  39.700  1.00  0.00    -0.354 N 
ATOM     42  N   UNL A   1      41.626  31.576  41.242  1.00  0.00    -0.248 NA
ATOM     43  C   UNL A   1      40.441  31.478  43.256  1.00  0.00     0.031 C 
ATOM     44  C   UNL A   1      45.893  30.793  40.737  1.00  0.00     0.029 A 
ATOM     45  C   UNL A   1      44.536  30.955  40.941  1.00  0.00     0.049 A 
ATOM     46  H   UNL A   1      43.014  31.396  39.542  1.00  0.00     0.167 HD
ATOM     47  C   UNL A   1      42.469  31.146  42.254  1.00  0.00     0.074 A 
ATOM     48  C   UNL A   1      41.695  31.115  43.476  1.00  0.00     0.031 C 
ATOM     49  C   UNL A   1      43.790  30.868  42.166  1.00  0.00     0.031 A 
BRANCH  36  50
ATOM     50  C   UNL A   1      45.902  31.140  36.402  1.00  0.00    -0.014 A 
ATOM     51  C   UNL A   1      46.175  29.890  35.824  1.00  0.00     0.009 A 
ATOM     52  C   UNL A   1      46.679  32.244  36.006  1.00  0.00     0.009 A 
ATOM     53  C   UNL A   1      47.210  29.744  34.893  1.00  0.00     0.001 A 
ATOM     54  C   UNL A   1      47.696  32.102  35.057  1.00  0.00     0.001 A 
ATOM     55  C   UNL A   1      47.964  30.851  34.506  1.00  0.00     0.000 A 
ENDBRANCH  36  50
BRANCH  37  56
ATOM     56  C   UNL A   1      38.042  32.538  42.095  1.00  0.00    -0.014 A 
ATOM     57  C   UNL A   1      37.814  33.610  42.968  1.00  0.00     0.009 A 
ATOM     58  C   UNL A   1      37.142  31.462  42.097  1.00  0.00     0.009 A 
ATOM     59  C   UNL A   1      36.702  33.604  43.818  1.00  0.00     0.001 A 
ATOM     60  C   UNL A   1      36.033  31.461  42.947  1.00  0.00     0.001 A 
ATOM     61  C   UNL A   1      35.809  32.534  43.803  1.00  0.00     0.000 A 
ENDBRANCH  37  56
BRANCH  49  62
ATOM     62  C   UNL A   1      44.497  30.540  43.447  1.00  0.00    -0.014 A 
ATOM     63  C   UNL A   1      44.637  29.215  43.885  1.00  0.00     0.009 A 
ATOM     64  C   UNL A   1      44.995  31.579  44.250  1.00  0.00     0.009 A 
ATOM     65  C   UNL A   1      45.224  28.938  45.121  1.00  0.00     0.001 A 
ATOM     66  C   UNL A   1      45.609  31.297  45.471  1.00  0.00     0.001 A 
ATOM     67  C   UNL A   1      45.712  29.978  45.911  1.00  0.00     0.000 A 
ENDBRANCH  49  62
ENDBRANCH  23  24
ENDBRANCH  16  18
ENDBRANCH  15  16
ENDBRANCH  14  15
ENDBRANCH  13  14
ENDBRANCH  12  13
ENDBRANCH  10  12
ENDBRANCH   5  10
ENDBRANCH   1   5
BRANCH   2  68
ATOM     68  C   UNL A   1      41.479  27.406  28.800  1.00  0.00     0.174 C 
BRANCH  68  69
ATOM     69  N   UNL A   1      42.745  26.660  29.328  1.00  0.00    -0.342 N 
ATOM     70  C   UNL A   1      44.144  26.257  29.303  1.00  0.00     0.242 C 
ATOM     71  H   UNL A   1      42.405  26.204  30.132  1.00  0.00     0.164 HD
ATOM     72  O   UNL A   1      43.989  25.531  30.351  1.00  0.00    -0.273 OA
BRANCH  70  73
ATOM     73  C   UNL A   1      45.945  26.747  28.136  1.00  0.00     0.168 C 
ATOM     74  C   UNL A   1      46.661  28.288  27.790  1.00  0.00     0.041 C 
BRANCH  73  75
ATOM     75  N   UNL A   1      46.306  26.241  26.467  1.00  0.00    -0.343 N 
ATOM     76  C   UNL A   1      45.895  25.749  25.273  1.00  0.00     0.240 C 
ATOM     77  H   UNL A   1      47.273  26.393  26.360  1.00  0.00     0.164 HD
ATOM     78  O   UNL A   1      46.725  25.829  24.352  1.00  0.00    -0.273 OA
BRANCH  76  79
ATOM     79  C   UNL A   1      44.719  24.845  25.026  1.00  0.00     0.219 C 
BRANCH  79  80
ATOM     80  N   UNL A   1      43.635  25.815  24.970  1.00  0.00    -0.312 N 
ATOM     81  C   UNL A   1      42.402  25.477  25.424  1.00  0.00     0.407 C 
ATOM     82  H   UNL A   1      43.795  26.714  24.603  1.00  0.00     0.167 HD
ATOM     83  O   UNL A   1      41.384  26.102  25.187  1.00  0.00    -0.225 OA
BRANCH  81  84
ATOM     84  O   UNL A   1      42.510  24.337  26.129  1.00  0.00    -0.445 OA
BRANCH  84  85
ATOM     85  C   UNL A   1      41.358  23.615  26.519  1.00  0.00     0.270 C 
BRANCH  85  86
ATOM     86  C   UNL A   1      41.566  22.147  26.458  1.00  0.00    -0.011 A 
ATOM     87  C   UNL A   1      40.752  21.323  27.234  1.00  0.00     0.007 A 
ATOM     88  C   UNL A   1      42.680  21.632  25.780  1.00  0.00     0.007 A 
ATOM     89  C   UNL A   1      41.084  19.987  27.377  1.00  0.00     0.000 A 
ATOM     90  C   UNL A   1      43.009  20.294  25.928  1.00  0.00     0.000 A 
ATOM     91  C   UNL A   1      42.216  19.478  26.737  1.00  0.00     0.000 A 
ENDBRANCH  85  86
ENDBRANCH  84  85
ENDBRANCH  81  84
ENDBRANCH  79  80
ENDBRANCH  76  79
ENDBRANCH  73  75
ENDBRANCH  70  73
ENDBRANCH  68  69
BRANCH  68  92
ATOM     92  C   UNL A   1      41.612  28.472  27.569  1.00  0.00     0.015 C 
ATOM     93  C   UNL A   1      40.252  28.972  27.037  1.00  0.00     0.010 C 
ATOM     94  C   UNL A   1      42.550  29.675  27.753  1.00  0.00     0.010 C 
ENDBRANCH  68  92
ENDBRANCH   2  68
TORSDOF 24
ENDMDL
MODEL 3
REMARK VINA RESULT:      -9.1      7.838     17.028
REMARK SMILES CC(C)C[C@H](NC(=O)[C@@H](NC(=O)[C@H](C)NC(=O)CNC(=O)OCc1ccccc1)C(C)C)C(=O)OCCOC(=O)c1ccc(-c2c3nc(c(-c4ccccc4)c4ccc([nH]4)c(-c4ccccc4)c4nc(c(-c5ccccc5)c5ccc2[nH]5)C=C4)C=C3)cc1
REMARK SMILES IDX 6 1 7 2 8 3 5 5 4 6 2 7 1 8 3 9 33 10 34 11 35 12 36 13
REMARK SMILES IDX 37 14 38 15 39 16 40 17 41 18 42 19 88 20 43 21 87 22 44 23
REMARK SMILES IDX 45 24 46 25 81 26 47 27 86 28 80 29 82 30 48 31 85 32 79 33
REMARK SMILES IDX 78 34 49 36 71 37 56 38 70 39 57 40 60 41 69 42 83 43 58 44
REMARK SMILES IDX 59 45 68 47 84 48 61 49 50 50 51 51 55 52 52 53 54 54 53 55
REMARK SMILES IDX 72 56 73 57 77 58 74 59 76 60 75 61 62 62 63 63 67 64 64 65
REMARK SMILES IDX 66 66 65 67 9 68 10 69 11 70 12 72 13 73 14 74 15 75 16 76
REMARK SMILES IDX 17 78 18 79 19 80 20 81 21 83 22 84 23 85 24 86 25 87 29 88
REMARK SMILES IDX 26 89 28 90 27 91 30 92 31 93 32 94
REMARK H PARENT 6 4 82 35 60 46 10 71 15 77 19 82
REMARK Flexibility Score: inf
ROOT
ATOM      1  N   UNL A   1      42.158  41.346  30.925  1.00  0.00    -0.341 N 
ATOM      2  C   UNL A   1      41.818  40.967  29.647  1.00  0.00     0.243 C 
ATOM      3  O   UNL A   1      40.581  40.845  29.517  1.00  0.00    -0.273 OA
ATOM      4  H   UNL A   1      41.407  41.231  31.551  1.00  0.00     0.164 HD
ENDROOT
BRANCH   1   5
ATOM      5  C   UNL A   1      43.359  41.884  31.602  1.00  0.00     0.192 C 
BRANCH   5   6
ATOM      6  C   UNL A   1      43.214  42.019  33.145  1.00  0.00     0.040 C 
BRANCH   6   7
ATOM      7  C   UNL A   1      42.408  43.217  33.673  1.00  0.00    -0.015 C 
ATOM      8  C   UNL A   1      42.268  43.168  35.189  1.00  0.00     0.007 C 
ATOM      9  C   UNL A   1      43.115  44.514  33.247  1.00  0.00     0.007 C 
ENDBRANCH   6   7
ENDBRANCH   5   6
BRANCH   5  10
ATOM     10  C   UNL A   1      44.824  41.307  31.471  1.00  0.00     0.328 C 
ATOM     11  O   UNL A   1      45.500  41.090  32.477  1.00  0.00    -0.250 OA
BRANCH  10  12
ATOM     12  O   UNL A   1      45.273  41.060  30.210  1.00  0.00    -0.461 OA
BRANCH  12  13
ATOM     13  C   UNL A   1      46.716  40.879  30.090  1.00  0.00     0.274 C 
BRANCH  13  14
ATOM     14  C   UNL A   1      47.143  39.836  29.016  1.00  0.00     0.275 C 
BRANCH  14  15
ATOM     15  O   UNL A   1      46.686  38.486  29.257  1.00  0.00    -0.458 OA
BRANCH  15  16
ATOM     16  C   UNL A   1      47.715  37.639  29.383  1.00  0.00     0.338 C 
ATOM     17  O   UNL A   1      48.857  38.001  29.559  1.00  0.00    -0.246 OA
BRANCH  16  18
ATOM     18  C   UNL A   1      47.374  36.213  29.309  1.00  0.00     0.060 A 
ATOM     19  C   UNL A   1      47.728  35.057  30.680  1.00  0.00     0.016 A 
ATOM     20  C   UNL A   1      46.512  35.562  27.860  1.00  0.00     0.016 A 
ATOM     21  C   UNL A   1      47.205  33.342  30.601  1.00  0.00     0.010 A 
ATOM     22  C   UNL A   1      46.004  33.815  27.820  1.00  0.00     0.010 A 
ATOM     23  C   UNL A   1      46.272  32.707  29.204  1.00  0.00    -0.014 A 
BRANCH  23  24
ATOM     24  C   UNL A   1      45.822  31.226  29.124  1.00  0.00     0.031 A 
ATOM     25  C   UNL A   1      46.658  30.119  28.459  1.00  0.00     0.074 A 
ATOM     26  C   UNL A   1      44.631  30.798  29.621  1.00  0.00     0.049 A 
ATOM     27  N   UNL A   1      46.304  28.885  28.144  1.00  0.00    -0.248 NA
ATOM     28  C   UNL A   1      48.072  30.394  28.180  1.00  0.00     0.031 C 
ATOM     29  C   UNL A   1      43.731  31.536  30.494  1.00  0.00     0.029 A 
ATOM     30  N   UNL A   1      43.916  29.631  29.369  1.00  0.00    -0.354 N 
ATOM     31  C   UNL A   1      47.452  28.239  27.678  1.00  0.00     0.074 A 
ATOM     32  C   UNL A   1      48.499  29.237  27.680  1.00  0.00     0.031 C 
ATOM     33  C   UNL A   1      42.541  30.914  30.555  1.00  0.00     0.029 A 
ATOM     34  C   UNL A   1      42.584  29.727  29.729  1.00  0.00     0.049 A 
ATOM     35  H   UNL A   1      44.315  28.823  28.976  1.00  0.00     0.167 HD
ATOM     36  C   UNL A   1      47.642  26.937  27.325  1.00  0.00     0.031 A 
ATOM     37  C   UNL A   1      41.494  29.001  29.407  1.00  0.00     0.031 A 
ATOM     38  C   UNL A   1      46.628  25.905  27.331  1.00  0.00     0.049 A 
ATOM     39  C   UNL A   1      41.646  27.681  28.732  1.00  0.00     0.074 A 
ATOM     40  C   UNL A   1      46.773  24.545  27.091  1.00  0.00     0.029 A 
ATOM     41  N   UNL A   1      45.281  26.115  27.563  1.00  0.00    -0.354 N 
ATOM     42  N   UNL A   1      42.740  27.100  28.318  1.00  0.00    -0.248 NA
ATOM     43  C   UNL A   1      40.427  26.871  28.578  1.00  0.00     0.031 C 
ATOM     44  C   UNL A   1      45.507  23.949  27.097  1.00  0.00     0.029 A 
ATOM     45  C   UNL A   1      44.579  24.926  27.404  1.00  0.00     0.049 A 
ATOM     46  H   UNL A   1      44.878  26.980  27.804  1.00  0.00     0.167 HD
ATOM     47  C   UNL A   1      42.357  25.823  27.942  1.00  0.00     0.074 A 
ATOM     48  C   UNL A   1      40.926  25.728  28.132  1.00  0.00     0.031 C 
ATOM     49  C   UNL A   1      43.153  24.807  27.537  1.00  0.00     0.031 A 
BRANCH  36  50
ATOM     50  C   UNL A   1      49.027  26.495  26.902  1.00  0.00    -0.014 A 
ATOM     51  C   UNL A   1      49.928  25.934  27.821  1.00  0.00     0.009 A 
ATOM     52  C   UNL A   1      49.377  26.499  25.540  1.00  0.00     0.009 A 
ATOM     53  C   UNL A   1      51.153  25.410  27.392  1.00  0.00     0.001 A 
ATOM     54  C   UNL A   1      50.591  25.952  25.109  1.00  0.00     0.001 A 
ATOM     55  C   UNL A   1      51.480  25.414  26.037  1.00  0.00     0.000 A 
ENDBRANCH  36  50
BRANCH  37  56
ATOM     56  C   UNL A   1      40.120  29.494  29.698  1.00  0.00    -0.014 A 
ATOM     57  C   UNL A   1      39.322  30.081  28.708  1.00  0.00     0.009 A 
ATOM     58  C   UNL A   1      39.647  29.467  31.019  1.00  0.00     0.009 A 
ATOM     59  C   UNL A   1      38.074  30.621  29.036  1.00  0.00     0.001 A 
ATOM     60  C   UNL A   1      38.400  30.007  31.342  1.00  0.00     0.001 A 
ATOM     61  C   UNL A   1      37.610  30.579  30.349  1.00  0.00     0.000 A 
ENDBRANCH  37  56
BRANCH  49  62
ATOM     62  C   UNL A   1      42.491  23.481  27.308  1.00  0.00    -0.014 A 
ATOM     63  C   UNL A   1      42.180  22.625  28.375  1.00  0.00     0.009 A 
ATOM     64  C   UNL A   1      42.211  23.064  25.996  1.00  0.00     0.009 A 
ATOM     65  C   UNL A   1      41.641  21.361  28.132  1.00  0.00     0.001 A 
ATOM     66  C   UNL A   1      41.643  21.811  25.758  1.00  0.00     0.001 A 
ATOM     67  C   UNL A   1      41.370  20.957  26.825  1.00  0.00     0.000 A 
ENDBRANCH  49  62
ENDBRANCH  23  24
ENDBRANCH  16  18
ENDBRANCH  15  16
ENDBRANCH  14  15
ENDBRANCH  13  14
ENDBRANCH  12  13
ENDBRANCH  10  12
ENDBRANCH   5  10
ENDBRANCH   1   5
BRANCH   2  68
ATOM     68  C   UNL A   1      42.720  40.551  28.319  1.00  0.00     0.174 C 
BRANCH  68  69
ATOM     69  N   UNL A   1      43.753  41.561  27.725  1.00  0.00    -0.342 N 
ATOM     70  C   UNL A   1      44.802  41.989  26.812  1.00  0.00     0.242 C 
ATOM     71  H   UNL A   1      43.619  42.359  28.287  1.00  0.00     0.164 HD
ATOM     72  O   UNL A   1      44.879  43.136  27.383  1.00  0.00    -0.273 OA
BRANCH  70  73
ATOM     73  C   UNL A   1      45.811  41.192  25.025  1.00  0.00     0.168 C 
ATOM     74  C   UNL A   1      46.745  39.743  24.828  1.00  0.00     0.041 C 
BRANCH  73  75
ATOM     75  N   UNL A   1      46.979  42.047  23.988  1.00  0.00    -0.343 N 
ATOM     76  C   UNL A   1      47.257  43.015  23.081  1.00  0.00     0.240 C 
ATOM     77  H   UNL A   1      47.841  41.602  24.156  1.00  0.00     0.164 HD
ATOM     78  O   UNL A   1      48.466  43.229  22.886  1.00  0.00    -0.273 OA
BRANCH  76  79
ATOM     79  C   UNL A   1      46.311  43.604  22.072  1.00  0.00     0.219 C 
BRANCH  79  80
ATOM     80  N   UNL A   1      45.456  42.459  21.795  1.00  0.00    -0.312 N 
ATOM     81  C   UNL A   1      44.386  42.597  20.973  1.00  0.00     0.407 C 
ATOM     82  H   UNL A   1      45.654  41.586  22.204  1.00  0.00     0.167 HD
ATOM     83  O   UNL A   1      43.475  41.794  20.885  1.00  0.00    -0.225 OA
BRANCH  81  84
ATOM     84  O   UNL A   1      44.501  43.770  20.325  1.00  0.00    -0.445 OA
BRANCH  84  85
ATOM     85  C   UNL A   1      43.422  44.684  20.286  1.00  0.00     0.270 C 
BRANCH  85  86
ATOM     86  C   UNL A   1      42.683  44.629  18.999  1.00  0.00    -0.011 A 
ATOM     87  C   UNL A   1      43.269  45.193  17.867  1.00  0.00     0.007 A 
ATOM     88  C   UNL A   1      41.351  44.190  18.983  1.00  0.00     0.007 A 
ATOM     89  C   UNL A   1      42.503  45.368  16.727  1.00  0.00     0.000 A 
ATOM     90  C   UNL A   1      40.589  44.370  17.840  1.00  0.00     0.000 A 
ATOM     91  C   UNL A   1      41.164  44.971  16.719  1.00  0.00     0.000 A 
ENDBRANCH  85  86
ENDBRANCH  84  85
ENDBRANCH  81  84
ENDBRANCH  79  80
ENDBRANCH  76  79
ENDBRANCH  73  75
ENDBRANCH  70  73
ENDBRANCH  68  69
BRANCH  68  92
ATOM     92  C   UNL A   1      42.879  38.952  28.028  1.00  0.00     0.015 C 
ATOM     93  C   UNL A   1      43.789  38.632  26.823  1.00  0.00     0.010 C 
ATOM     94  C   UNL A   1      43.265  38.039  29.202  1.00  0.00     0.010 C 
ENDBRANCH  68  92
ENDBRANCH   2  68
TORSDOF 24
ENDMDL
