MODEL 1
REMARK VINA RESULT:     -10.9      0.000      0.000
REMARK SMILES CC(C)CCc1cc2c(cc1Cl)C=C(C(=O)OCCOC(=O)c1ccc(-c3c4nc(c(-c5ccccc5)c5ccc([nH]5)c(-c5ccccc5)c5nc(c(-c6ccccc6)c6ccc3[nH]6)C=C5)C=C4)cc1)[C@H](C(F)(F)F)O2
REMARK SMILES IDX 18 1 17 2 15 3 16 4 14 5 6 6 7 7 11 8 8 9 10 10 12 11 9 12
REMARK SMILES IDX 76 13 13 14 71 15 5 16 4 17 2 18 1 19 3 20 72 21 73 22 74 23
REMARK SMILES IDX 75 24 19 25 20 26 21 27 22 28 23 29 24 30 70 31 25 32 69 33
REMARK SMILES IDX 26 34 27 35 28 36 63 37 29 38 68 39 62 40 64 41 30 42 67 43
REMARK SMILES IDX 61 44 60 45 31 47 53 48 38 49 52 50 39 51 42 52 51 53 65 54
REMARK SMILES IDX 40 55 41 56 50 58 66 59 43 60 32 61 33 62 37 63 34 64 36 65
REMARK SMILES IDX 35 66 54 67 55 68 59 69 56 70 58 71 57 72 44 73 45 74 49 75
REMARK SMILES IDX 46 76 48 77 47 78
REMARK H PARENT 64 46 42 57
REMARK Flexibility Score: inf
ROOT
ATOM      1  C   UNL A   1      38.482  21.139  25.590  1.00  0.00     0.275 C 
ENDROOT
BRANCH   1   2
ATOM      2  O   UNL A   1      37.555  21.373  24.509  1.00  0.00    -0.459 OA
BRANCH   2   3
ATOM      3  C   UNL A   1      36.265  21.063  24.755  1.00  0.00     0.338 C 
ATOM      4  O   UNL A   1      35.830  19.943  24.964  1.00  0.00    -0.246 OA
BRANCH   3   5
ATOM      5  C   UNL A   1      35.434  22.285  24.852  1.00  0.00     0.087 C 
ATOM      6  C   UNL A   1      32.791  26.402  23.683  1.00  0.00    -0.026 A 
ATOM      7  C   UNL A   1      33.403  25.930  24.867  1.00  0.00     0.052 A 
ATOM      8  C   UNL A   1      32.836  25.590  22.536  1.00  0.00     0.045 A 
ATOM      9  C   UNL A   1      34.112  24.731  24.877  1.00  0.00     0.128 A 
ATOM     10  C   UNL A   1      33.570  24.405  22.542  1.00  0.00     0.032 A 
ATOM     11  Cl  UNL A   1      32.035  26.001  21.062  1.00  0.00    -0.084 Cl
ATOM     12  C   UNL A   1      34.238  24.003  23.700  1.00  0.00     0.019 A 
ATOM     13  O   UNL A   1      34.735  24.349  26.039  1.00  0.00    -0.475 OA
ATOM     14  C   UNL A   1      35.112  22.853  23.681  1.00  0.00     0.027 C 
ATOM     15  C   UNL A   1      35.047  22.914  26.168  1.00  0.00     0.316 C 
BRANCH   6  16
ATOM     16  C   UNL A   1      32.168  27.782  23.676  1.00  0.00     0.037 C 
BRANCH  16  17
ATOM     17  C   UNL A   1      30.750  27.817  24.274  1.00  0.00     0.008 C 
BRANCH  17  18
ATOM     18  C   UNL A   1      29.604  27.515  23.284  1.00  0.00    -0.017 C 
ATOM     19  C   UNL A   1      28.538  26.600  23.885  1.00  0.00     0.007 C 
ATOM     20  C   UNL A   1      28.963  28.825  22.821  1.00  0.00     0.007 C 
ENDBRANCH  17  18
ENDBRANCH  16  17
ENDBRANCH   6  16
BRANCH  15  21
ATOM     21  C   UNL A   1      33.916  22.236  26.964  1.00  0.00     0.430 C 
ATOM     22  F   UNL A   1      33.170  23.122  27.657  1.00  0.00    -0.167 F 
ATOM     23  F   UNL A   1      33.083  21.505  26.195  1.00  0.00    -0.167 F 
ATOM     24  F   UNL A   1      34.447  21.368  27.868  1.00  0.00    -0.167 F 
ENDBRANCH  15  21
ENDBRANCH   3   5
ENDBRANCH   2   3
ENDBRANCH   1   2
BRANCH   1  25
ATOM     25  C   UNL A   1      39.282  19.849  25.373  1.00  0.00     0.275 C 
BRANCH  25  26
ATOM     26  O   UNL A   1      40.281  19.662  26.399  1.00  0.00    -0.458 OA
BRANCH  26  27
ATOM     27  C   UNL A   1      41.560  19.882  26.016  1.00  0.00     0.338 C 
ATOM     28  O   UNL A   1      42.232  19.205  25.256  1.00  0.00    -0.246 OA
BRANCH  27  29
ATOM     29  C   UNL A   1      42.006  21.193  26.511  1.00  0.00     0.060 A 
ATOM     30  C   UNL A   1      42.345  22.249  25.671  1.00  0.00     0.016 A 
ATOM     31  C   UNL A   1      41.967  21.387  27.887  1.00  0.00     0.016 A 
ATOM     32  C   UNL A   1      42.667  23.493  26.238  1.00  0.00     0.010 A 
ATOM     33  C   UNL A   1      42.234  22.629  28.450  1.00  0.00     0.010 A 
ATOM     34  C   UNL A   1      42.606  23.699  27.633  1.00  0.00    -0.014 A 
BRANCH  34  35
ATOM     35  C   UNL A   1      42.879  25.027  28.244  1.00  0.00     0.031 A 
ATOM     36  C   UNL A   1      44.272  25.424  28.663  1.00  0.00     0.074 A 
ATOM     37  C   UNL A   1      41.851  25.862  28.493  1.00  0.00     0.049 A 
ATOM     38  N   UNL A   1      44.686  26.560  29.171  1.00  0.00    -0.248 NA
ATOM     39  C   UNL A   1      45.333  24.412  28.527  1.00  0.00     0.031 C 
ATOM     40  C   UNL A   1      40.440  25.562  28.241  1.00  0.00     0.029 A 
ATOM     41  N   UNL A   1      41.833  27.139  29.000  1.00  0.00    -0.354 N 
ATOM     42  C   UNL A   1      46.041  26.392  29.426  1.00  0.00     0.074 A 
ATOM     43  C   UNL A   1      46.372  25.030  29.073  1.00  0.00     0.031 C 
ATOM     44  C   UNL A   1      39.703  26.645  28.526  1.00  0.00     0.029 A 
ATOM     45  C   UNL A   1      40.581  27.707  29.008  1.00  0.00     0.049 A 
ATOM     46  H   UNL A   1      42.639  27.602  29.326  1.00  0.00     0.167 HD
ATOM     47  C   UNL A   1      46.940  27.299  29.882  1.00  0.00     0.031 A 
ATOM     48  C   UNL A   1      40.184  28.951  29.340  1.00  0.00     0.031 A 
ATOM     49  C   UNL A   1      46.619  28.664  30.201  1.00  0.00     0.049 A 
ATOM     50  C   UNL A   1      41.205  29.962  29.778  1.00  0.00     0.074 A 
ATOM     51  C   UNL A   1      47.478  29.680  30.583  1.00  0.00     0.029 A 
ATOM     52  N   UNL A   1      45.345  29.205  30.169  1.00  0.00    -0.354 N 
ATOM     53  N   UNL A   1      42.500  29.818  29.913  1.00  0.00    -0.248 NA
ATOM     54  C   UNL A   1      40.714  31.313  30.091  1.00  0.00     0.031 C 
ATOM     55  C   UNL A   1      46.718  30.826  30.824  1.00  0.00     0.029 A 
ATOM     56  C   UNL A   1      45.392  30.539  30.538  1.00  0.00     0.049 A 
ATOM     57  H   UNL A   1      44.528  28.715  29.921  1.00  0.00     0.167 HD
ATOM     58  C   UNL A   1      42.981  31.057  30.313  1.00  0.00     0.074 A 
ATOM     59  C   UNL A   1      41.842  31.950  30.378  1.00  0.00     0.031 C 
ATOM     60  C   UNL A   1      44.255  31.418  30.601  1.00  0.00     0.031 A 
BRANCH  47  61
ATOM     61  C   UNL A   1      48.372  26.862  30.033  1.00  0.00    -0.014 A 
ATOM     62  C   UNL A   1      49.265  26.985  28.957  1.00  0.00     0.009 A 
ATOM     63  C   UNL A   1      48.816  26.241  31.212  1.00  0.00     0.009 A 
ATOM     64  C   UNL A   1      50.568  26.492  29.055  1.00  0.00     0.001 A 
ATOM     65  C   UNL A   1      50.128  25.776  31.319  1.00  0.00     0.001 A 
ATOM     66  C   UNL A   1      51.000  25.894  30.237  1.00  0.00     0.000 A 
ENDBRANCH  47  61
BRANCH  48  67
ATOM     67  C   UNL A   1      38.754  29.322  29.179  1.00  0.00    -0.014 A 
ATOM     68  C   UNL A   1      37.853  29.201  30.247  1.00  0.00     0.009 A 
ATOM     69  C   UNL A   1      38.272  29.740  27.929  1.00  0.00     0.009 A 
ATOM     70  C   UNL A   1      36.495  29.469  30.061  1.00  0.00     0.001 A 
ATOM     71  C   UNL A   1      36.918  30.031  27.752  1.00  0.00     0.001 A 
ATOM     72  C   UNL A   1      36.029  29.887  28.815  1.00  0.00     0.000 A 
ENDBRANCH  48  67
BRANCH  60  73
ATOM     73  C   UNL A   1      44.507  32.842  31.010  1.00  0.00    -0.014 A 
ATOM     74  C   UNL A   1      44.443  33.199  32.367  1.00  0.00     0.009 A 
ATOM     75  C   UNL A   1      44.693  33.846  30.049  1.00  0.00     0.009 A 
ATOM     76  C   UNL A   1      44.545  34.537  32.752  1.00  0.00     0.001 A 
ATOM     77  C   UNL A   1      44.821  35.181  30.440  1.00  0.00     0.001 A 
ATOM     78  C   UNL A   1      44.736  35.525  31.788  1.00  0.00     0.000 A 
ENDBRANCH  60  73
ENDBRANCH  34  35
ENDBRANCH  27  29
ENDBRANCH  26  27
ENDBRANCH  25  26
ENDBRANCH   1  25
TORSDOF 15
ENDMDL
MODEL 2
REMARK VINA RESULT:     -10.9      2.683      3.691
REMARK SMILES CC(C)CCc1cc2c(cc1Cl)C=C(C(=O)OCCOC(=O)c1ccc(-c3c4nc(c(-c5ccccc5)c5ccc([nH]5)c(-c5ccccc5)c5nc(c(-c6ccccc6)c6ccc3[nH]6)C=C5)C=C4)cc1)[C@H](C(F)(F)F)O2
REMARK SMILES IDX 18 1 17 2 15 3 16 4 14 5 6 6 7 7 11 8 8 9 10 10 12 11 9 12
REMARK SMILES IDX 76 13 13 14 71 15 5 16 4 17 2 18 1 19 3 20 72 21 73 22 74 23
REMARK SMILES IDX 75 24 19 25 20 26 21 27 22 28 23 29 24 30 70 31 25 32 69 33
REMARK SMILES IDX 26 34 27 35 28 36 63 37 29 38 68 39 62 40 64 41 30 42 67 43
REMARK SMILES IDX 61 44 60 45 31 47 53 48 38 49 52 50 39 51 42 52 51 53 65 54
REMARK SMILES IDX 40 55 41 56 50 58 66 59 43 60 32 61 33 62 37 63 34 64 36 65
REMARK SMILES IDX 35 66 54 67 55 68 59 69 56 70 58 71 57 72 44 73 45 74 49 75
REMARK SMILES IDX 46 76 48 77 47 78
REMARK H PARENT 64 46 42 57
REMARK Flexibility Score: inf
ROOT
ATOM      1  C   UNL A   1      34.511  21.232  25.157  1.00  0.00     0.275 C 
ENDROOT
BRANCH   1   2
ATOM      2  O   UNL A   1      34.421  22.574  25.683  1.00  0.00    -0.459 OA
BRANCH   2   3
ATOM      3  C   UNL A   1      33.226  22.931  26.198  1.00  0.00     0.338 C 
ATOM      4  O   UNL A   1      32.693  22.428  27.173  1.00  0.00    -0.246 OA
BRANCH   3   5
ATOM      5  C   UNL A   1      32.673  24.108  25.490  1.00  0.00     0.087 C 
ATOM      6  C   UNL A   1      30.959  28.723  24.456  1.00  0.00    -0.026 A 
ATOM      7  C   UNL A   1      30.816  27.460  23.837  1.00  0.00     0.052 A 
ATOM      8  C   UNL A   1      31.780  28.823  25.593  1.00  0.00     0.045 A 
ATOM      9  C   UNL A   1      31.402  26.322  24.388  1.00  0.00     0.128 A 
ATOM     10  C   UNL A   1      32.341  27.679  26.157  1.00  0.00     0.032 A 
ATOM     11  Cl  UNL A   1      32.124  30.325  26.375  1.00  0.00    -0.084 Cl
ATOM     12  C   UNL A   1      32.115  26.430  25.576  1.00  0.00     0.019 A 
ATOM     13  O   UNL A   1      31.183  25.113  23.778  1.00  0.00    -0.475 OA
ATOM     14  C   UNL A   1      32.574  25.224  26.226  1.00  0.00     0.027 C 
ATOM     15  C   UNL A   1      32.163  24.051  24.071  1.00  0.00     0.316 C 
BRANCH   6  16
ATOM     16  C   UNL A   1      30.177  29.901  23.914  1.00  0.00     0.037 C 
BRANCH  16  17
ATOM     17  C   UNL A   1      29.438  29.593  22.599  1.00  0.00     0.008 C 
BRANCH  17  18
ATOM     18  C   UNL A   1      27.924  29.899  22.601  1.00  0.00    -0.017 C 
ATOM     19  C   UNL A   1      27.095  28.749  23.170  1.00  0.00     0.007 C 
ATOM     20  C   UNL A   1      27.657  31.177  23.399  1.00  0.00     0.007 C 
ENDBRANCH  17  18
ENDBRANCH  16  17
ENDBRANCH   6  16
BRANCH  15  21
ATOM     21  C   UNL A   1      33.216  24.031  22.947  1.00  0.00     0.430 C 
ATOM     22  F   UNL A   1      34.384  24.592  23.325  1.00  0.00    -0.167 F 
ATOM     23  F   UNL A   1      33.482  22.792  22.484  1.00  0.00    -0.167 F 
ATOM     24  F   UNL A   1      32.760  24.739  21.878  1.00  0.00    -0.167 F 
ENDBRANCH  15  21
ENDBRANCH   3   5
ENDBRANCH   2   3
ENDBRANCH   1   2
BRANCH   1  25
ATOM     25  C   UNL A   1      35.961  20.733  25.142  1.00  0.00     0.275 C 
BRANCH  25  26
ATOM     26  O   UNL A   1      36.894  21.799  25.424  1.00  0.00    -0.458 OA
BRANCH  26  27
ATOM     27  C   UNL A   1      38.159  21.411  25.701  1.00  0.00     0.338 C 
ATOM     28  O   UNL A   1      38.694  20.356  25.397  1.00  0.00    -0.246 OA
BRANCH  27  29
ATOM     29  C   UNL A   1      38.907  22.535  26.285  1.00  0.00     0.060 A 
ATOM     30  C   UNL A   1      40.144  22.388  26.902  1.00  0.00     0.016 A 
ATOM     31  C   UNL A   1      38.373  23.805  26.092  1.00  0.00     0.016 A 
ATOM     32  C   UNL A   1      40.825  23.535  27.344  1.00  0.00     0.010 A 
ATOM     33  C   UNL A   1      39.066  24.945  26.481  1.00  0.00     0.010 A 
ATOM     34  C   UNL A   1      40.297  24.826  27.130  1.00  0.00    -0.014 A 
BRANCH  34  35
ATOM     35  C   UNL A   1      41.035  26.053  27.532  1.00  0.00     0.031 A 
ATOM     36  C   UNL A   1      42.405  26.358  26.980  1.00  0.00     0.074 A 
ATOM     37  C   UNL A   1      40.499  26.872  28.458  1.00  0.00     0.049 A 
ATOM     38  N   UNL A   1      43.163  27.405  27.195  1.00  0.00    -0.248 NA
ATOM     39  C   UNL A   1      43.019  25.349  26.102  1.00  0.00     0.031 C 
ATOM     40  C   UNL A   1      39.232  26.641  29.156  1.00  0.00     0.029 A 
ATOM     41  N   UNL A   1      40.943  28.070  28.965  1.00  0.00    -0.354 N 
ATOM     42  C   UNL A   1      44.341  27.173  26.495  1.00  0.00     0.074 A 
ATOM     43  C   UNL A   1      44.224  25.863  25.895  1.00  0.00     0.031 C 
ATOM     44  C   UNL A   1      38.967  27.694  29.943  1.00  0.00     0.029 A 
ATOM     45  C   UNL A   1      40.055  28.661  29.831  1.00  0.00     0.049 A 
ATOM     46  H   UNL A   1      41.813  28.465  28.729  1.00  0.00     0.167 HD
ATOM     47  C   UNL A   1      45.412  27.989  26.335  1.00  0.00     0.031 A 
ATOM     48  C   UNL A   1      40.095  29.859  30.447  1.00  0.00     0.031 A 
ATOM     49  C   UNL A   1      45.515  29.307  26.903  1.00  0.00     0.049 A 
ATOM     50  C   UNL A   1      41.258  30.778  30.204  1.00  0.00     0.074 A 
ATOM     51  C   UNL A   1      46.519  30.242  26.723  1.00  0.00     0.029 A 
ATOM     52  N   UNL A   1      44.581  29.877  27.752  1.00  0.00    -0.354 N 
ATOM     53  N   UNL A   1      42.316  30.586  29.455  1.00  0.00    -0.248 NA
ATOM     54  C   UNL A   1      41.226  32.085  30.877  1.00  0.00     0.031 C 
ATOM     55  C   UNL A   1      46.215  31.363  27.498  1.00  0.00     0.029 A 
ATOM     56  C   UNL A   1      44.992  31.148  28.116  1.00  0.00     0.049 A 
ATOM     57  H   UNL A   1      43.749  29.444  28.051  1.00  0.00     0.167 HD
ATOM     58  C   UNL A   1      43.068  31.749  29.553  1.00  0.00     0.074 A 
ATOM     59  C   UNL A   1      42.335  32.651  30.417  1.00  0.00     0.031 C 
ATOM     60  C   UNL A   1      44.259  32.038  28.977  1.00  0.00     0.031 A 
BRANCH  47  61
ATOM     61  C   UNL A   1      46.553  27.502  25.484  1.00  0.00    -0.014 A 
ATOM     62  C   UNL A   1      47.582  26.735  26.053  1.00  0.00     0.009 A 
ATOM     63  C   UNL A   1      46.659  27.882  24.136  1.00  0.00     0.009 A 
ATOM     64  C   UNL A   1      48.693  26.363  25.294  1.00  0.00     0.001 A 
ATOM     65  C   UNL A   1      47.757  27.483  23.371  1.00  0.00     0.001 A 
ATOM     66  C   UNL A   1      48.777  26.732  23.952  1.00  0.00     0.000 A 
ENDBRANCH  47  61
BRANCH  48  67
ATOM     67  C   UNL A   1      38.943  30.281  31.285  1.00  0.00    -0.014 A 
ATOM     68  C   UNL A   1      37.868  30.990  30.728  1.00  0.00     0.009 A 
ATOM     69  C   UNL A   1      38.948  30.029  32.665  1.00  0.00     0.009 A 
ATOM     70  C   UNL A   1      36.832  31.458  31.540  1.00  0.00     0.001 A 
ATOM     71  C   UNL A   1      37.898  30.476  33.471  1.00  0.00     0.001 A 
ATOM     72  C   UNL A   1      36.846  31.197  32.910  1.00  0.00     0.000 A 
ENDBRANCH  48  67
BRANCH  60  73
ATOM     73  C   UNL A   1      44.862  33.387  29.246  1.00  0.00    -0.014 A 
ATOM     74  C   UNL A   1      45.677  33.574  30.374  1.00  0.00     0.009 A 
ATOM     75  C   UNL A   1      44.532  34.495  28.453  1.00  0.00     0.009 A 
ATOM     76  C   UNL A   1      46.138  34.848  30.711  1.00  0.00     0.001 A 
ATOM     77  C   UNL A   1      45.016  35.765  28.777  1.00  0.00     0.001 A 
ATOM     78  C   UNL A   1      45.808  35.941  29.911  1.00  0.00     0.000 A 
ENDBRANCH  60  73
ENDBRANCH  34  35
ENDBRANCH  27  29
ENDBRANCH  26  27
ENDBRANCH  25  26
ENDBRANCH   1  25
TORSDOF 15
ENDMDL
MODEL 3
REMARK VINA RESULT:     -10.9      2.698      7.933
REMARK SMILES CC(C)CCc1cc2c(cc1Cl)C=C(C(=O)OCCOC(=O)c1ccc(-c3c4nc(c(-c5ccccc5)c5ccc([nH]5)c(-c5ccccc5)c5nc(c(-c6ccccc6)c6ccc3[nH]6)C=C5)C=C4)cc1)[C@H](C(F)(F)F)O2
REMARK SMILES IDX 18 1 17 2 15 3 16 4 14 5 6 6 7 7 11 8 8 9 10 10 12 11 9 12
REMARK SMILES IDX 76 13 13 14 71 15 5 16 4 17 2 18 1 19 3 20 72 21 73 22 74 23
REMARK SMILES IDX 75 24 19 25 20 26 21 27 22 28 23 29 24 30 70 31 25 32 69 33
REMARK SMILES IDX 26 34 27 35 28 36 63 37 29 38 68 39 62 40 64 41 30 42 67 43
REMARK SMILES IDX 61 44 60 45 31 47 53 48 38 49 52 50 39 51 42 52 51 53 65 54
REMARK SMILES IDX 40 55 41 56 50 58 66 59 43 60 32 61 33 62 37 63 34 64 36 65
REMARK SMILES IDX 35 66 54 67 55 68 59 69 56 70 58 71 57 72 44 73 45 74 49 75
REMARK SMILES IDX 46 76 48 77 47 78
REMARK H PARENT 64 46 42 57
REMARK Flexibility Score: inf
ROOT
ATOM      1  C   UNL A   1      32.264  29.911  25.578  1.00  0.00     0.275 C 
ENDROOT
BRANCH   1   2
ATOM      2  O   UNL A   1      32.077  28.786  24.692  1.00  0.00    -0.459 OA
BRANCH   2   3
ATOM      3  C   UNL A   1      33.115  28.485  23.885  1.00  0.00     0.338 C 
ATOM      4  O   UNL A   1      33.877  29.292  23.378  1.00  0.00    -0.246 OA
BRANCH   3   5
ATOM      5  C   UNL A   1      33.294  27.020  23.771  1.00  0.00     0.087 C 
ATOM      6  C   UNL A   1      34.277  22.204  24.838  1.00  0.00    -0.026 A 
ATOM      7  C   UNL A   1      34.206  22.950  23.639  1.00  0.00     0.052 A 
ATOM      8  C   UNL A   1      33.976  22.851  26.050  1.00  0.00     0.045 A 
ATOM      9  C   UNL A   1      33.933  24.316  23.662  1.00  0.00     0.128 A 
ATOM     10  C   UNL A   1      33.732  24.223  26.071  1.00  0.00     0.032 A 
ATOM     11  Cl  UNL A   1      33.919  22.027  27.567  1.00  0.00    -0.084 Cl
ATOM     12  C   UNL A   1      33.752  24.955  24.883  1.00  0.00     0.019 A 
ATOM     13  O   UNL A   1      33.934  25.003  22.474  1.00  0.00    -0.475 OA
ATOM     14  C   UNL A   1      33.638  26.396  24.906  1.00  0.00     0.027 C 
ATOM     15  C   UNL A   1      33.195  26.278  22.460  1.00  0.00     0.316 C 
BRANCH   6  16
ATOM     16  C   UNL A   1      34.730  20.761  24.781  1.00  0.00     0.037 C 
BRANCH  16  17
ATOM     17  C   UNL A   1      33.598  19.751  25.046  1.00  0.00     0.008 C 
BRANCH  17  18
ATOM     18  C   UNL A   1      33.641  18.466  24.190  1.00  0.00    -0.017 C 
ATOM     19  C   UNL A   1      34.988  17.751  24.274  1.00  0.00     0.007 C 
ATOM     20  C   UNL A   1      32.521  17.518  24.626  1.00  0.00     0.007 C 
ENDBRANCH  17  18
ENDBRANCH  16  17
ENDBRANCH   6  16
BRANCH  15  21
ATOM     21  C   UNL A   1      31.781  26.020  21.906  1.00  0.00     0.430 C 
ATOM     22  F   UNL A   1      31.014  27.131  21.910  1.00  0.00    -0.167 F 
ATOM     23  F   UNL A   1      31.780  25.520  20.653  1.00  0.00    -0.167 F 
ATOM     24  F   UNL A   1      31.147  25.095  22.677  1.00  0.00    -0.167 F 
ENDBRANCH  15  21
ENDBRANCH   3   5
ENDBRANCH   2   3
ENDBRANCH   1   2
BRANCH   1  25
ATOM     25  C   UNL A   1      32.539  29.452  27.015  1.00  0.00     0.275 C 
BRANCH  25  26
ATOM     26  O   UNL A   1      33.955  29.328  27.273  1.00  0.00    -0.458 OA
BRANCH  26  27
ATOM     27  C   UNL A   1      34.523  30.369  27.925  1.00  0.00     0.338 C 
ATOM     28  O   UNL A   1      33.974  31.385  28.319  1.00  0.00    -0.246 OA
BRANCH  27  29
ATOM     29  C   UNL A   1      35.912  30.035  28.275  1.00  0.00     0.060 A 
ATOM     30  C   UNL A   1      36.287  29.551  29.524  1.00  0.00     0.016 A 
ATOM     31  C   UNL A   1      36.849  30.112  27.250  1.00  0.00     0.016 A 
ATOM     32  C   UNL A   1      37.624  29.170  29.732  1.00  0.00     0.010 A 
ATOM     33  C   UNL A   1      38.159  29.688  27.436  1.00  0.00     0.010 A 
ATOM     34  C   UNL A   1      38.571  29.226  28.688  1.00  0.00    -0.014 A 
BRANCH  34  35
ATOM     35  C   UNL A   1      39.973  28.764  28.872  1.00  0.00     0.031 A 
ATOM     36  C   UNL A   1      40.387  27.360  28.508  1.00  0.00     0.074 A 
ATOM     37  C   UNL A   1      40.871  29.591  29.441  1.00  0.00     0.049 A 
ATOM     38  N   UNL A   1      41.578  26.813  28.567  1.00  0.00    -0.248 NA
ATOM     39  C   UNL A   1      39.333  26.441  28.050  1.00  0.00     0.031 C 
ATOM     40  C   UNL A   1      40.580  30.936  29.943  1.00  0.00     0.029 A 
ATOM     41  N   UNL A   1      42.214  29.431  29.682  1.00  0.00    -0.354 N 
ATOM     42  C   UNL A   1      41.410  25.492  28.170  1.00  0.00     0.074 A 
ATOM     43  C   UNL A   1      39.997  25.301  27.927  1.00  0.00     0.031 C 
ATOM     44  C   UNL A   1      41.719  31.503  30.365  1.00  0.00     0.029 A 
ATOM     45  C   UNL A   1      42.817  30.556  30.192  1.00  0.00     0.049 A 
ATOM     46  H   UNL A   1      42.698  28.592  29.505  1.00  0.00     0.167 HD
ATOM     47  C   UNL A   1      42.349  24.532  27.990  1.00  0.00     0.031 A 
ATOM     48  C   UNL A   1      44.112  30.811  30.466  1.00  0.00     0.031 A 
ATOM     49  C   UNL A   1      43.759  24.731  28.198  1.00  0.00     0.049 A 
ATOM     50  C   UNL A   1      45.147  29.757  30.196  1.00  0.00     0.074 A 
ATOM     51  C   UNL A   1      44.795  23.847  27.955  1.00  0.00     0.029 A 
ATOM     52  N   UNL A   1      44.329  25.894  28.688  1.00  0.00    -0.354 N 
ATOM     53  N   UNL A   1      44.984  28.547  29.721  1.00  0.00    -0.248 NA
ATOM     54  C   UNL A   1      46.546  30.109  30.482  1.00  0.00     0.031 C 
ATOM     55  C   UNL A   1      45.990  24.458  28.340  1.00  0.00     0.029 A 
ATOM     56  C   UNL A   1      45.703  25.745  28.769  1.00  0.00     0.049 A 
ATOM     57  H   UNL A   1      43.832  26.705  28.942  1.00  0.00     0.167 HD
ATOM     58  C   UNL A   1      46.256  27.997  29.637  1.00  0.00     0.074 A 
ATOM     59  C   UNL A   1      47.184  29.013  30.090  1.00  0.00     0.031 C 
ATOM     60  C   UNL A   1      46.618  26.759  29.222  1.00  0.00     0.031 A 
BRANCH  47  61
ATOM     61  C   UNL A   1      41.897  23.179  27.510  1.00  0.00    -0.014 A 
ATOM     62  C   UNL A   1      41.525  22.190  28.435  1.00  0.00     0.009 A 
ATOM     63  C   UNL A   1      41.928  22.851  26.145  1.00  0.00     0.009 A 
ATOM     64  C   UNL A   1      41.199  20.902  28.004  1.00  0.00     0.001 A 
ATOM     65  C   UNL A   1      41.572  21.572  25.715  1.00  0.00     0.001 A 
ATOM     66  C   UNL A   1      41.216  20.596  26.645  1.00  0.00     0.000 A 
ENDBRANCH  47  61
BRANCH  48  67
ATOM     67  C   UNL A   1      44.497  32.163  30.947  1.00  0.00    -0.014 A 
ATOM     68  C   UNL A   1      44.809  33.189  30.043  1.00  0.00     0.009 A 
ATOM     69  C   UNL A   1      44.618  32.411  32.324  1.00  0.00     0.009 A 
ATOM     70  C   UNL A   1      45.254  34.430  30.506  1.00  0.00     0.001 A 
ATOM     71  C   UNL A   1      45.039  33.660  32.785  1.00  0.00     0.001 A 
ATOM     72  C   UNL A   1      45.365  34.665  31.875  1.00  0.00     0.000 A 
ENDBRANCH  48  67
BRANCH  60  73
ATOM     73  C   UNL A   1      48.080  26.415  29.226  1.00  0.00    -0.014 A 
ATOM     74  C   UNL A   1      48.827  26.534  28.042  1.00  0.00     0.009 A 
ATOM     75  C   UNL A   1      48.689  25.865  30.363  1.00  0.00     0.009 A 
ATOM     76  C   UNL A   1      50.151  26.096  27.993  1.00  0.00     0.001 A 
ATOM     77  C   UNL A   1      50.022  25.451  30.319  1.00  0.00     0.001 A 
ATOM     78  C   UNL A   1      50.747  25.556  29.132  1.00  0.00     0.000 A 
ENDBRANCH  60  73
ENDBRANCH  34  35
ENDBRANCH  27  29
ENDBRANCH  26  27
ENDBRANCH  25  26
ENDBRANCH   1  25
TORSDOF 15
ENDMDL
