MODEL 1
REMARK VINA RESULT:     -10.0      0.000      0.000
REMARK SMILES C[C@H](CNc1cccc(F)c1C(=O)OCCOC(=O)c1ccc(-c2c3nc(c(-c4ccccc4)c4ccc([nH]4)c(-c4ccccc4)c4nc(c(-c5ccccc5)c5ccc2[nH]5)C=C4)C=C3)cc1)C[NH+]1CCCC1
REMARK SMILES IDX 14 1 12 2 13 3 11 4 5 5 6 6 7 7 9 8 8 9 10 10 4 11 3 13 2 14
REMARK SMILES IDX 1 15 68 16 69 17 70 18 73 19 71 21 72 22 15 23 16 24 17 25
REMARK SMILES IDX 18 26 19 27 20 28 21 29 67 30 22 31 66 32 23 33 24 34 25 35
REMARK SMILES IDX 60 36 26 37 65 38 59 39 61 40 27 41 64 42 58 43 57 44 28 46
REMARK SMILES IDX 50 47 35 48 49 49 36 50 39 51 48 52 62 53 37 54 38 55 47 57
REMARK SMILES IDX 63 58 40 59 29 60 30 61 34 62 31 63 33 64 32 65 51 66 52 67
REMARK SMILES IDX 56 68 53 69 55 70 54 71 41 72 42 73 46 74 43 75 45 76 44 77
REMARK H PARENT 4 12 69 20 61 45 39 56
REMARK Flexibility Score: inf
ROOT
ATOM      1  O   UNL A   1      41.380  20.585  26.137  1.00  0.00    -0.458 OA
ENDROOT
BRANCH   1   2
ATOM      2  C   UNL A   1      40.903  20.926  27.358  1.00  0.00     0.343 C 
ATOM      3  O   UNL A   1      40.871  20.218  28.354  1.00  0.00    -0.246 OA
BRANCH   2   4
ATOM      4  C   UNL A   1      40.434  22.316  27.329  1.00  0.00     0.118 A 
ATOM      5  C   UNL A   1      39.299  22.667  26.572  1.00  0.00     0.052 A 
ATOM      6  C   UNL A   1      38.930  24.021  26.557  1.00  0.00     0.027 A 
ATOM      7  C   UNL A   1      39.678  24.989  27.252  1.00  0.00     0.005 A 
ATOM      8  C   UNL A   1      41.181  23.277  28.011  1.00  0.00     0.139 A 
ATOM      9  C   UNL A   1      40.804  24.614  27.982  1.00  0.00     0.040 A 
ATOM     10  F   UNL A   1      42.277  22.933  28.703  1.00  0.00    -0.206 F 
BRANCH   5  11
ATOM     11  N   UNL A   1      38.472  21.678  26.072  1.00  0.00    -0.384 N 
ATOM     12  H   UNL A   1      38.651  20.761  26.384  1.00  0.00     0.160 HD
BRANCH  11  13
ATOM     13  C   UNL A   1      37.377  21.834  25.147  1.00  0.00     0.122 C 
BRANCH  13  14
ATOM     14  C   UNL A   1      36.035  21.294  25.697  1.00  0.00     0.060 C 
ATOM     15  C   UNL A   1      35.358  22.416  26.499  1.00  0.00     0.015 C 
BRANCH  14  16
ATOM     16  C   UNL A   1      34.970  20.665  24.723  1.00  0.00     0.267 C 
BRANCH  16  17
ATOM     17  N   UNL A   1      34.303  19.387  25.023  1.00  0.00    -0.335 N 
ATOM     18  C   UNL A   1      34.971  18.187  24.485  1.00  0.00     0.262 C 
ATOM     19  C   UNL A   1      32.909  19.292  24.640  1.00  0.00     0.262 C 
ATOM     20  H   UNL A   1      34.371  19.401  26.041  1.00  0.00     0.348 HD
ATOM     21  C   UNL A   1      33.908  17.419  23.696  1.00  0.00     0.067 C 
ATOM     22  C   UNL A   1      32.624  17.831  24.369  1.00  0.00     0.067 C 
ENDBRANCH  16  17
ENDBRANCH  14  16
ENDBRANCH  13  14
ENDBRANCH  11  13
ENDBRANCH   5  11
ENDBRANCH   2   4
ENDBRANCH   1   2
BRANCH   1  23
ATOM     23  C   UNL A   1      41.452  19.171  25.890  1.00  0.00     0.275 C 
BRANCH  23  24
ATOM     24  C   UNL A   1      42.900  18.766  25.621  1.00  0.00     0.275 C 
BRANCH  24  25
ATOM     25  O   UNL A   1      43.459  19.552  24.542  1.00  0.00    -0.458 OA
BRANCH  25  26
ATOM     26  C   UNL A   1      44.794  19.787  24.623  1.00  0.00     0.338 C 
ATOM     27  O   UNL A   1      45.695  18.996  24.401  1.00  0.00    -0.246 OA
BRANCH  26  28
ATOM     28  C   UNL A   1      45.059  21.218  24.888  1.00  0.00     0.060 A 
ATOM     29  C   UNL A   1      44.876  21.684  26.195  1.00  0.00     0.016 A 
ATOM     30  C   UNL A   1      45.394  22.119  23.883  1.00  0.00     0.016 A 
ATOM     31  C   UNL A   1      45.131  23.024  26.536  1.00  0.00     0.010 A 
ATOM     32  C   UNL A   1      45.590  23.474  24.214  1.00  0.00     0.010 A 
ATOM     33  C   UNL A   1      45.488  23.944  25.549  1.00  0.00    -0.014 A 
BRANCH  33  34
ATOM     34  C   UNL A   1      45.577  25.417  25.809  1.00  0.00     0.031 A 
ATOM     35  C   UNL A   1      46.929  25.990  26.089  1.00  0.00     0.074 A 
ATOM     36  C   UNL A   1      44.550  26.297  25.800  1.00  0.00     0.049 A 
ATOM     37  N   UNL A   1      47.233  27.177  26.538  1.00  0.00    -0.248 NA
ATOM     38  C   UNL A   1      48.082  25.156  25.716  1.00  0.00     0.031 C 
ATOM     39  C   UNL A   1      43.234  26.113  25.220  1.00  0.00     0.029 A 
ATOM     40  N   UNL A   1      44.416  27.498  26.468  1.00  0.00    -0.354 N 
ATOM     41  C   UNL A   1      48.602  27.279  26.389  1.00  0.00     0.074 A 
ATOM     42  C   UNL A   1      49.085  25.990  25.939  1.00  0.00     0.031 C 
ATOM     43  C   UNL A   1      42.353  26.936  25.815  1.00  0.00     0.029 A 
ATOM     44  C   UNL A   1      43.089  27.804  26.716  1.00  0.00     0.049 A 
ATOM     45  H   UNL A   1      45.172  28.066  26.736  1.00  0.00     0.167 HD
ATOM     46  C   UNL A   1      49.368  28.384  26.531  1.00  0.00     0.031 A 
ATOM     47  C   UNL A   1      42.541  28.660  27.598  1.00  0.00     0.031 A 
ATOM     48  C   UNL A   1      48.877  29.645  27.017  1.00  0.00     0.049 A 
ATOM     49  C   UNL A   1      43.437  29.705  28.180  1.00  0.00     0.074 A 
ATOM     50  C   UNL A   1      49.568  30.829  27.203  1.00  0.00     0.029 A 
ATOM     51  N   UNL A   1      47.571  29.876  27.425  1.00  0.00    -0.354 N 
ATOM     52  N   UNL A   1      44.733  29.825  28.038  1.00  0.00    -0.248 NA
ATOM     53  C   UNL A   1      42.798  30.805  28.909  1.00  0.00     0.031 C 
ATOM     54  C   UNL A   1      48.695  31.753  27.791  1.00  0.00     0.029 A 
ATOM     55  C   UNL A   1      47.447  31.164  27.917  1.00  0.00     0.049 A 
ATOM     56  H   UNL A   1      46.840  29.218  27.372  1.00  0.00     0.167 HD
ATOM     57  C   UNL A   1      45.045  31.082  28.526  1.00  0.00     0.074 A 
ATOM     58  C   UNL A   1      43.816  31.645  29.051  1.00  0.00     0.031 C 
ATOM     59  C   UNL A   1      46.233  31.728  28.455  1.00  0.00     0.031 A 
BRANCH  46  60
ATOM     60  C   UNL A   1      50.808  28.238  26.152  1.00  0.00    -0.014 A 
ATOM     61  C   UNL A   1      51.228  28.445  24.826  1.00  0.00     0.009 A 
ATOM     62  C   UNL A   1      51.745  27.844  27.113  1.00  0.00     0.009 A 
ATOM     63  C   UNL A   1      52.554  28.210  24.462  1.00  0.00     0.001 A 
ATOM     64  C   UNL A   1      53.076  27.634  26.751  1.00  0.00     0.001 A 
ATOM     65  C   UNL A   1      53.476  27.805  25.426  1.00  0.00     0.000 A 
ENDBRANCH  46  60
BRANCH  47  66
ATOM     66  C   UNL A   1      41.094  28.624  27.939  1.00  0.00    -0.014 A 
ATOM     67  C   UNL A   1      40.130  29.242  27.133  1.00  0.00     0.009 A 
ATOM     68  C   UNL A   1      40.683  28.026  29.143  1.00  0.00     0.009 A 
ATOM     69  C   UNL A   1      38.791  29.284  27.537  1.00  0.00     0.001 A 
ATOM     70  C   UNL A   1      39.341  28.056  29.537  1.00  0.00     0.001 A 
ATOM     71  C   UNL A   1      38.397  28.693  28.737  1.00  0.00     0.000 A 
ENDBRANCH  47  66
BRANCH  59  72
ATOM     72  C   UNL A   1      46.249  33.163  28.887  1.00  0.00    -0.014 A 
ATOM     73  C   UNL A   1      46.572  33.537  30.199  1.00  0.00     0.009 A 
ATOM     74  C   UNL A   1      45.953  34.161  27.944  1.00  0.00     0.009 A 
ATOM     75  C   UNL A   1      46.570  34.885  30.564  1.00  0.00     0.001 A 
ATOM     76  C   UNL A   1      45.985  35.507  28.303  1.00  0.00     0.001 A 
ATOM     77  C   UNL A   1      46.286  35.868  29.616  1.00  0.00     0.000 A 
ENDBRANCH  59  72
ENDBRANCH  33  34
ENDBRANCH  26  28
ENDBRANCH  25  26
ENDBRANCH  24  25
ENDBRANCH  23  24
ENDBRANCH   1  23
TORSDOF 16
ENDMDL
MODEL 2
REMARK VINA RESULT:      -9.8      6.076     10.514
REMARK SMILES C[C@H](CNc1cccc(F)c1C(=O)OCCOC(=O)c1ccc(-c2c3nc(c(-c4ccccc4)c4ccc([nH]4)c(-c4ccccc4)c4nc(c(-c5ccccc5)c5ccc2[nH]5)C=C4)C=C3)cc1)C[NH+]1CCCC1
REMARK SMILES IDX 14 1 12 2 13 3 11 4 5 5 6 6 7 7 9 8 8 9 10 10 4 11 3 13 2 14
REMARK SMILES IDX 1 15 68 16 69 17 70 18 73 19 71 21 72 22 15 23 16 24 17 25
REMARK SMILES IDX 18 26 19 27 20 28 21 29 67 30 22 31 66 32 23 33 24 34 25 35
REMARK SMILES IDX 60 36 26 37 65 38 59 39 61 40 27 41 64 42 58 43 57 44 28 46
REMARK SMILES IDX 50 47 35 48 49 49 36 50 39 51 48 52 62 53 37 54 38 55 47 57
REMARK SMILES IDX 63 58 40 59 29 60 30 61 34 62 31 63 33 64 32 65 51 66 52 67
REMARK SMILES IDX 56 68 53 69 55 70 54 71 41 72 42 73 46 74 43 75 45 76 44 77
REMARK H PARENT 4 12 69 20 61 45 39 56
REMARK Flexibility Score: inf
ROOT
ATOM      1  O   UNL A   1      32.962  24.419  24.265  1.00  0.00    -0.458 OA
ENDROOT
BRANCH   1   2
ATOM      2  C   UNL A   1      33.575  23.644  23.338  1.00  0.00     0.343 C 
ATOM      3  O   UNL A   1      34.044  24.013  22.272  1.00  0.00    -0.246 OA
BRANCH   2   4
ATOM      4  C   UNL A   1      33.623  22.258  23.816  1.00  0.00     0.118 A 
ATOM      5  C   UNL A   1      34.783  21.762  24.444  1.00  0.00     0.052 A 
ATOM      6  C   UNL A   1      34.774  20.416  24.840  1.00  0.00     0.027 A 
ATOM      7  C   UNL A   1      33.660  19.592  24.601  1.00  0.00     0.005 A 
ATOM      8  C   UNL A   1      32.521  21.438  23.570  1.00  0.00     0.139 A 
ATOM      9  C   UNL A   1      32.530  20.107  23.966  1.00  0.00     0.040 A 
ATOM     10  F   UNL A   1      31.435  21.916  22.946  1.00  0.00    -0.206 F 
BRANCH   5  11
ATOM     11  N   UNL A   1      35.775  22.637  24.848  1.00  0.00    -0.384 N 
ATOM     12  H   UNL A   1      35.959  23.395  24.246  1.00  0.00     0.160 HD
BRANCH  11  13
ATOM     13  C   UNL A   1      36.571  22.568  26.048  1.00  0.00     0.122 C 
BRANCH  13  14
ATOM     14  C   UNL A   1      38.041  23.000  25.827  1.00  0.00     0.060 C 
ATOM     15  C   UNL A   1      38.258  24.345  26.537  1.00  0.00     0.015 C 
BRANCH  14  16
ATOM     16  C   UNL A   1      39.221  22.035  26.217  1.00  0.00     0.267 C 
BRANCH  16  17
ATOM     17  N   UNL A   1      40.521  22.547  26.681  1.00  0.00    -0.335 N 
ATOM     18  C   UNL A   1      41.671  22.221  25.817  1.00  0.00     0.262 C 
ATOM     19  C   UNL A   1      40.902  22.185  28.031  1.00  0.00     0.262 C 
ATOM     20  H   UNL A   1      40.327  23.548  26.644  1.00  0.00     0.348 HD
ATOM     21  C   UNL A   1      42.722  21.574  26.723  1.00  0.00     0.067 C 
ATOM     22  C   UNL A   1      42.414  22.166  28.074  1.00  0.00     0.067 C 
ENDBRANCH  16  17
ENDBRANCH  14  16
ENDBRANCH  13  14
ENDBRANCH  11  13
ENDBRANCH   5  11
ENDBRANCH   2   4
ENDBRANCH   1   2
BRANCH   1  23
ATOM     23  C   UNL A   1      32.141  25.468  23.727  1.00  0.00     0.275 C 
BRANCH  23  24
ATOM     24  C   UNL A   1      30.731  25.371  24.306  1.00  0.00     0.275 C 
BRANCH  24  25
ATOM     25  O   UNL A   1      30.497  26.427  25.266  1.00  0.00    -0.458 OA
BRANCH  25  26
ATOM     26  C   UNL A   1      30.616  27.691  24.784  1.00  0.00     0.338 C 
ATOM     27  O   UNL A   1      29.962  28.203  23.892  1.00  0.00    -0.246 OA
BRANCH  26  28
ATOM     28  C   UNL A   1      31.581  28.470  25.590  1.00  0.00     0.060 A 
ATOM     29  C   UNL A   1      32.349  29.438  24.933  1.00  0.00     0.016 A 
ATOM     30  C   UNL A   1      31.811  28.217  26.939  1.00  0.00     0.016 A 
ATOM     31  C   UNL A   1      33.271  30.238  25.632  1.00  0.00     0.010 A 
ATOM     32  C   UNL A   1      32.777  28.978  27.625  1.00  0.00     0.010 A 
ATOM     33  C   UNL A   1      33.504  30.018  26.989  1.00  0.00    -0.014 A 
BRANCH  33  34
ATOM     34  C   UNL A   1      34.609  30.695  27.742  1.00  0.00     0.031 A 
ATOM     35  C   UNL A   1      35.856  29.911  27.995  1.00  0.00     0.074 A 
ATOM     36  C   UNL A   1      34.602  31.965  28.208  1.00  0.00     0.049 A 
ATOM     37  N   UNL A   1      36.853  30.200  28.786  1.00  0.00    -0.248 NA
ATOM     38  C   UNL A   1      36.048  28.706  27.174  1.00  0.00     0.031 C 
ATOM     39  C   UNL A   1      33.721  33.046  27.812  1.00  0.00     0.029 A 
ATOM     40  N   UNL A   1      35.287  32.513  29.274  1.00  0.00    -0.354 N 
ATOM     41  C   UNL A   1      37.839  29.285  28.473  1.00  0.00     0.074 A 
ATOM     42  C   UNL A   1      37.275  28.350  27.522  1.00  0.00     0.031 C 
ATOM     43  C   UNL A   1      33.657  33.965  28.792  1.00  0.00     0.029 A 
ATOM     44  C   UNL A   1      34.614  33.593  29.818  1.00  0.00     0.049 A 
ATOM     45  H   UNL A   1      36.149  32.176  29.607  1.00  0.00     0.167 HD
ATOM     46  C   UNL A   1      39.128  29.288  28.880  1.00  0.00     0.031 A 
ATOM     47  C   UNL A   1      34.737  34.183  31.022  1.00  0.00     0.031 A 
ATOM     48  C   UNL A   1      39.661  30.201  29.855  1.00  0.00     0.049 A 
ATOM     49  C   UNL A   1      35.987  33.902  31.792  1.00  0.00     0.074 A 
ATOM     50  C   UNL A   1      40.952  30.290  30.343  1.00  0.00     0.029 A 
ATOM     51  N   UNL A   1      38.916  31.167  30.516  1.00  0.00    -0.354 N 
ATOM     52  N   UNL A   1      36.938  33.050  31.503  1.00  0.00    -0.248 NA
ATOM     53  C   UNL A   1      36.261  34.750  32.957  1.00  0.00     0.031 C 
ATOM     54  C   UNL A   1      40.969  31.262  31.351  1.00  0.00     0.029 A 
ATOM     55  C   UNL A   1      39.704  31.818  31.450  1.00  0.00     0.049 A 
ATOM     56  H   UNL A   1      37.966  31.361  30.345  1.00  0.00     0.167 HD
ATOM     57  C   UNL A   1      37.984  33.358  32.353  1.00  0.00     0.074 A 
ATOM     58  C   UNL A   1      37.516  34.415  33.229  1.00  0.00     0.031 C 
ATOM     59  C   UNL A   1      39.243  32.860  32.336  1.00  0.00     0.031 A 
BRANCH  46  60
ATOM     60  C   UNL A   1      40.017  28.260  28.255  1.00  0.00    -0.014 A 
ATOM     61  C   UNL A   1      40.599  28.481  26.995  1.00  0.00     0.009 A 
ATOM     62  C   UNL A   1      40.237  27.040  28.906  1.00  0.00     0.009 A 
ATOM     63  C   UNL A   1      41.345  27.477  26.376  1.00  0.00     0.001 A 
ATOM     64  C   UNL A   1      41.004  26.047  28.296  1.00  0.00     0.001 A 
ATOM     65  C   UNL A   1      41.545  26.261  27.028  1.00  0.00     0.000 A 
ENDBRANCH  46  60
BRANCH  47  66
ATOM     66  C   UNL A   1      33.716  35.127  31.547  1.00  0.00    -0.014 A 
ATOM     67  C   UNL A   1      33.845  36.513  31.396  1.00  0.00     0.009 A 
ATOM     68  C   UNL A   1      32.630  34.627  32.288  1.00  0.00     0.009 A 
ATOM     69  C   UNL A   1      32.924  37.380  31.996  1.00  0.00     0.001 A 
ATOM     70  C   UNL A   1      31.702  35.495  32.873  1.00  0.00     0.001 A 
ATOM     71  C   UNL A   1      31.855  36.872  32.734  1.00  0.00     0.000 A 
ENDBRANCH  47  66
BRANCH  59  72
ATOM     72  C   UNL A   1      40.242  33.511  33.244  1.00  0.00    -0.014 A 
ATOM     73  C   UNL A   1      40.499  33.021  34.532  1.00  0.00     0.009 A 
ATOM     74  C   UNL A   1      40.954  34.630  32.783  1.00  0.00     0.009 A 
ATOM     75  C   UNL A   1      41.432  33.658  35.351  1.00  0.00     0.001 A 
ATOM     76  C   UNL A   1      41.910  35.243  33.591  1.00  0.00     0.001 A 
ATOM     77  C   UNL A   1      42.142  34.762  34.878  1.00  0.00     0.000 A 
ENDBRANCH  59  72
ENDBRANCH  33  34
ENDBRANCH  26  28
ENDBRANCH  25  26
ENDBRANCH  24  25
ENDBRANCH  23  24
ENDBRANCH   1  23
TORSDOF 16
ENDMDL
MODEL 3
REMARK VINA RESULT:      -9.4      6.949     11.076
REMARK SMILES C[C@H](CNc1cccc(F)c1C(=O)OCCOC(=O)c1ccc(-c2c3nc(c(-c4ccccc4)c4ccc([nH]4)c(-c4ccccc4)c4nc(c(-c5ccccc5)c5ccc2[nH]5)C=C4)C=C3)cc1)C[NH+]1CCCC1
REMARK SMILES IDX 14 1 12 2 13 3 11 4 5 5 6 6 7 7 9 8 8 9 10 10 4 11 3 13 2 14
REMARK SMILES IDX 1 15 68 16 69 17 70 18 73 19 71 21 72 22 15 23 16 24 17 25
REMARK SMILES IDX 18 26 19 27 20 28 21 29 67 30 22 31 66 32 23 33 24 34 25 35
REMARK SMILES IDX 60 36 26 37 65 38 59 39 61 40 27 41 64 42 58 43 57 44 28 46
REMARK SMILES IDX 50 47 35 48 49 49 36 50 39 51 48 52 62 53 37 54 38 55 47 57
REMARK SMILES IDX 63 58 40 59 29 60 30 61 34 62 31 63 33 64 32 65 51 66 52 67
REMARK SMILES IDX 56 68 53 69 55 70 54 71 41 72 42 73 46 74 43 75 45 76 44 77
REMARK H PARENT 4 12 69 20 61 45 39 56
REMARK Flexibility Score: inf
ROOT
ATOM      1  O   UNL A   1      30.778  25.628  22.808  1.00  0.00    -0.458 OA
ENDROOT
BRANCH   1   2
ATOM      2  C   UNL A   1      31.815  25.136  23.528  1.00  0.00     0.343 C 
ATOM      3  O   UNL A   1      33.005  25.283  23.290  1.00  0.00    -0.246 OA
BRANCH   2   4
ATOM      4  C   UNL A   1      31.298  24.397  24.686  1.00  0.00     0.118 A 
ATOM      5  C   UNL A   1      31.328  22.989  24.700  1.00  0.00     0.052 A 
ATOM      6  C   UNL A   1      30.781  22.346  25.821  1.00  0.00     0.027 A 
ATOM      7  C   UNL A   1      30.209  23.080  26.876  1.00  0.00     0.005 A 
ATOM      8  C   UNL A   1      30.722  25.125  25.728  1.00  0.00     0.139 A 
ATOM      9  C   UNL A   1      30.183  24.472  26.829  1.00  0.00     0.040 A 
ATOM     10  F   UNL A   1      30.675  26.465  25.687  1.00  0.00    -0.206 F 
BRANCH   5  11
ATOM     11  N   UNL A   1      32.073  22.306  23.757  1.00  0.00    -0.384 N 
ATOM     12  H   UNL A   1      31.602  22.054  22.929  1.00  0.00     0.160 HD
BRANCH  11  13
ATOM     13  C   UNL A   1      33.460  21.919  23.844  1.00  0.00     0.122 C 
BRANCH  13  14
ATOM     14  C   UNL A   1      33.659  20.502  24.434  1.00  0.00     0.060 C 
ATOM     15  C   UNL A   1      34.342  20.644  25.803  1.00  0.00     0.015 C 
BRANCH  14  16
ATOM     16  C   UNL A   1      32.436  19.524  24.586  1.00  0.00     0.267 C 
BRANCH  16  17
ATOM     17  N   UNL A   1      32.552  18.085  24.296  1.00  0.00    -0.335 N 
ATOM     18  C   UNL A   1      32.527  17.201  25.475  1.00  0.00     0.262 C 
ATOM     19  C   UNL A   1      33.697  17.686  23.503  1.00  0.00     0.262 C 
ATOM     20  H   UNL A   1      31.703  17.960  23.744  1.00  0.00     0.348 HD
ATOM     21  C   UNL A   1      33.767  16.310  25.374  1.00  0.00     0.067 C 
ATOM     22  C   UNL A   1      34.028  16.261  23.890  1.00  0.00     0.067 C 
ENDBRANCH  16  17
ENDBRANCH  14  16
ENDBRANCH  13  14
ENDBRANCH  11  13
ENDBRANCH   5  11
ENDBRANCH   2   4
ENDBRANCH   1   2
BRANCH   1  23
ATOM     23  C   UNL A   1      31.092  26.777  22.005  1.00  0.00     0.275 C 
BRANCH  23  24
ATOM     24  C   UNL A   1      30.170  27.937  22.377  1.00  0.00     0.275 C 
BRANCH  24  25
ATOM     25  O   UNL A   1      30.938  29.071  22.845  1.00  0.00    -0.458 OA
BRANCH  25  26
ATOM     26  C   UNL A   1      30.388  29.761  23.877  1.00  0.00     0.338 C 
ATOM     27  O   UNL A   1      29.208  30.019  24.044  1.00  0.00    -0.246 OA
BRANCH  26  28
ATOM     28  C   UNL A   1      31.407  30.067  24.904  1.00  0.00     0.060 A 
ATOM     29  C   UNL A   1      31.158  31.136  25.773  1.00  0.00     0.016 A 
ATOM     30  C   UNL A   1      32.623  29.396  24.979  1.00  0.00     0.016 A 
ATOM     31  C   UNL A   1      32.065  31.475  26.792  1.00  0.00     0.010 A 
ATOM     32  C   UNL A   1      33.556  29.775  25.963  1.00  0.00     0.010 A 
ATOM     33  C   UNL A   1      33.282  30.804  26.902  1.00  0.00    -0.014 A 
BRANCH  33  34
ATOM     34  C   UNL A   1      34.371  31.245  27.832  1.00  0.00     0.031 A 
ATOM     35  C   UNL A   1      35.471  30.275  28.121  1.00  0.00     0.074 A 
ATOM     36  C   UNL A   1      34.471  32.452  28.434  1.00  0.00     0.049 A 
ATOM     37  N   UNL A   1      36.399  30.345  29.035  1.00  0.00    -0.248 NA
ATOM     38  C   UNL A   1      35.601  29.140  27.194  1.00  0.00     0.031 C 
ATOM     39  C   UNL A   1      33.786  33.678  28.075  1.00  0.00     0.029 A 
ATOM     40  N   UNL A   1      35.094  32.795  29.618  1.00  0.00    -0.354 N 
ATOM     41  C   UNL A   1      37.290  29.338  28.723  1.00  0.00     0.074 A 
ATOM     42  C   UNL A   1      36.724  28.586  27.622  1.00  0.00     0.031 C 
ATOM     43  C   UNL A   1      33.727  34.498  29.139  1.00  0.00     0.029 A 
ATOM     44  C   UNL A   1      34.506  33.900  30.209  1.00  0.00     0.049 A 
ATOM     45  H   UNL A   1      35.862  32.311  29.996  1.00  0.00     0.167 HD
ATOM     46  C   UNL A   1      38.514  29.123  29.256  1.00  0.00     0.031 A 
ATOM     47  C   UNL A   1      34.564  34.347  31.476  1.00  0.00     0.031 A 
ATOM     48  C   UNL A   1      39.043  29.854  30.375  1.00  0.00     0.049 A 
ATOM     49  C   UNL A   1      35.671  33.823  32.332  1.00  0.00     0.074 A 
ATOM     50  C   UNL A   1      40.270  29.716  30.997  1.00  0.00     0.029 A 
ATOM     51  N   UNL A   1      38.357  30.846  31.061  1.00  0.00    -0.354 N 
ATOM     52  N   UNL A   1      36.533  32.879  32.048  1.00  0.00    -0.248 NA
ATOM     53  C   UNL A   1      35.916  34.508  33.606  1.00  0.00     0.031 C 
ATOM     54  C   UNL A   1      40.296  30.574  32.104  1.00  0.00     0.029 A 
ATOM     55  C   UNL A   1      39.109  31.288  32.136  1.00  0.00     0.049 A 
ATOM     56  H   UNL A   1      37.464  31.184  30.818  1.00  0.00     0.167 HD
ATOM     57  C   UNL A   1      37.506  32.956  33.028  1.00  0.00     0.074 A 
ATOM     58  C   UNL A   1      37.078  33.978  33.965  1.00  0.00     0.031 C 
ATOM     59  C   UNL A   1      38.685  32.293  33.081  1.00  0.00     0.031 A 
BRANCH  46  60
ATOM     60  C   UNL A   1      39.331  28.047  28.613  1.00  0.00    -0.014 A 
ATOM     61  C   UNL A   1      40.120  28.320  27.481  1.00  0.00     0.009 A 
ATOM     62  C   UNL A   1      39.276  26.739  29.109  1.00  0.00     0.009 A 
ATOM     63  C   UNL A   1      40.798  27.290  26.830  1.00  0.00     0.001 A 
ATOM     64  C   UNL A   1      39.976  25.716  28.470  1.00  0.00     0.001 A 
ATOM     65  C   UNL A   1      40.725  25.990  27.326  1.00  0.00     0.000 A 
ENDBRANCH  46  60
BRANCH  47  66
ATOM     66  C   UNL A   1      33.618  35.368  31.999  1.00  0.00    -0.014 A 
ATOM     67  C   UNL A   1      34.026  36.678  32.280  1.00  0.00     0.009 A 
ATOM     68  C   UNL A   1      32.296  34.995  32.297  1.00  0.00     0.009 A 
ATOM     69  C   UNL A   1      33.139  37.584  32.872  1.00  0.00     0.001 A 
ATOM     70  C   UNL A   1      31.406  35.908  32.875  1.00  0.00     0.001 A 
ATOM     71  C   UNL A   1      31.832  37.200  33.170  1.00  0.00     0.000 A 
ENDBRANCH  47  66
BRANCH  59  72
ATOM     72  C   UNL A   1      39.648  32.708  34.153  1.00  0.00    -0.014 A 
ATOM     73  C   UNL A   1      40.598  33.717  33.942  1.00  0.00     0.009 A 
ATOM     74  C   UNL A   1      39.580  32.084  35.409  1.00  0.00     0.009 A 
ATOM     75  C   UNL A   1      41.481  34.073  34.963  1.00  0.00     0.001 A 
ATOM     76  C   UNL A   1      40.442  32.464  36.436  1.00  0.00     0.001 A 
ATOM     77  C   UNL A   1      41.397  33.453  36.209  1.00  0.00     0.000 A 
ENDBRANCH  59  72
ENDBRANCH  33  34
ENDBRANCH  26  28
ENDBRANCH  25  26
ENDBRANCH  24  25
ENDBRANCH  23  24
ENDBRANCH   1  23
TORSDOF 16
ENDMDL
