MODEL 1
REMARK VINA RESULT:      -9.8      0.000      0.000
REMARK SMILES CC[C@@H]1CCCC[C@@H]1OCC[C@@H]1CCC[C@]1([NH2+]C)C(=O)OCCOC(=O)c1ccc(-c2c3nc(c(-c4ccccc4)c4ccc([nH]4)c(-c4ccccc4)c4nc(c(-c5ccccc5)c5ccc2[nH]5)C=C4)C=C3)cc1
REMARK SMILES IDX 21 1 19 2 20 3 16 4 12 5 13 6 14 7 15 8 11 9 10 10 9 11 8 12
REMARK SMILES IDX 3 13 4 14 5 15 7 16 6 17 2 18 1 19 17 20 18 21 22 24 23 25
REMARK SMILES IDX 24 26 25 27 26 28 27 29 28 30 74 31 29 32 73 33 30 34 31 35
REMARK SMILES IDX 32 36 67 37 33 38 72 39 66 40 68 41 34 42 71 43 65 44 64 45
REMARK SMILES IDX 35 47 57 48 42 49 56 50 43 51 46 52 55 53 69 54 44 55 45 56
REMARK SMILES IDX 54 58 70 59 47 60 36 61 37 62 41 63 38 64 40 65 39 66 58 67
REMARK SMILES IDX 59 68 63 69 60 70 62 71 61 72 48 73 49 74 53 75 50 76 52 77
REMARK SMILES IDX 51 78
REMARK H PARENT 17 22 17 23 68 46 46 57
REMARK Flexibility Score: inf
ROOT
ATOM      1  O   UNL A   1      32.229  28.380  26.163  1.00  0.00    -0.457 OA
ENDROOT
BRANCH   1   2
ATOM      2  C   UNL A   1      32.868  27.988  25.023  1.00  0.00     0.368 C 
ATOM      3  O   UNL A   1      34.048  28.245  24.811  1.00  0.00    -0.245 OA
BRANCH   2   4
ATOM      4  C   UNL A   1      31.946  27.183  24.047  1.00  0.00     0.197 C 
ATOM      5  C   UNL A   1      32.248  25.639  24.051  1.00  0.00     0.065 C 
ATOM      6  C   UNL A   1      33.334  25.481  22.943  1.00  0.00     0.011 C 
ATOM      7  C   UNL A   1      33.264  26.694  22.031  1.00  0.00     0.008 C 
ATOM      8  C   UNL A   1      32.133  27.542  22.561  1.00  0.00     0.081 C 
BRANCH   5   9
ATOM      9  C   UNL A   1      32.688  24.768  25.286  1.00  0.00     0.039 C 
BRANCH   9  10
ATOM     10  C   UNL A   1      34.041  24.835  26.028  1.00  0.00     0.161 C 
BRANCH  10  11
ATOM     11  O   UNL A   1      34.816  23.635  26.147  1.00  0.00    -0.378 OA
BRANCH  11  12
ATOM     12  C   UNL A   1      35.520  23.337  24.949  1.00  0.00     0.121 C 
ATOM     13  C   UNL A   1      35.292  21.925  24.364  1.00  0.00     0.018 C 
ATOM     14  C   UNL A   1      36.198  20.865  24.997  1.00  0.00     0.006 C 
ATOM     15  C   UNL A   1      37.654  21.311  24.998  1.00  0.00     0.000 C 
ATOM     16  C   UNL A   1      36.994  23.706  25.174  1.00  0.00     0.032 C 
ATOM     17  C   UNL A   1      37.806  22.587  25.807  1.00  0.00     0.003 C 
BRANCH  13  18
ATOM     18  C   UNL A   1      33.823  21.452  24.383  1.00  0.00     0.003 C 
ATOM     19  C   UNL A   1      33.506  20.476  25.510  1.00  0.00     0.004 C 
ENDBRANCH  13  18
ENDBRANCH  11  12
ENDBRANCH  10  11
ENDBRANCH   9  10
ENDBRANCH   5   9
BRANCH   4  20
ATOM     20  N   UNL A   1      30.496  27.464  24.303  1.00  0.00    -0.334 N 
ATOM     21  C   UNL A   1      29.531  26.397  24.060  1.00  0.00     0.331 C 
ATOM     22  H   UNL A   1      30.231  28.251  23.711  1.00  0.00     0.347 HD
ATOM     23  H   UNL A   1      30.445  27.625  25.310  1.00  0.00     0.347 HD
ENDBRANCH   4  20
ENDBRANCH   2   4
ENDBRANCH   1   2
BRANCH   1  24
ATOM     24  C   UNL A   1      33.070  28.932  27.204  1.00  0.00     0.274 C 
BRANCH  24  25
ATOM     25  C   UNL A   1      32.930  30.447  27.285  1.00  0.00     0.275 C 
BRANCH  25  26
ATOM     26  O   UNL A   1      34.236  31.035  27.233  1.00  0.00    -0.458 OA
BRANCH  26  27
ATOM     27  C   UNL A   1      34.882  31.145  28.417  1.00  0.00     0.338 C 
ATOM     28  O   UNL A   1      34.535  31.785  29.394  1.00  0.00    -0.246 OA
BRANCH  27  29
ATOM     29  C   UNL A   1      36.067  30.265  28.411  1.00  0.00     0.060 A 
ATOM     30  C   UNL A   1      36.457  29.641  29.590  1.00  0.00     0.016 A 
ATOM     31  C   UNL A   1      36.890  30.195  27.291  1.00  0.00     0.016 A 
ATOM     32  C   UNL A   1      37.722  29.082  29.708  1.00  0.00     0.010 A 
ATOM     33  C   UNL A   1      38.106  29.507  27.372  1.00  0.00     0.010 A 
ATOM     34  C   UNL A   1      38.563  28.987  28.599  1.00  0.00    -0.014 A 
BRANCH  34  35
ATOM     35  C   UNL A   1      39.934  28.424  28.737  1.00  0.00     0.031 A 
ATOM     36  C   UNL A   1      41.047  29.304  29.239  1.00  0.00     0.074 A 
ATOM     37  C   UNL A   1      40.197  27.129  28.463  1.00  0.00     0.049 A 
ATOM     38  N   UNL A   1      42.339  29.148  29.122  1.00  0.00    -0.248 NA
ATOM     39  C   UNL A   1      40.650  30.532  29.949  1.00  0.00     0.031 C 
ATOM     40  C   UNL A   1      39.213  26.111  28.087  1.00  0.00     0.029 A 
ATOM     41  N   UNL A   1      41.387  26.443  28.476  1.00  0.00    -0.354 N 
ATOM     42  C   UNL A   1      42.905  30.306  29.643  1.00  0.00     0.074 A 
ATOM     43  C   UNL A   1      41.819  31.136  30.114  1.00  0.00     0.031 C 
ATOM     44  C   UNL A   1      39.826  24.923  27.972  1.00  0.00     0.029 A 
ATOM     45  C   UNL A   1      41.260  25.122  28.115  1.00  0.00     0.049 A 
ATOM     46  H   UNL A   1      42.246  26.857  28.719  1.00  0.00     0.167 HD
ATOM     47  C   UNL A   1      44.214  30.648  29.691  1.00  0.00     0.031 A 
ATOM     48  C   UNL A   1      42.194  24.192  27.845  1.00  0.00     0.031 A 
ATOM     49  C   UNL A   1      45.282  29.777  29.278  1.00  0.00     0.049 A 
ATOM     50  C   UNL A   1      43.638  24.599  27.858  1.00  0.00     0.074 A 
ATOM     51  C   UNL A   1      46.642  30.027  29.241  1.00  0.00     0.029 A 
ATOM     52  N   UNL A   1      45.103  28.467  28.861  1.00  0.00    -0.354 N 
ATOM     53  N   UNL A   1      44.165  25.755  28.181  1.00  0.00    -0.248 NA
ATOM     54  C   UNL A   1      44.609  23.589  27.419  1.00  0.00     0.031 C 
ATOM     55  C   UNL A   1      47.284  28.872  28.778  1.00  0.00     0.029 A 
ATOM     56  C   UNL A   1      46.326  27.894  28.565  1.00  0.00     0.049 A 
ATOM     57  H   UNL A   1      44.233  28.012  28.788  1.00  0.00     0.167 HD
ATOM     58  C   UNL A   1      45.529  25.617  27.975  1.00  0.00     0.074 A 
ATOM     59  C   UNL A   1      45.750  24.255  27.530  1.00  0.00     0.031 C 
ATOM     60  C   UNL A   1      46.512  26.538  28.121  1.00  0.00     0.031 A 
BRANCH  47  61
ATOM     61  C   UNL A   1      44.547  32.045  30.127  1.00  0.00    -0.014 A 
ATOM     62  C   UNL A   1      44.865  32.356  31.457  1.00  0.00     0.009 A 
ATOM     63  C   UNL A   1      44.543  33.075  29.171  1.00  0.00     0.009 A 
ATOM     64  C   UNL A   1      45.141  33.677  31.826  1.00  0.00     0.001 A 
ATOM     65  C   UNL A   1      44.843  34.388  29.537  1.00  0.00     0.001 A 
ATOM     66  C   UNL A   1      45.132  34.689  30.866  1.00  0.00     0.000 A 
ENDBRANCH  47  61
BRANCH  48  67
ATOM     67  C   UNL A   1      41.782  22.826  27.426  1.00  0.00    -0.014 A 
ATOM     68  C   UNL A   1      41.607  22.518  26.069  1.00  0.00     0.009 A 
ATOM     69  C   UNL A   1      41.582  21.816  28.381  1.00  0.00     0.009 A 
ATOM     70  C   UNL A   1      41.239  21.227  25.680  1.00  0.00     0.001 A 
ATOM     71  C   UNL A   1      41.248  20.519  27.988  1.00  0.00     0.001 A 
ATOM     72  C   UNL A   1      41.071  20.227  26.638  1.00  0.00     0.000 A 
ENDBRANCH  48  67
BRANCH  60  73
ATOM     73  C   UNL A   1      47.907  26.086  27.817  1.00  0.00    -0.014 A 
ATOM     74  C   UNL A   1      48.711  25.510  28.814  1.00  0.00     0.009 A 
ATOM     75  C   UNL A   1      48.413  26.216  26.516  1.00  0.00     0.009 A 
ATOM     76  C   UNL A   1      50.010  25.098  28.516  1.00  0.00     0.001 A 
ATOM     77  C   UNL A   1      49.705  25.784  26.217  1.00  0.00     0.001 A 
ATOM     78  C   UNL A   1      50.505  25.233  27.219  1.00  0.00     0.000 A 
ENDBRANCH  60  73
ENDBRANCH  34  35
ENDBRANCH  27  29
ENDBRANCH  26  27
ENDBRANCH  25  26
ENDBRANCH  24  25
ENDBRANCH   1  24
TORSDOF 17
ENDMDL
MODEL 2
REMARK VINA RESULT:      -9.4      3.745      6.777
REMARK SMILES CC[C@@H]1CCCC[C@@H]1OCC[C@@H]1CCC[C@]1([NH2+]C)C(=O)OCCOC(=O)c1ccc(-c2c3nc(c(-c4ccccc4)c4ccc([nH]4)c(-c4ccccc4)c4nc(c(-c5ccccc5)c5ccc2[nH]5)C=C4)C=C3)cc1
REMARK SMILES IDX 21 1 19 2 20 3 16 4 12 5 13 6 14 7 15 8 11 9 10 10 9 11 8 12
REMARK SMILES IDX 3 13 4 14 5 15 7 16 6 17 2 18 1 19 17 20 18 21 22 24 23 25
REMARK SMILES IDX 24 26 25 27 26 28 27 29 28 30 74 31 29 32 73 33 30 34 31 35
REMARK SMILES IDX 32 36 67 37 33 38 72 39 66 40 68 41 34 42 71 43 65 44 64 45
REMARK SMILES IDX 35 47 57 48 42 49 56 50 43 51 46 52 55 53 69 54 44 55 45 56
REMARK SMILES IDX 54 58 70 59 47 60 36 61 37 62 41 63 38 64 40 65 39 66 58 67
REMARK SMILES IDX 59 68 63 69 60 70 62 71 61 72 48 73 49 74 53 75 50 76 52 77
REMARK SMILES IDX 51 78
REMARK H PARENT 17 22 17 23 68 46 46 57
REMARK Flexibility Score: inf
ROOT
ATOM      1  O   UNL A   1      31.554  27.336  26.086  1.00  0.00    -0.457 OA
ENDROOT
BRANCH   1   2
ATOM      2  C   UNL A   1      32.478  27.216  25.089  1.00  0.00     0.368 C 
ATOM      3  O   UNL A   1      33.634  26.869  25.305  1.00  0.00    -0.245 OA
BRANCH   2   4
ATOM      4  C   UNL A   1      31.903  27.553  23.673  1.00  0.00     0.197 C 
ATOM      5  C   UNL A   1      32.265  26.472  22.589  1.00  0.00     0.065 C 
ATOM      6  C   UNL A   1      33.622  26.980  22.014  1.00  0.00     0.011 C 
ATOM      7  C   UNL A   1      33.749  28.461  22.330  1.00  0.00     0.008 C 
ATOM      8  C   UNL A   1      32.476  28.838  23.047  1.00  0.00     0.081 C 
BRANCH   5   9
ATOM      9  C   UNL A   1      32.388  24.918  22.813  1.00  0.00     0.039 C 
BRANCH   9  10
ATOM     10  C   UNL A   1      31.519  24.048  23.748  1.00  0.00     0.161 C 
BRANCH  10  11
ATOM     11  O   UNL A   1      32.158  23.020  24.516  1.00  0.00    -0.378 OA
BRANCH  11  12
ATOM     12  C   UNL A   1      33.195  23.540  25.339  1.00  0.00     0.121 C 
ATOM     13  C   UNL A   1      34.538  22.777  25.296  1.00  0.00     0.018 C 
ATOM     14  C   UNL A   1      34.571  21.577  26.248  1.00  0.00     0.006 C 
ATOM     15  C   UNL A   1      34.122  21.971  27.649  1.00  0.00     0.000 C 
ATOM     16  C   UNL A   1      32.613  23.735  26.747  1.00  0.00     0.032 C 
ATOM     17  C   UNL A   1      32.694  22.486  27.611  1.00  0.00     0.003 C 
BRANCH  13  18
ATOM     18  C   UNL A   1      34.988  22.349  23.884  1.00  0.00     0.003 C 
ATOM     19  C   UNL A   1      36.315  22.960  23.450  1.00  0.00     0.004 C 
ENDBRANCH  13  18
ENDBRANCH  11  12
ENDBRANCH  10  11
ENDBRANCH   9  10
ENDBRANCH   5   9
BRANCH   4  20
ATOM     20  N   UNL A   1      30.426  27.809  23.726  1.00  0.00    -0.334 N 
ATOM     21  C   UNL A   1      29.826  28.614  22.668  1.00  0.00     0.331 C 
ATOM     22  H   UNL A   1      30.232  28.279  24.610  1.00  0.00     0.347 HD
ATOM     23  H   UNL A   1      30.006  26.886  23.609  1.00  0.00     0.347 HD
ENDBRANCH   4  20
ENDBRANCH   2   4
ENDBRANCH   1   2
BRANCH   1  24
ATOM     24  C   UNL A   1      31.845  28.320  27.106  1.00  0.00     0.274 C 
BRANCH  24  25
ATOM     25  C   UNL A   1      31.711  29.737  26.563  1.00  0.00     0.275 C 
BRANCH  25  26
ATOM     26  O   UNL A   1      33.021  30.260  26.310  1.00  0.00    -0.458 OA
BRANCH  26  27
ATOM     27  C   UNL A   1      33.430  31.254  27.132  1.00  0.00     0.338 C 
ATOM     28  O   UNL A   1      32.776  32.199  27.537  1.00  0.00    -0.246 OA
BRANCH  27  29
ATOM     29  C   UNL A   1      34.808  30.978  27.583  1.00  0.00     0.060 A 
ATOM     30  C   UNL A   1      35.184  29.669  27.865  1.00  0.00     0.016 A 
ATOM     31  C   UNL A   1      35.673  32.024  27.895  1.00  0.00     0.016 A 
ATOM     32  C   UNL A   1      36.338  29.407  28.589  1.00  0.00     0.010 A 
ATOM     33  C   UNL A   1      36.903  31.743  28.501  1.00  0.00     0.010 A 
ATOM     34  C   UNL A   1      37.228  30.434  28.905  1.00  0.00    -0.014 A 
BRANCH  34  35
ATOM     35  C   UNL A   1      38.445  30.156  29.716  1.00  0.00     0.031 A 
ATOM     36  C   UNL A   1      39.592  29.406  29.094  1.00  0.00     0.074 A 
ATOM     37  C   UNL A   1      38.564  30.596  30.986  1.00  0.00     0.049 A 
ATOM     38  N   UNL A   1      40.573  28.768  29.676  1.00  0.00    -0.248 NA
ATOM     39  C   UNL A   1      39.626  29.351  27.623  1.00  0.00     0.031 C 
ATOM     40  C   UNL A   1      37.602  31.442  31.698  1.00  0.00     0.029 A 
ATOM     41  N   UNL A   1      39.567  30.401  31.904  1.00  0.00    -0.354 N 
ATOM     42  C   UNL A   1      41.276  28.146  28.650  1.00  0.00     0.074 A 
ATOM     43  C   UNL A   1      40.634  28.517  27.408  1.00  0.00     0.031 C 
ATOM     44  C   UNL A   1      38.091  31.746  32.910  1.00  0.00     0.029 A 
ATOM     45  C   UNL A   1      39.321  30.997  33.118  1.00  0.00     0.049 A 
ATOM     46  H   UNL A   1      40.381  29.883  31.711  1.00  0.00     0.167 HD
ATOM     47  C   UNL A   1      42.342  27.318  28.750  1.00  0.00     0.031 A 
ATOM     48  C   UNL A   1      39.965  30.891  34.295  1.00  0.00     0.031 A 
ATOM     49  C   UNL A   1      43.005  27.017  29.990  1.00  0.00     0.049 A 
ATOM     50  C   UNL A   1      41.115  29.934  34.401  1.00  0.00     0.074 A 
ATOM     51  C   UNL A   1      44.067  26.162  30.222  1.00  0.00     0.029 A 
ATOM     52  N   UNL A   1      42.684  27.599  31.207  1.00  0.00    -0.354 N 
ATOM     53  N   UNL A   1      41.670  29.206  33.462  1.00  0.00    -0.248 NA
ATOM     54  C   UNL A   1      41.693  29.747  35.737  1.00  0.00     0.031 C 
ATOM     55  C   UNL A   1      44.373  26.209  31.588  1.00  0.00     0.029 A 
ATOM     56  C   UNL A   1      43.527  27.123  32.195  1.00  0.00     0.049 A 
ATOM     57  H   UNL A   1      41.964  28.254  31.347  1.00  0.00     0.167 HD
ATOM     58  C   UNL A   1      42.655  28.465  34.095  1.00  0.00     0.074 A 
ATOM     59  C   UNL A   1      42.644  28.857  35.491  1.00  0.00     0.031 C 
ATOM     60  C   UNL A   1      43.486  27.529  33.575  1.00  0.00     0.031 A 
BRANCH  47  61
ATOM     61  C   UNL A   1      42.794  26.620  27.500  1.00  0.00    -0.014 A 
ATOM     62  C   UNL A   1      43.792  27.150  26.669  1.00  0.00     0.009 A 
ATOM     63  C   UNL A   1      42.199  25.396  27.152  1.00  0.00     0.009 A 
ATOM     64  C   UNL A   1      44.163  26.481  25.499  1.00  0.00     0.001 A 
ATOM     65  C   UNL A   1      42.588  24.718  25.995  1.00  0.00     0.001 A 
ATOM     66  C   UNL A   1      43.563  25.266  25.165  1.00  0.00     0.000 A 
ENDBRANCH  47  61
BRANCH  48  67
ATOM     67  C   UNL A   1      39.457  31.621  35.486  1.00  0.00    -0.014 A 
ATOM     68  C   UNL A   1      38.379  31.116  36.228  1.00  0.00     0.009 A 
ATOM     69  C   UNL A   1      40.064  32.817  35.904  1.00  0.00     0.009 A 
ATOM     70  C   UNL A   1      37.919  31.796  37.359  1.00  0.00     0.001 A 
ATOM     71  C   UNL A   1      39.624  33.477  37.052  1.00  0.00     0.001 A 
ATOM     72  C   UNL A   1      38.549  32.969  37.776  1.00  0.00     0.000 A 
ENDBRANCH  48  67
BRANCH  60  73
ATOM     73  C   UNL A   1      44.456  26.891  34.521  1.00  0.00    -0.014 A 
ATOM     74  C   UNL A   1      45.715  27.465  34.758  1.00  0.00     0.009 A 
ATOM     75  C   UNL A   1      44.097  25.718  35.200  1.00  0.00     0.009 A 
ATOM     76  C   UNL A   1      46.609  26.856  35.639  1.00  0.00     0.001 A 
ATOM     77  C   UNL A   1      44.986  25.123  36.096  1.00  0.00     0.001 A 
ATOM     78  C   UNL A   1      46.243  25.688  36.308  1.00  0.00     0.000 A 
ENDBRANCH  60  73
ENDBRANCH  34  35
ENDBRANCH  27  29
ENDBRANCH  26  27
ENDBRANCH  25  26
ENDBRANCH  24  25
ENDBRANCH   1  24
TORSDOF 17
ENDMDL
MODEL 3
REMARK VINA RESULT:      -9.3      3.470      8.817
REMARK SMILES CC[C@@H]1CCCC[C@@H]1OCC[C@@H]1CCC[C@]1([NH2+]C)C(=O)OCCOC(=O)c1ccc(-c2c3nc(c(-c4ccccc4)c4ccc([nH]4)c(-c4ccccc4)c4nc(c(-c5ccccc5)c5ccc2[nH]5)C=C4)C=C3)cc1
REMARK SMILES IDX 21 1 19 2 20 3 16 4 12 5 13 6 14 7 15 8 11 9 10 10 9 11 8 12
REMARK SMILES IDX 3 13 4 14 5 15 7 16 6 17 2 18 1 19 17 20 18 21 22 24 23 25
REMARK SMILES IDX 24 26 25 27 26 28 27 29 28 30 74 31 29 32 73 33 30 34 31 35
REMARK SMILES IDX 32 36 67 37 33 38 72 39 66 40 68 41 34 42 71 43 65 44 64 45
REMARK SMILES IDX 35 47 57 48 42 49 56 50 43 51 46 52 55 53 69 54 44 55 45 56
REMARK SMILES IDX 54 58 70 59 47 60 36 61 37 62 41 63 38 64 40 65 39 66 58 67
REMARK SMILES IDX 59 68 63 69 60 70 62 71 61 72 48 73 49 74 53 75 50 76 52 77
REMARK SMILES IDX 51 78
REMARK H PARENT 17 22 17 23 68 46 46 57
REMARK Flexibility Score: inf
ROOT
ATOM      1  O   UNL A   1      36.238  21.856  24.697  1.00  0.00    -0.457 OA
ENDROOT
BRANCH   1   2
ATOM      2  C   UNL A   1      35.412  22.629  25.460  1.00  0.00     0.368 C 
ATOM      3  O   UNL A   1      35.827  23.568  26.130  1.00  0.00    -0.245 OA
BRANCH   2   4
ATOM      4  C   UNL A   1      33.911  22.194  25.376  1.00  0.00     0.197 C 
ATOM      5  C   UNL A   1      32.936  23.400  25.112  1.00  0.00     0.065 C 
ATOM      6  C   UNL A   1      32.576  23.893  26.547  1.00  0.00     0.011 C 
ATOM      7  C   UNL A   1      32.862  22.764  27.523  1.00  0.00     0.008 C 
ATOM      8  C   UNL A   1      33.348  21.608  26.684  1.00  0.00     0.081 C 
BRANCH   5   9
ATOM      9  C   UNL A   1      33.226  24.669  24.225  1.00  0.00     0.039 C 
BRANCH   9  10
ATOM     10  C   UNL A   1      34.098  25.884  24.609  1.00  0.00     0.161 C 
BRANCH  10  11
ATOM     11  O   UNL A   1      33.515  27.192  24.546  1.00  0.00    -0.378 OA
BRANCH  11  12
ATOM     12  C   UNL A   1      32.612  27.423  25.620  1.00  0.00     0.121 C 
ATOM     13  C   UNL A   1      31.363  28.267  25.282  1.00  0.00     0.018 C 
ATOM     14  C   UNL A   1      31.625  29.774  25.361  1.00  0.00     0.006 C 
ATOM     15  C   UNL A   1      32.297  30.151  26.676  1.00  0.00     0.000 C 
ATOM     16  C   UNL A   1      33.433  27.938  26.811  1.00  0.00     0.032 C 
ATOM     17  C   UNL A   1      33.636  29.446  26.795  1.00  0.00     0.003 C 
BRANCH  13  18
ATOM     18  C   UNL A   1      30.692  27.913  23.940  1.00  0.00     0.003 C 
ATOM     19  C   UNL A   1      29.870  29.049  23.344  1.00  0.00     0.004 C 
ENDBRANCH  13  18
ENDBRANCH  11  12
ENDBRANCH  10  11
ENDBRANCH   9  10
ENDBRANCH   5   9
BRANCH   4  20
ATOM     20  N   UNL A   1      33.712  21.094  24.376  1.00  0.00    -0.334 N 
ATOM     21  C   UNL A   1      33.114  19.844  24.833  1.00  0.00     0.331 C 
ATOM     22  H   UNL A   1      34.629  20.866  23.991  1.00  0.00     0.347 HD
ATOM     23  H   UNL A   1      33.032  21.473  23.717  1.00  0.00     0.347 HD
ENDBRANCH   4  20
ENDBRANCH   2   4
ENDBRANCH   1   2
BRANCH   1  24
ATOM     24  C   UNL A   1      37.120  20.964  25.419  1.00  0.00     0.274 C 
BRANCH  24  25
ATOM     25  C   UNL A   1      38.566  21.439  25.352  1.00  0.00     0.275 C 
BRANCH  25  26
ATOM     26  O   UNL A   1      38.836  22.257  26.498  1.00  0.00    -0.458 OA
BRANCH  26  27
ATOM     27  C   UNL A   1      40.014  22.921  26.485  1.00  0.00     0.338 C 
ATOM     28  O   UNL A   1      41.072  22.548  26.009  1.00  0.00    -0.246 OA
BRANCH  27  29
ATOM     29  C   UNL A   1      39.822  24.269  27.057  1.00  0.00     0.060 A 
ATOM     30  C   UNL A   1      40.499  25.348  26.501  1.00  0.00     0.016 A 
ATOM     31  C   UNL A   1      39.115  24.438  28.244  1.00  0.00     0.016 A 
ATOM     32  C   UNL A   1      40.604  26.547  27.192  1.00  0.00     0.010 A 
ATOM     33  C   UNL A   1      39.107  25.691  28.868  1.00  0.00     0.010 A 
ATOM     34  C   UNL A   1      39.897  26.748  28.377  1.00  0.00    -0.014 A 
BRANCH  34  35
ATOM     35  C   UNL A   1      40.044  28.020  29.137  1.00  0.00     0.031 A 
ATOM     36  C   UNL A   1      41.250  28.223  30.013  1.00  0.00     0.074 A 
ATOM     37  C   UNL A   1      39.141  29.017  29.027  1.00  0.00     0.049 A 
ATOM     38  N   UNL A   1      41.423  29.064  30.998  1.00  0.00    -0.248 NA
ATOM     39  C   UNL A   1      42.407  27.347  29.759  1.00  0.00     0.031 C 
ATOM     40  C   UNL A   1      37.983  29.036  28.129  1.00  0.00     0.029 A 
ATOM     41  N   UNL A   1      39.070  30.227  29.675  1.00  0.00    -0.354 N 
ATOM     42  C   UNL A   1      42.659  28.746  31.550  1.00  0.00     0.074 A 
ATOM     43  C   UNL A   1      43.210  27.663  30.765  1.00  0.00     0.031 C 
ATOM     44  C   UNL A   1      37.361  30.220  28.233  1.00  0.00     0.029 A 
ATOM     45  C   UNL A   1      37.980  30.980  29.309  1.00  0.00     0.049 A 
ATOM     46  H   UNL A   1      39.735  30.524  30.336  1.00  0.00     0.167 HD
ATOM     47  C   UNL A   1      43.256  29.295  32.634  1.00  0.00     0.031 A 
ATOM     48  C   UNL A   1      37.480  32.114  29.832  1.00  0.00     0.031 A 
ATOM     49  C   UNL A   1      42.720  30.415  33.359  1.00  0.00     0.049 A 
ATOM     50  C   UNL A   1      38.126  32.683  31.060  1.00  0.00     0.074 A 
ATOM     51  C   UNL A   1      43.214  31.031  34.495  1.00  0.00     0.029 A 
ATOM     52  N   UNL A   1      41.579  31.110  32.988  1.00  0.00    -0.354 N 
ATOM     53  N   UNL A   1      39.201  32.275  31.690  1.00  0.00    -0.248 NA
ATOM     54  C   UNL A   1      37.462  33.839  31.677  1.00  0.00     0.031 C 
ATOM     55  C   UNL A   1      42.354  32.086  34.825  1.00  0.00     0.029 A 
ATOM     56  C   UNL A   1      41.351  32.149  33.871  1.00  0.00     0.049 A 
ATOM     57  H   UNL A   1      41.016  30.896  32.210  1.00  0.00     0.167 HD
ATOM     58  C   UNL A   1      39.336  33.114  32.786  1.00  0.00     0.074 A 
ATOM     59  C   UNL A   1      38.253  34.076  32.714  1.00  0.00     0.031 C 
ATOM     60  C   UNL A   1      40.262  33.085  33.775  1.00  0.00     0.031 A 
BRANCH  47  61
ATOM     61  C   UNL A   1      44.506  28.635  33.141  1.00  0.00    -0.014 A 
ATOM     62  C   UNL A   1      44.470  27.570  34.053  1.00  0.00     0.009 A 
ATOM     63  C   UNL A   1      45.752  29.098  32.686  1.00  0.00     0.009 A 
ATOM     64  C   UNL A   1      45.660  27.003  34.521  1.00  0.00     0.001 A 
ATOM     65  C   UNL A   1      46.937  28.515  33.136  1.00  0.00     0.001 A 
ATOM     66  C   UNL A   1      46.890  27.474  34.061  1.00  0.00     0.000 A 
ENDBRANCH  47  61
BRANCH  48  67
ATOM     67  C   UNL A   1      36.241  32.709  29.267  1.00  0.00    -0.014 A 
ATOM     68  C   UNL A   1      36.300  33.873  28.485  1.00  0.00     0.009 A 
ATOM     69  C   UNL A   1      34.993  32.103  29.486  1.00  0.00     0.009 A 
ATOM     70  C   UNL A   1      35.134  34.416  27.939  1.00  0.00     0.001 A 
ATOM     71  C   UNL A   1      33.834  32.629  28.912  1.00  0.00     0.001 A 
ATOM     72  C   UNL A   1      33.905  33.788  28.143  1.00  0.00     0.000 A 
ENDBRANCH  48  67
BRANCH  60  73
ATOM     73  C   UNL A   1      40.146  34.136  34.835  1.00  0.00    -0.014 A 
ATOM     74  C   UNL A   1      39.435  33.888  36.020  1.00  0.00     0.009 A 
ATOM     75  C   UNL A   1      40.774  35.377  34.657  1.00  0.00     0.009 A 
ATOM     76  C   UNL A   1      39.333  34.880  36.996  1.00  0.00     0.001 A 
ATOM     77  C   UNL A   1      40.687  36.359  35.644  1.00  0.00     0.001 A 
ATOM     78  C   UNL A   1      39.960  36.112  36.809  1.00  0.00     0.000 A 
ENDBRANCH  60  73
ENDBRANCH  34  35
ENDBRANCH  27  29
ENDBRANCH  26  27
ENDBRANCH  25  26
ENDBRANCH  24  25
ENDBRANCH   1  24
TORSDOF 17
ENDMDL
