MODEL 1
REMARK VINA RESULT:      -9.5      0.000      0.000
REMARK SMILES COCCN(CC(C)C)C(=O)N1CC[C@@H](C(=O)OCCOC(=O)c2ccc(-c3c4nc(c(-c5ccccc5)c5ccc([nH]5)c(-c5ccccc5)c5nc(c(-c6ccccc6)c6ccc3[nH]6)C=C5)C=C4)cc2)[C@H]1C
REMARK SMILES IDX 18 1 16 2 17 3 15 4 12 5 13 6 72 7 14 8 73 9 10 10 11 11
REMARK SMILES IDX 5 12 4 13 3 14 2 15 1 16 6 17 7 18 8 19 9 20 19 21 20 22
REMARK SMILES IDX 21 23 22 24 23 25 24 26 25 27 71 28 26 29 70 30 27 31 28 32
REMARK SMILES IDX 29 33 64 34 30 35 69 36 63 37 65 38 31 39 68 40 62 41 61 42
REMARK SMILES IDX 32 44 54 45 39 46 53 47 40 48 43 49 52 50 66 51 41 52 42 53
REMARK SMILES IDX 51 55 67 56 44 57 33 58 34 59 38 60 35 61 37 62 36 63 55 64
REMARK SMILES IDX 56 65 60 66 57 67 59 68 58 69 45 70 46 71 50 72 47 73 49 74
REMARK SMILES IDX 48 75
REMARK H PARENT 65 43 43 54
REMARK Flexibility Score: inf
ROOT
ATOM      1  O   UNL A   1      36.266  21.088  25.612  1.00  0.00    -0.462 OA
ENDROOT
BRANCH   1   2
ATOM      2  C   UNL A   1      35.069  20.601  25.220  1.00  0.00     0.311 C 
ATOM      3  O   UNL A   1      34.903  19.519  24.672  1.00  0.00    -0.252 OA
BRANCH   2   4
ATOM      4  C   UNL A   1      33.916  21.516  25.565  1.00  0.00     0.123 C 
ATOM      5  N   UNL A   1      32.416  23.291  25.304  1.00  0.00    -0.321 N 
ATOM      6  C   UNL A   1      31.629  22.080  25.570  1.00  0.00     0.122 C 
ATOM      7  C   UNL A   1      33.779  22.896  24.889  1.00  0.00     0.098 C 
ATOM      8  C   UNL A   1      32.550  20.899  25.297  1.00  0.00     0.039 C 
ATOM      9  C   UNL A   1      33.909  22.832  23.358  1.00  0.00     0.032 C 
BRANCH   5  10
ATOM     10  C   UNL A   1      32.115  24.402  26.084  1.00  0.00     0.320 C 
ATOM     11  O   UNL A   1      31.671  24.243  27.225  1.00  0.00    -0.248 OA
BRANCH  10  12
ATOM     12  N   UNL A   1      32.149  25.668  25.516  1.00  0.00    -0.322 N 
BRANCH  12  13
ATOM     13  C   UNL A   1      31.116  25.964  24.506  1.00  0.00     0.149 C 
BRANCH  13  14
ATOM     14  C   UNL A   1      31.688  26.653  23.246  1.00  0.00     0.181 C 
BRANCH  14  15
ATOM     15  O   UNL A   1      31.512  25.873  22.062  1.00  0.00    -0.383 OA
ATOM     16  C   UNL A   1      32.706  25.654  21.326  1.00  0.00     0.194 C 
ENDBRANCH  14  15
ENDBRANCH  13  14
ENDBRANCH  12  13
BRANCH  12  17
ATOM     17  C   UNL A   1      33.166  26.700  25.687  1.00  0.00     0.124 C 
BRANCH  17  18
ATOM     18  C   UNL A   1      32.676  28.020  26.332  1.00  0.00     0.002 C 
ATOM     19  C   UNL A   1      31.661  27.856  27.466  1.00  0.00     0.009 C 
ATOM     20  C   UNL A   1      33.878  28.846  26.808  1.00  0.00     0.009 C 
ENDBRANCH  17  18
ENDBRANCH  12  17
ENDBRANCH  10  12
ENDBRANCH   5  10
ENDBRANCH   2   4
ENDBRANCH   1   2
BRANCH   1  21
ATOM     21  C   UNL A   1      37.404  20.858  24.762  1.00  0.00     0.274 C 
BRANCH  21  22
ATOM     22  C   UNL A   1      38.682  21.071  25.574  1.00  0.00     0.275 C 
BRANCH  22  23
ATOM     23  O   UNL A   1      39.259  19.806  25.958  1.00  0.00    -0.458 OA
BRANCH  23  24
ATOM     24  C   UNL A   1      40.609  19.780  26.031  1.00  0.00     0.338 C 
ATOM     25  O   UNL A   1      41.356  18.912  25.597  1.00  0.00    -0.246 OA
BRANCH  24  26
ATOM     26  C   UNL A   1      41.093  21.057  26.578  1.00  0.00     0.060 A 
ATOM     27  C   UNL A   1      41.593  22.010  25.685  1.00  0.00     0.016 A 
ATOM     28  C   UNL A   1      41.074  21.315  27.950  1.00  0.00     0.016 A 
ATOM     29  C   UNL A   1      42.051  23.237  26.155  1.00  0.00     0.010 A 
ATOM     30  C   UNL A   1      41.545  22.545  28.422  1.00  0.00     0.010 A 
ATOM     31  C   UNL A   1      42.031  23.514  27.526  1.00  0.00    -0.014 A 
BRANCH  31  32
ATOM     32  C   UNL A   1      42.537  24.815  28.022  1.00  0.00     0.031 A 
ATOM     33  C   UNL A   1      41.575  25.910  28.374  1.00  0.00     0.074 A 
ATOM     34  C   UNL A   1      43.863  25.005  28.158  1.00  0.00     0.049 A 
ATOM     35  N   UNL A   1      41.827  27.134  28.765  1.00  0.00    -0.248 NA
ATOM     36  C   UNL A   1      40.144  25.591  28.269  1.00  0.00     0.031 C 
ATOM     37  C   UNL A   1      44.894  24.005  27.879  1.00  0.00     0.029 A 
ATOM     38  N   UNL A   1      44.567  26.111  28.562  1.00  0.00    -0.354 N 
ATOM     39  C   UNL A   1      40.587  27.737  28.933  1.00  0.00     0.074 A 
ATOM     40  C   UNL A   1      39.585  26.749  28.592  1.00  0.00     0.031 C 
ATOM     41  C   UNL A   1      46.101  24.546  28.112  1.00  0.00     0.029 A 
ATOM     42  C   UNL A   1      45.928  25.937  28.521  1.00  0.00     0.049 A 
ATOM     43  H   UNL A   1      44.138  26.948  28.851  1.00  0.00     0.167 HD
ATOM     44  C   UNL A   1      40.313  29.000  29.335  1.00  0.00     0.031 A 
ATOM     45  C   UNL A   1      46.926  26.810  28.760  1.00  0.00     0.031 A 
ATOM     46  C   UNL A   1      41.310  29.978  29.682  1.00  0.00     0.049 A 
ATOM     47  C   UNL A   1      46.591  28.218  29.164  1.00  0.00     0.074 A 
ATOM     48  C   UNL A   1      41.124  31.274  30.133  1.00  0.00     0.029 A 
ATOM     49  N   UNL A   1      42.677  29.769  29.615  1.00  0.00    -0.354 N 
ATOM     50  N   UNL A   1      45.414  28.768  29.346  1.00  0.00    -0.248 NA
ATOM     51  C   UNL A   1      47.722  29.127  29.398  1.00  0.00     0.031 C 
ATOM     52  C   UNL A   1      42.381  31.866  30.291  1.00  0.00     0.029 A 
ATOM     53  C   UNL A   1      43.348  30.922  29.986  1.00  0.00     0.049 A 
ATOM     54  H   UNL A   1      43.108  28.927  29.344  1.00  0.00     0.167 HD
ATOM     55  C   UNL A   1      45.663  30.078  29.733  1.00  0.00     0.074 A 
ATOM     56  C   UNL A   1      47.103  30.237  29.778  1.00  0.00     0.031 C 
ATOM     57  C   UNL A   1      44.780  31.063  30.024  1.00  0.00     0.031 A 
BRANCH  44  58
ATOM     58  C   UNL A   1      38.870  29.415  29.383  1.00  0.00    -0.014 A 
ATOM     59  C   UNL A   1      38.252  30.037  28.288  1.00  0.00     0.009 A 
ATOM     60  C   UNL A   1      38.108  29.128  30.526  1.00  0.00     0.009 A 
ATOM     61  C   UNL A   1      36.900  30.386  28.349  1.00  0.00     0.001 A 
ATOM     62  C   UNL A   1      36.752  29.457  30.574  1.00  0.00     0.001 A 
ATOM     63  C   UNL A   1      36.151  30.091  29.488  1.00  0.00     0.000 A 
ENDBRANCH  44  58
BRANCH  45  64
ATOM     64  C   UNL A   1      48.340  26.390  28.587  1.00  0.00    -0.014 A 
ATOM     65  C   UNL A   1      48.976  26.497  27.342  1.00  0.00     0.009 A 
ATOM     66  C   UNL A   1      49.056  25.857  29.672  1.00  0.00     0.009 A 
ATOM     67  C   UNL A   1      50.290  26.055  27.179  1.00  0.00     0.001 A 
ATOM     68  C   UNL A   1      50.379  25.443  29.514  1.00  0.00     0.001 A 
ATOM     69  C   UNL A   1      50.992  25.533  28.265  1.00  0.00     0.000 A 
ENDBRANCH  45  64
BRANCH  57  70
ATOM     70  C   UNL A   1      45.346  32.389  30.440  1.00  0.00    -0.014 A 
ATOM     71  C   UNL A   1      45.634  32.666  31.786  1.00  0.00     0.009 A 
ATOM     72  C   UNL A   1      45.628  33.363  29.468  1.00  0.00     0.009 A 
ATOM     73  C   UNL A   1      46.164  33.904  32.153  1.00  0.00     0.001 A 
ATOM     74  C   UNL A   1      46.181  34.590  29.835  1.00  0.00     0.001 A 
ATOM     75  C   UNL A   1      46.441  34.862  31.177  1.00  0.00     0.000 A 
ENDBRANCH  57  70
ENDBRANCH  31  32
ENDBRANCH  24  26
ENDBRANCH  23  24
ENDBRANCH  22  23
ENDBRANCH  21  22
ENDBRANCH   1  21
TORSDOF 18
ENDMDL
MODEL 2
REMARK VINA RESULT:      -9.4      2.039      7.390
REMARK SMILES COCCN(CC(C)C)C(=O)N1CC[C@@H](C(=O)OCCOC(=O)c2ccc(-c3c4nc(c(-c5ccccc5)c5ccc([nH]5)c(-c5ccccc5)c5nc(c(-c6ccccc6)c6ccc3[nH]6)C=C5)C=C4)cc2)[C@H]1C
REMARK SMILES IDX 18 1 16 2 17 3 15 4 12 5 13 6 72 7 14 8 73 9 10 10 11 11
REMARK SMILES IDX 5 12 4 13 3 14 2 15 1 16 6 17 7 18 8 19 9 20 19 21 20 22
REMARK SMILES IDX 21 23 22 24 23 25 24 26 25 27 71 28 26 29 70 30 27 31 28 32
REMARK SMILES IDX 29 33 64 34 30 35 69 36 63 37 65 38 31 39 68 40 62 41 61 42
REMARK SMILES IDX 32 44 54 45 39 46 53 47 40 48 43 49 52 50 66 51 41 52 42 53
REMARK SMILES IDX 51 55 67 56 44 57 33 58 34 59 38 60 35 61 37 62 36 63 55 64
REMARK SMILES IDX 56 65 60 66 57 67 59 68 58 69 45 70 46 71 50 72 47 73 49 74
REMARK SMILES IDX 48 75
REMARK H PARENT 65 43 43 54
REMARK Flexibility Score: inf
ROOT
ATOM      1  O   UNL A   1      32.802  28.194  25.899  1.00  0.00    -0.462 OA
ENDROOT
BRANCH   1   2
ATOM      2  C   UNL A   1      32.122  27.242  26.574  1.00  0.00     0.311 C 
ATOM      3  O   UNL A   1      31.103  27.442  27.224  1.00  0.00    -0.252 OA
BRANCH   2   4
ATOM      4  C   UNL A   1      32.720  25.863  26.417  1.00  0.00     0.123 C 
ATOM      5  N   UNL A   1      32.751  23.548  26.086  1.00  0.00    -0.321 N 
ATOM      6  C   UNL A   1      33.696  24.146  25.132  1.00  0.00     0.122 C 
ATOM      7  C   UNL A   1      31.847  24.604  26.590  1.00  0.00     0.098 C 
ATOM      8  C   UNL A   1      33.345  25.625  25.049  1.00  0.00     0.039 C 
ATOM      9  C   UNL A   1      30.539  24.662  25.783  1.00  0.00     0.032 C 
BRANCH   5  10
ATOM     10  C   UNL A   1      33.233  22.487  26.844  1.00  0.00     0.320 C 
ATOM     11  O   UNL A   1      32.969  22.429  28.048  1.00  0.00    -0.248 OA
BRANCH  10  12
ATOM     12  N   UNL A   1      34.148  21.605  26.285  1.00  0.00    -0.322 N 
BRANCH  12  13
ATOM     13  C   UNL A   1      33.654  20.249  25.982  1.00  0.00     0.149 C 
BRANCH  13  14
ATOM     14  C   UNL A   1      32.498  20.245  24.955  1.00  0.00     0.181 C 
BRANCH  14  15
ATOM     15  O   UNL A   1      32.109  18.927  24.567  1.00  0.00    -0.383 OA
ATOM     16  C   UNL A   1      32.577  17.903  25.431  1.00  0.00     0.194 C 
ENDBRANCH  14  15
ENDBRANCH  13  14
ENDBRANCH  12  13
BRANCH  12  17
ATOM     17  C   UNL A   1      35.580  21.804  26.088  1.00  0.00     0.124 C 
BRANCH  17  18
ATOM     18  C   UNL A   1      36.138  21.332  24.723  1.00  0.00     0.002 C 
ATOM     19  C   UNL A   1      36.545  22.450  23.761  1.00  0.00     0.009 C 
ATOM     20  C   UNL A   1      37.310  20.366  24.945  1.00  0.00     0.009 C 
ENDBRANCH  17  18
ENDBRANCH  12  17
ENDBRANCH  10  12
ENDBRANCH   5  10
ENDBRANCH   2   4
ENDBRANCH   1   2
BRANCH   1  21
ATOM     21  C   UNL A   1      32.163  29.467  25.692  1.00  0.00     0.274 C 
BRANCH  21  22
ATOM     22  C   UNL A   1      32.727  30.474  26.695  1.00  0.00     0.275 C 
BRANCH  22  23
ATOM     23  O   UNL A   1      33.958  29.988  27.267  1.00  0.00    -0.458 OA
BRANCH  23  24
ATOM     24  C   UNL A   1      34.583  30.838  28.114  1.00  0.00     0.338 C 
ATOM     25  O   UNL A   1      34.100  31.815  28.670  1.00  0.00    -0.246 OA
BRANCH  24  26
ATOM     26  C   UNL A   1      35.928  30.322  28.417  1.00  0.00     0.060 A 
ATOM     27  C   UNL A   1      36.906  30.408  27.422  1.00  0.00     0.016 A 
ATOM     28  C   UNL A   1      36.224  29.745  29.653  1.00  0.00     0.016 A 
ATOM     29  C   UNL A   1      38.195  29.943  27.666  1.00  0.00     0.010 A 
ATOM     30  C   UNL A   1      37.517  29.268  29.893  1.00  0.00     0.010 A 
ATOM     31  C   UNL A   1      38.510  29.369  28.903  1.00  0.00    -0.014 A 
BRANCH  31  32
ATOM     32  C   UNL A   1      39.879  28.860  29.151  1.00  0.00     0.031 A 
ATOM     33  C   UNL A   1      40.910  29.751  29.778  1.00  0.00     0.074 A 
ATOM     34  C   UNL A   1      40.189  27.594  28.815  1.00  0.00     0.049 A 
ATOM     35  N   UNL A   1      42.174  29.507  30.017  1.00  0.00    -0.248 NA
ATOM     36  C   UNL A   1      40.465  31.092  30.184  1.00  0.00     0.031 C 
ATOM     37  C   UNL A   1      39.263  26.624  28.229  1.00  0.00     0.029 A 
ATOM     38  N   UNL A   1      41.374  26.911  28.913  1.00  0.00    -0.354 N 
ATOM     39  C   UNL A   1      42.680  30.669  30.583  1.00  0.00     0.074 A 
ATOM     40  C   UNL A   1      41.591  31.623  30.642  1.00  0.00     0.031 C 
ATOM     41  C   UNL A   1      39.918  25.471  28.013  1.00  0.00     0.029 A 
ATOM     42  C   UNL A   1      41.314  25.635  28.411  1.00  0.00     0.049 A 
ATOM     43  H   UNL A   1      42.189  27.299  29.305  1.00  0.00     0.167 HD
ATOM     44  C   UNL A   1      43.939  30.918  31.013  1.00  0.00     0.031 A 
ATOM     45  C   UNL A   1      42.282  24.710  28.262  1.00  0.00     0.031 A 
ATOM     46  C   UNL A   1      45.018  29.967  30.963  1.00  0.00     0.049 A 
ATOM     47  C   UNL A   1      43.680  25.029  28.710  1.00  0.00     0.074 A 
ATOM     48  C   UNL A   1      46.321  30.119  31.408  1.00  0.00     0.029 A 
ATOM     49  N   UNL A   1      44.922  28.691  30.435  1.00  0.00    -0.354 N 
ATOM     50  N   UNL A   1      44.139  26.123  29.269  1.00  0.00    -0.248 NA
ATOM     51  C   UNL A   1      44.694  23.984  28.510  1.00  0.00     0.031 C 
ATOM     52  C   UNL A   1      47.025  28.951  31.102  1.00  0.00     0.029 A 
ATOM     53  C   UNL A   1      46.149  28.055  30.513  1.00  0.00     0.049 A 
ATOM     54  H   UNL A   1      44.102  28.295  30.059  1.00  0.00     0.167 HD
ATOM     55  C   UNL A   1      45.488  25.891  29.504  1.00  0.00     0.074 A 
ATOM     56  C   UNL A   1      45.770  24.546  29.043  1.00  0.00     0.031 C 
ATOM     57  C   UNL A   1      46.412  26.718  30.049  1.00  0.00     0.031 A 
BRANCH  44  58
ATOM     58  C   UNL A   1      44.233  32.292  31.543  1.00  0.00    -0.014 A 
ATOM     59  C   UNL A   1      44.126  32.587  32.911  1.00  0.00     0.009 A 
ATOM     60  C   UNL A   1      44.676  33.291  30.663  1.00  0.00     0.009 A 
ATOM     61  C   UNL A   1      44.435  33.865  33.381  1.00  0.00     0.001 A 
ATOM     62  C   UNL A   1      45.006  34.561  31.139  1.00  0.00     0.001 A 
ATOM     63  C   UNL A   1      44.879  34.849  32.497  1.00  0.00     0.000 A 
ENDBRANCH  44  58
BRANCH  45  64
ATOM     64  C   UNL A   1      41.971  23.404  27.625  1.00  0.00    -0.014 A 
ATOM     65  C   UNL A   1      41.421  22.352  28.371  1.00  0.00     0.009 A 
ATOM     66  C   UNL A   1      42.247  23.201  26.263  1.00  0.00     0.009 A 
ATOM     67  C   UNL A   1      41.177  21.113  27.773  1.00  0.00     0.001 A 
ATOM     68  C   UNL A   1      41.975  21.971  25.661  1.00  0.00     0.001 A 
ATOM     69  C   UNL A   1      41.450  20.926  26.418  1.00  0.00     0.000 A 
ENDBRANCH  45  64
BRANCH  57  70
ATOM     70  C   UNL A   1      47.806  26.182  30.201  1.00  0.00    -0.014 A 
ATOM     71  C   UNL A   1      48.277  25.725  31.442  1.00  0.00     0.009 A 
ATOM     72  C   UNL A   1      48.647  26.101  29.080  1.00  0.00     0.009 A 
ATOM     73  C   UNL A   1      49.576  25.226  31.562  1.00  0.00     0.001 A 
ATOM     74  C   UNL A   1      49.935  25.578  29.198  1.00  0.00     0.001 A 
ATOM     75  C   UNL A   1      50.401  25.149  30.439  1.00  0.00     0.000 A 
ENDBRANCH  57  70
ENDBRANCH  31  32
ENDBRANCH  24  26
ENDBRANCH  23  24
ENDBRANCH  22  23
ENDBRANCH  21  22
ENDBRANCH   1  21
TORSDOF 18
ENDMDL
MODEL 3
REMARK VINA RESULT:      -9.3      4.158      8.659
REMARK SMILES COCCN(CC(C)C)C(=O)N1CC[C@@H](C(=O)OCCOC(=O)c2ccc(-c3c4nc(c(-c5ccccc5)c5ccc([nH]5)c(-c5ccccc5)c5nc(c(-c6ccccc6)c6ccc3[nH]6)C=C5)C=C4)cc2)[C@H]1C
REMARK SMILES IDX 18 1 16 2 17 3 15 4 12 5 13 6 72 7 14 8 73 9 10 10 11 11
REMARK SMILES IDX 5 12 4 13 3 14 2 15 1 16 6 17 7 18 8 19 9 20 19 21 20 22
REMARK SMILES IDX 21 23 22 24 23 25 24 26 25 27 71 28 26 29 70 30 27 31 28 32
REMARK SMILES IDX 29 33 64 34 30 35 69 36 63 37 65 38 31 39 68 40 62 41 61 42
REMARK SMILES IDX 32 44 54 45 39 46 53 47 40 48 43 49 52 50 66 51 41 52 42 53
REMARK SMILES IDX 51 55 67 56 44 57 33 58 34 59 38 60 35 61 37 62 36 63 55 64
REMARK SMILES IDX 56 65 60 66 57 67 59 68 58 69 45 70 46 71 50 72 47 73 49 74
REMARK SMILES IDX 48 75
REMARK H PARENT 65 43 43 54
REMARK Flexibility Score: inf
ROOT
ATOM      1  O   UNL A   1      32.681  30.455  26.113  1.00  0.00    -0.462 OA
ENDROOT
BRANCH   1   2
ATOM      2  C   UNL A   1      33.431  29.351  26.319  1.00  0.00     0.311 C 
ATOM      3  O   UNL A   1      34.029  29.098  27.358  1.00  0.00    -0.252 OA
BRANCH   2   4
ATOM      4  C   UNL A   1      33.431  28.406  25.139  1.00  0.00     0.123 C 
ATOM      5  N   UNL A   1      32.812  26.548  23.861  1.00  0.00    -0.321 N 
ATOM      6  C   UNL A   1      32.698  27.735  23.003  1.00  0.00     0.122 C 
ATOM      7  C   UNL A   1      32.858  26.980  25.274  1.00  0.00     0.098 C 
ATOM      8  C   UNL A   1      32.665  28.938  23.935  1.00  0.00     0.039 C 
ATOM      9  C   UNL A   1      31.463  26.951  25.922  1.00  0.00     0.032 C 
BRANCH   5  10
ATOM     10  C   UNL A   1      33.526  25.478  23.335  1.00  0.00     0.320 C 
ATOM     11  O   UNL A   1      34.027  25.573  22.211  1.00  0.00    -0.248 OA
BRANCH  10  12
ATOM     12  N   UNL A   1      33.519  24.258  23.997  1.00  0.00    -0.322 N 
BRANCH  12  13
ATOM     13  C   UNL A   1      32.355  23.384  23.756  1.00  0.00     0.149 C 
BRANCH  13  14
ATOM     14  C   UNL A   1      32.250  22.228  24.778  1.00  0.00     0.181 C 
BRANCH  14  15
ATOM     15  O   UNL A   1      31.048  22.281  25.549  1.00  0.00    -0.383 OA
ATOM     16  C   UNL A   1      31.035  23.299  26.538  1.00  0.00     0.194 C 
ENDBRANCH  14  15
ENDBRANCH  13  14
ENDBRANCH  12  13
BRANCH  12  17
ATOM     17  C   UNL A   1      34.450  23.786  25.016  1.00  0.00     0.124 C 
BRANCH  17  18
ATOM     18  C   UNL A   1      35.948  23.831  24.623  1.00  0.00     0.002 C 
ATOM     19  C   UNL A   1      36.932  23.592  25.771  1.00  0.00     0.009 C 
ATOM     20  C   UNL A   1      36.217  22.847  23.477  1.00  0.00     0.009 C 
ENDBRANCH  17  18
ENDBRANCH  12  17
ENDBRANCH  10  12
ENDBRANCH   5  10
ENDBRANCH   2   4
ENDBRANCH   1   2
BRANCH   1  21
ATOM     21  C   UNL A   1      32.341  31.267  27.252  1.00  0.00     0.274 C 
BRANCH  21  22
ATOM     22  C   UNL A   1      32.963  32.653  27.075  1.00  0.00     0.275 C 
BRANCH  22  23
ATOM     23  O   UNL A   1      32.203  33.647  27.794  1.00  0.00    -0.458 OA
BRANCH  23  24
ATOM     24  C   UNL A   1      32.934  34.569  28.461  1.00  0.00     0.338 C 
ATOM     25  O   UNL A   1      32.609  35.719  28.726  1.00  0.00    -0.246 OA
BRANCH  24  26
ATOM     26  C   UNL A   1      34.153  33.935  28.988  1.00  0.00     0.060 A 
ATOM     27  C   UNL A   1      34.028  33.072  30.081  1.00  0.00     0.016 A 
ATOM     28  C   UNL A   1      35.407  34.195  28.433  1.00  0.00     0.016 A 
ATOM     29  C   UNL A   1      35.151  32.440  30.607  1.00  0.00     0.010 A 
ATOM     30  C   UNL A   1      36.537  33.569  28.970  1.00  0.00     0.010 A 
ATOM     31  C   UNL A   1      36.414  32.685  30.056  1.00  0.00    -0.014 A 
BRANCH  31  32
ATOM     32  C   UNL A   1      37.608  32.024  30.632  1.00  0.00     0.031 A 
ATOM     33  C   UNL A   1      38.268  32.595  31.852  1.00  0.00     0.074 A 
ATOM     34  C   UNL A   1      38.093  30.908  30.057  1.00  0.00     0.049 A 
ATOM     35  N   UNL A   1      39.353  32.196  32.465  1.00  0.00    -0.248 NA
ATOM     36  C   UNL A   1      37.627  33.771  32.460  1.00  0.00     0.031 C 
ATOM     37  C   UNL A   1      37.519  30.241  28.888  1.00  0.00     0.029 A 
ATOM     38  N   UNL A   1      39.185  30.143  30.379  1.00  0.00    -0.354 N 
ATOM     39  C   UNL A   1      39.538  33.082  33.518  1.00  0.00     0.074 A 
ATOM     40  C   UNL A   1      38.460  34.047  33.455  1.00  0.00     0.031 C 
ATOM     41  C   UNL A   1      38.270  29.169  28.585  1.00  0.00     0.029 A 
ATOM     42  C   UNL A   1      39.393  29.096  29.515  1.00  0.00     0.049 A 
ATOM     43  H   UNL A   1      39.764  30.327  31.153  1.00  0.00     0.167 HD
ATOM     44  C   UNL A   1      40.519  33.090  34.450  1.00  0.00     0.031 A 
ATOM     45  C   UNL A   1      40.393  28.195  29.462  1.00  0.00     0.031 A 
ATOM     46  C   UNL A   1      41.585  32.126  34.517  1.00  0.00     0.049 A 
ATOM     47  C   UNL A   1      41.492  28.254  30.486  1.00  0.00     0.074 A 
ATOM     48  C   UNL A   1      42.606  32.034  35.448  1.00  0.00     0.029 A 
ATOM     49  N   UNL A   1      41.770  31.090  33.617  1.00  0.00    -0.354 N 
ATOM     50  N   UNL A   1      41.640  29.080  31.493  1.00  0.00    -0.248 NA
ATOM     51  C   UNL A   1      42.561  27.252  30.367  1.00  0.00     0.031 C 
ATOM     52  C   UNL A   1      43.438  30.971  35.081  1.00  0.00     0.029 A 
ATOM     53  C   UNL A   1      42.906  30.372  33.952  1.00  0.00     0.049 A 
ATOM     54  H   UNL A   1      41.182  30.893  32.853  1.00  0.00     0.167 HD
ATOM     55  C   UNL A   1      42.805  28.688  32.138  1.00  0.00     0.074 A 
ATOM     56  C   UNL A   1      43.316  27.538  31.419  1.00  0.00     0.031 C 
ATOM     57  C   UNL A   1      43.401  29.232  33.226  1.00  0.00     0.031 A 
BRANCH  44  58
ATOM     58  C   UNL A   1      40.510  34.203  35.458  1.00  0.00    -0.014 A 
ATOM     59  C   UNL A   1      41.156  35.423  35.205  1.00  0.00     0.009 A 
ATOM     60  C   UNL A   1      39.797  34.044  36.656  1.00  0.00     0.009 A 
ATOM     61  C   UNL A   1      41.107  36.453  36.147  1.00  0.00     0.001 A 
ATOM     62  C   UNL A   1      39.731  35.084  37.585  1.00  0.00     0.001 A 
ATOM     63  C   UNL A   1      40.391  36.285  37.333  1.00  0.00     0.000 A 
ENDBRANCH  44  58
BRANCH  45  64
ATOM     64  C   UNL A   1      40.425  27.181  28.376  1.00  0.00    -0.014 A 
ATOM     65  C   UNL A   1      41.065  27.450  27.159  1.00  0.00     0.009 A 
ATOM     66  C   UNL A   1      39.791  25.940  28.552  1.00  0.00     0.009 A 
ATOM     67  C   UNL A   1      41.048  26.508  26.128  1.00  0.00     0.001 A 
ATOM     68  C   UNL A   1      39.800  24.989  27.531  1.00  0.00     0.001 A 
ATOM     69  C   UNL A   1      40.420  25.277  26.316  1.00  0.00     0.000 A 
ENDBRANCH  45  64
BRANCH  57  70
ATOM     70  C   UNL A   1      44.657  28.574  33.719  1.00  0.00    -0.014 A 
ATOM     71  C   UNL A   1      44.608  27.512  34.636  1.00  0.00     0.009 A 
ATOM     72  C   UNL A   1      45.903  29.000  33.234  1.00  0.00     0.009 A 
ATOM     73  C   UNL A   1      45.786  26.910  35.080  1.00  0.00     0.001 A 
ATOM     74  C   UNL A   1      47.078  28.380  33.661  1.00  0.00     0.001 A 
ATOM     75  C   UNL A   1      47.019  27.342  34.589  1.00  0.00     0.000 A 
ENDBRANCH  57  70
ENDBRANCH  31  32
ENDBRANCH  24  26
ENDBRANCH  23  24
ENDBRANCH  22  23
ENDBRANCH  21  22
ENDBRANCH   1  21
TORSDOF 18
ENDMDL
