MODEL 1
REMARK VINA RESULT:     -11.0      0.000      0.000
REMARK SMILES CCn1cc(S(=O)(=O)N2CCC(CCc3ccc(C(=O)OCCOC(=O)c4ccc(-c5c6nc(c(-c7ccccc7)c7ccc([nH]7)c(-c7ccccc7)c7nc(c(-c8ccccc8)c8ccc5[nH]8)C=C7)C=C6)cc4)cc3)CC2)cn1
REMARK SMILES IDX 19 1 20 2 18 3 15 4 16 5 76 6 17 7 75 8 14 9 13 10 12 11
REMARK SMILES IDX 9 12 10 13 78 14 11 15 77 16 6 17 7 18 8 19 5 20 3 21 4 22
REMARK SMILES IDX 80 23 79 24 2 25 1 26 21 27 22 28 23 29 24 30 25 31 26 32
REMARK SMILES IDX 27 33 28 34 74 35 29 36 73 37 30 38 31 39 32 40 67 41 33 42
REMARK SMILES IDX 72 43 66 44 68 45 34 46 71 47 65 48 64 49 35 51 57 52 42 53
REMARK SMILES IDX 56 54 43 55 46 56 55 57 69 58 44 59 45 60 54 62 70 63 47 64
REMARK SMILES IDX 36 65 37 66 41 67 38 68 40 69 39 70 58 71 59 72 63 73 60 74
REMARK SMILES IDX 62 75 61 76 48 77 49 78 53 79 50 80 52 81 51 82
REMARK H PARENT 68 50 46 61
REMARK Flexibility Score: inf
ROOT
ATOM      1  C   UNL A   1      33.795  35.679  28.394  1.00  0.00     0.338 C 
ATOM      2  O   UNL A   1      34.406  36.594  27.865  1.00  0.00    -0.246 OA
ENDROOT
BRANCH   1   3
ATOM      3  C   UNL A   1      34.107  34.250  28.170  1.00  0.00     0.060 A 
ATOM      4  C   UNL A   1      34.645  31.520  27.735  1.00  0.00    -0.048 A 
ATOM      5  C   UNL A   1      33.331  32.006  27.680  1.00  0.00     0.004 A 
ATOM      6  C   UNL A   1      35.670  32.424  28.055  1.00  0.00     0.004 A 
ATOM      7  C   UNL A   1      33.061  33.358  27.913  1.00  0.00     0.016 A 
ATOM      8  C   UNL A   1      35.417  33.783  28.228  1.00  0.00     0.016 A 
BRANCH   4   9
ATOM      9  C   UNL A   1      34.919  30.045  27.517  1.00  0.00     0.036 C 
BRANCH   9  10
ATOM     10  C   UNL A   1      33.689  29.110  27.488  1.00  0.00     0.008 C 
BRANCH  10  11
ATOM     11  C   UNL A   1      33.706  28.028  26.397  1.00  0.00    -0.008 C 
ATOM     12  N   UNL A   1      32.944  26.391  24.126  1.00  0.00    -0.198 NA
ATOM     13  C   UNL A   1      32.657  25.932  25.505  1.00  0.00     0.103 C 
ATOM     14  C   UNL A   1      33.974  27.454  23.977  1.00  0.00     0.103 C 
ATOM     15  C   UNL A   1      32.490  27.097  26.467  1.00  0.00     0.020 C 
ATOM     16  C   UNL A   1      33.765  28.596  24.975  1.00  0.00     0.020 C 
BRANCH  12  17
ATOM     17  S   UNL A   1      33.049  25.122  22.980  1.00  0.00     0.246 S 
ATOM     18  O   UNL A   1      33.733  25.606  21.809  1.00  0.00    -0.207 OA
ATOM     19  O   UNL A   1      31.751  24.474  22.900  1.00  0.00    -0.207 OA
BRANCH  17  20
ATOM     20  C   UNL A   1      34.071  23.873  23.563  1.00  0.00     0.120 A 
ATOM     21  N   UNL A   1      35.739  22.589  24.155  1.00  0.00    -0.272 N 
ATOM     22  C   UNL A   1      35.448  23.802  23.598  1.00  0.00     0.130 A 
ATOM     23  N   UNL A   1      34.647  21.878  24.493  1.00  0.00    -0.180 NA
ATOM     24  C   UNL A   1      33.628  22.667  24.128  1.00  0.00     0.156 A 
BRANCH  21  25
ATOM     25  C   UNL A   1      37.065  22.050  24.385  1.00  0.00     0.141 C 
ATOM     26  C   UNL A   1      37.018  20.595  24.816  1.00  0.00     0.029 C 
ENDBRANCH  21  25
ENDBRANCH  17  20
ENDBRANCH  12  17
ENDBRANCH  10  11
ENDBRANCH   9  10
ENDBRANCH   4   9
ENDBRANCH   1   3
BRANCH   1  27
ATOM     27  O   UNL A   1      32.814  35.792  29.329  1.00  0.00    -0.458 OA
BRANCH  27  28
ATOM     28  C   UNL A   1      33.071  36.733  30.381  1.00  0.00     0.275 C 
BRANCH  28  29
ATOM     29  C   UNL A   1      32.735  36.146  31.743  1.00  0.00     0.275 C 
BRANCH  29  30
ATOM     30  O   UNL A   1      33.860  35.517  32.357  1.00  0.00    -0.458 OA
BRANCH  30  31
ATOM     31  C   UNL A   1      33.730  34.186  32.560  1.00  0.00     0.338 C 
ATOM     32  O   UNL A   1      32.875  33.613  33.215  1.00  0.00    -0.246 OA
BRANCH  31  33
ATOM     33  C   UNL A   1      34.951  33.519  32.091  1.00  0.00     0.060 A 
ATOM     34  C   UNL A   1      34.896  32.152  31.811  1.00  0.00     0.016 A 
ATOM     35  C   UNL A   1      36.176  34.200  32.175  1.00  0.00     0.016 A 
ATOM     36  C   UNL A   1      36.083  31.446  31.726  1.00  0.00     0.010 A 
ATOM     37  C   UNL A   1      37.355  33.494  32.110  1.00  0.00     0.010 A 
ATOM     38  C   UNL A   1      37.301  32.114  31.933  1.00  0.00    -0.014 A 
BRANCH  38  39
ATOM     39  C   UNL A   1      38.540  31.396  31.675  1.00  0.00     0.031 A 
ATOM     40  C   UNL A   1      39.249  31.122  32.948  1.00  0.00     0.074 A 
ATOM     41  C   UNL A   1      38.899  30.906  30.468  1.00  0.00     0.049 A 
ATOM     42  N   UNL A   1      40.350  31.663  33.350  1.00  0.00    -0.248 NA
ATOM     43  C   UNL A   1      38.554  30.342  33.993  1.00  0.00     0.031 C 
ATOM     44  C   UNL A   1      38.090  30.914  29.244  1.00  0.00     0.029 A 
ATOM     45  N   UNL A   1      40.005  30.196  30.088  1.00  0.00    -0.354 N 
ATOM     46  C   UNL A   1      40.630  31.046  34.565  1.00  0.00     0.074 A 
ATOM     47  C   UNL A   1      39.399  30.460  35.018  1.00  0.00     0.031 C 
ATOM     48  C   UNL A   1      38.606  30.032  28.358  1.00  0.00     0.029 A 
ATOM     49  C   UNL A   1      39.848  29.499  28.890  1.00  0.00     0.049 A 
ATOM     50  H   UNL A   1      40.837  30.178  30.614  1.00  0.00     0.167 HD
ATOM     51  C   UNL A   1      41.915  30.693  34.841  1.00  0.00     0.031 A 
ATOM     52  C   UNL A   1      40.653  28.523  28.391  1.00  0.00     0.031 A 
ATOM     53  C   UNL A   1      42.832  31.405  33.986  1.00  0.00     0.049 A 
ATOM     54  C   UNL A   1      41.969  28.650  29.047  1.00  0.00     0.074 A 
ATOM     55  C   UNL A   1      43.308  32.689  33.846  1.00  0.00     0.029 A 
ATOM     56  N   UNL A   1      43.036  30.764  32.795  1.00  0.00    -0.354 N 
ATOM     57  N   UNL A   1      42.777  29.646  28.826  1.00  0.00    -0.248 NA
ATOM     58  C   UNL A   1      42.256  27.857  30.236  1.00  0.00     0.031 C 
ATOM     59  C   UNL A   1      43.727  32.813  32.485  1.00  0.00     0.029 A 
ATOM     60  C   UNL A   1      43.563  31.587  31.845  1.00  0.00     0.049 A 
ATOM     61  H   UNL A   1      42.824  29.815  32.641  1.00  0.00     0.167 HD
ATOM     62  C   UNL A   1      43.349  29.886  30.059  1.00  0.00     0.074 A 
ATOM     63  C   UNL A   1      43.144  28.662  30.826  1.00  0.00     0.031 C 
ATOM     64  C   UNL A   1      43.609  31.163  30.464  1.00  0.00     0.031 A 
BRANCH  51  65
ATOM     65  C   UNL A   1      42.279  29.303  35.344  1.00  0.00    -0.014 A 
ATOM     66  C   UNL A   1      43.238  29.199  36.367  1.00  0.00     0.009 A 
ATOM     67  C   UNL A   1      41.982  28.113  34.645  1.00  0.00     0.009 A 
ATOM     68  C   UNL A   1      43.901  27.992  36.632  1.00  0.00     0.001 A 
ATOM     69  C   UNL A   1      42.620  26.901  34.926  1.00  0.00     0.001 A 
ATOM     70  C   UNL A   1      43.596  26.846  35.906  1.00  0.00     0.000 A 
ENDBRANCH  51  65
BRANCH  52  71
ATOM     71  C   UNL A   1      40.328  27.339  27.558  1.00  0.00    -0.014 A 
ATOM     72  C   UNL A   1      41.127  26.995  26.450  1.00  0.00     0.009 A 
ATOM     73  C   UNL A   1      39.419  26.374  28.022  1.00  0.00     0.009 A 
ATOM     74  C   UNL A   1      41.060  25.718  25.874  1.00  0.00     0.001 A 
ATOM     75  C   UNL A   1      39.349  25.100  27.445  1.00  0.00     0.001 A 
ATOM     76  C   UNL A   1      40.184  24.764  26.385  1.00  0.00     0.000 A 
ENDBRANCH  52  71
BRANCH  64  77
ATOM     77  C   UNL A   1      43.830  32.201  29.405  1.00  0.00    -0.014 A 
ATOM     78  C   UNL A   1      43.008  33.319  29.200  1.00  0.00     0.009 A 
ATOM     79  C   UNL A   1      44.970  32.048  28.601  1.00  0.00     0.009 A 
ATOM     80  C   UNL A   1      43.306  34.240  28.189  1.00  0.00     0.001 A 
ATOM     81  C   UNL A   1      45.278  32.977  27.609  1.00  0.00     0.001 A 
ATOM     82  C   UNL A   1      44.441  34.067  27.396  1.00  0.00     0.000 A 
ENDBRANCH  64  77
ENDBRANCH  38  39
ENDBRANCH  31  33
ENDBRANCH  30  31
ENDBRANCH  29  30
ENDBRANCH  28  29
ENDBRANCH  27  28
ENDBRANCH   1  27
TORSDOF 17
ENDMDL
MODEL 2
REMARK VINA RESULT:     -10.9      4.071     10.264
REMARK SMILES CCn1cc(S(=O)(=O)N2CCC(CCc3ccc(C(=O)OCCOC(=O)c4ccc(-c5c6nc(c(-c7ccccc7)c7ccc([nH]7)c(-c7ccccc7)c7nc(c(-c8ccccc8)c8ccc5[nH]8)C=C7)C=C6)cc4)cc3)CC2)cn1
REMARK SMILES IDX 19 1 20 2 18 3 15 4 16 5 76 6 17 7 75 8 14 9 13 10 12 11
REMARK SMILES IDX 9 12 10 13 78 14 11 15 77 16 6 17 7 18 8 19 5 20 3 21 4 22
REMARK SMILES IDX 80 23 79 24 2 25 1 26 21 27 22 28 23 29 24 30 25 31 26 32
REMARK SMILES IDX 27 33 28 34 74 35 29 36 73 37 30 38 31 39 32 40 67 41 33 42
REMARK SMILES IDX 72 43 66 44 68 45 34 46 71 47 65 48 64 49 35 51 57 52 42 53
REMARK SMILES IDX 56 54 43 55 46 56 55 57 69 58 44 59 45 60 54 62 70 63 47 64
REMARK SMILES IDX 36 65 37 66 41 67 38 68 40 69 39 70 58 71 59 72 63 73 60 74
REMARK SMILES IDX 62 75 61 76 48 77 49 78 53 79 50 80 52 81 51 82
REMARK H PARENT 68 50 46 61
REMARK Flexibility Score: inf
ROOT
ATOM      1  C   UNL A   1      41.450  20.055  26.604  1.00  0.00     0.338 C 
ATOM      2  O   UNL A   1      42.045  20.548  27.549  1.00  0.00    -0.246 OA
ENDROOT
BRANCH   1   3
ATOM      3  C   UNL A   1      40.143  20.545  26.115  1.00  0.00     0.060 A 
ATOM      4  C   UNL A   1      37.644  21.427  25.162  1.00  0.00    -0.048 A 
ATOM      5  C   UNL A   1      38.053  20.099  24.970  1.00  0.00     0.004 A 
ATOM      6  C   UNL A   1      38.533  22.306  25.800  1.00  0.00     0.004 A 
ATOM      7  C   UNL A   1      39.301  19.665  25.427  1.00  0.00     0.016 A 
ATOM      8  C   UNL A   1      39.751  21.866  26.313  1.00  0.00     0.016 A 
BRANCH   4   9
ATOM      9  C   UNL A   1      36.304  21.893  24.628  1.00  0.00     0.036 C 
BRANCH   9  10
ATOM     10  C   UNL A   1      36.023  23.410  24.694  1.00  0.00     0.008 C 
BRANCH  10  11
ATOM     11  C   UNL A   1      34.539  23.810  24.684  1.00  0.00    -0.008 C 
ATOM     12  N   UNL A   1      32.106  25.374  24.456  1.00  0.00    -0.198 NA
ATOM     13  C   UNL A   1      32.715  25.134  25.784  1.00  0.00     0.103 C 
ATOM     14  C   UNL A   1      32.523  24.463  23.356  1.00  0.00     0.103 C 
ATOM     15  C   UNL A   1      34.218  24.922  25.689  1.00  0.00     0.020 C 
ATOM     16  C   UNL A   1      34.041  24.276  23.312  1.00  0.00     0.020 C 
BRANCH  12  17
ATOM     17  S   UNL A   1      30.428  25.714  24.513  1.00  0.00     0.246 S 
ATOM     18  O   UNL A   1      30.011  25.775  25.890  1.00  0.00    -0.207 OA
ATOM     19  O   UNL A   1      29.760  24.864  23.543  1.00  0.00    -0.207 OA
BRANCH  17  20
ATOM     20  C   UNL A   1      30.119  27.296  23.923  1.00  0.00     0.120 A 
ATOM     21  N   UNL A   1      29.323  29.094  22.968  1.00  0.00    -0.272 N 
ATOM     22  C   UNL A   1      29.072  27.765  23.158  1.00  0.00     0.130 A 
ATOM     23  N   UNL A   1      30.451  29.518  23.567  1.00  0.00    -0.180 NA
ATOM     24  C   UNL A   1      30.936  28.414  24.150  1.00  0.00     0.156 A 
BRANCH  21  25
ATOM     25  C   UNL A   1      28.506  30.018  22.205  1.00  0.00     0.141 C 
ATOM     26  C   UNL A   1      29.066  31.429  22.239  1.00  0.00     0.029 C 
ENDBRANCH  21  25
ENDBRANCH  17  20
ENDBRANCH  12  17
ENDBRANCH  10  11
ENDBRANCH   9  10
ENDBRANCH   4   9
ENDBRANCH   1   3
BRANCH   1  27
ATOM     27  O   UNL A   1      41.901  19.063  25.791  1.00  0.00    -0.458 OA
BRANCH  27  28
ATOM     28  C   UNL A   1      43.110  18.419  26.217  1.00  0.00     0.275 C 
BRANCH  28  29
ATOM     29  C   UNL A   1      44.253  18.690  25.250  1.00  0.00     0.275 C 
BRANCH  29  30
ATOM     30  O   UNL A   1      44.830  19.982  25.439  1.00  0.00    -0.458 OA
BRANCH  30  31
ATOM     31  C   UNL A   1      44.549  20.881  24.468  1.00  0.00     0.338 C 
ATOM     32  O   UNL A   1      44.569  20.703  23.261  1.00  0.00    -0.246 OA
BRANCH  31  33
ATOM     33  C   UNL A   1      44.473  22.216  25.073  1.00  0.00     0.060 A 
ATOM     34  C   UNL A   1      45.180  22.451  26.254  1.00  0.00     0.016 A 
ATOM     35  C   UNL A   1      43.515  23.126  24.600  1.00  0.00     0.016 A 
ATOM     36  C   UNL A   1      44.841  23.553  27.020  1.00  0.00     0.010 A 
ATOM     37  C   UNL A   1      43.165  24.211  25.371  1.00  0.00     0.010 A 
ATOM     38  C   UNL A   1      43.796  24.392  26.599  1.00  0.00    -0.014 A 
BRANCH  38  39
ATOM     39  C   UNL A   1      43.565  25.632  27.324  1.00  0.00     0.031 A 
ATOM     40  C   UNL A   1      44.582  26.643  26.949  1.00  0.00     0.074 A 
ATOM     41  C   UNL A   1      42.482  25.873  28.094  1.00  0.00     0.049 A 
ATOM     42  N   UNL A   1      45.538  27.090  27.692  1.00  0.00    -0.248 NA
ATOM     43  C   UNL A   1      44.701  27.036  25.528  1.00  0.00     0.031 C 
ATOM     44  C   UNL A   1      41.317  24.998  28.265  1.00  0.00     0.029 A 
ATOM     45  N   UNL A   1      42.122  26.986  28.803  1.00  0.00    -0.354 N 
ATOM     46  C   UNL A   1      46.180  28.048  26.914  1.00  0.00     0.074 A 
ATOM     47  C   UNL A   1      45.801  27.789  25.553  1.00  0.00     0.031 C 
ATOM     48  C   UNL A   1      40.294  25.707  28.795  1.00  0.00     0.029 A 
ATOM     49  C   UNL A   1      40.767  27.041  29.127  1.00  0.00     0.049 A 
ATOM     50  H   UNL A   1      42.763  27.688  29.061  1.00  0.00     0.167 HD
ATOM     51  C   UNL A   1      46.578  29.211  27.500  1.00  0.00     0.031 A 
ATOM     52  C   UNL A   1      40.071  28.114  29.590  1.00  0.00     0.031 A 
ATOM     53  C   UNL A   1      46.630  29.064  28.934  1.00  0.00     0.049 A 
ATOM     54  C   UNL A   1      41.043  29.063  30.165  1.00  0.00     0.074 A 
ATOM     55  C   UNL A   1      47.418  28.427  29.866  1.00  0.00     0.029 A 
ATOM     56  N   UNL A   1      45.423  29.315  29.526  1.00  0.00    -0.354 N 
ATOM     57  N   UNL A   1      41.705  28.824  31.259  1.00  0.00    -0.248 NA
ATOM     58  C   UNL A   1      41.565  30.144  29.336  1.00  0.00     0.031 C 
ATOM     59  C   UNL A   1      46.594  28.231  31.017  1.00  0.00     0.029 A 
ATOM     60  C   UNL A   1      45.349  28.810  30.790  1.00  0.00     0.049 A 
ATOM     61  H   UNL A   1      44.689  29.804  29.088  1.00  0.00     0.167 HD
ATOM     62  C   UNL A   1      42.949  29.372  31.019  1.00  0.00     0.074 A 
ATOM     63  C   UNL A   1      42.751  30.318  29.926  1.00  0.00     0.031 C 
ATOM     64  C   UNL A   1      44.077  28.752  31.473  1.00  0.00     0.031 A 
BRANCH  51  65
ATOM     65  C   UNL A   1      46.259  30.570  26.893  1.00  0.00    -0.014 A 
ATOM     66  C   UNL A   1      47.286  31.529  26.842  1.00  0.00     0.009 A 
ATOM     67  C   UNL A   1      44.948  31.049  26.688  1.00  0.00     0.009 A 
ATOM     68  C   UNL A   1      47.009  32.891  26.657  1.00  0.00     0.001 A 
ATOM     69  C   UNL A   1      44.670  32.403  26.473  1.00  0.00     0.001 A 
ATOM     70  C   UNL A   1      45.700  33.327  26.480  1.00  0.00     0.000 A 
ENDBRANCH  51  65
BRANCH  52  71
ATOM     71  C   UNL A   1      38.654  28.504  29.383  1.00  0.00    -0.014 A 
ATOM     72  C   UNL A   1      37.812  28.772  30.479  1.00  0.00     0.009 A 
ATOM     73  C   UNL A   1      38.210  28.910  28.113  1.00  0.00     0.009 A 
ATOM     74  C   UNL A   1      36.607  29.471  30.317  1.00  0.00     0.001 A 
ATOM     75  C   UNL A   1      37.005  29.606  27.950  1.00  0.00     0.001 A 
ATOM     76  C   UNL A   1      36.214  29.905  29.054  1.00  0.00     0.000 A 
ENDBRANCH  52  71
BRANCH  64  77
ATOM     77  C   UNL A   1      43.951  27.867  32.676  1.00  0.00    -0.014 A 
ATOM     78  C   UNL A   1      43.776  28.326  33.990  1.00  0.00     0.009 A 
ATOM     79  C   UNL A   1      43.969  26.483  32.445  1.00  0.00     0.009 A 
ATOM     80  C   UNL A   1      43.657  27.417  35.047  1.00  0.00     0.001 A 
ATOM     81  C   UNL A   1      43.828  25.578  33.495  1.00  0.00     0.001 A 
ATOM     82  C   UNL A   1      43.683  26.045  34.797  1.00  0.00     0.000 A 
ENDBRANCH  64  77
ENDBRANCH  38  39
ENDBRANCH  31  33
ENDBRANCH  30  31
ENDBRANCH  29  30
ENDBRANCH  28  29
ENDBRANCH  27  28
ENDBRANCH   1  27
TORSDOF 17
ENDMDL
MODEL 3
REMARK VINA RESULT:     -10.9      1.960      3.297
REMARK SMILES CCn1cc(S(=O)(=O)N2CCC(CCc3ccc(C(=O)OCCOC(=O)c4ccc(-c5c6nc(c(-c7ccccc7)c7ccc([nH]7)c(-c7ccccc7)c7nc(c(-c8ccccc8)c8ccc5[nH]8)C=C7)C=C6)cc4)cc3)CC2)cn1
REMARK SMILES IDX 19 1 20 2 18 3 15 4 16 5 76 6 17 7 75 8 14 9 13 10 12 11
REMARK SMILES IDX 9 12 10 13 78 14 11 15 77 16 6 17 7 18 8 19 5 20 3 21 4 22
REMARK SMILES IDX 80 23 79 24 2 25 1 26 21 27 22 28 23 29 24 30 25 31 26 32
REMARK SMILES IDX 27 33 28 34 74 35 29 36 73 37 30 38 31 39 32 40 67 41 33 42
REMARK SMILES IDX 72 43 66 44 68 45 34 46 71 47 65 48 64 49 35 51 57 52 42 53
REMARK SMILES IDX 56 54 43 55 46 56 55 57 69 58 44 59 45 60 54 62 70 63 47 64
REMARK SMILES IDX 36 65 37 66 41 67 38 68 40 69 39 70 58 71 59 72 63 73 60 74
REMARK SMILES IDX 62 75 61 76 48 77 49 78 53 79 50 80 52 81 51 82
REMARK H PARENT 68 50 46 61
REMARK Flexibility Score: inf
ROOT
ATOM      1  C   UNL A   1      33.533  36.120  28.825  1.00  0.00     0.338 C 
ATOM      2  O   UNL A   1      33.982  37.144  28.336  1.00  0.00    -0.246 OA
ENDROOT
BRANCH   1   3
ATOM      3  C   UNL A   1      34.076  34.773  28.543  1.00  0.00     0.060 A 
ATOM      4  C   UNL A   1      35.055  32.192  27.988  1.00  0.00    -0.048 A 
ATOM      5  C   UNL A   1      33.707  32.505  27.766  1.00  0.00     0.004 A 
ATOM      6  C   UNL A   1      35.884  33.185  28.533  1.00  0.00     0.004 A 
ATOM      7  C   UNL A   1      33.216  33.782  28.058  1.00  0.00     0.016 A 
ATOM      8  C   UNL A   1      35.417  34.476  28.768  1.00  0.00     0.016 A 
BRANCH   4   9
ATOM      9  C   UNL A   1      35.566  30.793  27.703  1.00  0.00     0.036 C 
BRANCH   9  10
ATOM     10  C   UNL A   1      34.734  29.623  28.272  1.00  0.00     0.008 C 
BRANCH  10  11
ATOM     11  C   UNL A   1      33.867  28.868  27.252  1.00  0.00    -0.008 C 
ATOM     12  N   UNL A   1      32.032  28.300  25.078  1.00  0.00    -0.198 NA
ATOM     13  C   UNL A   1      31.550  28.302  26.478  1.00  0.00     0.103 C 
ATOM     14  C   UNL A   1      33.501  28.171  24.878  1.00  0.00     0.103 C 
ATOM     15  C   UNL A   1      32.379  29.220  27.362  1.00  0.00     0.020 C 
ATOM     16  C   UNL A   1      34.287  29.108  25.798  1.00  0.00     0.020 C 
BRANCH  12  17
ATOM     17  S   UNL A   1      31.075  27.356  24.016  1.00  0.00     0.246 S 
ATOM     18  O   UNL A   1      30.497  26.263  24.755  1.00  0.00    -0.207 OA
ATOM     19  O   UNL A   1      31.830  27.143  22.793  1.00  0.00    -0.207 OA
BRANCH  17  20
ATOM     20  C   UNL A   1      29.713  28.253  23.482  1.00  0.00     0.120 A 
ATOM     21  N   UNL A   1      28.305  29.773  22.785  1.00  0.00    -0.272 N 
ATOM     22  C   UNL A   1      29.615  29.579  23.117  1.00  0.00     0.130 A 
ATOM     23  N   UNL A   1      27.553  28.663  22.898  1.00  0.00    -0.180 NA
ATOM     24  C   UNL A   1      28.418  27.734  23.325  1.00  0.00     0.156 A 
BRANCH  21  25
ATOM     25  C   UNL A   1      27.709  31.022  22.351  1.00  0.00     0.141 C 
ATOM     26  C   UNL A   1      28.105  31.374  20.928  1.00  0.00     0.029 C 
ENDBRANCH  21  25
ENDBRANCH  17  20
ENDBRANCH  12  17
ENDBRANCH  10  11
ENDBRANCH   9  10
ENDBRANCH   4   9
ENDBRANCH   1   3
BRANCH   1  27
ATOM     27  O   UNL A   1      32.551  36.031  29.762  1.00  0.00    -0.458 OA
BRANCH  27  28
ATOM     28  C   UNL A   1      32.871  36.587  31.045  1.00  0.00     0.275 C 
BRANCH  28  29
ATOM     29  C   UNL A   1      32.604  35.590  32.163  1.00  0.00     0.275 C 
BRANCH  29  30
ATOM     30  O   UNL A   1      33.569  34.539  32.196  1.00  0.00    -0.458 OA
BRANCH  30  31
ATOM     31  C   UNL A   1      34.655  34.785  32.963  1.00  0.00     0.338 C 
ATOM     32  O   UNL A   1      34.796  35.669  33.792  1.00  0.00    -0.246 OA
BRANCH  31  33
ATOM     33  C   UNL A   1      35.776  33.983  32.458  1.00  0.00     0.060 A 
ATOM     34  C   UNL A   1      35.584  32.611  32.279  1.00  0.00     0.016 A 
ATOM     35  C   UNL A   1      37.057  34.554  32.409  1.00  0.00     0.016 A 
ATOM     36  C   UNL A   1      36.696  31.797  32.161  1.00  0.00     0.010 A 
ATOM     37  C   UNL A   1      38.164  33.742  32.311  1.00  0.00     0.010 A 
ATOM     38  C   UNL A   1      37.979  32.364  32.235  1.00  0.00    -0.014 A 
BRANCH  38  39
ATOM     39  C   UNL A   1      39.129  31.523  31.942  1.00  0.00     0.031 A 
ATOM     40  C   UNL A   1      39.831  31.159  33.196  1.00  0.00     0.074 A 
ATOM     41  C   UNL A   1      39.410  31.015  30.723  1.00  0.00     0.049 A 
ATOM     42  N   UNL A   1      40.991  31.575  33.581  1.00  0.00    -0.248 NA
ATOM     43  C   UNL A   1      39.079  30.442  34.247  1.00  0.00     0.031 C 
ATOM     44  C   UNL A   1      38.582  31.125  29.516  1.00  0.00     0.029 A 
ATOM     45  N   UNL A   1      40.426  30.197  30.310  1.00  0.00    -0.354 N 
ATOM     46  C   UNL A   1      41.229  30.915  34.783  1.00  0.00     0.074 A 
ATOM     47  C   UNL A   1      39.952  30.455  35.255  1.00  0.00     0.031 C 
ATOM     48  C   UNL A   1      38.983  30.206  28.609  1.00  0.00     0.029 A 
ATOM     49  C   UNL A   1      40.173  29.537  29.108  1.00  0.00     0.049 A 
ATOM     50  H   UNL A   1      41.263  30.083  30.818  1.00  0.00     0.167 HD
ATOM     51  C   UNL A   1      42.474  30.424  35.027  1.00  0.00     0.031 A 
ATOM     52  C   UNL A   1      40.859  28.488  28.581  1.00  0.00     0.031 A 
ATOM     53  C   UNL A   1      43.444  31.047  34.160  1.00  0.00     0.049 A 
ATOM     54  C   UNL A   1      42.195  28.467  29.210  1.00  0.00     0.074 A 
ATOM     55  C   UNL A   1      44.051  32.275  34.025  1.00  0.00     0.029 A 
ATOM     56  N   UNL A   1      43.555  30.404  32.958  1.00  0.00    -0.354 N 
ATOM     57  N   UNL A   1      43.099  29.374  28.983  1.00  0.00    -0.248 NA
ATOM     58  C   UNL A   1      42.420  27.631  30.383  1.00  0.00     0.031 C 
ATOM     59  C   UNL A   1      44.453  32.373  32.656  1.00  0.00     0.029 A 
ATOM     60  C   UNL A   1      44.147  31.180  32.006  1.00  0.00     0.049 A 
ATOM     61  H   UNL A   1      43.240  29.485  32.798  1.00  0.00     0.167 HD
ATOM     62  C   UNL A   1      43.718  29.536  30.206  1.00  0.00     0.074 A 
ATOM     63  C   UNL A   1      43.400  28.329  30.963  1.00  0.00     0.031 C 
ATOM     64  C   UNL A   1      44.120  30.773  30.620  1.00  0.00     0.031 A 
BRANCH  51  65
ATOM     65  C   UNL A   1      42.699  28.996  35.505  1.00  0.00    -0.014 A 
ATOM     66  C   UNL A   1      43.639  28.782  36.529  1.00  0.00     0.009 A 
ATOM     67  C   UNL A   1      42.291  27.854  34.785  1.00  0.00     0.009 A 
ATOM     68  C   UNL A   1      44.180  27.512  36.774  1.00  0.00     0.001 A 
ATOM     69  C   UNL A   1      42.806  26.581  35.046  1.00  0.00     0.001 A 
ATOM     70  C   UNL A   1      43.768  26.413  36.027  1.00  0.00     0.000 A 
ENDBRANCH  51  65
BRANCH  52  71
ATOM     71  C   UNL A   1      40.394  27.357  27.741  1.00  0.00    -0.014 A 
ATOM     72  C   UNL A   1      41.100  26.980  26.583  1.00  0.00     0.009 A 
ATOM     73  C   UNL A   1      39.436  26.456  28.234  1.00  0.00     0.009 A 
ATOM     74  C   UNL A   1      40.898  25.728  25.983  1.00  0.00     0.001 A 
ATOM     75  C   UNL A   1      39.231  25.207  27.634  1.00  0.00     0.001 A 
ATOM     76  C   UNL A   1      39.977  24.834  26.521  1.00  0.00     0.000 A 
ENDBRANCH  52  71
BRANCH  64  77
ATOM     77  C   UNL A   1      44.428  31.795  29.569  1.00  0.00    -0.014 A 
ATOM     78  C   UNL A   1      45.525  31.735  28.695  1.00  0.00     0.009 A 
ATOM     79  C   UNL A   1      43.520  32.856  29.435  1.00  0.00     0.009 A 
ATOM     80  C   UNL A   1      45.721  32.736  27.737  1.00  0.00     0.001 A 
ATOM     81  C   UNL A   1      43.704  33.841  28.466  1.00  0.00     0.001 A 
ATOM     82  C   UNL A   1      44.810  33.786  27.623  1.00  0.00     0.000 A 
ENDBRANCH  64  77
ENDBRANCH  38  39
ENDBRANCH  31  33
ENDBRANCH  30  31
ENDBRANCH  29  30
ENDBRANCH  28  29
ENDBRANCH  27  28
ENDBRANCH   1  27
TORSDOF 17
ENDMDL
