MODEL 1
REMARK VINA RESULT:     -11.8      0.000      0.000
REMARK SMILES C[C@@H](C(=O)OCCOC(=O)c1ccc(-c2c3nc(c(-c4ccccc4)c4ccc([nH]4)c(-c4ccccc4)c4nc(c(-c5ccccc5)c5ccc2[nH]5)C=C4)C=C3)cc1)c1ccc(C[C@H]2CCC[C@@H]2O)cc1F
REMARK SMILES IDX 6 1 5 2 3 3 4 4 2 5 1 6 59 7 60 8 71 9 61 10 70 11 72 12
REMARK SMILES IDX 62 13 63 14 64 15 65 16 68 17 66 18 67 19 69 20 7 22 8 23
REMARK SMILES IDX 9 24 10 25 11 26 12 27 58 28 13 29 57 30 14 31 15 32 16 33
REMARK SMILES IDX 51 34 17 35 56 36 50 37 52 38 18 39 55 40 49 41 48 42 19 44
REMARK SMILES IDX 41 45 26 46 40 47 27 48 30 49 39 50 53 51 28 52 29 53 38 55
REMARK SMILES IDX 54 56 31 57 20 58 21 59 25 60 22 61 24 62 23 63 42 64 43 65
REMARK SMILES IDX 47 66 44 67 46 68 45 69 32 70 33 71 37 72 34 73 36 74 35 75
REMARK H PARENT 69 21 52 43 30 54
REMARK Flexibility Score: inf
ROOT
ATOM      1  C   UNL A   1      33.722  23.001  23.477  1.00  0.00     0.274 C 
ENDROOT
BRANCH   1   2
ATOM      2  O   UNL A   1      34.894  22.908  24.322  1.00  0.00    -0.462 OA
BRANCH   2   3
ATOM      3  C   UNL A   1      36.089  22.644  23.718  1.00  0.00     0.313 C 
ATOM      4  O   UNL A   1      36.437  23.163  22.663  1.00  0.00    -0.252 OA
BRANCH   3   5
ATOM      5  C   UNL A   1      36.936  21.612  24.493  1.00  0.00     0.129 C 
ATOM      6  C   UNL A   1      36.078  20.501  25.110  1.00  0.00     0.025 C 
BRANCH   5   7
ATOM      7  C   UNL A   1      37.863  22.276  25.511  1.00  0.00     0.002 A 
ATOM      8  C   UNL A   1      37.682  23.596  25.959  1.00  0.00     0.008 A 
ATOM      9  C   UNL A   1      38.978  21.577  25.994  1.00  0.00     0.127 A 
ATOM     10  C   UNL A   1      38.637  24.222  26.760  1.00  0.00     0.004 A 
ATOM     11  C   UNL A   1      39.948  22.201  26.775  1.00  0.00     0.043 A 
ATOM     12  F   UNL A   1      39.161  20.293  25.659  1.00  0.00    -0.207 F 
ATOM     13  C   UNL A   1      39.815  23.557  27.096  1.00  0.00    -0.045 A 
BRANCH  13  14
ATOM     14  C   UNL A   1      40.949  24.319  27.701  1.00  0.00     0.041 C 
BRANCH  14  15
ATOM     15  C   UNL A   1      42.379  24.026  27.193  1.00  0.00     0.022 C 
ATOM     16  C   UNL A   1      43.237  25.122  25.774  1.00  0.00     0.007 C 
ATOM     17  C   UNL A   1      43.802  23.309  28.405  1.00  0.00     0.117 C 
ATOM     18  C   UNL A   1      45.260  25.053  25.992  1.00  0.00     0.003 C 
ATOM     19  C   UNL A   1      45.664  23.759  27.495  1.00  0.00     0.032 C 
BRANCH  17  20
ATOM     20  O   UNL A   1      43.319  22.081  28.941  1.00  0.00    -0.393 OA
ATOM     21  H   UNL A   1      42.379  21.981  28.724  1.00  0.00     0.210 HD
ENDBRANCH  17  20
ENDBRANCH  14  15
ENDBRANCH  13  14
ENDBRANCH   5   7
ENDBRANCH   3   5
ENDBRANCH   2   3
ENDBRANCH   1   2
BRANCH   1  22
ATOM     22  C   UNL A   1      32.588  23.703  24.220  1.00  0.00     0.275 C 
BRANCH  22  23
ATOM     23  O   UNL A   1      32.365  24.971  23.593  1.00  0.00    -0.458 OA
BRANCH  23  24
ATOM     24  C   UNL A   1      31.614  25.828  24.315  1.00  0.00     0.338 C 
ATOM     25  O   UNL A   1      30.400  25.894  24.383  1.00  0.00    -0.246 OA
BRANCH  24  26
ATOM     26  C   UNL A   1      32.506  26.703  25.076  1.00  0.00     0.060 A 
ATOM     27  C   UNL A   1      32.255  27.063  26.383  1.00  0.00     0.016 A 
ATOM     28  C   UNL A   1      33.493  27.362  24.416  1.00  0.00     0.016 A 
ATOM     29  C   UNL A   1      33.035  28.048  27.075  1.00  0.00     0.010 A 
ATOM     30  C   UNL A   1      34.281  28.266  25.151  1.00  0.00     0.010 A 
ATOM     31  C   UNL A   1      34.322  28.688  26.703  1.00  0.00    -0.014 A 
BRANCH  31  32
ATOM     32  C   UNL A   1      35.858  29.760  27.735  1.00  0.00     0.031 A 
ATOM     33  C   UNL A   1      35.601  31.348  28.691  1.00  0.00     0.074 A 
ATOM     34  C   UNL A   1      37.330  29.823  27.792  1.00  0.00     0.049 A 
ATOM     35  N   UNL A   1      36.155  31.776  29.828  1.00  0.00    -0.248 NA
ATOM     36  C   UNL A   1      34.537  32.375  28.250  1.00  0.00     0.031 C 
ATOM     37  C   UNL A   1      38.333  29.142  26.892  1.00  0.00     0.029 A 
ATOM     38  N   UNL A   1      38.212  30.258  28.808  1.00  0.00    -0.354 N 
ATOM     39  C   UNL A   1      35.364  32.868  30.279  1.00  0.00     0.074 A 
ATOM     40  C   UNL A   1      34.376  33.156  29.290  1.00  0.00     0.031 C 
ATOM     41  C   UNL A   1      39.456  28.881  27.545  1.00  0.00     0.029 A 
ATOM     42  C   UNL A   1      39.464  29.624  28.777  1.00  0.00     0.049 A 
ATOM     43  H   UNL A   1      37.971  30.942  29.473  1.00  0.00     0.167 HD
ATOM     44  C   UNL A   1      35.399  33.666  31.378  1.00  0.00     0.031 A 
ATOM     45  C   UNL A   1      40.574  29.593  29.553  1.00  0.00     0.031 A 
ATOM     46  C   UNL A   1      36.564  33.858  32.170  1.00  0.00     0.049 A 
ATOM     47  C   UNL A   1      40.721  30.579  30.656  1.00  0.00     0.074 A 
ATOM     48  C   UNL A   1      36.808  34.826  33.127  1.00  0.00     0.029 A 
ATOM     49  N   UNL A   1      37.738  33.167  31.965  1.00  0.00    -0.354 N 
ATOM     50  N   UNL A   1      39.839  31.413  31.134  1.00  0.00    -0.248 NA
ATOM     51  C   UNL A   1      42.062  30.697  31.248  1.00  0.00     0.031 C 
ATOM     52  C   UNL A   1      38.175  34.798  33.414  1.00  0.00     0.029 A 
ATOM     53  C   UNL A   1      38.739  33.744  32.716  1.00  0.00     0.049 A 
ATOM     54  H   UNL A   1      37.844  32.386  31.376  1.00  0.00     0.167 HD
ATOM     55  C   UNL A   1      40.534  32.204  32.033  1.00  0.00     0.074 A 
ATOM     56  C   UNL A   1      41.889  31.704  32.090  1.00  0.00     0.031 C 
ATOM     57  C   UNL A   1      40.091  33.279  32.720  1.00  0.00     0.031 A 
BRANCH  44  58
ATOM     58  C   UNL A   1      34.187  34.541  31.649  1.00  0.00    -0.014 A 
ATOM     59  C   UNL A   1      33.959  35.696  30.880  1.00  0.00     0.009 A 
ATOM     60  C   UNL A   1      33.308  34.256  32.709  1.00  0.00     0.009 A 
ATOM     61  C   UNL A   1      32.893  36.553  31.179  1.00  0.00     0.001 A 
ATOM     62  C   UNL A   1      32.242  35.113  33.002  1.00  0.00     0.001 A 
ATOM     63  C   UNL A   1      32.038  36.264  32.241  1.00  0.00     0.000 A 
ENDBRANCH  44  58
BRANCH  45  64
ATOM     64  C   UNL A   1      41.718  28.660  29.225  1.00  0.00    -0.014 A 
ATOM     65  C   UNL A   1      42.681  29.008  28.262  1.00  0.00     0.009 A 
ATOM     66  C   UNL A   1      41.894  27.450  29.922  1.00  0.00     0.009 A 
ATOM     67  C   UNL A   1      43.808  28.198  28.050  1.00  0.00     0.001 A 
ATOM     68  C   UNL A   1      43.051  26.681  29.759  1.00  0.00     0.001 A 
ATOM     69  C   UNL A   1      44.007  27.055  28.822  1.00  0.00     0.000 A 
ENDBRANCH  45  64
BRANCH  57  70
ATOM     70  C   UNL A   1      41.082  34.004  33.564  1.00  0.00    -0.014 A 
ATOM     71  C   UNL A   1      41.242  33.688  34.921  1.00  0.00     0.009 A 
ATOM     72  C   UNL A   1      41.884  34.991  32.979  1.00  0.00     0.009 A 
ATOM     73  C   UNL A   1      42.170  34.384  35.692  1.00  0.00     0.001 A 
ATOM     74  C   UNL A   1      42.830  35.664  33.746  1.00  0.00     0.001 A 
ATOM     75  C   UNL A   1      42.964  35.369  35.102  1.00  0.00     0.000 A 
ENDBRANCH  57  70
ENDBRANCH  31  32
ENDBRANCH  24  26
ENDBRANCH  23  24
ENDBRANCH  22  23
ENDBRANCH   1  22
TORSDOF 15
ENDMDL
MODEL 2
REMARK VINA RESULT:     -11.6      3.293     10.617
REMARK SMILES C[C@@H](C(=O)OCCOC(=O)c1ccc(-c2c3nc(c(-c4ccccc4)c4ccc([nH]4)c(-c4ccccc4)c4nc(c(-c5ccccc5)c5ccc2[nH]5)C=C4)C=C3)cc1)c1ccc(C[C@H]2CCC[C@@H]2O)cc1F
REMARK SMILES IDX 6 1 5 2 3 3 4 4 2 5 1 6 59 7 60 8 71 9 61 10 70 11 72 12
REMARK SMILES IDX 62 13 63 14 64 15 65 16 68 17 66 18 67 19 69 20 7 22 8 23
REMARK SMILES IDX 9 24 10 25 11 26 12 27 58 28 13 29 57 30 14 31 15 32 16 33
REMARK SMILES IDX 51 34 17 35 56 36 50 37 52 38 18 39 55 40 49 41 48 42 19 44
REMARK SMILES IDX 41 45 26 46 40 47 27 48 30 49 39 50 53 51 28 52 29 53 38 55
REMARK SMILES IDX 54 56 31 57 20 58 21 59 25 60 22 61 24 62 23 63 42 64 43 65
REMARK SMILES IDX 47 66 44 67 46 68 45 69 32 70 33 71 37 72 34 73 36 74 35 75
REMARK H PARENT 69 21 52 43 30 54
REMARK Flexibility Score: inf
ROOT
ATOM      1  C   UNL A   1      32.395  24.881  22.607  1.00  0.00     0.274 C 
ENDROOT
BRANCH   1   2
ATOM      2  O   UNL A   1      33.041  25.594  23.688  1.00  0.00    -0.462 OA
BRANCH   2   3
ATOM      3  C   UNL A   1      32.890  26.950  23.731  1.00  0.00     0.313 C 
ATOM      4  O   UNL A   1      33.500  27.716  22.994  1.00  0.00    -0.252 OA
BRANCH   3   5
ATOM      5  C   UNL A   1      31.890  27.407  24.815  1.00  0.00     0.129 C 
ATOM      6  C   UNL A   1      30.550  27.855  24.220  1.00  0.00     0.025 C 
BRANCH   5   7
ATOM      7  C   UNL A   1      32.497  28.448  25.755  1.00  0.00     0.002 A 
ATOM      8  C   UNL A   1      31.978  29.747  25.890  1.00  0.00     0.008 A 
ATOM      9  C   UNL A   1      33.650  28.134  26.487  1.00  0.00     0.127 A 
ATOM     10  C   UNL A   1      32.652  30.719  26.630  1.00  0.00     0.004 A 
ATOM     11  C   UNL A   1      34.342  29.103  27.210  1.00  0.00     0.043 A 
ATOM     12  F   UNL A   1      34.147  26.890  26.455  1.00  0.00    -0.207 F 
ATOM     13  C   UNL A   1      33.881  30.424  27.218  1.00  0.00    -0.045 A 
BRANCH  13  14
ATOM     14  C   UNL A   1      34.728  31.531  27.757  1.00  0.00     0.041 C 
BRANCH  14  15
ATOM     15  C   UNL A   1      34.119  32.462  28.828  1.00  0.00     0.022 C 
ATOM     16  C   UNL A   1      34.894  32.616  30.652  1.00  0.00     0.007 C 
ATOM     17  C   UNL A   1      33.252  34.201  28.346  1.00  0.00     0.117 C 
ATOM     18  C   UNL A   1      34.453  34.447  31.425  1.00  0.00     0.003 C 
ATOM     19  C   UNL A   1      33.247  35.390  30.102  1.00  0.00     0.032 C 
BRANCH  17  20
ATOM     20  O   UNL A   1      32.194  33.906  27.439  1.00  0.00    -0.393 OA
ATOM     21  H   UNL A   1      32.063  32.945  27.396  1.00  0.00     0.210 HD
ENDBRANCH  17  20
ENDBRANCH  14  15
ENDBRANCH  13  14
ENDBRANCH   5   7
ENDBRANCH   3   5
ENDBRANCH   2   3
ENDBRANCH   1   2
BRANCH   1  22
ATOM     22  C   UNL A   1      32.032  23.465  23.049  1.00  0.00     0.275 C 
BRANCH  22  23
ATOM     23  O   UNL A   1      33.167  22.623  22.816  1.00  0.00    -0.458 OA
BRANCH  23  24
ATOM     24  C   UNL A   1      33.490  21.821  23.851  1.00  0.00     0.338 C 
ATOM     25  O   UNL A   1      32.960  20.778  24.191  1.00  0.00    -0.246 OA
BRANCH  24  26
ATOM     26  C   UNL A   1      34.651  22.388  24.536  1.00  0.00     0.060 A 
ATOM     27  C   UNL A   1      34.566  22.970  25.783  1.00  0.00     0.016 A 
ATOM     28  C   UNL A   1      35.806  22.550  23.840  1.00  0.00     0.016 A 
ATOM     29  C   UNL A   1      35.664  23.672  26.384  1.00  0.00     0.010 A 
ATOM     30  C   UNL A   1      36.881  23.178  24.493  1.00  0.00     0.010 A 
ATOM     31  C   UNL A   1      37.093  23.739  25.986  1.00  0.00    -0.014 A 
BRANCH  31  32
ATOM     32  C   UNL A   1      38.928  24.281  26.940  1.00  0.00     0.031 A 
ATOM     33  C   UNL A   1      40.546  23.359  26.755  1.00  0.00     0.074 A 
ATOM     34  C   UNL A   1      39.403  25.135  28.043  1.00  0.00     0.049 A 
ATOM     35  N   UNL A   1      41.800  23.812  26.687  1.00  0.00    -0.248 NA
ATOM     36  C   UNL A   1      40.568  21.831  26.546  1.00  0.00     0.031 C 
ATOM     37  C   UNL A   1      38.585  25.879  29.072  1.00  0.00     0.029 A 
ATOM     38  N   UNL A   1      40.660  25.733  28.294  1.00  0.00    -0.354 N 
ATOM     39  C   UNL A   1      42.596  22.734  26.209  1.00  0.00     0.074 A 
ATOM     40  C   UNL A   1      41.776  21.569  26.111  1.00  0.00     0.031 C 
ATOM     41  C   UNL A   1      39.208  26.979  29.469  1.00  0.00     0.029 A 
ATOM     42  C   UNL A   1      40.581  26.918  29.043  1.00  0.00     0.049 A 
ATOM     43  H   UNL A   1      41.509  25.353  27.975  1.00  0.00     0.167 HD
ATOM     44  C   UNL A   1      43.911  22.601  25.897  1.00  0.00     0.031 A 
ATOM     45  C   UNL A   1      41.434  27.893  29.440  1.00  0.00     0.031 A 
ATOM     46  C   UNL A   1      44.928  23.456  26.403  1.00  0.00     0.049 A 
ATOM     47  C   UNL A   1      42.898  27.695  29.274  1.00  0.00     0.074 A 
ATOM     48  C   UNL A   1      46.298  23.273  26.385  1.00  0.00     0.029 A 
ATOM     49  N   UNL A   1      44.664  24.569  27.170  1.00  0.00    -0.354 N 
ATOM     50  N   UNL A   1      43.530  26.756  28.624  1.00  0.00    -0.248 NA
ATOM     51  C   UNL A   1      43.768  28.632  30.000  1.00  0.00     0.031 C 
ATOM     52  C   UNL A   1      46.859  24.216  27.251  1.00  0.00     0.029 A 
ATOM     53  C   UNL A   1      45.843  25.039  27.707  1.00  0.00     0.049 A 
ATOM     54  H   UNL A   1      43.774  24.966  27.312  1.00  0.00     0.167 HD
ATOM     55  C   UNL A   1      44.869  26.945  28.920  1.00  0.00     0.074 A 
ATOM     56  C   UNL A   1      44.966  28.130  29.743  1.00  0.00     0.031 C 
ATOM     57  C   UNL A   1      45.922  26.176  28.569  1.00  0.00     0.031 A 
BRANCH  44  58
ATOM     58  C   UNL A   1      44.327  21.359  25.126  1.00  0.00    -0.014 A 
ATOM     59  C   UNL A   1      44.696  21.454  23.773  1.00  0.00     0.009 A 
ATOM     60  C   UNL A   1      44.288  20.087  25.723  1.00  0.00     0.009 A 
ATOM     61  C   UNL A   1      44.998  20.305  23.033  1.00  0.00     0.001 A 
ATOM     62  C   UNL A   1      44.594  18.941  24.981  1.00  0.00     0.001 A 
ATOM     63  C   UNL A   1      44.943  19.050  23.636  1.00  0.00     0.000 A 
ENDBRANCH  44  58
BRANCH  45  64
ATOM     64  C   UNL A   1      40.921  29.114  30.170  1.00  0.00    -0.014 A 
ATOM     65  C   UNL A   1      40.456  30.236  29.463  1.00  0.00     0.009 A 
ATOM     66  C   UNL A   1      40.827  29.138  31.574  1.00  0.00     0.009 A 
ATOM     67  C   UNL A   1      39.866  31.316  30.139  1.00  0.00     0.001 A 
ATOM     68  C   UNL A   1      40.177  30.182  32.241  1.00  0.00     0.001 A 
ATOM     69  C   UNL A   1      39.698  31.272  31.522  1.00  0.00     0.000 A 
ENDBRANCH  45  64
BRANCH  57  70
ATOM     70  C   UNL A   1      47.259  26.569  29.096  1.00  0.00    -0.014 A 
ATOM     71  C   UNL A   1      47.748  26.032  30.295  1.00  0.00     0.009 A 
ATOM     72  C   UNL A   1      48.046  27.463  28.360  1.00  0.00     0.009 A 
ATOM     73  C   UNL A   1      48.999  26.420  30.771  1.00  0.00     0.001 A 
ATOM     74  C   UNL A   1      49.306  27.827  28.824  1.00  0.00     0.001 A 
ATOM     75  C   UNL A   1      49.776  27.315  30.033  1.00  0.00     0.000 A 
ENDBRANCH  57  70
ENDBRANCH  31  32
ENDBRANCH  24  26
ENDBRANCH  23  24
ENDBRANCH  22  23
ENDBRANCH   1  22
TORSDOF 15
ENDMDL
MODEL 3
REMARK VINA RESULT:     -11.4      2.830      6.719
REMARK SMILES C[C@@H](C(=O)OCCOC(=O)c1ccc(-c2c3nc(c(-c4ccccc4)c4ccc([nH]4)c(-c4ccccc4)c4nc(c(-c5ccccc5)c5ccc2[nH]5)C=C4)C=C3)cc1)c1ccc(C[C@H]2CCC[C@@H]2O)cc1F
REMARK SMILES IDX 6 1 5 2 3 3 4 4 2 5 1 6 59 7 60 8 71 9 61 10 70 11 72 12
REMARK SMILES IDX 62 13 63 14 64 15 65 16 68 17 66 18 67 19 69 20 7 22 8 23
REMARK SMILES IDX 9 24 10 25 11 26 12 27 58 28 13 29 57 30 14 31 15 32 16 33
REMARK SMILES IDX 51 34 17 35 56 36 50 37 52 38 18 39 55 40 49 41 48 42 19 44
REMARK SMILES IDX 41 45 26 46 40 47 27 48 30 49 39 50 53 51 28 52 29 53 38 55
REMARK SMILES IDX 54 56 31 57 20 58 21 59 25 60 22 61 24 62 23 63 42 64 43 65
REMARK SMILES IDX 47 66 44 67 46 68 45 69 32 70 33 71 37 72 34 73 36 74 35 75
REMARK H PARENT 69 21 52 43 30 54
REMARK Flexibility Score: inf
ROOT
ATOM      1  C   UNL A   1      36.293  20.488  25.059  1.00  0.00     0.274 C 
ENDROOT
BRANCH   1   2
ATOM      2  O   UNL A   1      35.222  21.274  24.486  1.00  0.00    -0.462 OA
BRANCH   2   3
ATOM      3  C   UNL A   1      34.353  21.881  25.347  1.00  0.00     0.313 C 
ATOM      4  O   UNL A   1      34.699  22.726  26.165  1.00  0.00    -0.252 OA
BRANCH   3   5
ATOM      5  C   UNL A   1      32.903  21.373  25.191  1.00  0.00     0.129 C 
ATOM      6  C   UNL A   1      32.777  20.301  24.102  1.00  0.00     0.025 C 
BRANCH   5   7
ATOM      7  C   UNL A   1      31.908  22.518  25.011  1.00  0.00     0.002 A 
ATOM      8  C   UNL A   1      31.488  22.972  23.748  1.00  0.00     0.008 A 
ATOM      9  C   UNL A   1      31.417  23.195  26.136  1.00  0.00     0.127 A 
ATOM     10  C   UNL A   1      30.709  24.122  23.618  1.00  0.00     0.004 A 
ATOM     11  C   UNL A   1      30.658  24.357  26.015  1.00  0.00     0.043 A 
ATOM     12  F   UNL A   1      31.725  22.762  27.366  1.00  0.00    -0.207 F 
ATOM     13  C   UNL A   1      30.367  24.867  24.745  1.00  0.00    -0.045 A 
BRANCH  13  14
ATOM     14  C   UNL A   1      29.788  26.235  24.580  1.00  0.00     0.041 C 
BRANCH  14  15
ATOM     15  C   UNL A   1      30.759  27.427  24.435  1.00  0.00     0.022 C 
ATOM     16  C   UNL A   1      31.779  28.149  25.981  1.00  0.00     0.007 C 
ATOM     17  C   UNL A   1      31.824  27.722  22.764  1.00  0.00     0.117 C 
ATOM     18  C   UNL A   1      33.496  29.018  25.316  1.00  0.00     0.003 C 
ATOM     19  C   UNL A   1      33.461  28.962  23.293  1.00  0.00     0.032 C 
BRANCH  17  20
ATOM     20  O   UNL A   1      30.896  27.842  21.690  1.00  0.00    -0.393 OA
ATOM     21  H   UNL A   1      31.144  27.231  20.979  1.00  0.00     0.210 HD
ENDBRANCH  17  20
ENDBRANCH  14  15
ENDBRANCH  13  14
ENDBRANCH   5   7
ENDBRANCH   3   5
ENDBRANCH   2   3
ENDBRANCH   1   2
BRANCH   1  22
ATOM     22  C   UNL A   1      37.645  21.119  24.733  1.00  0.00     0.275 C 
BRANCH  22  23
ATOM     23  O   UNL A   1      37.941  22.082  25.751  1.00  0.00    -0.458 OA
BRANCH  23  24
ATOM     24  C   UNL A   1      39.240  22.135  26.110  1.00  0.00     0.338 C 
ATOM     25  O   UNL A   1      40.127  21.342  25.850  1.00  0.00    -0.246 OA
BRANCH  24  26
ATOM     26  C   UNL A   1      39.464  23.362  26.874  1.00  0.00     0.060 A 
ATOM     27  C   UNL A   1      38.655  24.472  26.751  1.00  0.00     0.016 A 
ATOM     28  C   UNL A   1      40.627  23.500  27.561  1.00  0.00     0.016 A 
ATOM     29  C   UNL A   1      38.967  25.727  27.372  1.00  0.00     0.010 A 
ATOM     30  C   UNL A   1      40.859  24.723  28.215  1.00  0.00     0.010 A 
ATOM     31  C   UNL A   1      39.988  26.064  28.396  1.00  0.00    -0.014 A 
BRANCH  31  32
ATOM     32  C   UNL A   1      40.310  27.667  29.773  1.00  0.00     0.031 A 
ATOM     33  C   UNL A   1      39.403  29.303  29.745  1.00  0.00     0.074 A 
ATOM     34  C   UNL A   1      41.307  28.100  30.769  1.00  0.00     0.049 A 
ATOM     35  N   UNL A   1      38.977  30.077  30.747  1.00  0.00    -0.248 NA
ATOM     36  C   UNL A   1      38.932  29.926  28.415  1.00  0.00     0.031 C 
ATOM     37  C   UNL A   1      42.673  27.518  31.042  1.00  0.00     0.029 A 
ATOM     38  N   UNL A   1      41.198  28.936  31.904  1.00  0.00    -0.354 N 
ATOM     39  C   UNL A   1      38.065  31.010  30.180  1.00  0.00     0.074 A 
ATOM     40  C   UNL A   1      38.058  30.838  28.763  1.00  0.00     0.031 C 
ATOM     41  C   UNL A   1      43.012  27.679  32.313  1.00  0.00     0.029 A 
ATOM     42  C   UNL A   1      42.124  28.636  32.917  1.00  0.00     0.049 A 
ATOM     43  H   UNL A   1      40.536  29.660  31.978  1.00  0.00     0.167 HD
ATOM     44  C   UNL A   1      37.289  31.998  30.694  1.00  0.00     0.031 A 
ATOM     45  C   UNL A   1      42.360  29.037  34.188  1.00  0.00     0.031 A 
ATOM     46  C   UNL A   1      37.546  32.628  31.943  1.00  0.00     0.049 A 
ATOM     47  C   UNL A   1      41.653  30.233  34.720  1.00  0.00     0.074 A 
ATOM     48  C   UNL A   1      37.011  33.800  32.445  1.00  0.00     0.029 A 
ATOM     49  N   UNL A   1      38.541  32.220  32.802  1.00  0.00    -0.354 N 
ATOM     50  N   UNL A   1      40.666  30.904  34.193  1.00  0.00    -0.248 NA
ATOM     51  C   UNL A   1      42.178  30.795  35.974  1.00  0.00     0.031 C 
ATOM     52  C   UNL A   1      37.774  34.168  33.556  1.00  0.00     0.029 A 
ATOM     53  C   UNL A   1      38.699  33.165  33.793  1.00  0.00     0.049 A 
ATOM     54  H   UNL A   1      39.056  31.385  32.722  1.00  0.00     0.167 HD
ATOM     55  C   UNL A   1      40.497  32.007  35.011  1.00  0.00     0.074 A 
ATOM     56  C   UNL A   1      41.429  31.878  36.109  1.00  0.00     0.031 C 
ATOM     57  C   UNL A   1      39.665  33.058  34.841  1.00  0.00     0.031 A 
BRANCH  44  58
ATOM     58  C   UNL A   1      36.214  32.585  29.795  1.00  0.00    -0.014 A 
ATOM     59  C   UNL A   1      34.978  31.930  29.647  1.00  0.00     0.009 A 
ATOM     60  C   UNL A   1      36.450  33.749  29.044  1.00  0.00     0.009 A 
ATOM     61  C   UNL A   1      34.014  32.418  28.756  1.00  0.00     0.001 A 
ATOM     62  C   UNL A   1      35.484  34.235  28.156  1.00  0.00     0.001 A 
ATOM     63  C   UNL A   1      34.269  33.566  28.009  1.00  0.00     0.000 A 
ENDBRANCH  44  58
BRANCH  45  64
ATOM     64  C   UNL A   1      43.429  28.367  35.022  1.00  0.00    -0.014 A 
ATOM     65  C   UNL A   1      44.763  28.809  34.979  1.00  0.00     0.009 A 
ATOM     66  C   UNL A   1      43.110  27.330  35.919  1.00  0.00     0.009 A 
ATOM     67  C   UNL A   1      45.726  28.269  35.845  1.00  0.00     0.001 A 
ATOM     68  C   UNL A   1      44.053  26.841  36.829  1.00  0.00     0.001 A 
ATOM     69  C   UNL A   1      45.362  27.310  36.790  1.00  0.00     0.000 A 
ENDBRANCH  45  64
BRANCH  57  70
ATOM     70  C   UNL A   1      39.745  34.160  35.840  1.00  0.00    -0.014 A 
ATOM     71  C   UNL A   1      39.070  34.072  37.066  1.00  0.00     0.009 A 
ATOM     72  C   UNL A   1      40.534  35.282  35.557  1.00  0.00     0.009 A 
ATOM     73  C   UNL A   1      39.155  35.119  37.982  1.00  0.00     0.001 A 
ATOM     74  C   UNL A   1      40.639  36.312  36.485  1.00  0.00     0.001 A 
ATOM     75  C   UNL A   1      39.941  36.235  37.690  1.00  0.00     0.000 A 
ENDBRANCH  57  70
ENDBRANCH  31  32
ENDBRANCH  24  26
ENDBRANCH  23  24
ENDBRANCH  22  23
ENDBRANCH   1  22
TORSDOF 15
ENDMDL
