MODEL 1
REMARK VINA RESULT:     -10.4      0.000      0.000
REMARK SMILES C=C[C@@H]1[C@@H](O)C[C@@H]2[C@@]3(CC[C@@]4(C)[C@@H]([C@H](C)CCC=C(C)C)CC[C@@]24C)C[C@@]13CCC(=O)OCCOC(=O)c1ccc(-c2c3nc(c(-c4ccccc4)c4ccc([nH]4)c(-c4ccccc4)c4nc(c(-c5ccccc5)c5ccc2[nH]5)C=C4)C=C3)cc1
REMARK SMILES IDX 30 1 31 2 29 3 28 4 27 5 3 6 4 7 6 8 8 9 26 10 7 11 9 12
REMARK SMILES IDX 24 13 10 14 11 15 23 16 25 17 12 18 13 19 22 20 2 21 1 22
REMARK SMILES IDX 5 23 14 25 15 26 16 27 17 28 18 29 19 30 20 31 21 32 32 33
REMARK SMILES IDX 33 34 34 35 35 36 36 37 37 38 38 39 39 40 85 41 40 42 84 43
REMARK SMILES IDX 41 44 42 45 43 46 78 47 44 48 83 49 77 50 79 51 45 52 82 53
REMARK SMILES IDX 76 54 75 55 46 57 68 58 53 59 67 60 54 61 57 62 66 63 80 64
REMARK SMILES IDX 55 65 56 66 65 68 81 69 58 70 47 71 48 72 52 73 49 74 51 75
REMARK SMILES IDX 50 76 69 77 70 78 74 79 71 80 73 81 72 82 59 83 60 84 64 85
REMARK SMILES IDX 61 86 63 87 62 88
REMARK H PARENT 5 24 79 56 57 67
REMARK Flexibility Score: inf
ROOT
ATOM      1  C   UNL A   1      42.713  42.412  24.423  1.00  0.00     0.305 C 
ATOM      2  O   UNL A   1      43.570  42.940  25.122  1.00  0.00    -0.252 OA
ENDROOT
BRANCH   1   3
ATOM      3  C   UNL A   1      42.126  43.094  23.259  1.00  0.00     0.123 C 
BRANCH   3   4
ATOM      4  C   UNL A   1      43.263  43.953  22.705  1.00  0.00     0.020 C 
BRANCH   4   5
ATOM      5  C   UNL A   1      43.842  43.373  21.399  1.00  0.00    -0.014 C 
ATOM      6  C   UNL A   1      45.341  42.882  21.494  1.00  0.00     0.047 C 
ATOM      7  C   UNL A   1      46.195  43.572  20.393  1.00  0.00     0.122 C 
ATOM      8  C   UNL A   1      45.497  43.549  19.017  1.00  0.00     0.037 C 
ATOM      9  C   UNL A   1      43.155  43.798  19.973  1.00  0.00    -0.019 C 
ATOM     10  C   UNL A   1      43.062  42.404  20.586  1.00  0.00     0.016 C 
ATOM     11  C   UNL A   1      44.226  44.415  19.005  1.00  0.00     0.005 C 
ATOM     12  C   UNL A   1      41.701  44.217  19.703  1.00  0.00     0.008 C 
ATOM     13  C   UNL A   1      43.706  44.860  17.572  1.00  0.00    -0.023 C 
ATOM     14  C   UNL A   1      41.405  45.091  18.462  1.00  0.00     0.008 C 
ATOM     15  C   UNL A   1      42.527  45.902  17.713  1.00  0.00    -0.024 C 
ATOM     16  C   UNL A   1      44.716  45.686  16.746  1.00  0.00     0.008 C 
ATOM     17  C   UNL A   1      43.377  43.569  16.779  1.00  0.00     0.012 C 
ATOM     18  C   UNL A   1      41.785  46.138  16.308  1.00  0.00     0.012 C 
ATOM     19  C   UNL A   1      43.309  47.474  17.959  1.00  0.00    -0.002 C 
ATOM     20  C   UNL A   1      44.472  47.196  16.929  1.00  0.00     0.005 C 
BRANCH   6  21
ATOM     21  C   UNL A   1      45.961  42.804  22.898  1.00  0.00    -0.028 C 
ATOM     22  C   UNL A   1      46.675  43.723  23.563  1.00  0.00     0.004 C 
ENDBRANCH   6  21
BRANCH   7  23
ATOM     23  O   UNL A   1      47.453  42.906  20.208  1.00  0.00    -0.392 OA
ATOM     24  H   UNL A   1      47.632  42.336  20.971  1.00  0.00     0.210 HD
ENDBRANCH   7  23
BRANCH  19  25
ATOM     25  C   UNL A   1      43.912  48.798  19.041  1.00  0.00    -0.010 C 
ATOM     26  C   UNL A   1      43.413  50.203  18.646  1.00  0.00     0.008 C 
BRANCH  25  27
ATOM     27  C   UNL A   1      45.212  49.107  20.149  1.00  0.00     0.008 C 
BRANCH  27  28
ATOM     28  C   UNL A   1      46.335  48.024  20.540  1.00  0.00     0.027 C 
BRANCH  28  29
ATOM     29  C   UNL A   1      46.957  46.867  19.775  1.00  0.00    -0.028 C 
ATOM     30  C   UNL A   1      47.694  46.966  18.629  1.00  0.00    -0.080 C 
ATOM     31  C   UNL A   1      48.500  45.784  18.131  1.00  0.00     0.039 C 
ATOM     32  C   UNL A   1      47.892  48.175  17.727  1.00  0.00     0.039 C 
ENDBRANCH  28  29
ENDBRANCH  27  28
ENDBRANCH  25  27
ENDBRANCH  19  25
ENDBRANCH   4   5
ENDBRANCH   3   4
ENDBRANCH   1   3
BRANCH   1  33
ATOM     33  O   UNL A   1      42.058  41.219  24.655  1.00  0.00    -0.462 OA
BRANCH  33  34
ATOM     34  C   UNL A   1      42.037  40.923  26.036  1.00  0.00     0.274 C 
BRANCH  34  35
ATOM     35  C   UNL A   1      42.957  39.861  26.611  1.00  0.00     0.275 C 
BRANCH  35  36
ATOM     36  O   UNL A   1      42.248  39.093  27.563  1.00  0.00    -0.458 OA
BRANCH  36  37
ATOM     37  C   UNL A   1      42.876  38.801  28.717  1.00  0.00     0.338 C 
ATOM     38  O   UNL A   1      42.954  39.513  29.713  1.00  0.00    -0.246 OA
BRANCH  37  39
ATOM     39  C   UNL A   1      43.206  37.364  28.636  1.00  0.00     0.060 A 
ATOM     40  C   UNL A   1      42.381  36.544  27.880  1.00  0.00     0.016 A 
ATOM     41  C   UNL A   1      44.085  36.793  29.543  1.00  0.00     0.016 A 
ATOM     42  C   UNL A   1      42.122  35.272  28.323  1.00  0.00     0.010 A 
ATOM     43  C   UNL A   1      43.997  35.420  29.794  1.00  0.00     0.010 A 
ATOM     44  C   UNL A   1      42.928  34.664  29.272  1.00  0.00    -0.014 A 
BRANCH  44  45
ATOM     45  C   UNL A   1      42.595  33.302  29.777  1.00  0.00     0.031 A 
ATOM     46  C   UNL A   1      41.684  33.194  30.968  1.00  0.00     0.074 A 
ATOM     47  C   UNL A   1      43.043  32.165  29.195  1.00  0.00     0.049 A 
ATOM     48  N   UNL A   1      41.662  32.281  31.898  1.00  0.00    -0.248 NA
ATOM     49  C   UNL A   1      40.708  34.282  31.166  1.00  0.00     0.031 C 
ATOM     50  C   UNL A   1      43.775  32.045  27.929  1.00  0.00     0.029 A 
ATOM     51  N   UNL A   1      42.943  30.860  29.623  1.00  0.00    -0.354 N 
ATOM     52  C   UNL A   1      40.791  32.762  32.867  1.00  0.00     0.074 A 
ATOM     53  C   UNL A   1      40.248  34.011  32.381  1.00  0.00     0.031 C 
ATOM     54  C   UNL A   1      43.991  30.754  27.653  1.00  0.00     0.029 A 
ATOM     55  C   UNL A   1      43.636  29.980  28.823  1.00  0.00     0.049 A 
ATOM     56  H   UNL A   1      42.430  30.586  30.417  1.00  0.00     0.167 HD
ATOM     57  C   UNL A   1      40.539  32.216  34.078  1.00  0.00     0.031 A 
ATOM     58  C   UNL A   1      44.086  28.735  29.061  1.00  0.00     0.031 A 
ATOM     59  C   UNL A   1      41.052  30.932  34.473  1.00  0.00     0.049 A 
ATOM     60  C   UNL A   1      43.867  28.171  30.434  1.00  0.00     0.074 A 
ATOM     61  C   UNL A   1      40.903  30.269  35.676  1.00  0.00     0.029 A 
ATOM     62  N   UNL A   1      41.794  30.102  33.643  1.00  0.00    -0.354 N 
ATOM     63  N   UNL A   1      43.211  28.687  31.445  1.00  0.00    -0.248 NA
ATOM     64  C   UNL A   1      44.498  26.877  30.717  1.00  0.00     0.031 C 
ATOM     65  C   UNL A   1      41.604  29.061  35.592  1.00  0.00     0.029 A 
ATOM     66  C   UNL A   1      42.124  28.941  34.312  1.00  0.00     0.049 A 
ATOM     67  H   UNL A   1      42.047  30.311  32.714  1.00  0.00     0.167 HD
ATOM     68  C   UNL A   1      43.337  27.773  32.480  1.00  0.00     0.074 A 
ATOM     69  C   UNL A   1      44.106  26.659  31.962  1.00  0.00     0.031 C 
ATOM     70  C   UNL A   1      42.873  27.847  33.751  1.00  0.00     0.031 A 
BRANCH  57  71
ATOM     71  C   UNL A   1      39.796  33.039  35.090  1.00  0.00    -0.014 A 
ATOM     72  C   UNL A   1      38.413  32.937  35.287  1.00  0.00     0.009 A 
ATOM     73  C   UNL A   1      40.534  33.917  35.907  1.00  0.00     0.009 A 
ATOM     74  C   UNL A   1      37.783  33.709  36.269  1.00  0.00     0.001 A 
ATOM     75  C   UNL A   1      39.908  34.665  36.904  1.00  0.00     0.001 A 
ATOM     76  C   UNL A   1      38.531  34.565  37.081  1.00  0.00     0.000 A 
ENDBRANCH  57  71
BRANCH  58  77
ATOM     77  C   UNL A   1      44.943  28.025  28.066  1.00  0.00    -0.014 A 
ATOM     78  C   UNL A   1      44.377  27.162  27.117  1.00  0.00     0.009 A 
ATOM     79  C   UNL A   1      46.341  28.180  28.080  1.00  0.00     0.009 A 
ATOM     80  C   UNL A   1      45.191  26.446  26.234  1.00  0.00     0.001 A 
ATOM     81  C   UNL A   1      47.149  27.504  27.164  1.00  0.00     0.001 A 
ATOM     82  C   UNL A   1      46.574  26.624  26.253  1.00  0.00     0.000 A 
ENDBRANCH  58  77
BRANCH  70  83
ATOM     83  C   UNL A   1      43.123  26.657  34.628  1.00  0.00    -0.014 A 
ATOM     84  C   UNL A   1      44.317  26.513  35.348  1.00  0.00     0.009 A 
ATOM     85  C   UNL A   1      42.122  25.681  34.751  1.00  0.00     0.009 A 
ATOM     86  C   UNL A   1      44.519  25.389  36.148  1.00  0.00     0.001 A 
ATOM     87  C   UNL A   1      42.313  24.579  35.579  1.00  0.00     0.001 A 
ATOM     88  C   UNL A   1      43.515  24.427  36.268  1.00  0.00     0.000 A 
ENDBRANCH  70  83
ENDBRANCH  44  45
ENDBRANCH  37  39
ENDBRANCH  36  37
ENDBRANCH  35  36
ENDBRANCH  34  35
ENDBRANCH  33  34
ENDBRANCH   1  33
TORSDOF 19
ENDMDL
MODEL 2
REMARK VINA RESULT:     -10.4      9.855     14.909
REMARK SMILES C=C[C@@H]1[C@@H](O)C[C@@H]2[C@@]3(CC[C@@]4(C)[C@@H]([C@H](C)CCC=C(C)C)CC[C@@]24C)C[C@@]13CCC(=O)OCCOC(=O)c1ccc(-c2c3nc(c(-c4ccccc4)c4ccc([nH]4)c(-c4ccccc4)c4nc(c(-c5ccccc5)c5ccc2[nH]5)C=C4)C=C3)cc1
REMARK SMILES IDX 30 1 31 2 29 3 28 4 27 5 3 6 4 7 6 8 8 9 26 10 7 11 9 12
REMARK SMILES IDX 24 13 10 14 11 15 23 16 25 17 12 18 13 19 22 20 2 21 1 22
REMARK SMILES IDX 5 23 14 25 15 26 16 27 17 28 18 29 19 30 20 31 21 32 32 33
REMARK SMILES IDX 33 34 34 35 35 36 36 37 37 38 38 39 39 40 85 41 40 42 84 43
REMARK SMILES IDX 41 44 42 45 43 46 78 47 44 48 83 49 77 50 79 51 45 52 82 53
REMARK SMILES IDX 76 54 75 55 46 57 68 58 53 59 67 60 54 61 57 62 66 63 80 64
REMARK SMILES IDX 55 65 56 66 65 68 81 69 58 70 47 71 48 72 52 73 49 74 51 75
REMARK SMILES IDX 50 76 69 77 70 78 74 79 71 80 73 81 72 82 59 83 60 84 64 85
REMARK SMILES IDX 61 86 63 87 62 88
REMARK H PARENT 5 24 79 56 57 67
REMARK Flexibility Score: inf
ROOT
ATOM      1  C   UNL A   1      49.788  31.814  27.689  1.00  0.00     0.305 C 
ATOM      2  O   UNL A   1      50.787  32.352  27.226  1.00  0.00    -0.252 OA
ENDROOT
BRANCH   1   3
ATOM      3  C   UNL A   1      48.448  32.039  27.127  1.00  0.00     0.123 C 
BRANCH   3   4
ATOM      4  C   UNL A   1      47.499  31.359  28.113  1.00  0.00     0.020 C 
BRANCH   4   5
ATOM      5  C   UNL A   1      46.328  30.656  27.398  1.00  0.00    -0.014 C 
ATOM      6  C   UNL A   1      44.898  31.246  27.721  1.00  0.00     0.047 C 
ATOM      7  C   UNL A   1      43.960  30.113  28.226  1.00  0.00     0.122 C 
ATOM      8  C   UNL A   1      44.055  28.846  27.350  1.00  0.00     0.037 C 
ATOM      9  C   UNL A   1      46.535  29.120  26.865  1.00  0.00    -0.019 C 
ATOM     10  C   UNL A   1      46.406  30.333  25.948  1.00  0.00     0.016 C 
ATOM     11  C   UNL A   1      45.433  28.174  27.462  1.00  0.00     0.005 C 
ATOM     12  C   UNL A   1      47.838  28.427  26.435  1.00  0.00     0.008 C 
ATOM     13  C   UNL A   1      45.498  26.650  27.019  1.00  0.00    -0.023 C 
ATOM     14  C   UNL A   1      47.912  26.885  26.511  1.00  0.00     0.008 C 
ATOM     15  C   UNL A   1      46.908  26.033  27.373  1.00  0.00    -0.024 C 
ATOM     16  C   UNL A   1      44.568  25.707  27.811  1.00  0.00     0.008 C 
ATOM     17  C   UNL A   1      45.088  26.587  25.524  1.00  0.00     0.012 C 
ATOM     18  C   UNL A   1      47.112  24.602  26.674  1.00  0.00     0.012 C 
ATOM     19  C   UNL A   1      46.807  25.570  29.082  1.00  0.00    -0.002 C 
ATOM     20  C   UNL A   1      45.322  25.045  28.981  1.00  0.00     0.005 C 
BRANCH   6  21
ATOM     21  C   UNL A   1      44.850  32.574  28.491  1.00  0.00    -0.028 C 
ATOM     22  C   UNL A   1      44.545  32.799  29.777  1.00  0.00     0.004 C 
ENDBRANCH   6  21
BRANCH   7  23
ATOM     23  O   UNL A   1      42.583  30.515  28.190  1.00  0.00    -0.392 OA
ATOM     24  H   UNL A   1      42.023  29.775  28.471  1.00  0.00     0.210 HD
ENDBRANCH   7  23
BRANCH  19  25
ATOM     25  C   UNL A   1      47.094  25.907  30.840  1.00  0.00    -0.010 C 
ATOM     26  C   UNL A   1      48.585  25.934  31.236  1.00  0.00     0.008 C 
BRANCH  25  27
ATOM     27  C   UNL A   1      46.256  25.805  32.357  1.00  0.00     0.008 C 
BRANCH  27  28
ATOM     28  C   UNL A   1      45.142  24.696  32.694  1.00  0.00     0.027 C 
BRANCH  28  29
ATOM     29  C   UNL A   1      43.910  24.716  33.584  1.00  0.00    -0.028 C 
ATOM     30  C   UNL A   1      43.568  23.763  34.503  1.00  0.00    -0.080 C 
ATOM     31  C   UNL A   1      42.487  24.039  35.526  1.00  0.00     0.039 C 
ATOM     32  C   UNL A   1      44.173  22.384  34.712  1.00  0.00     0.039 C 
ENDBRANCH  28  29
ENDBRANCH  27  28
ENDBRANCH  25  27
ENDBRANCH  19  25
ENDBRANCH   4   5
ENDBRANCH   3   4
ENDBRANCH   1   3
BRANCH   1  33
ATOM     33  O   UNL A   1      49.699  31.062  28.844  1.00  0.00    -0.462 OA
BRANCH  33  34
ATOM     34  C   UNL A   1      50.927  31.076  29.543  1.00  0.00     0.274 C 
BRANCH  34  35
ATOM     35  C   UNL A   1      51.114  30.228  30.788  1.00  0.00     0.275 C 
BRANCH  35  36
ATOM     36  O   UNL A   1      49.884  29.618  31.127  1.00  0.00    -0.458 OA
BRANCH  36  37
ATOM     37  C   UNL A   1      49.253  30.065  32.228  1.00  0.00     0.338 C 
ATOM     38  O   UNL A   1      49.621  30.968  32.972  1.00  0.00    -0.246 OA
BRANCH  37  39
ATOM     39  C   UNL A   1      47.913  29.444  32.195  1.00  0.00     0.060 A 
ATOM     40  C   UNL A   1      47.216  29.452  30.996  1.00  0.00     0.016 A 
ATOM     41  C   UNL A   1      47.235  29.176  33.375  1.00  0.00     0.016 A 
ATOM     42  C   UNL A   1      45.856  29.634  31.020  1.00  0.00     0.010 A 
ATOM     43  C   UNL A   1      45.839  29.089  33.344  1.00  0.00     0.010 A 
ATOM     44  C   UNL A   1      45.125  29.439  32.180  1.00  0.00    -0.014 A 
BRANCH  44  45
ATOM     45  C   UNL A   1      43.657  29.695  32.193  1.00  0.00     0.031 A 
ATOM     46  C   UNL A   1      42.779  28.808  31.356  1.00  0.00     0.074 A 
ATOM     47  C   UNL A   1      43.079  30.658  32.947  1.00  0.00     0.049 A 
ATOM     48  N   UNL A   1      41.652  29.096  30.768  1.00  0.00    -0.248 NA
ATOM     49  C   UNL A   1      43.257  27.435  31.103  1.00  0.00     0.031 C 
ATOM     50  C   UNL A   1      43.724  31.495  33.965  1.00  0.00     0.029 A 
ATOM     51  N   UNL A   1      41.777  31.104  32.957  1.00  0.00    -0.354 N 
ATOM     52  C   UNL A   1      41.369  28.007  29.954  1.00  0.00     0.074 A 
ATOM     53  C   UNL A   1      42.402  27.020  30.177  1.00  0.00     0.031 C 
ATOM     54  C   UNL A   1      42.815  32.289  34.541  1.00  0.00     0.029 A 
ATOM     55  C   UNL A   1      41.589  32.195  33.776  1.00  0.00     0.049 A 
ATOM     56  H   UNL A   1      41.055  30.686  32.434  1.00  0.00     0.167 HD
ATOM     57  C   UNL A   1      40.362  27.899  29.060  1.00  0.00     0.031 A 
ATOM     58  C   UNL A   1      40.617  33.123  33.805  1.00  0.00     0.031 A 
ATOM     59  C   UNL A   1      39.321  28.885  28.939  1.00  0.00     0.049 A 
ATOM     60  C   UNL A   1      39.546  33.036  32.757  1.00  0.00     0.074 A 
ATOM     61  C   UNL A   1      38.256  28.921  28.059  1.00  0.00     0.029 A 
ATOM     62  N   UNL A   1      39.207  29.999  29.758  1.00  0.00    -0.354 N 
ATOM     63  N   UNL A   1      39.360  32.117  31.839  1.00  0.00    -0.248 NA
ATOM     64  C   UNL A   1      38.584  34.142  32.713  1.00  0.00     0.031 C 
ATOM     65  C   UNL A   1      37.529  30.089  28.311  1.00  0.00     0.029 A 
ATOM     66  C   UNL A   1      38.100  30.739  29.395  1.00  0.00     0.049 A 
ATOM     67  H   UNL A   1      39.825  30.229  30.490  1.00  0.00     0.167 HD
ATOM     68  C   UNL A   1      38.249  32.527  31.119  1.00  0.00     0.074 A 
ATOM     69  C   UNL A   1      37.789  33.760  31.725  1.00  0.00     0.031 C 
ATOM     70  C   UNL A   1      37.664  31.949  30.041  1.00  0.00     0.031 A 
BRANCH  57  71
ATOM     71  C   UNL A   1      40.402  26.767  28.074  1.00  0.00    -0.014 A 
ATOM     72  C   UNL A   1      41.143  26.819  26.885  1.00  0.00     0.009 A 
ATOM     73  C   UNL A   1      39.702  25.586  28.385  1.00  0.00     0.009 A 
ATOM     74  C   UNL A   1      41.166  25.718  26.023  1.00  0.00     0.001 A 
ATOM     75  C   UNL A   1      39.749  24.480  27.537  1.00  0.00     0.001 A 
ATOM     76  C   UNL A   1      40.477  24.549  26.352  1.00  0.00     0.000 A 
ENDBRANCH  57  71
BRANCH  58  77
ATOM     77  C   UNL A   1      40.709  34.304  34.713  1.00  0.00    -0.014 A 
ATOM     78  C   UNL A   1      41.463  35.430  34.351  1.00  0.00     0.009 A 
ATOM     79  C   UNL A   1      40.071  34.300  35.967  1.00  0.00     0.009 A 
ATOM     80  C   UNL A   1      41.604  36.503  35.236  1.00  0.00     0.001 A 
ATOM     81  C   UNL A   1      40.170  35.395  36.827  1.00  0.00     0.001 A 
ATOM     82  C   UNL A   1      40.951  36.488  36.469  1.00  0.00     0.000 A 
ENDBRANCH  58  77
BRANCH  70  83
ATOM     83  C   UNL A   1      36.425  32.608  29.515  1.00  0.00    -0.014 A 
ATOM     84  C   UNL A   1      36.480  33.565  28.492  1.00  0.00     0.009 A 
ATOM     85  C   UNL A   1      35.180  32.233  30.042  1.00  0.00     0.009 A 
ATOM     86  C   UNL A   1      35.308  34.164  28.032  1.00  0.00     0.001 A 
ATOM     87  C   UNL A   1      34.008  32.807  29.554  1.00  0.00     0.001 A 
ATOM     88  C   UNL A   1      34.074  33.780  28.558  1.00  0.00     0.000 A 
ENDBRANCH  70  83
ENDBRANCH  44  45
ENDBRANCH  37  39
ENDBRANCH  36  37
ENDBRANCH  35  36
ENDBRANCH  34  35
ENDBRANCH  33  34
ENDBRANCH   1  33
TORSDOF 19
ENDMDL
MODEL 3
REMARK VINA RESULT:     -10.3      8.671     14.160
REMARK SMILES C=C[C@@H]1[C@@H](O)C[C@@H]2[C@@]3(CC[C@@]4(C)[C@@H]([C@H](C)CCC=C(C)C)CC[C@@]24C)C[C@@]13CCC(=O)OCCOC(=O)c1ccc(-c2c3nc(c(-c4ccccc4)c4ccc([nH]4)c(-c4ccccc4)c4nc(c(-c5ccccc5)c5ccc2[nH]5)C=C4)C=C3)cc1
REMARK SMILES IDX 30 1 31 2 29 3 28 4 27 5 3 6 4 7 6 8 8 9 26 10 7 11 9 12
REMARK SMILES IDX 24 13 10 14 11 15 23 16 25 17 12 18 13 19 22 20 2 21 1 22
REMARK SMILES IDX 5 23 14 25 15 26 16 27 17 28 18 29 19 30 20 31 21 32 32 33
REMARK SMILES IDX 33 34 34 35 35 36 36 37 37 38 38 39 39 40 85 41 40 42 84 43
REMARK SMILES IDX 41 44 42 45 43 46 78 47 44 48 83 49 77 50 79 51 45 52 82 53
REMARK SMILES IDX 76 54 75 55 46 57 68 58 53 59 67 60 54 61 57 62 66 63 80 64
REMARK SMILES IDX 55 65 56 66 65 68 81 69 58 70 47 71 48 72 52 73 49 74 51 75
REMARK SMILES IDX 50 76 69 77 70 78 74 79 71 80 73 81 72 82 59 83 60 84 64 85
REMARK SMILES IDX 61 86 63 87 62 88
REMARK H PARENT 5 24 79 56 57 67
REMARK Flexibility Score: inf
ROOT
ATOM      1  C   UNL A   1      37.444  32.024  34.699  1.00  0.00     0.305 C 
ATOM      2  O   UNL A   1      37.032  32.274  35.826  1.00  0.00    -0.252 OA
ENDROOT
BRANCH   1   3
ATOM      3  C   UNL A   1      38.829  32.311  34.293  1.00  0.00     0.123 C 
BRANCH   3   4
ATOM      4  C   UNL A   1      38.983  33.818  34.495  1.00  0.00     0.020 C 
BRANCH   4   5
ATOM      5  C   UNL A   1      40.276  34.358  33.852  1.00  0.00    -0.014 C 
ATOM      6  C   UNL A   1      40.165  34.699  32.313  1.00  0.00     0.047 C 
ATOM      7  C   UNL A   1      41.272  33.945  31.523  1.00  0.00     0.122 C 
ATOM      8  C   UNL A   1      42.652  34.057  32.206  1.00  0.00     0.037 C 
ATOM      9  C   UNL A   1      41.712  34.024  34.568  1.00  0.00    -0.019 C 
ATOM     10  C   UNL A   1      41.078  35.412  34.528  1.00  0.00     0.016 C 
ATOM     11  C   UNL A   1      42.684  33.321  33.555  1.00  0.00     0.005 C 
ATOM     12  C   UNL A   1      41.997  33.754  36.054  1.00  0.00     0.008 C 
ATOM     13  C   UNL A   1      44.127  32.950  34.106  1.00  0.00    -0.023 C 
ATOM     14  C   UNL A   1      43.254  32.933  36.425  1.00  0.00     0.008 C 
ATOM     15  C   UNL A   1      44.009  32.027  35.382  1.00  0.00    -0.024 C 
ATOM     16  C   UNL A   1      44.960  32.042  33.177  1.00  0.00     0.008 C 
ATOM     17  C   UNL A   1      44.901  34.280  34.302  1.00  0.00     0.012 C 
ATOM     18  C   UNL A   1      45.422  31.886  36.134  1.00  0.00     0.012 C 
ATOM     19  C   UNL A   1      43.784  30.382  34.760  1.00  0.00    -0.002 C 
ATOM     20  C   UNL A   1      44.804  30.561  33.568  1.00  0.00     0.005 C 
BRANCH   6  21
ATOM     21  C   UNL A   1      38.757  34.694  31.698  1.00  0.00    -0.028 C 
ATOM     22  C   UNL A   1      38.232  33.864  30.787  1.00  0.00     0.004 C 
ENDBRANCH   6  21
BRANCH   7  23
ATOM     23  O   UNL A   1      41.440  34.487  30.205  1.00  0.00    -0.392 OA
ATOM     24  H   UNL A   1      42.286  34.959  30.155  1.00  0.00     0.210 HD
ENDBRANCH   7  23
BRANCH  19  25
ATOM     25  C   UNL A   1      42.720  28.989  34.297  1.00  0.00    -0.010 C 
ATOM     26  C   UNL A   1      41.924  28.393  35.476  1.00  0.00     0.008 C 
BRANCH  25  27
ATOM     27  C   UNL A   1      42.581  27.795  33.045  1.00  0.00     0.008 C 
BRANCH  27  28
ATOM     28  C   UNL A   1      43.520  27.747  31.742  1.00  0.00     0.027 C 
BRANCH  28  29
ATOM     29  C   UNL A   1      43.980  26.606  30.848  1.00  0.00    -0.028 C 
ATOM     30  C   UNL A   1      44.492  25.411  31.270  1.00  0.00    -0.080 C 
ATOM     31  C   UNL A   1      44.634  24.255  30.303  1.00  0.00     0.039 C 
ATOM     32  C   UNL A   1      44.931  25.006  32.668  1.00  0.00     0.039 C 
ENDBRANCH  28  29
ENDBRANCH  27  28
ENDBRANCH  25  27
ENDBRANCH  19  25
ENDBRANCH   4   5
ENDBRANCH   3   4
ENDBRANCH   1   3
BRANCH   1  33
ATOM     33  O   UNL A   1      36.710  31.595  33.612  1.00  0.00    -0.462 OA
BRANCH  33  34
ATOM     34  C   UNL A   1      35.750  32.566  33.246  1.00  0.00     0.274 C 
BRANCH  34  35
ATOM     35  C   UNL A   1      35.083  32.513  31.883  1.00  0.00     0.275 C 
BRANCH  35  36
ATOM     36  O   UNL A   1      35.530  31.366  31.188  1.00  0.00    -0.458 OA
BRANCH  36  37
ATOM     37  C   UNL A   1      35.534  31.418  29.842  1.00  0.00     0.338 C 
ATOM     38  O   UNL A   1      35.115  32.332  29.140  1.00  0.00    -0.246 OA
BRANCH  37  39
ATOM     39  C   UNL A   1      36.384  30.292  29.406  1.00  0.00     0.060 A 
ATOM     40  C   UNL A   1      36.860  29.417  30.371  1.00  0.00     0.016 A 
ATOM     41  C   UNL A   1      36.969  30.301  28.148  1.00  0.00     0.016 A 
ATOM     42  C   UNL A   1      38.128  28.909  30.240  1.00  0.00     0.010 A 
ATOM     43  C   UNL A   1      38.130  29.549  27.941  1.00  0.00     0.010 A 
ATOM     44  C   UNL A   1      38.792  28.938  29.026  1.00  0.00    -0.014 A 
BRANCH  44  45
ATOM     45  C   UNL A   1      40.188  28.429  28.921  1.00  0.00     0.031 A 
ATOM     46  C   UNL A   1      41.312  29.407  29.120  1.00  0.00     0.074 A 
ATOM     47  C   UNL A   1      40.489  27.130  28.694  1.00  0.00     0.049 A 
ATOM     48  N   UNL A   1      42.503  29.401  28.588  1.00  0.00    -0.248 NA
ATOM     49  C   UNL A   1      41.045  30.570  29.987  1.00  0.00     0.031 C 
ATOM     50  C   UNL A   1      39.558  25.996  28.662  1.00  0.00     0.029 A 
ATOM     51  N   UNL A   1      41.706  26.541  28.431  1.00  0.00    -0.354 N 
ATOM     52  C   UNL A   1      43.064  30.627  28.923  1.00  0.00     0.074 A 
ATOM     53  C   UNL A   1      42.116  31.321  29.765  1.00  0.00     0.031 C 
ATOM     54  C   UNL A   1      40.236  24.859  28.470  1.00  0.00     0.029 A 
ATOM     55  C   UNL A   1      41.599  25.203  28.125  1.00  0.00     0.049 A 
ATOM     56  H   UNL A   1      42.561  27.027  28.460  1.00  0.00     0.167 HD
ATOM     57  C   UNL A   1      44.244  31.125  28.494  1.00  0.00     0.031 A 
ATOM     58  C   UNL A   1      42.441  24.373  27.485  1.00  0.00     0.031 A 
ATOM     59  C   UNL A   1      45.178  30.354  27.718  1.00  0.00     0.049 A 
ATOM     60  C   UNL A   1      43.713  24.958  26.945  1.00  0.00     0.074 A 
ATOM     61  C   UNL A   1      46.396  30.738  27.191  1.00  0.00     0.029 A 
ATOM     62  N   UNL A   1      44.998  29.017  27.389  1.00  0.00    -0.354 N 
ATOM     63  N   UNL A   1      44.185  26.174  27.078  1.00  0.00    -0.248 NA
ATOM     64  C   UNL A   1      44.542  24.072  26.121  1.00  0.00     0.031 C 
ATOM     65  C   UNL A   1      46.927  29.647  26.494  1.00  0.00     0.029 A 
ATOM     66  C   UNL A   1      46.074  28.565  26.652  1.00  0.00     0.049 A 
ATOM     67  H   UNL A   1      44.218  28.472  27.644  1.00  0.00     0.167 HD
ATOM     68  C   UNL A   1      45.375  26.194  26.367  1.00  0.00     0.074 A 
ATOM     69  C   UNL A   1      45.564  24.861  25.831  1.00  0.00     0.031 C 
ATOM     70  C   UNL A   1      46.233  27.223  26.158  1.00  0.00     0.031 A 
BRANCH  57  71
ATOM     71  C   UNL A   1      44.532  32.580  28.734  1.00  0.00    -0.014 A 
ATOM     72  C   UNL A   1      44.021  33.601  27.923  1.00  0.00     0.009 A 
ATOM     73  C   UNL A   1      45.313  32.929  29.852  1.00  0.00     0.009 A 
ATOM     74  C   UNL A   1      44.301  34.940  28.218  1.00  0.00     0.001 A 
ATOM     75  C   UNL A   1      45.566  34.265  30.160  1.00  0.00     0.001 A 
ATOM     76  C   UNL A   1      45.065  35.271  29.339  1.00  0.00     0.000 A 
ENDBRANCH  57  71
BRANCH  58  77
ATOM     77  C   UNL A   1      42.035  22.976  27.150  1.00  0.00    -0.014 A 
ATOM     78  C   UNL A   1      41.219  22.713  26.040  1.00  0.00     0.009 A 
ATOM     79  C   UNL A   1      42.431  21.897  27.960  1.00  0.00     0.009 A 
ATOM     80  C   UNL A   1      40.784  21.411  25.772  1.00  0.00     0.001 A 
ATOM     81  C   UNL A   1      42.039  20.591  27.661  1.00  0.00     0.001 A 
ATOM     82  C   UNL A   1      41.201  20.351  26.578  1.00  0.00     0.000 A 
ENDBRANCH  58  77
BRANCH  70  83
ATOM     83  C   UNL A   1      47.480  26.912  25.387  1.00  0.00    -0.014 A 
ATOM     84  C   UNL A   1      47.588  27.198  24.019  1.00  0.00     0.009 A 
ATOM     85  C   UNL A   1      48.574  26.348  26.061  1.00  0.00     0.009 A 
ATOM     86  C   UNL A   1      48.761  26.888  23.331  1.00  0.00     0.001 A 
ATOM     87  C   UNL A   1      49.756  26.073  25.378  1.00  0.00     0.001 A 
ATOM     88  C   UNL A   1      49.845  26.333  24.012  1.00  0.00     0.000 A 
ENDBRANCH  70  83
ENDBRANCH  44  45
ENDBRANCH  37  39
ENDBRANCH  36  37
ENDBRANCH  35  36
ENDBRANCH  34  35
ENDBRANCH  33  34
ENDBRANCH   1  33
TORSDOF 19
ENDMDL
