MODEL 1
REMARK VINA RESULT:     -12.0      0.000      0.000
REMARK SMILES Nn1c(S[C@@H](C(=O)OCCOC(=O)c2ccc(-c3c4nc(c(-c5ccccc5)c5ccc([nH]5)c(-c5ccccc5)c5nc(c(-c6ccccc6)c6ccc3[nH]6)C=C5)C=C4)cc2)c2ccccc2)nc2ccc(Br)cc2c1=O
REMARK SMILES IDX 9 1 8 2 6 3 7 4 5 5 4 6 3 7 2 8 76 9 68 10 75 11 77 12 69 13
REMARK SMILES IDX 74 14 70 15 72 16 71 17 73 18 1 19 62 22 63 23 67 24 64 25
REMARK SMILES IDX 66 26 65 27 10 28 11 29 12 30 13 31 14 32 15 33 61 34 16 35
REMARK SMILES IDX 60 36 17 37 18 38 19 39 54 40 20 41 59 42 53 43 55 44 21 45
REMARK SMILES IDX 58 46 52 47 51 48 22 50 44 51 29 52 43 53 30 54 33 55 42 56
REMARK SMILES IDX 56 57 31 58 32 59 41 61 57 62 34 63 23 64 24 65 28 66 25 67
REMARK SMILES IDX 27 68 26 69 45 70 46 71 50 72 47 73 49 74 48 75 35 76 36 77
REMARK SMILES IDX 40 78 37 79 39 80 38 81
REMARK H PARENT 1 20 1 21 55 49 33 60
REMARK Flexibility Score: inf
ROOT
ATOM      1  C   UNL A   1      31.678  28.761  26.138  1.00  0.00     0.274 C 
ENDROOT
BRANCH   1   2
ATOM      2  O   UNL A   1      32.559  28.712  24.990  1.00  0.00    -0.461 OA
BRANCH   2   3
ATOM      3  C   UNL A   1      31.941  28.627  23.773  1.00  0.00     0.324 C 
ATOM      4  O   UNL A   1      32.572  28.757  22.725  1.00  0.00    -0.251 OA
BRANCH   3   5
ATOM      5  C   UNL A   1      30.396  28.547  23.843  1.00  0.00     0.194 C 
BRANCH   5   6
ATOM      6  S   UNL A   1      29.722  26.876  23.584  1.00  0.00    -0.066 SA
BRANCH   6   7
ATOM      7  C   UNL A   1      30.727  25.619  24.281  1.00  0.00     0.191 A 
ATOM      8  N   UNL A   1      30.602  25.119  25.573  1.00  0.00    -0.202 N 
ATOM      9  C   UNL A   1      31.476  24.162  26.102  1.00  0.00     0.280 A 
ATOM     10  N   UNL A   1      31.673  25.214  23.487  1.00  0.00    -0.222 NA
ATOM     11  C   UNL A   1      32.545  23.704  25.213  1.00  0.00     0.069 A 
ATOM     12  O   UNL A   1      31.388  23.723  27.249  1.00  0.00    -0.267 OA
ATOM     13  C   UNL A   1      32.596  24.261  23.938  1.00  0.00     0.079 A 
ATOM     14  C   UNL A   1      33.487  22.766  25.651  1.00  0.00     0.031 A 
ATOM     15  C   UNL A   1      33.632  23.868  23.087  1.00  0.00     0.030 A 
ATOM     16  C   UNL A   1      34.511  22.392  24.790  1.00  0.00     0.018 A 
ATOM     17  C   UNL A   1      34.591  22.940  23.511  1.00  0.00     0.018 A 
ATOM     18  Br  UNL A   1      35.810  21.145  25.364  1.00  0.00    -0.051 Br
BRANCH   8  19
ATOM     19  N   UNL A   1      29.593  25.523  26.449  1.00  0.00    -0.334 N 
ATOM     20  H   UNL A   1      29.799  26.147  27.183  1.00  0.00     0.178 HD
ATOM     21  H   UNL A   1      28.675  25.185  26.335  1.00  0.00     0.178 HD
ENDBRANCH   8  19
ENDBRANCH   6   7
ENDBRANCH   5   6
BRANCH   5  22
ATOM     22  C   UNL A   1      29.602  29.740  23.256  1.00  0.00    -0.023 A 
ATOM     23  C   UNL A   1      29.479  30.974  23.925  1.00  0.00     0.005 A 
ATOM     24  C   UNL A   1      28.981  29.651  21.991  1.00  0.00     0.005 A 
ATOM     25  C   UNL A   1      28.688  32.010  23.414  1.00  0.00     0.000 A 
ATOM     26  C   UNL A   1      28.187  30.683  21.480  1.00  0.00     0.000 A 
ATOM     27  C   UNL A   1      28.026  31.858  22.202  1.00  0.00     0.000 A 
ENDBRANCH   5  22
ENDBRANCH   3   5
ENDBRANCH   2   3
ENDBRANCH   1   2
BRANCH   1  28
ATOM     28  C   UNL A   1      31.791  30.091  26.880  1.00  0.00     0.275 C 
BRANCH  28  29
ATOM     29  O   UNL A   1      32.900  30.843  26.359  1.00  0.00    -0.458 OA
BRANCH  29  30
ATOM     30  C   UNL A   1      33.452  31.742  27.201  1.00  0.00     0.338 C 
ATOM     31  O   UNL A   1      32.910  32.757  27.630  1.00  0.00    -0.246 OA
BRANCH  30  32
ATOM     32  C   UNL A   1      34.795  31.291  27.648  1.00  0.00     0.060 A 
ATOM     33  C   UNL A   1      35.739  32.250  28.017  1.00  0.00     0.016 A 
ATOM     34  C   UNL A   1      35.067  29.940  27.892  1.00  0.00     0.016 A 
ATOM     35  C   UNL A   1      36.937  31.857  28.626  1.00  0.00     0.010 A 
ATOM     36  C   UNL A   1      36.196  29.570  28.628  1.00  0.00     0.010 A 
ATOM     37  C   UNL A   1      37.168  30.515  28.977  1.00  0.00    -0.014 A 
BRANCH  37  38
ATOM     38  C   UNL A   1      38.419  30.125  29.692  1.00  0.00     0.031 A 
ATOM     39  C   UNL A   1      38.615  30.433  31.157  1.00  0.00     0.074 A 
ATOM     40  C   UNL A   1      39.404  29.479  29.031  1.00  0.00     0.049 A 
ATOM     41  N   UNL A   1      39.553  30.004  31.969  1.00  0.00    -0.248 NA
ATOM     42  C   UNL A   1      37.671  31.368  31.791  1.00  0.00     0.031 C 
ATOM     43  C   UNL A   1      39.438  29.221  27.589  1.00  0.00     0.029 A 
ATOM     44  N   UNL A   1      40.556  28.890  29.499  1.00  0.00    -0.354 N 
ATOM     45  C   UNL A   1      39.316  30.629  33.187  1.00  0.00     0.074 A 
ATOM     46  C   UNL A   1      38.199  31.522  32.995  1.00  0.00     0.031 C 
ATOM     47  C   UNL A   1      40.505  28.457  27.305  1.00  0.00     0.029 A 
ATOM     48  C   UNL A   1      41.236  28.178  28.538  1.00  0.00     0.049 A 
ATOM     49  H   UNL A   1      40.865  28.970  30.430  1.00  0.00     0.167 HD
ATOM     50  C   UNL A   1      39.935  30.446  34.377  1.00  0.00     0.031 A 
ATOM     51  C   UNL A   1      42.295  27.351  28.639  1.00  0.00     0.031 A 
ATOM     52  C   UNL A   1      41.006  29.518  34.601  1.00  0.00     0.049 A 
ATOM     53  C   UNL A   1      42.903  27.070  29.984  1.00  0.00     0.074 A 
ATOM     54  C   UNL A   1      41.609  29.171  35.798  1.00  0.00     0.029 A 
ATOM     55  N   UNL A   1      41.630  28.786  33.607  1.00  0.00    -0.354 N 
ATOM     56  N   UNL A   1      42.569  27.550  31.156  1.00  0.00    -0.248 NA
ATOM     57  C   UNL A   1      44.017  26.108  30.024  1.00  0.00     0.031 C 
ATOM     58  C   UNL A   1      42.622  28.248  35.523  1.00  0.00     0.029 A 
ATOM     59  C   UNL A   1      42.623  27.996  34.161  1.00  0.00     0.049 A 
ATOM     60  H   UNL A   1      41.404  28.821  32.650  1.00  0.00     0.167 HD
ATOM     61  C   UNL A   1      43.413  26.937  32.072  1.00  0.00     0.074 A 
ATOM     62  C   UNL A   1      44.269  26.040  31.324  1.00  0.00     0.031 C 
ATOM     63  C   UNL A   1      43.467  27.103  33.415  1.00  0.00     0.031 A 
BRANCH  50  64
ATOM     64  C   UNL A   1      39.432  31.241  35.549  1.00  0.00    -0.014 A 
ATOM     65  C   UNL A   1      38.275  30.836  36.231  1.00  0.00     0.009 A 
ATOM     66  C   UNL A   1      40.081  32.421  35.949  1.00  0.00     0.009 A 
ATOM     67  C   UNL A   1      37.784  31.590  37.298  1.00  0.00     0.001 A 
ATOM     68  C   UNL A   1      39.604  33.157  37.033  1.00  0.00     0.001 A 
ATOM     69  C   UNL A   1      38.454  32.744  37.704  1.00  0.00     0.000 A 
ENDBRANCH  50  64
BRANCH  51  70
ATOM     70  C   UNL A   1      42.786  26.641  27.430  1.00  0.00    -0.014 A 
ATOM     71  C   UNL A   1      43.795  27.199  26.630  1.00  0.00     0.009 A 
ATOM     72  C   UNL A   1      42.228  25.407  27.064  1.00  0.00     0.009 A 
ATOM     73  C   UNL A   1      44.231  26.533  25.482  1.00  0.00     0.001 A 
ATOM     74  C   UNL A   1      42.679  24.736  25.925  1.00  0.00     0.001 A 
ATOM     75  C   UNL A   1      43.677  25.301  25.134  1.00  0.00     0.000 A 
ENDBRANCH  51  70
BRANCH  63  76
ATOM     76  C   UNL A   1      44.472  26.297  34.186  1.00  0.00    -0.014 A 
ATOM     77  C   UNL A   1      44.111  25.041  34.697  1.00  0.00     0.009 A 
ATOM     78  C   UNL A   1      45.734  26.824  34.493  1.00  0.00     0.009 A 
ATOM     79  C   UNL A   1      44.993  24.330  35.512  1.00  0.00     0.001 A 
ATOM     80  C   UNL A   1      46.622  26.101  35.292  1.00  0.00     0.001 A 
ATOM     81  C   UNL A   1      46.248  24.860  35.806  1.00  0.00     0.000 A 
ENDBRANCH  63  76
ENDBRANCH  37  38
ENDBRANCH  30  32
ENDBRANCH  29  30
ENDBRANCH  28  29
ENDBRANCH   1  28
TORSDOF 15
ENDMDL
MODEL 2
REMARK VINA RESULT:     -12.0      3.686      6.531
REMARK SMILES Nn1c(S[C@@H](C(=O)OCCOC(=O)c2ccc(-c3c4nc(c(-c5ccccc5)c5ccc([nH]5)c(-c5ccccc5)c5nc(c(-c6ccccc6)c6ccc3[nH]6)C=C5)C=C4)cc2)c2ccccc2)nc2ccc(Br)cc2c1=O
REMARK SMILES IDX 9 1 8 2 6 3 7 4 5 5 4 6 3 7 2 8 76 9 68 10 75 11 77 12 69 13
REMARK SMILES IDX 74 14 70 15 72 16 71 17 73 18 1 19 62 22 63 23 67 24 64 25
REMARK SMILES IDX 66 26 65 27 10 28 11 29 12 30 13 31 14 32 15 33 61 34 16 35
REMARK SMILES IDX 60 36 17 37 18 38 19 39 54 40 20 41 59 42 53 43 55 44 21 45
REMARK SMILES IDX 58 46 52 47 51 48 22 50 44 51 29 52 43 53 30 54 33 55 42 56
REMARK SMILES IDX 56 57 31 58 32 59 41 61 57 62 34 63 23 64 24 65 28 66 25 67
REMARK SMILES IDX 27 68 26 69 45 70 46 71 50 72 47 73 49 74 48 75 35 76 36 77
REMARK SMILES IDX 40 78 37 79 39 80 38 81
REMARK H PARENT 1 20 1 21 55 49 33 60
REMARK Flexibility Score: inf
ROOT
ATOM      1  C   UNL A   1      32.492  29.459  25.887  1.00  0.00     0.274 C 
ENDROOT
BRANCH   1   2
ATOM      2  O   UNL A   1      33.122  29.133  24.626  1.00  0.00    -0.461 OA
BRANCH   2   3
ATOM      3  C   UNL A   1      32.271  28.842  23.596  1.00  0.00     0.324 C 
ATOM      4  O   UNL A   1      32.641  28.900  22.424  1.00  0.00    -0.251 OA
BRANCH   3   5
ATOM      5  C   UNL A   1      30.798  28.627  24.023  1.00  0.00     0.194 C 
BRANCH   5   6
ATOM      6  S   UNL A   1      30.318  26.881  24.199  1.00  0.00    -0.066 SA
BRANCH   6   7
ATOM      7  C   UNL A   1      31.659  25.776  23.964  1.00  0.00     0.191 A 
ATOM      8  N   UNL A   1      32.132  25.344  22.729  1.00  0.00    -0.202 N 
ATOM      9  C   UNL A   1      33.164  24.406  22.600  1.00  0.00     0.280 A 
ATOM     10  N   UNL A   1      32.162  25.329  25.076  1.00  0.00    -0.222 NA
ATOM     11  C   UNL A   1      33.732  23.897  23.849  1.00  0.00     0.069 A 
ATOM     12  O   UNL A   1      33.581  24.002  21.515  1.00  0.00    -0.267 OA
ATOM     13  C   UNL A   1      33.195  24.383  25.039  1.00  0.00     0.079 A 
ATOM     14  C   UNL A   1      34.753  22.940  23.833  1.00  0.00     0.031 A 
ATOM     15  C   UNL A   1      33.695  23.881  26.242  1.00  0.00     0.030 A 
ATOM     16  C   UNL A   1      35.233  22.451  25.041  1.00  0.00     0.018 A 
ATOM     17  C   UNL A   1      34.708  22.914  26.247  1.00  0.00     0.018 A 
ATOM     18  Br  UNL A   1      36.595  21.140  25.049  1.00  0.00    -0.051 Br
BRANCH   8  19
ATOM     19  N   UNL A   1      31.623  25.809  21.515  1.00  0.00    -0.334 N 
ATOM     20  H   UNL A   1      31.358  25.169  20.815  1.00  0.00     0.178 HD
ATOM     21  H   UNL A   1      31.530  26.777  21.358  1.00  0.00     0.178 HD
ENDBRANCH   8  19
ENDBRANCH   6   7
ENDBRANCH   5   6
BRANCH   5  22
ATOM     22  C   UNL A   1      29.747  29.606  23.442  1.00  0.00    -0.023 A 
ATOM     23  C   UNL A   1      29.503  30.877  23.999  1.00  0.00     0.005 A 
ATOM     24  C   UNL A   1      28.998  29.273  22.294  1.00  0.00     0.005 A 
ATOM     25  C   UNL A   1      28.491  31.711  23.508  1.00  0.00     0.000 A 
ATOM     26  C   UNL A   1      27.984  30.102  21.803  1.00  0.00     0.000 A 
ATOM     27  C   UNL A   1      27.718  31.315  22.423  1.00  0.00     0.000 A 
ENDBRANCH   5  22
ENDBRANCH   3   5
ENDBRANCH   2   3
ENDBRANCH   1   2
BRANCH   1  28
ATOM     28  C   UNL A   1      33.221  30.591  26.608  1.00  0.00     0.275 C 
BRANCH  28  29
ATOM     29  O   UNL A   1      33.812  30.091  27.819  1.00  0.00    -0.458 OA
BRANCH  29  30
ATOM     30  C   UNL A   1      34.805  30.838  28.345  1.00  0.00     0.338 C 
ATOM     31  O   UNL A   1      34.695  31.976  28.791  1.00  0.00    -0.246 OA
BRANCH  30  32
ATOM     32  C   UNL A   1      36.067  30.058  28.423  1.00  0.00     0.060 A 
ATOM     33  C   UNL A   1      36.953  30.099  27.346  1.00  0.00     0.016 A 
ATOM     34  C   UNL A   1      36.475  29.447  29.615  1.00  0.00     0.016 A 
ATOM     35  C   UNL A   1      38.231  29.539  27.466  1.00  0.00     0.010 A 
ATOM     36  C   UNL A   1      37.796  29.022  29.773  1.00  0.00     0.010 A 
ATOM     37  C   UNL A   1      38.687  29.026  28.694  1.00  0.00    -0.014 A 
BRANCH  37  38
ATOM     38  C   UNL A   1      40.078  28.501  28.823  1.00  0.00     0.031 A 
ATOM     39  C   UNL A   1      40.420  27.079  28.448  1.00  0.00     0.074 A 
ATOM     40  C   UNL A   1      41.065  29.303  29.279  1.00  0.00     0.049 A 
ATOM     41  N   UNL A   1      41.602  26.523  28.325  1.00  0.00    -0.248 NA
ATOM     42  C   UNL A   1      39.304  26.145  28.221  1.00  0.00     0.031 C 
ATOM     43  C   UNL A   1      40.888  30.657  29.809  1.00  0.00     0.029 A 
ATOM     44  N   UNL A   1      42.425  29.102  29.336  1.00  0.00    -0.354 N 
ATOM     45  C   UNL A   1      41.365  25.187  28.025  1.00  0.00     0.074 A 
ATOM     46  C   UNL A   1      39.936  24.993  28.060  1.00  0.00     0.031 C 
ATOM     47  C   UNL A   1      42.095  31.193  30.057  1.00  0.00     0.029 A 
ATOM     48  C   UNL A   1      43.129  30.222  29.713  1.00  0.00     0.049 A 
ATOM     49  H   UNL A   1      42.853  28.240  29.128  1.00  0.00     0.167 HD
ATOM     50  C   UNL A   1      42.247  24.213  27.701  1.00  0.00     0.031 A 
ATOM     51  C   UNL A   1      44.455  30.464  29.731  1.00  0.00     0.031 A 
ATOM     52  C   UNL A   1      43.666  24.403  27.601  1.00  0.00     0.049 A 
ATOM     53  C   UNL A   1      45.418  29.411  29.262  1.00  0.00     0.074 A 
ATOM     54  C   UNL A   1      44.625  23.510  27.155  1.00  0.00     0.029 A 
ATOM     55  N   UNL A   1      44.328  25.567  27.948  1.00  0.00    -0.354 N 
ATOM     56  N   UNL A   1      45.168  28.199  28.833  1.00  0.00    -0.248 NA
ATOM     57  C   UNL A   1      46.845  29.770  29.252  1.00  0.00     0.031 C 
ATOM     58  C   UNL A   1      45.875  24.125  27.261  1.00  0.00     0.029 A 
ATOM     59  C   UNL A   1      45.687  25.412  27.738  1.00  0.00     0.049 A 
ATOM     60  H   UNL A   1      43.898  26.383  28.292  1.00  0.00     0.167 HD
ATOM     61  C   UNL A   1      46.399  27.660  28.482  1.00  0.00     0.074 A 
ATOM     62  C   UNL A   1      47.395  28.679  28.738  1.00  0.00     0.031 C 
ATOM     63  C   UNL A   1      46.673  26.429  27.989  1.00  0.00     0.031 A 
BRANCH  50  64
ATOM     64  C   UNL A   1      41.692  22.854  27.382  1.00  0.00    -0.014 A 
ATOM     65  C   UNL A   1      42.009  21.755  28.193  1.00  0.00     0.009 A 
ATOM     66  C   UNL A   1      40.888  22.653  26.247  1.00  0.00     0.009 A 
ATOM     67  C   UNL A   1      41.524  20.484  27.881  1.00  0.00     0.001 A 
ATOM     68  C   UNL A   1      40.382  21.388  25.953  1.00  0.00     0.001 A 
ATOM     69  C   UNL A   1      40.703  20.303  26.768  1.00  0.00     0.000 A 
ENDBRANCH  50  64
BRANCH  51  70
ATOM     70  C   UNL A   1      44.946  31.812  30.118  1.00  0.00    -0.014 A 
ATOM     71  C   UNL A   1      45.089  32.827  29.160  1.00  0.00     0.009 A 
ATOM     72  C   UNL A   1      45.292  32.079  31.451  1.00  0.00     0.009 A 
ATOM     73  C   UNL A   1      45.574  34.083  29.531  1.00  0.00     0.001 A 
ATOM     74  C   UNL A   1      45.760  33.341  31.822  1.00  0.00     0.001 A 
ATOM     75  C   UNL A   1      45.904  34.340  30.861  1.00  0.00     0.000 A 
ENDBRANCH  51  70
BRANCH  63  76
ATOM     76  C   UNL A   1      48.102  26.097  27.673  1.00  0.00    -0.014 A 
ATOM     77  C   UNL A   1      48.626  26.411  26.410  1.00  0.00     0.009 A 
ATOM     78  C   UNL A   1      48.895  25.385  28.584  1.00  0.00     0.009 A 
ATOM     79  C   UNL A   1      49.916  26.008  26.060  1.00  0.00     0.001 A 
ATOM     80  C   UNL A   1      50.191  25.001  28.238  1.00  0.00     0.001 A 
ATOM     81  C   UNL A   1      50.697  25.305  26.975  1.00  0.00     0.000 A 
ENDBRANCH  63  76
ENDBRANCH  37  38
ENDBRANCH  30  32
ENDBRANCH  29  30
ENDBRANCH  28  29
ENDBRANCH   1  28
TORSDOF 15
ENDMDL
MODEL 3
REMARK VINA RESULT:     -11.7      3.561      6.430
REMARK SMILES Nn1c(S[C@@H](C(=O)OCCOC(=O)c2ccc(-c3c4nc(c(-c5ccccc5)c5ccc([nH]5)c(-c5ccccc5)c5nc(c(-c6ccccc6)c6ccc3[nH]6)C=C5)C=C4)cc2)c2ccccc2)nc2ccc(Br)cc2c1=O
REMARK SMILES IDX 9 1 8 2 6 3 7 4 5 5 4 6 3 7 2 8 76 9 68 10 75 11 77 12 69 13
REMARK SMILES IDX 74 14 70 15 72 16 71 17 73 18 1 19 62 22 63 23 67 24 64 25
REMARK SMILES IDX 66 26 65 27 10 28 11 29 12 30 13 31 14 32 15 33 61 34 16 35
REMARK SMILES IDX 60 36 17 37 18 38 19 39 54 40 20 41 59 42 53 43 55 44 21 45
REMARK SMILES IDX 58 46 52 47 51 48 22 50 44 51 29 52 43 53 30 54 33 55 42 56
REMARK SMILES IDX 56 57 31 58 32 59 41 61 57 62 34 63 23 64 24 65 28 66 25 67
REMARK SMILES IDX 27 68 26 69 45 70 46 71 50 72 47 73 49 74 48 75 35 76 36 77
REMARK SMILES IDX 40 78 37 79 39 80 38 81
REMARK H PARENT 1 20 1 21 55 49 33 60
REMARK Flexibility Score: inf
ROOT
ATOM      1  C   UNL A   1      32.113  30.459  26.443  1.00  0.00     0.274 C 
ENDROOT
BRANCH   1   2
ATOM      2  O   UNL A   1      31.380  29.351  25.867  1.00  0.00    -0.461 OA
BRANCH   2   3
ATOM      3  C   UNL A   1      31.571  29.146  24.529  1.00  0.00     0.324 C 
ATOM      4  O   UNL A   1      32.668  29.332  24.004  1.00  0.00    -0.251 OA
BRANCH   3   5
ATOM      5  C   UNL A   1      30.275  28.852  23.734  1.00  0.00     0.194 C 
BRANCH   5   6
ATOM      6  S   UNL A   1      30.320  27.304  22.778  1.00  0.00    -0.066 SA
BRANCH   6   7
ATOM      7  C   UNL A   1      31.115  25.996  23.632  1.00  0.00     0.191 A 
ATOM      8  N   UNL A   1      30.634  25.384  24.785  1.00  0.00    -0.202 N 
ATOM      9  C   UNL A   1      31.345  24.388  25.466  1.00  0.00     0.280 A 
ATOM     10  N   UNL A   1      32.264  25.668  23.120  1.00  0.00    -0.222 NA
ATOM     11  C   UNL A   1      32.640  24.017  24.896  1.00  0.00     0.069 A 
ATOM     12  O   UNL A   1      30.939  23.850  26.496  1.00  0.00    -0.267 OA
ATOM     13  C   UNL A   1      33.045  24.684  23.742  1.00  0.00     0.079 A 
ATOM     14  C   UNL A   1      33.442  23.048  25.511  1.00  0.00     0.031 A 
ATOM     15  C   UNL A   1      34.295  24.373  23.203  1.00  0.00     0.030 A 
ATOM     16  C   UNL A   1      34.684  22.757  24.962  1.00  0.00     0.018 A 
ATOM     17  C   UNL A   1      35.116  23.416  23.812  1.00  0.00     0.018 A 
ATOM     18  Br  UNL A   1      35.797  21.471  25.786  1.00  0.00    -0.051 Br
BRANCH   8  19
ATOM     19  N   UNL A   1      29.401  25.704  25.357  1.00  0.00    -0.334 N 
ATOM     20  H   UNL A   1      28.636  25.932  24.781  1.00  0.00     0.178 HD
ATOM     21  H   UNL A   1      29.296  25.701  26.336  1.00  0.00     0.178 HD
ENDBRANCH   8  19
ENDBRANCH   6   7
ENDBRANCH   5   6
BRANCH   5  22
ATOM     22  C   UNL A   1      29.547  30.065  23.103  1.00  0.00    -0.023 A 
ATOM     23  C   UNL A   1      29.257  31.238  23.828  1.00  0.00     0.005 A 
ATOM     24  C   UNL A   1      29.162  30.059  21.745  1.00  0.00     0.005 A 
ATOM     25  C   UNL A   1      28.525  32.288  23.262  1.00  0.00     0.000 A 
ATOM     26  C   UNL A   1      28.427  31.105  21.178  1.00  0.00     0.000 A 
ATOM     27  C   UNL A   1      28.092  32.214  21.943  1.00  0.00     0.000 A 
ENDBRANCH   5  22
ENDBRANCH   3   5
ENDBRANCH   2   3
ENDBRANCH   1   2
BRANCH   1  28
ATOM     28  C   UNL A   1      33.139  29.985  27.470  1.00  0.00     0.275 C 
BRANCH  28  29
ATOM     29  O   UNL A   1      34.354  30.739  27.324  1.00  0.00    -0.458 OA
BRANCH  29  30
ATOM     30  C   UNL A   1      35.024  31.007  28.464  1.00  0.00     0.338 C 
ATOM     31  O   UNL A   1      34.638  31.736  29.374  1.00  0.00    -0.246 OA
BRANCH  30  32
ATOM     32  C   UNL A   1      36.274  30.208  28.543  1.00  0.00     0.060 A 
ATOM     33  C   UNL A   1      37.140  30.204  27.449  1.00  0.00     0.016 A 
ATOM     34  C   UNL A   1      36.692  29.624  29.744  1.00  0.00     0.016 A 
ATOM     35  C   UNL A   1      38.410  29.625  27.563  1.00  0.00     0.010 A 
ATOM     36  C   UNL A   1      38.008  29.180  29.891  1.00  0.00     0.010 A 
ATOM     37  C   UNL A   1      38.879  29.139  28.797  1.00  0.00    -0.014 A 
BRANCH  37  38
ATOM     38  C   UNL A   1      40.264  28.593  28.917  1.00  0.00     0.031 A 
ATOM     39  C   UNL A   1      40.585  27.170  28.528  1.00  0.00     0.074 A 
ATOM     40  C   UNL A   1      41.264  29.378  29.376  1.00  0.00     0.049 A 
ATOM     41  N   UNL A   1      41.759  26.599  28.396  1.00  0.00    -0.248 NA
ATOM     42  C   UNL A   1      39.455  26.254  28.297  1.00  0.00     0.031 C 
ATOM     43  C   UNL A   1      41.107  30.730  29.918  1.00  0.00     0.029 A 
ATOM     44  N   UNL A   1      42.621  29.157  29.427  1.00  0.00    -0.354 N 
ATOM     45  C   UNL A   1      41.502  25.269  28.086  1.00  0.00     0.074 A 
ATOM     46  C   UNL A   1      40.070  25.094  28.124  1.00  0.00     0.031 C 
ATOM     47  C   UNL A   1      42.322  31.247  30.166  1.00  0.00     0.029 A 
ATOM     48  C   UNL A   1      43.341  30.265  29.810  1.00  0.00     0.049 A 
ATOM     49  H   UNL A   1      43.036  28.292  29.209  1.00  0.00     0.167 HD
ATOM     50  C   UNL A   1      42.369  24.286  27.749  1.00  0.00     0.031 A 
ATOM     51  C   UNL A   1      44.670  30.488  29.826  1.00  0.00     0.031 A 
ATOM     52  C   UNL A   1      43.791  24.457  27.646  1.00  0.00     0.049 A 
ATOM     53  C   UNL A   1      45.617  29.425  29.344  1.00  0.00     0.074 A 
ATOM     54  C   UNL A   1      44.735  23.554  27.189  1.00  0.00     0.029 A 
ATOM     55  N   UNL A   1      44.470  25.609  28.001  1.00  0.00    -0.354 N 
ATOM     56  N   UNL A   1      45.349  28.221  28.905  1.00  0.00    -0.248 NA
ATOM     57  C   UNL A   1      47.049  29.765  29.332  1.00  0.00     0.031 C 
ATOM     58  C   UNL A   1      45.994  24.152  27.296  1.00  0.00     0.029 A 
ATOM     59  C   UNL A   1      45.826  25.436  27.785  1.00  0.00     0.049 A 
ATOM     60  H   UNL A   1      44.052  26.427  28.353  1.00  0.00     0.167 HD
ATOM     61  C   UNL A   1      46.571  27.668  28.546  1.00  0.00     0.074 A 
ATOM     62  C   UNL A   1      47.583  28.670  28.807  1.00  0.00     0.031 C 
ATOM     63  C   UNL A   1      46.826  26.437  28.041  1.00  0.00     0.031 A 
BRANCH  50  64
ATOM     64  C   UNL A   1      41.794  22.937  27.421  1.00  0.00    -0.014 A 
ATOM     65  C   UNL A   1      41.758  21.930  28.396  1.00  0.00     0.009 A 
ATOM     66  C   UNL A   1      41.328  22.650  26.127  1.00  0.00     0.009 A 
ATOM     67  C   UNL A   1      41.256  20.665  28.085  1.00  0.00     0.001 A 
ATOM     68  C   UNL A   1      40.802  21.394  25.827  1.00  0.00     0.001 A 
ATOM     69  C   UNL A   1      40.770  20.401  26.805  1.00  0.00     0.000 A 
ENDBRANCH  50  64
BRANCH  51  70
ATOM     70  C   UNL A   1      45.181  31.825  30.222  1.00  0.00    -0.014 A 
ATOM     71  C   UNL A   1      45.351  32.841  29.270  1.00  0.00     0.009 A 
ATOM     72  C   UNL A   1      45.521  32.081  31.560  1.00  0.00     0.009 A 
ATOM     73  C   UNL A   1      45.854  34.087  29.651  1.00  0.00     0.001 A 
ATOM     74  C   UNL A   1      46.007  33.333  31.940  1.00  0.00     0.001 A 
ATOM     75  C   UNL A   1      46.177  34.333  30.985  1.00  0.00     0.000 A 
ENDBRANCH  51  70
BRANCH  63  76
ATOM     76  C   UNL A   1      48.250  26.089  27.717  1.00  0.00    -0.014 A 
ATOM     77  C   UNL A   1      48.736  26.289  26.416  1.00  0.00     0.009 A 
ATOM     78  C   UNL A   1      49.074  25.469  28.668  1.00  0.00     0.009 A 
ATOM     79  C   UNL A   1      50.020  25.865  26.069  1.00  0.00     0.001 A 
ATOM     80  C   UNL A   1      50.364  25.064  28.322  1.00  0.00     0.001 A 
ATOM     81  C   UNL A   1      50.833  25.255  27.023  1.00  0.00     0.000 A 
ENDBRANCH  63  76
ENDBRANCH  37  38
ENDBRANCH  30  32
ENDBRANCH  29  30
ENDBRANCH  28  29
ENDBRANCH   1  28
TORSDOF 15
ENDMDL
