MODEL 1
REMARK VINA RESULT:     -12.6      0.000      0.000
REMARK SMILES Cc1cc(/C=C2/C(=O)NC(=S)N=C2OCCOC(=O)c2ccc(-c3c4nc(c(-c5ccccc5)c5ccc([nH]5)c(-c5ccccc5)c5nc(c(-c6ccccc6)c6ccc3[nH]6)C=C5)C=C4)cc2)c(C)n1-c1cccc(C(=O)[O-])c1
REMARK SMILES IDX 15 1 14 2 13 3 5 4 6 5 7 6 8 7 9 8 12 9 10 10 11 12 4 13
REMARK SMILES IDX 1 14 2 15 3 16 70 17 68 18 69 19 71 20 72 21 79 22 73 23
REMARK SMILES IDX 75 24 74 25 76 26 77 27 78 28 16 29 17 30 18 31 19 32 20 33
REMARK SMILES IDX 21 34 67 35 22 36 66 37 23 38 24 39 25 40 60 41 26 42 65 43
REMARK SMILES IDX 59 44 61 45 27 46 64 47 58 48 57 49 28 51 50 52 35 53 49 54
REMARK SMILES IDX 36 55 39 56 48 57 62 58 37 59 38 60 47 62 63 63 40 64 29 65
REMARK SMILES IDX 30 66 34 67 31 68 33 69 32 70 51 71 52 72 56 73 53 74 55 75
REMARK SMILES IDX 54 76 41 77 42 78 46 79 43 80 45 81 44 82
REMARK H PARENT 9 11 61 50 39 61
REMARK Flexibility Score: inf
ROOT
ATOM      1  C   UNL A   1      36.697  22.509  24.456  1.00  0.00     0.273 C 
ENDROOT
BRANCH   1   2
ATOM      2  O   UNL A   1      35.357  23.073  24.729  1.00  0.00    -0.473 OA
BRANCH   2   3
ATOM      3  C   UNL A   1      34.326  22.203  24.758  1.00  0.00     0.229 C 
ATOM      4  C   UNL A   1      32.353  23.959  25.028  1.00  0.00     0.029 C 
ATOM      5  C   UNL A   1      32.961  22.745  25.033  1.00  0.00     0.103 C 
ATOM      6  C   UNL A   1      31.980  21.646  25.364  1.00  0.00     0.262 C 
ATOM      7  O   UNL A   1      30.827  21.829  25.743  1.00  0.00    -0.269 OA
ATOM      8  N   UNL A   1      32.439  20.371  25.199  1.00  0.00    -0.297 N 
ATOM      9  N   UNL A   1      34.621  20.957  24.620  1.00  0.00    -0.184 NA
ATOM     10  C   UNL A   1      33.685  19.998  24.798  1.00  0.00     0.203 C 
ATOM     11  H   UNL A   1      31.800  19.645  25.390  1.00  0.00     0.172 HD
ATOM     12  S   UNL A   1      34.011  18.365  24.611  1.00  0.00    -0.038 S 
BRANCH   4  13
ATOM     13  C   UNL A   1      32.724  25.312  24.735  1.00  0.00    -0.003 A 
ATOM     14  C   UNL A   1      33.936  28.031  22.429  1.00  0.00     0.065 C 
ATOM     15  C   UNL A   1      33.458  27.114  23.504  1.00  0.00     0.020 A 
ATOM     16  C   UNL A   1      33.300  25.735  23.487  1.00  0.00     0.031 A 
ATOM     17  N   UNL A   1      33.124  27.507  24.782  1.00  0.00    -0.318 N 
ATOM     18  C   UNL A   1      32.423  26.477  25.401  1.00  0.00     0.027 A 
ATOM     19  C   UNL A   1      31.481  26.778  26.510  1.00  0.00     0.065 C 
BRANCH  17  20
ATOM     20  C   UNL A   1      33.338  28.752  25.407  1.00  0.00     0.046 A 
ATOM     21  C   UNL A   1      34.263  28.780  26.460  1.00  0.00     0.026 A 
ATOM     22  C   UNL A   1      32.395  29.766  25.236  1.00  0.00     0.036 A 
ATOM     23  C   UNL A   1      34.227  29.820  27.381  1.00  0.00     0.003 A 
ATOM     24  C   UNL A   1      32.337  30.788  26.191  1.00  0.00    -0.001 A 
ATOM     25  C   UNL A   1      33.251  30.809  27.259  1.00  0.00     0.010 A 
BRANCH  24  26
ATOM     26  C   UNL A   1      31.258  31.795  26.174  1.00  0.00     0.072 C 
ATOM     27  O   UNL A   1      30.327  31.832  25.364  1.00  0.00    -0.545 OA
ATOM     28  O   UNL A   1      31.388  32.730  27.120  1.00  0.00    -0.545 OA
ENDBRANCH  24  26
ENDBRANCH  17  20
ENDBRANCH   4  13
ENDBRANCH   2   3
ENDBRANCH   1   2
BRANCH   1  29
ATOM     29  C   UNL A   1      37.699  22.778  25.626  1.00  0.00     0.274 C 
BRANCH  29  30
ATOM     30  O   UNL A   1      38.892  21.901  25.745  1.00  0.00    -0.458 OA
BRANCH  30  31
ATOM     31  C   UNL A   1      39.776  22.173  26.773  1.00  0.00     0.338 C 
ATOM     32  O   UNL A   1      40.396  21.293  27.361  1.00  0.00    -0.246 OA
BRANCH  31  33
ATOM     33  C   UNL A   1      40.037  23.660  27.113  1.00  0.00     0.060 A 
ATOM     34  C   UNL A   1      39.357  24.200  28.187  1.00  0.00     0.016 A 
ATOM     35  C   UNL A   1      40.706  24.635  26.332  1.00  0.00     0.016 A 
ATOM     36  C   UNL A   1      39.440  25.608  28.505  1.00  0.00     0.010 A 
ATOM     37  C   UNL A   1      40.722  26.110  26.636  1.00  0.00     0.010 A 
ATOM     38  C   UNL A   1      40.092  26.675  27.762  1.00  0.00    -0.014 A 
BRANCH  38  39
ATOM     39  C   UNL A   1      39.730  28.283  28.200  1.00  0.00     0.031 A 
ATOM     40  C   UNL A   1      41.090  28.878  28.255  1.00  0.00     0.074 A 
ATOM     41  C   UNL A   1      38.784  29.233  28.668  1.00  0.00     0.049 A 
ATOM     42  N   UNL A   1      41.912  28.383  29.130  1.00  0.00    -0.248 NA
ATOM     43  C   UNL A   1      41.721  29.631  27.170  1.00  0.00     0.031 C 
ATOM     44  C   UNL A   1      37.372  29.032  29.054  1.00  0.00     0.029 A 
ATOM     45  N   UNL A   1      38.865  30.669  28.939  1.00  0.00    -0.354 N 
ATOM     46  C   UNL A   1      43.150  28.899  28.860  1.00  0.00     0.074 A 
ATOM     47  C   UNL A   1      43.005  29.523  27.546  1.00  0.00     0.031 C 
ATOM     48  C   UNL A   1      36.725  30.211  29.331  1.00  0.00     0.029 A 
ATOM     49  C   UNL A   1      37.617  31.371  29.232  1.00  0.00     0.049 A 
ATOM     50  H   UNL A   1      39.728  31.145  28.924  1.00  0.00     0.167 HD
ATOM     51  C   UNL A   1      43.849  29.323  29.950  1.00  0.00     0.031 A 
ATOM     52  C   UNL A   1      37.314  32.728  29.467  1.00  0.00     0.031 A 
ATOM     53  C   UNL A   1      43.683  30.741  30.124  1.00  0.00     0.049 A 
ATOM     54  C   UNL A   1      38.539  33.348  29.978  1.00  0.00     0.074 A 
ATOM     55  C   UNL A   1      43.691  31.793  29.227  1.00  0.00     0.029 A 
ATOM     56  N   UNL A   1      42.942  31.149  31.212  1.00  0.00    -0.354 N 
ATOM     57  N   UNL A   1      38.864  33.230  31.230  1.00  0.00    -0.248 NA
ATOM     58  C   UNL A   1      39.372  34.257  29.200  1.00  0.00     0.031 C 
ATOM     59  C   UNL A   1      42.520  32.515  29.540  1.00  0.00     0.029 A 
ATOM     60  C   UNL A   1      42.124  32.189  30.830  1.00  0.00     0.049 A 
ATOM     61  H   UNL A   1      42.989  30.760  32.115  1.00  0.00     0.167 HD
ATOM     62  C   UNL A   1      40.189  33.518  31.209  1.00  0.00     0.074 A 
ATOM     63  C   UNL A   1      40.368  34.411  30.077  1.00  0.00     0.031 C 
ATOM     64  C   UNL A   1      41.004  32.535  31.663  1.00  0.00     0.031 A 
BRANCH  51  65
ATOM     65  C   UNL A   1      43.855  28.331  31.095  1.00  0.00    -0.014 A 
ATOM     66  C   UNL A   1      42.796  28.333  32.007  1.00  0.00     0.009 A 
ATOM     67  C   UNL A   1      44.957  27.490  31.369  1.00  0.00     0.009 A 
ATOM     68  C   UNL A   1      42.882  27.588  33.191  1.00  0.00     0.001 A 
ATOM     69  C   UNL A   1      45.069  26.796  32.572  1.00  0.00     0.001 A 
ATOM     70  C   UNL A   1      44.030  26.851  33.489  1.00  0.00     0.000 A 
ENDBRANCH  51  65
BRANCH  52  71
ATOM     71  C   UNL A   1      36.194  33.834  29.655  1.00  0.00    -0.014 A 
ATOM     72  C   UNL A   1      35.454  34.318  28.512  1.00  0.00     0.009 A 
ATOM     73  C   UNL A   1      35.521  34.031  30.871  1.00  0.00     0.009 A 
ATOM     74  C   UNL A   1      34.135  34.833  28.563  1.00  0.00     0.001 A 
ATOM     75  C   UNL A   1      34.203  34.588  30.928  1.00  0.00     0.001 A 
ATOM     76  C   UNL A   1      33.497  34.953  29.781  1.00  0.00     0.000 A 
ENDBRANCH  52  71
BRANCH  64  77
ATOM     77  C   UNL A   1      40.520  31.718  32.850  1.00  0.00    -0.014 A 
ATOM     78  C   UNL A   1      40.692  32.073  34.207  1.00  0.00     0.009 A 
ATOM     79  C   UNL A   1      39.899  30.492  32.587  1.00  0.00     0.009 A 
ATOM     80  C   UNL A   1      40.316  31.217  35.249  1.00  0.00     0.001 A 
ATOM     81  C   UNL A   1      39.476  29.655  33.627  1.00  0.00     0.001 A 
ATOM     82  C   UNL A   1      39.699  30.008  34.956  1.00  0.00     0.000 A 
ENDBRANCH  64  77
ENDBRANCH  38  39
ENDBRANCH  31  33
ENDBRANCH  30  31
ENDBRANCH  29  30
ENDBRANCH   1  29
TORSDOF 13
ENDMDL
MODEL 2
REMARK VINA RESULT:     -12.2      2.950      8.376
REMARK SMILES Cc1cc(/C=C2/C(=O)NC(=S)N=C2OCCOC(=O)c2ccc(-c3c4nc(c(-c5ccccc5)c5ccc([nH]5)c(-c5ccccc5)c5nc(c(-c6ccccc6)c6ccc3[nH]6)C=C5)C=C4)cc2)c(C)n1-c1cccc(C(=O)[O-])c1
REMARK SMILES IDX 15 1 14 2 13 3 5 4 6 5 7 6 8 7 9 8 12 9 10 10 11 12 4 13
REMARK SMILES IDX 1 14 2 15 3 16 70 17 68 18 69 19 71 20 72 21 79 22 73 23
REMARK SMILES IDX 75 24 74 25 76 26 77 27 78 28 16 29 17 30 18 31 19 32 20 33
REMARK SMILES IDX 21 34 67 35 22 36 66 37 23 38 24 39 25 40 60 41 26 42 65 43
REMARK SMILES IDX 59 44 61 45 27 46 64 47 58 48 57 49 28 51 50 52 35 53 49 54
REMARK SMILES IDX 36 55 39 56 48 57 62 58 37 59 38 60 47 62 63 63 40 64 29 65
REMARK SMILES IDX 30 66 34 67 31 68 33 69 32 70 51 71 52 72 56 73 53 74 55 75
REMARK SMILES IDX 54 76 41 77 42 78 46 79 43 80 45 81 44 82
REMARK H PARENT 9 11 61 50 39 61
REMARK Flexibility Score: inf
ROOT
ATOM      1  C   UNL A   1      31.134  27.103  26.630  1.00  0.00     0.273 C 
ENDROOT
BRANCH   1   2
ATOM      2  O   UNL A   1      30.801  26.375  25.386  1.00  0.00    -0.473 OA
BRANCH   2   3
ATOM      3  C   UNL A   1      31.191  26.945  24.227  1.00  0.00     0.229 C 
ATOM      4  C   UNL A   1      33.438  25.578  23.868  1.00  0.00     0.029 C 
ATOM      5  C   UNL A   1      32.528  26.566  23.677  1.00  0.00     0.103 C 
ATOM      6  C   UNL A   1      32.968  27.509  22.583  1.00  0.00     0.262 C 
ATOM      7  O   UNL A   1      34.073  27.492  22.048  1.00  0.00    -0.269 OA
ATOM      8  N   UNL A   1      32.038  28.419  22.172  1.00  0.00    -0.297 N 
ATOM      9  N   UNL A   1      30.402  27.833  23.729  1.00  0.00    -0.184 NA
ATOM     10  C   UNL A   1      30.778  28.576  22.664  1.00  0.00     0.203 C 
ATOM     11  H   UNL A   1      32.306  29.025  21.443  1.00  0.00     0.172 HD
ATOM     12  S   UNL A   1      29.783  29.729  21.966  1.00  0.00    -0.038 S 
BRANCH   4  13
ATOM     13  C   UNL A   1      33.549  24.401  24.679  1.00  0.00    -0.003 A 
ATOM     14  C   UNL A   1      33.309  22.548  27.947  1.00  0.00     0.065 C 
ATOM     15  C   UNL A   1      33.480  23.085  26.567  1.00  0.00     0.020 A 
ATOM     16  C   UNL A   1      33.397  24.393  26.108  1.00  0.00     0.031 A 
ATOM     17  N   UNL A   1      33.819  22.330  25.465  1.00  0.00    -0.318 N 
ATOM     18  C   UNL A   1      33.573  23.075  24.316  1.00  0.00     0.027 A 
ATOM     19  C   UNL A   1      33.307  22.388  23.025  1.00  0.00     0.065 C 
BRANCH  17  20
ATOM     20  C   UNL A   1      34.263  20.994  25.414  1.00  0.00     0.046 A 
ATOM     21  C   UNL A   1      35.637  20.791  25.217  1.00  0.00     0.026 A 
ATOM     22  C   UNL A   1      33.333  19.981  25.177  1.00  0.00     0.036 A 
ATOM     23  C   UNL A   1      36.090  19.566  24.742  1.00  0.00     0.003 A 
ATOM     24  C   UNL A   1      33.794  18.764  24.659  1.00  0.00    -0.001 A 
ATOM     25  C   UNL A   1      35.168  18.563  24.442  1.00  0.00     0.010 A 
BRANCH  24  26
ATOM     26  C   UNL A   1      32.856  17.712  24.221  1.00  0.00     0.072 C 
ATOM     27  O   UNL A   1      31.807  17.404  24.795  1.00  0.00    -0.545 OA
ATOM     28  O   UNL A   1      33.261  17.060  23.126  1.00  0.00    -0.545 OA
ENDBRANCH  24  26
ENDBRANCH  17  20
ENDBRANCH   4  13
ENDBRANCH   2   3
ENDBRANCH   1   2
BRANCH   1  29
ATOM     29  C   UNL A   1      31.665  28.546  26.344  1.00  0.00     0.274 C 
BRANCH  29  30
ATOM     30  O   UNL A   1      32.095  29.377  27.498  1.00  0.00    -0.458 OA
BRANCH  30  31
ATOM     31  C   UNL A   1      32.832  30.513  27.218  1.00  0.00     0.338 C 
ATOM     32  O   UNL A   1      32.310  31.597  26.979  1.00  0.00    -0.246 OA
BRANCH  31  33
ATOM     33  C   UNL A   1      34.373  30.401  27.302  1.00  0.00     0.060 A 
ATOM     34  C   UNL A   1      34.943  29.177  27.010  1.00  0.00     0.016 A 
ATOM     35  C   UNL A   1      35.290  31.319  27.870  1.00  0.00     0.016 A 
ATOM     36  C   UNL A   1      36.359  28.942  27.181  1.00  0.00     0.010 A 
ATOM     37  C   UNL A   1      36.749  31.033  28.109  1.00  0.00     0.010 A 
ATOM     38  C   UNL A   1      37.368  29.817  27.759  1.00  0.00    -0.014 A 
BRANCH  38  39
ATOM     39  C   UNL A   1      38.884  29.137  28.140  1.00  0.00     0.031 A 
ATOM     40  C   UNL A   1      38.814  29.094  29.623  1.00  0.00     0.074 A 
ATOM     41  C   UNL A   1      40.186  28.755  27.721  1.00  0.00     0.049 A 
ATOM     42  N   UNL A   1      38.702  30.231  30.239  1.00  0.00    -0.248 NA
ATOM     43  C   UNL A   1      38.426  27.923  30.411  1.00  0.00     0.031 C 
ATOM     44  C   UNL A   1      40.820  28.900  26.394  1.00  0.00     0.029 A 
ATOM     45  N   UNL A   1      41.314  28.133  28.417  1.00  0.00    -0.354 N 
ATOM     46  C   UNL A   1      38.423  29.957  31.549  1.00  0.00     0.074 A 
ATOM     47  C   UNL A   1      38.098  28.533  31.561  1.00  0.00     0.031 C 
ATOM     48  C   UNL A   1      42.049  28.292  26.324  1.00  0.00     0.029 A 
ATOM     49  C   UNL A   1      42.451  27.702  27.605  1.00  0.00     0.049 A 
ATOM     50  H   UNL A   1      41.307  28.008  29.393  1.00  0.00     0.167 HD
ATOM     51  C   UNL A   1      39.124  30.695  32.456  1.00  0.00     0.031 A 
ATOM     52  C   UNL A   1      43.646  27.023  27.917  1.00  0.00     0.031 A 
ATOM     53  C   UNL A   1      40.273  29.959  32.911  1.00  0.00     0.049 A 
ATOM     54  C   UNL A   1      43.927  27.295  29.329  1.00  0.00     0.074 A 
ATOM     55  C   UNL A   1      40.442  28.636  33.276  1.00  0.00     0.029 A 
ATOM     56  N   UNL A   1      41.506  30.423  32.507  1.00  0.00    -0.354 N 
ATOM     57  N   UNL A   1      44.495  28.407  29.685  1.00  0.00    -0.248 NA
ATOM     58  C   UNL A   1      43.759  26.311  30.391  1.00  0.00     0.031 C 
ATOM     59  C   UNL A   1      41.576  28.225  32.545  1.00  0.00     0.029 A 
ATOM     60  C   UNL A   1      42.297  29.348  32.165  1.00  0.00     0.049 A 
ATOM     61  H   UNL A   1      41.778  31.369  32.467  1.00  0.00     0.167 HD
ATOM     62  C   UNL A   1      44.180  28.479  31.002  1.00  0.00     0.074 A 
ATOM     63  C   UNL A   1      44.030  27.100  31.435  1.00  0.00     0.031 C 
ATOM     64  C   UNL A   1      43.473  29.575  31.370  1.00  0.00     0.031 A 
BRANCH  51  65
ATOM     65  C   UNL A   1      39.144  32.179  32.149  1.00  0.00    -0.014 A 
ATOM     66  C   UNL A   1      38.026  32.957  32.459  1.00  0.00     0.009 A 
ATOM     67  C   UNL A   1      40.194  32.793  31.430  1.00  0.00     0.009 A 
ATOM     68  C   UNL A   1      37.928  34.273  31.988  1.00  0.00     0.001 A 
ATOM     69  C   UNL A   1      40.073  34.081  30.912  1.00  0.00     0.001 A 
ATOM     70  C   UNL A   1      38.932  34.820  31.186  1.00  0.00     0.000 A 
ENDBRANCH  51  65
BRANCH  52  71
ATOM     71  C   UNL A   1      44.949  26.296  27.380  1.00  0.00    -0.014 A 
ATOM     72  C   UNL A   1      44.962  24.861  27.214  1.00  0.00     0.009 A 
ATOM     73  C   UNL A   1      45.914  26.950  26.598  1.00  0.00     0.009 A 
ATOM     74  C   UNL A   1      45.766  24.164  26.279  1.00  0.00     0.001 A 
ATOM     75  C   UNL A   1      46.756  26.242  25.681  1.00  0.00     0.001 A 
ATOM     76  C   UNL A   1      46.660  24.863  25.493  1.00  0.00     0.000 A 
ENDBRANCH  52  71
BRANCH  64  77
ATOM     77  C   UNL A   1      43.826  30.892  30.698  1.00  0.00    -0.014 A 
ATOM     78  C   UNL A   1      44.674  31.884  31.242  1.00  0.00     0.009 A 
ATOM     79  C   UNL A   1      43.227  31.176  29.465  1.00  0.00     0.009 A 
ATOM     80  C   UNL A   1      44.866  33.120  30.614  1.00  0.00     0.001 A 
ATOM     81  C   UNL A   1      43.455  32.391  28.809  1.00  0.00     0.001 A 
ATOM     82  C   UNL A   1      44.259  33.369  29.390  1.00  0.00     0.000 A 
ENDBRANCH  64  77
ENDBRANCH  38  39
ENDBRANCH  31  33
ENDBRANCH  30  31
ENDBRANCH  29  30
ENDBRANCH   1  29
TORSDOF 13
ENDMDL
MODEL 3
REMARK VINA RESULT:     -12.0      3.353      8.686
REMARK SMILES Cc1cc(/C=C2/C(=O)NC(=S)N=C2OCCOC(=O)c2ccc(-c3c4nc(c(-c5ccccc5)c5ccc([nH]5)c(-c5ccccc5)c5nc(c(-c6ccccc6)c6ccc3[nH]6)C=C5)C=C4)cc2)c(C)n1-c1cccc(C(=O)[O-])c1
REMARK SMILES IDX 15 1 14 2 13 3 5 4 6 5 7 6 8 7 9 8 12 9 10 10 11 12 4 13
REMARK SMILES IDX 1 14 2 15 3 16 70 17 68 18 69 19 71 20 72 21 79 22 73 23
REMARK SMILES IDX 75 24 74 25 76 26 77 27 78 28 16 29 17 30 18 31 19 32 20 33
REMARK SMILES IDX 21 34 67 35 22 36 66 37 23 38 24 39 25 40 60 41 26 42 65 43
REMARK SMILES IDX 59 44 61 45 27 46 64 47 58 48 57 49 28 51 50 52 35 53 49 54
REMARK SMILES IDX 36 55 39 56 48 57 62 58 37 59 38 60 47 62 63 63 40 64 29 65
REMARK SMILES IDX 30 66 34 67 31 68 33 69 32 70 51 71 52 72 56 73 53 74 55 75
REMARK SMILES IDX 54 76 41 77 42 78 46 79 43 80 45 81 44 82
REMARK H PARENT 9 11 61 50 39 61
REMARK Flexibility Score: inf
ROOT
ATOM      1  C   UNL A   1      31.441  27.544  26.782  1.00  0.00     0.273 C 
ENDROOT
BRANCH   1   2
ATOM      2  O   UNL A   1      31.335  26.566  25.678  1.00  0.00    -0.473 OA
BRANCH   2   3
ATOM      3  C   UNL A   1      31.516  27.039  24.428  1.00  0.00     0.229 C 
ATOM      4  C   UNL A   1      33.549  25.483  23.723  1.00  0.00     0.029 C 
ATOM      5  C   UNL A   1      32.685  26.528  23.650  1.00  0.00     0.103 C 
ATOM      6  C   UNL A   1      32.954  27.372  22.427  1.00  0.00     0.262 C 
ATOM      7  O   UNL A   1      33.923  27.240  21.685  1.00  0.00    -0.269 OA
ATOM      8  N   UNL A   1      32.020  28.329  22.148  1.00  0.00    -0.297 N 
ATOM      9  N   UNL A   1      30.702  27.958  24.037  1.00  0.00    -0.184 NA
ATOM     10  C   UNL A   1      30.900  28.610  22.869  1.00  0.00     0.203 C 
ATOM     11  H   UNL A   1      32.173  28.871  21.340  1.00  0.00     0.172 HD
ATOM     12  S   UNL A   1      29.862  29.797  22.305  1.00  0.00    -0.038 S 
BRANCH   4  13
ATOM     13  C   UNL A   1      33.746  24.348  24.576  1.00  0.00    -0.003 A 
ATOM     14  C   UNL A   1      33.971  22.686  27.946  1.00  0.00     0.065 C 
ATOM     15  C   UNL A   1      33.935  23.140  26.526  1.00  0.00     0.020 A 
ATOM     16  C   UNL A   1      33.827  24.424  26.009  1.00  0.00     0.031 A 
ATOM     17  N   UNL A   1      34.062  22.312  25.432  1.00  0.00    -0.318 N 
ATOM     18  C   UNL A   1      33.661  23.005  24.295  1.00  0.00     0.027 A 
ATOM     19  C   UNL A   1      33.163  22.263  23.106  1.00  0.00     0.065 C 
BRANCH  17  20
ATOM     20  C   UNL A   1      34.442  20.956  25.391  1.00  0.00     0.046 A 
ATOM     21  C   UNL A   1      35.801  20.685  25.180  1.00  0.00     0.026 A 
ATOM     22  C   UNL A   1      33.462  19.985  25.178  1.00  0.00     0.036 A 
ATOM     23  C   UNL A   1      36.190  19.435  24.714  1.00  0.00     0.003 A 
ATOM     24  C   UNL A   1      33.857  18.743  24.669  1.00  0.00    -0.001 A 
ATOM     25  C   UNL A   1      35.217  18.474  24.437  1.00  0.00     0.010 A 
BRANCH  24  26
ATOM     26  C   UNL A   1      32.865  17.732  24.255  1.00  0.00     0.072 C 
ATOM     27  O   UNL A   1      31.839  17.440  24.876  1.00  0.00    -0.545 OA
ATOM     28  O   UNL A   1      33.191  17.097  23.123  1.00  0.00    -0.545 OA
ENDBRANCH  24  26
ENDBRANCH  17  20
ENDBRANCH   4  13
ENDBRANCH   2   3
ENDBRANCH   1   2
BRANCH   1  29
ATOM     29  C   UNL A   1      32.605  28.564  26.556  1.00  0.00     0.274 C 
BRANCH  29  30
ATOM     30  O   UNL A   1      33.722  28.584  27.535  1.00  0.00    -0.458 OA
BRANCH  30  31
ATOM     31  C   UNL A   1      34.341  29.799  27.763  1.00  0.00     0.338 C 
ATOM     32  O   UNL A   1      33.732  30.863  27.756  1.00  0.00    -0.246 OA
BRANCH  31  33
ATOM     33  C   UNL A   1      35.846  29.775  28.121  1.00  0.00     0.060 A 
ATOM     34  C   UNL A   1      36.751  30.018  27.106  1.00  0.00     0.016 A 
ATOM     35  C   UNL A   1      36.458  29.302  29.308  1.00  0.00     0.016 A 
ATOM     36  C   UNL A   1      38.176  29.894  27.316  1.00  0.00     0.010 A 
ATOM     37  C   UNL A   1      37.942  29.109  29.487  1.00  0.00     0.010 A 
ATOM     38  C   UNL A   1      38.888  29.412  28.490  1.00  0.00    -0.014 A 
BRANCH  38  39
ATOM     39  C   UNL A   1      40.547  29.056  28.321  1.00  0.00     0.031 A 
ATOM     40  C   UNL A   1      41.088  29.603  29.592  1.00  0.00     0.074 A 
ATOM     41  C   UNL A   1      41.624  28.637  27.495  1.00  0.00     0.049 A 
ATOM     42  N   UNL A   1      40.955  30.880  29.784  1.00  0.00    -0.248 NA
ATOM     43  C   UNL A   1      41.349  28.819  30.799  1.00  0.00     0.031 C 
ATOM     44  C   UNL A   1      41.618  28.288  26.059  1.00  0.00     0.029 A 
ATOM     45  N   UNL A   1      43.051  28.430  27.747  1.00  0.00    -0.354 N 
ATOM     46  C   UNL A   1      41.299  31.132  31.084  1.00  0.00     0.074 A 
ATOM     47  C   UNL A   1      41.368  29.810  31.704  1.00  0.00     0.031 C 
ATOM     48  C   UNL A   1      42.825  27.796  25.628  1.00  0.00     0.029 A 
ATOM     49  C   UNL A   1      43.837  27.798  26.689  1.00  0.00     0.049 A 
ATOM     50  H   UNL A   1      43.465  28.706  28.597  1.00  0.00     0.167 HD
ATOM     51  C   UNL A   1      42.098  32.220  31.270  1.00  0.00     0.031 A 
ATOM     52  C   UNL A   1      45.184  27.391  26.612  1.00  0.00     0.031 A 
ATOM     53  C   UNL A   1      43.476  31.815  31.351  1.00  0.00     0.049 A 
ATOM     54  C   UNL A   1      45.929  28.224  27.560  1.00  0.00     0.074 A 
ATOM     55  C   UNL A   1      44.097  30.764  32.000  1.00  0.00     0.029 A 
ATOM     56  N   UNL A   1      44.289  32.170  30.296  1.00  0.00    -0.354 N 
ATOM     57  N   UNL A   1      46.299  29.425  27.232  1.00  0.00    -0.248 NA
ATOM     58  C   UNL A   1      46.447  27.737  28.832  1.00  0.00     0.031 C 
ATOM     59  C   UNL A   1      44.908  30.181  31.004  1.00  0.00     0.029 A 
ATOM     60  C   UNL A   1      45.116  31.111  29.994  1.00  0.00     0.049 A 
ATOM     61  H   UNL A   1      44.280  33.039  29.833  1.00  0.00     0.167 HD
ATOM     62  C   UNL A   1      46.529  29.993  28.442  1.00  0.00     0.074 A 
ATOM     63  C   UNL A   1      46.909  28.894  29.313  1.00  0.00     0.031 C 
ATOM     64  C   UNL A   1      45.781  31.089  28.720  1.00  0.00     0.031 A 
BRANCH  51  65
ATOM     65  C   UNL A   1      41.628  33.455  30.529  1.00  0.00    -0.014 A 
ATOM     66  C   UNL A   1      40.275  33.803  30.568  1.00  0.00     0.009 A 
ATOM     67  C   UNL A   1      42.474  34.200  29.676  1.00  0.00     0.009 A 
ATOM     68  C   UNL A   1      39.777  34.801  29.719  1.00  0.00     0.001 A 
ATOM     69  C   UNL A   1      41.970  35.150  28.790  1.00  0.00     0.001 A 
ATOM     70  C   UNL A   1      40.615  35.446  28.807  1.00  0.00     0.000 A 
ENDBRANCH  51  65
BRANCH  52  71
ATOM     71  C   UNL A   1      46.300  26.610  25.800  1.00  0.00    -0.014 A 
ATOM     72  C   UNL A   1      46.810  27.155  24.563  1.00  0.00     0.009 A 
ATOM     73  C   UNL A   1      47.178  25.697  26.405  1.00  0.00     0.009 A 
ATOM     74  C   UNL A   1      48.107  26.909  24.048  1.00  0.00     0.001 A 
ATOM     75  C   UNL A   1      48.474  25.418  25.864  1.00  0.00     0.001 A 
ATOM     76  C   UNL A   1      48.954  26.046  24.713  1.00  0.00     0.000 A 
ENDBRANCH  52  71
BRANCH  64  77
ATOM     77  C   UNL A   1      45.499  32.051  27.577  1.00  0.00    -0.014 A 
ATOM     78  C   UNL A   1      46.349  33.104  27.170  1.00  0.00     0.009 A 
ATOM     79  C   UNL A   1      44.280  31.921  26.901  1.00  0.00     0.009 A 
ATOM     80  C   UNL A   1      45.973  34.018  26.179  1.00  0.00     0.001 A 
ATOM     81  C   UNL A   1      43.921  32.803  25.876  1.00  0.00     0.001 A 
ATOM     82  C   UNL A   1      44.757  33.860  25.525  1.00  0.00     0.000 A 
ENDBRANCH  64  77
ENDBRANCH  38  39
ENDBRANCH  31  33
ENDBRANCH  30  31
ENDBRANCH  29  30
ENDBRANCH   1  29
TORSDOF 13
ENDMDL
