MODEL 1
REMARK VINA RESULT:     -10.4      0.000      0.000
REMARK SMILES [NH3+][C@H](c1cc(F)c(F)cc1C(=O)OCCOC(=O)c1ccc(-c2c3nc(c(-c4ccccc4)c4ccc([nH]4)c(-c4ccccc4)c4nc(c(-c5ccccc5)c5ccc2[nH]5)C=C4)C=C3)cc1)C(F)(F)F
REMARK SMILES IDX 14 1 13 2 11 3 12 4 10 5 3 6 4 7 5 8 9 9 6 10 7 11 8 12 2 13
REMARK SMILES IDX 1 14 67 18 68 19 69 20 70 21 15 22 16 23 17 24 18 25 19 26
REMARK SMILES IDX 20 27 66 28 21 29 65 30 22 31 23 32 24 33 59 34 25 35 64 36
REMARK SMILES IDX 58 37 60 38 26 39 63 40 57 41 56 42 27 44 49 45 34 46 48 47
REMARK SMILES IDX 35 48 38 49 47 50 61 51 36 52 37 53 46 55 62 56 39 57 28 58
REMARK SMILES IDX 29 59 33 60 30 61 32 62 31 63 50 64 51 65 55 66 52 67 54 68
REMARK SMILES IDX 53 69 40 70 41 71 45 72 42 73 44 74 43 75
REMARK H PARENT 1 15 1 16 1 17 60 43 38 54
REMARK Flexibility Score: inf
ROOT
ATOM      1  C   UNL A   1      32.108  31.078  26.919  1.00  0.00     0.275 C 
ENDROOT
BRANCH   1   2
ATOM      2  O   UNL A   1      31.440  30.706  25.692  1.00  0.00    -0.458 OA
BRANCH   2   3
ATOM      3  C   UNL A   1      31.996  29.708  24.962  1.00  0.00     0.338 C 
ATOM      4  O   UNL A   1      33.179  29.536  24.743  1.00  0.00    -0.246 OA
BRANCH   3   5
ATOM      5  C   UNL A   1      30.950  28.748  24.512  1.00  0.00     0.072 A 
ATOM      6  C   UNL A   1      30.008  29.025  23.496  1.00  0.00     0.036 A 
ATOM      7  C   UNL A   1      29.070  28.017  23.165  1.00  0.00     0.053 A 
ATOM      8  C   UNL A   1      29.072  26.788  23.818  1.00  0.00     0.159 A 
ATOM      9  C   UNL A   1      30.966  27.477  25.116  1.00  0.00     0.058 A 
ATOM     10  F   UNL A   1      28.173  25.857  23.474  1.00  0.00    -0.204 F 
ATOM     11  C   UNL A   1      30.018  26.519  24.788  1.00  0.00     0.159 A 
ATOM     12  F   UNL A   1      30.041  25.332  25.409  1.00  0.00    -0.204 F 
BRANCH   6  13
ATOM     13  C   UNL A   1      30.009  30.327  22.696  1.00  0.00     0.319 C 
BRANCH  13  14
ATOM     14  N   UNL A   1      30.533  30.055  21.330  1.00  0.00    -0.344 N 
ATOM     15  H   UNL A   1      29.761  29.795  20.716  1.00  0.00     0.345 HD
ATOM     16  H   UNL A   1      31.208  29.290  21.370  1.00  0.00     0.345 HD
ATOM     17  H   UNL A   1      30.989  30.892  20.968  1.00  0.00     0.345 HD
ENDBRANCH  13  14
BRANCH  13  18
ATOM     18  C   UNL A   1      28.630  31.057  22.792  1.00  0.00     0.445 C 
ATOM     19  F   UNL A   1      28.013  30.802  23.968  1.00  0.00    -0.165 F 
ATOM     20  F   UNL A   1      28.779  32.399  22.701  1.00  0.00    -0.165 F 
ATOM     21  F   UNL A   1      27.794  30.673  21.798  1.00  0.00    -0.165 F 
ENDBRANCH  13  18
ENDBRANCH   6  13
ENDBRANCH   3   5
ENDBRANCH   2   3
ENDBRANCH   1   2
BRANCH   1  22
ATOM     22  C   UNL A   1      31.888  32.557  27.243  1.00  0.00     0.275 C 
BRANCH  22  23
ATOM     23  O   UNL A   1      33.147  33.242  27.338  1.00  0.00    -0.458 OA
BRANCH  23  24
ATOM     24  C   UNL A   1      33.210  34.153  28.332  1.00  0.00     0.338 C 
ATOM     25  O   UNL A   1      32.407  35.033  28.599  1.00  0.00    -0.246 OA
BRANCH  24  26
ATOM     26  C   UNL A   1      34.349  33.850  29.198  1.00  0.00     0.060 A 
ATOM     27  C   UNL A   1      35.566  34.441  28.875  1.00  0.00     0.016 A 
ATOM     28  C   UNL A   1      34.270  32.884  30.193  1.00  0.00     0.016 A 
ATOM     29  C   UNL A   1      36.741  33.987  29.452  1.00  0.00     0.010 A 
ATOM     30  C   UNL A   1      35.441  32.509  30.859  1.00  0.00     0.010 A 
ATOM     31  C   UNL A   1      36.693  33.027  30.468  1.00  0.00    -0.014 A 
BRANCH  31  32
ATOM     32  C   UNL A   1      37.941  32.548  31.118  1.00  0.00     0.031 A 
ATOM     33  C   UNL A   1      38.705  31.403  30.512  1.00  0.00     0.074 A 
ATOM     34  C   UNL A   1      38.375  33.119  32.259  1.00  0.00     0.049 A 
ATOM     35  N   UNL A   1      39.655  30.673  31.037  1.00  0.00    -0.248 NA
ATOM     36  C   UNL A   1      38.335  31.012  29.142  1.00  0.00     0.031 C 
ATOM     37  C   UNL A   1      37.772  34.282  32.916  1.00  0.00     0.029 A 
ATOM     38  N   UNL A   1      39.424  32.786  33.079  1.00  0.00    -0.354 N 
ATOM     39  C   UNL A   1      39.951  29.700  30.089  1.00  0.00     0.074 A 
ATOM     40  C   UNL A   1      39.075  29.928  28.960  1.00  0.00     0.031 C 
ATOM     41  C   UNL A   1      38.470  34.576  34.023  1.00  0.00     0.029 A 
ATOM     42  C   UNL A   1      39.500  33.563  34.210  1.00  0.00     0.049 A 
ATOM     43  H   UNL A   1      40.061  32.063  32.876  1.00  0.00     0.167 HD
ATOM     44  C   UNL A   1      40.866  28.703  30.163  1.00  0.00     0.031 A 
ATOM     45  C   UNL A   1      40.265  33.440  35.310  1.00  0.00     0.031 A 
ATOM     46  C   UNL A   1      41.749  28.507  31.283  1.00  0.00     0.049 A 
ATOM     47  C   UNL A   1      41.220  32.286  35.400  1.00  0.00     0.074 A 
ATOM     48  C   UNL A   1      42.720  27.538  31.456  1.00  0.00     0.029 A 
ATOM     49  N   UNL A   1      41.771  29.306  32.417  1.00  0.00    -0.354 N 
ATOM     50  N   UNL A   1      41.459  31.342  34.523  1.00  0.00    -0.248 NA
ATOM     51  C   UNL A   1      42.005  32.174  36.637  1.00  0.00     0.031 C 
ATOM     52  C   UNL A   1      43.291  27.714  32.721  1.00  0.00     0.029 A 
ATOM     53  C   UNL A   1      42.726  28.838  33.304  1.00  0.00     0.049 A 
ATOM     54  H   UNL A   1      41.193  30.088  32.569  1.00  0.00     0.167 HD
ATOM     55  C   UNL A   1      42.446  30.543  35.085  1.00  0.00     0.074 A 
ATOM     56  C   UNL A   1      42.765  31.120  36.376  1.00  0.00     0.031 C 
ATOM     57  C   UNL A   1      43.036  29.435  34.578  1.00  0.00     0.031 A 
BRANCH  44  58
ATOM     58  C   UNL A   1      40.921  27.719  29.025  1.00  0.00    -0.014 A 
ATOM     59  C   UNL A   1      40.074  26.602  28.968  1.00  0.00     0.009 A 
ATOM     60  C   UNL A   1      41.823  27.938  27.970  1.00  0.00     0.009 A 
ATOM     61  C   UNL A   1      40.157  25.705  27.899  1.00  0.00     0.001 A 
ATOM     62  C   UNL A   1      41.881  27.058  26.888  1.00  0.00     0.001 A 
ATOM     63  C   UNL A   1      41.056  25.936  26.858  1.00  0.00     0.000 A 
ENDBRANCH  44  58
BRANCH  45  64
ATOM     64  C   UNL A   1      40.115  34.403  36.433  1.00  0.00    -0.014 A 
ATOM     65  C   UNL A   1      39.239  34.131  37.494  1.00  0.00     0.009 A 
ATOM     66  C   UNL A   1      40.858  35.596  36.457  1.00  0.00     0.009 A 
ATOM     67  C   UNL A   1      39.091  35.044  38.541  1.00  0.00     0.001 A 
ATOM     68  C   UNL A   1      40.736  36.489  37.523  1.00  0.00     0.001 A 
ATOM     69  C   UNL A   1      39.845  36.217  38.559  1.00  0.00     0.000 A 
ENDBRANCH  45  64
BRANCH  57  70
ATOM     70  C   UNL A   1      44.137  28.812  35.388  1.00  0.00    -0.014 A 
ATOM     71  C   UNL A   1      43.877  27.813  36.339  1.00  0.00     0.009 A 
ATOM     72  C   UNL A   1      45.464  29.205  35.158  1.00  0.00     0.009 A 
ATOM     73  C   UNL A   1      44.925  27.243  37.064  1.00  0.00     0.001 A 
ATOM     74  C   UNL A   1      46.512  28.612  35.862  1.00  0.00     0.001 A 
ATOM     75  C   UNL A   1      46.240  27.637  36.820  1.00  0.00     0.000 A 
ENDBRANCH  57  70
ENDBRANCH  31  32
ENDBRANCH  24  26
ENDBRANCH  23  24
ENDBRANCH  22  23
ENDBRANCH   1  22
TORSDOF 14
ENDMDL
MODEL 2
REMARK VINA RESULT:     -10.3      5.456      9.876
REMARK SMILES [NH3+][C@H](c1cc(F)c(F)cc1C(=O)OCCOC(=O)c1ccc(-c2c3nc(c(-c4ccccc4)c4ccc([nH]4)c(-c4ccccc4)c4nc(c(-c5ccccc5)c5ccc2[nH]5)C=C4)C=C3)cc1)C(F)(F)F
REMARK SMILES IDX 14 1 13 2 11 3 12 4 10 5 3 6 4 7 5 8 9 9 6 10 7 11 8 12 2 13
REMARK SMILES IDX 1 14 67 18 68 19 69 20 70 21 15 22 16 23 17 24 18 25 19 26
REMARK SMILES IDX 20 27 66 28 21 29 65 30 22 31 23 32 24 33 59 34 25 35 64 36
REMARK SMILES IDX 58 37 60 38 26 39 63 40 57 41 56 42 27 44 49 45 34 46 48 47
REMARK SMILES IDX 35 48 38 49 47 50 61 51 36 52 37 53 46 55 62 56 39 57 28 58
REMARK SMILES IDX 29 59 33 60 30 61 32 62 31 63 50 64 51 65 55 66 52 67 54 68
REMARK SMILES IDX 53 69 40 70 41 71 45 72 42 73 44 74 43 75
REMARK H PARENT 1 15 1 16 1 17 60 43 38 54
REMARK Flexibility Score: inf
ROOT
ATOM      1  C   UNL A   1      35.588  22.127  26.099  1.00  0.00     0.275 C 
ENDROOT
BRANCH   1   2
ATOM      2  O   UNL A   1      34.598  21.461  26.916  1.00  0.00    -0.458 OA
BRANCH   2   3
ATOM      3  C   UNL A   1      33.295  21.664  26.598  1.00  0.00     0.338 C 
ATOM      4  O   UNL A   1      32.523  22.432  27.139  1.00  0.00    -0.246 OA
BRANCH   3   5
ATOM      5  C   UNL A   1      32.923  20.868  25.396  1.00  0.00     0.072 A 
ATOM      6  C   UNL A   1      32.610  21.434  24.140  1.00  0.00     0.036 A 
ATOM      7  C   UNL A   1      32.276  20.556  23.079  1.00  0.00     0.053 A 
ATOM      8  C   UNL A   1      32.256  19.177  23.264  1.00  0.00     0.159 A 
ATOM      9  C   UNL A   1      32.951  19.468  25.541  1.00  0.00     0.058 A 
ATOM     10  F   UNL A   1      31.941  18.378  22.236  1.00  0.00    -0.204 F 
ATOM     11  C   UNL A   1      32.594  18.636  24.489  1.00  0.00     0.159 A 
ATOM     12  F   UNL A   1      32.596  17.309  24.672  1.00  0.00    -0.204 F 
BRANCH   6  13
ATOM     13  C   UNL A   1      32.690  22.934  23.862  1.00  0.00     0.319 C 
BRANCH  13  14
ATOM     14  N   UNL A   1      33.355  23.147  22.547  1.00  0.00    -0.344 N 
ATOM     15  H   UNL A   1      34.207  22.588  22.503  1.00  0.00     0.345 HD
ATOM     16  H   UNL A   1      33.590  24.134  22.441  1.00  0.00     0.345 HD
ATOM     17  H   UNL A   1      32.724  22.866  21.797  1.00  0.00     0.345 HD
ENDBRANCH  13  14
BRANCH  13  18
ATOM     18  C   UNL A   1      31.307  23.629  24.076  1.00  0.00     0.445 C 
ATOM     19  F   UNL A   1      30.514  22.914  24.905  1.00  0.00    -0.165 F 
ATOM     20  F   UNL A   1      31.455  24.857  24.625  1.00  0.00    -0.165 F 
ATOM     21  F   UNL A   1      30.642  23.785  22.905  1.00  0.00    -0.165 F 
ENDBRANCH  13  18
ENDBRANCH   6  13
ENDBRANCH   3   5
ENDBRANCH   2   3
ENDBRANCH   1   2
BRANCH   1  22
ATOM     22  C   UNL A   1      36.479  21.116  25.377  1.00  0.00     0.275 C 
BRANCH  22  23
ATOM     23  O   UNL A   1      37.739  21.715  25.030  1.00  0.00    -0.458 OA
BRANCH  23  24
ATOM     24  C   UNL A   1      38.773  21.322  25.803  1.00  0.00     0.338 C 
ATOM     25  O   UNL A   1      39.276  20.213  25.880  1.00  0.00    -0.246 OA
BRANCH  24  26
ATOM     26  C   UNL A   1      39.352  22.489  26.470  1.00  0.00     0.060 A 
ATOM     27  C   UNL A   1      38.937  23.741  26.030  1.00  0.00     0.016 A 
ATOM     28  C   UNL A   1      40.394  22.364  27.379  1.00  0.00     0.016 A 
ATOM     29  C   UNL A   1      39.638  24.879  26.394  1.00  0.00     0.010 A 
ATOM     30  C   UNL A   1      41.026  23.523  27.838  1.00  0.00     0.010 A 
ATOM     31  C   UNL A   1      40.682  24.789  27.321  1.00  0.00    -0.014 A 
BRANCH  31  32
ATOM     32  C   UNL A   1      41.427  26.003  27.744  1.00  0.00     0.031 A 
ATOM     33  C   UNL A   1      40.760  27.015  28.634  1.00  0.00     0.074 A 
ATOM     34  C   UNL A   1      42.687  26.212  27.311  1.00  0.00     0.049 A 
ATOM     35  N   UNL A   1      41.124  28.241  28.911  1.00  0.00    -0.248 NA
ATOM     36  C   UNL A   1      39.505  26.600  29.282  1.00  0.00     0.031 C 
ATOM     37  C   UNL A   1      43.478  25.281  26.503  1.00  0.00     0.029 A 
ATOM     38  N   UNL A   1      43.521  27.288  27.483  1.00  0.00    -0.354 N 
ATOM     39  C   UNL A   1      40.113  28.763  29.710  1.00  0.00     0.074 A 
ATOM     40  C   UNL A   1      39.119  27.724  29.868  1.00  0.00     0.031 C 
ATOM     41  C   UNL A   1      44.685  25.816  26.266  1.00  0.00     0.029 A 
ATOM     42  C   UNL A   1      44.714  27.166  26.813  1.00  0.00     0.049 A 
ATOM     43  H   UNL A   1      43.287  28.071  28.033  1.00  0.00     0.167 HD
ATOM     44  C   UNL A   1      40.024  30.001  30.253  1.00  0.00     0.031 A 
ATOM     45  C   UNL A   1      45.698  28.059  26.601  1.00  0.00     0.031 A 
ATOM     46  C   UNL A   1      41.037  31.015  30.108  1.00  0.00     0.049 A 
ATOM     47  C   UNL A   1      45.544  29.447  27.151  1.00  0.00     0.074 A 
ATOM     48  C   UNL A   1      41.054  32.297  30.624  1.00  0.00     0.029 A 
ATOM     49  N   UNL A   1      42.218  30.852  29.398  1.00  0.00    -0.354 N 
ATOM     50  N   UNL A   1      44.564  29.949  27.863  1.00  0.00    -0.248 NA
ATOM     51  C   UNL A   1      46.627  30.395  26.860  1.00  0.00     0.031 C 
ATOM     52  C   UNL A   1      42.218  32.931  30.180  1.00  0.00     0.029 A 
ATOM     53  C   UNL A   1      42.961  32.018  29.447  1.00  0.00     0.049 A 
ATOM     54  H   UNL A   1      42.487  30.029  28.929  1.00  0.00     0.167 HD
ATOM     55  C   UNL A   1      44.928  31.261  28.135  1.00  0.00     0.074 A 
ATOM     56  C   UNL A   1      46.221  31.472  27.518  1.00  0.00     0.031 C 
ATOM     57  C   UNL A   1      44.253  32.204  28.836  1.00  0.00     0.031 A 
BRANCH  44  58
ATOM     58  C   UNL A   1      38.769  30.345  31.008  1.00  0.00    -0.014 A 
ATOM     59  C   UNL A   1      38.650  30.128  32.389  1.00  0.00     0.009 A 
ATOM     60  C   UNL A   1      37.692  30.932  30.322  1.00  0.00     0.009 A 
ATOM     61  C   UNL A   1      37.467  30.454  33.058  1.00  0.00     0.001 A 
ATOM     62  C   UNL A   1      36.523  31.285  30.998  1.00  0.00     0.001 A 
ATOM     63  C   UNL A   1      36.407  31.037  32.363  1.00  0.00     0.000 A 
ENDBRANCH  44  58
BRANCH  45  64
ATOM     64  C   UNL A   1      46.883  27.683  25.786  1.00  0.00    -0.014 A 
ATOM     65  C   UNL A   1      48.033  27.162  26.398  1.00  0.00     0.009 A 
ATOM     66  C   UNL A   1      46.867  27.830  24.389  1.00  0.00     0.009 A 
ATOM     67  C   UNL A   1      49.150  26.821  25.630  1.00  0.00     0.001 A 
ATOM     68  C   UNL A   1      47.971  27.454  23.621  1.00  0.00     0.001 A 
ATOM     69  C   UNL A   1      49.115  26.960  24.243  1.00  0.00     0.000 A 
ENDBRANCH  45  64
BRANCH  57  70
ATOM     70  C   UNL A   1      44.931  33.529  29.031  1.00  0.00    -0.014 A 
ATOM     71  C   UNL A   1      45.803  33.758  30.107  1.00  0.00     0.009 A 
ATOM     72  C   UNL A   1      44.725  34.551  28.091  1.00  0.00     0.009 A 
ATOM     73  C   UNL A   1      46.431  34.997  30.251  1.00  0.00     0.001 A 
ATOM     74  C   UNL A   1      45.379  35.776  28.221  1.00  0.00     0.001 A 
ATOM     75  C   UNL A   1      46.225  36.001  29.305  1.00  0.00     0.000 A 
ENDBRANCH  57  70
ENDBRANCH  31  32
ENDBRANCH  24  26
ENDBRANCH  23  24
ENDBRANCH  22  23
ENDBRANCH   1  22
TORSDOF 14
ENDMDL
MODEL 3
REMARK VINA RESULT:     -10.3      4.986      9.488
REMARK SMILES [NH3+][C@H](c1cc(F)c(F)cc1C(=O)OCCOC(=O)c1ccc(-c2c3nc(c(-c4ccccc4)c4ccc([nH]4)c(-c4ccccc4)c4nc(c(-c5ccccc5)c5ccc2[nH]5)C=C4)C=C3)cc1)C(F)(F)F
REMARK SMILES IDX 14 1 13 2 11 3 12 4 10 5 3 6 4 7 5 8 9 9 6 10 7 11 8 12 2 13
REMARK SMILES IDX 1 14 67 18 68 19 69 20 70 21 15 22 16 23 17 24 18 25 19 26
REMARK SMILES IDX 20 27 66 28 21 29 65 30 22 31 23 32 24 33 59 34 25 35 64 36
REMARK SMILES IDX 58 37 60 38 26 39 63 40 57 41 56 42 27 44 49 45 34 46 48 47
REMARK SMILES IDX 35 48 38 49 47 50 61 51 36 52 37 53 46 55 62 56 39 57 28 58
REMARK SMILES IDX 29 59 33 60 30 61 32 62 31 63 50 64 51 65 55 66 52 67 54 68
REMARK SMILES IDX 53 69 40 70 41 71 45 72 42 73 44 74 43 75
REMARK H PARENT 1 15 1 16 1 17 60 43 38 54
REMARK Flexibility Score: inf
ROOT
ATOM      1  C   UNL A   1      34.658  21.921  25.201  1.00  0.00     0.275 C 
ENDROOT
BRANCH   1   2
ATOM      2  O   UNL A   1      34.814  23.298  25.613  1.00  0.00    -0.458 OA
BRANCH   2   3
ATOM      3  C   UNL A   1      34.487  24.255  24.710  1.00  0.00     0.338 C 
ATOM      4  O   UNL A   1      34.827  24.305  23.544  1.00  0.00    -0.246 OA
BRANCH   3   5
ATOM      5  C   UNL A   1      33.545  25.239  25.312  1.00  0.00     0.072 A 
ATOM      6  C   UNL A   1      32.145  25.063  25.365  1.00  0.00     0.036 A 
ATOM      7  C   UNL A   1      31.369  26.080  25.972  1.00  0.00     0.053 A 
ATOM      8  C   UNL A   1      31.963  27.221  26.504  1.00  0.00     0.159 A 
ATOM      9  C   UNL A   1      34.126  26.375  25.908  1.00  0.00     0.058 A 
ATOM     10  F   UNL A   1      31.197  28.159  27.075  1.00  0.00    -0.204 F 
ATOM     11  C   UNL A   1      33.336  27.366  26.472  1.00  0.00     0.159 A 
ATOM     12  F   UNL A   1      33.920  28.451  26.998  1.00  0.00    -0.204 F 
BRANCH   6  13
ATOM     13  C   UNL A   1      31.448  23.798  24.866  1.00  0.00     0.319 C 
BRANCH  13  14
ATOM     14  N   UNL A   1      30.242  23.549  25.702  1.00  0.00    -0.344 N 
ATOM     15  H   UNL A   1      30.004  24.398  26.215  1.00  0.00     0.345 HD
ATOM     16  H   UNL A   1      30.435  22.796  26.362  1.00  0.00     0.345 HD
ATOM     17  H   UNL A   1      29.461  23.284  25.101  1.00  0.00     0.345 HD
ENDBRANCH  13  14
BRANCH  13  18
ATOM     18  C   UNL A   1      31.241  23.833  23.317  1.00  0.00     0.445 C 
ATOM     19  F   UNL A   1      31.972  22.881  22.696  1.00  0.00    -0.165 F 
ATOM     20  F   UNL A   1      29.944  23.619  22.992  1.00  0.00    -0.165 F 
ATOM     21  F   UNL A   1      31.599  25.031  22.795  1.00  0.00    -0.165 F 
ENDBRANCH  13  18
ENDBRANCH   6  13
ENDBRANCH   3   5
ENDBRANCH   2   3
ENDBRANCH   1   2
BRANCH   1  22
ATOM     22  C   UNL A   1      35.961  21.140  25.379  1.00  0.00     0.275 C 
BRANCH  22  23
ATOM     23  O   UNL A   1      37.093  21.989  25.126  1.00  0.00    -0.458 OA
BRANCH  23  24
ATOM     24  C   UNL A   1      38.253  21.538  25.649  1.00  0.00     0.338 C 
ATOM     25  O   UNL A   1      38.773  20.444  25.496  1.00  0.00    -0.246 OA
BRANCH  24  26
ATOM     26  C   UNL A   1      38.930  22.632  26.344  1.00  0.00     0.060 A 
ATOM     27  C   UNL A   1      38.478  23.922  26.089  1.00  0.00     0.016 A 
ATOM     28  C   UNL A   1      40.082  22.418  27.090  1.00  0.00     0.016 A 
ATOM     29  C   UNL A   1      39.236  25.019  26.466  1.00  0.00     0.010 A 
ATOM     30  C   UNL A   1      40.785  23.526  27.573  1.00  0.00     0.010 A 
ATOM     31  C   UNL A   1      40.391  24.837  27.232  1.00  0.00    -0.014 A 
BRANCH  31  32
ATOM     32  C   UNL A   1      41.202  26.003  27.670  1.00  0.00     0.031 A 
ATOM     33  C   UNL A   1      40.609  27.011  28.616  1.00  0.00     0.074 A 
ATOM     34  C   UNL A   1      42.455  26.174  27.202  1.00  0.00     0.049 A 
ATOM     35  N   UNL A   1      41.034  28.210  28.920  1.00  0.00    -0.248 NA
ATOM     36  C   UNL A   1      39.359  26.627  29.292  1.00  0.00     0.031 C 
ATOM     37  C   UNL A   1      43.178  25.239  26.336  1.00  0.00     0.029 A 
ATOM     38  N   UNL A   1      43.340  27.207  27.381  1.00  0.00    -0.354 N 
ATOM     39  C   UNL A   1      40.074  28.746  29.771  1.00  0.00     0.074 A 
ATOM     40  C   UNL A   1      39.041  27.745  29.928  1.00  0.00     0.031 C 
ATOM     41  C   UNL A   1      44.399  25.731  26.077  1.00  0.00     0.029 A 
ATOM     42  C   UNL A   1      44.504  27.058  26.666  1.00  0.00     0.049 A 
ATOM     43  H   UNL A   1      43.159  27.979  27.964  1.00  0.00     0.167 HD
ATOM     44  C   UNL A   1      40.056  29.967  30.357  1.00  0.00     0.031 A 
ATOM     45  C   UNL A   1      45.518  27.916  26.451  1.00  0.00     0.031 A 
ATOM     46  C   UNL A   1      41.107  30.942  30.211  1.00  0.00     0.049 A 
ATOM     47  C   UNL A   1      45.442  29.289  27.051  1.00  0.00     0.074 A 
ATOM     48  C   UNL A   1      41.196  32.204  30.769  1.00  0.00     0.029 A 
ATOM     49  N   UNL A   1      42.256  30.754  29.456  1.00  0.00    -0.354 N 
ATOM     50  N   UNL A   1      44.509  29.807  27.813  1.00  0.00    -0.248 NA
ATOM     51  C   UNL A   1      46.555  30.201  26.755  1.00  0.00     0.031 C 
ATOM     52  C   UNL A   1      42.372  32.803  30.306  1.00  0.00     0.029 A 
ATOM     53  C   UNL A   1      43.050  31.886  29.519  1.00  0.00     0.049 A 
ATOM     54  H   UNL A   1      42.473  29.937  28.952  1.00  0.00     0.167 HD
ATOM     55  C   UNL A   1      44.938  31.092  28.116  1.00  0.00     0.074 A 
ATOM     56  C   UNL A   1      46.219  31.270  27.462  1.00  0.00     0.031 C 
ATOM     57  C   UNL A   1      44.328  32.038  28.870  1.00  0.00     0.031 A 
BRANCH  44  58
ATOM     58  C   UNL A   1      38.843  30.338  31.166  1.00  0.00    -0.014 A 
ATOM     59  C   UNL A   1      38.801  30.176  32.559  1.00  0.00     0.009 A 
ATOM     60  C   UNL A   1      37.727  30.893  30.517  1.00  0.00     0.009 A 
ATOM     61  C   UNL A   1      37.654  30.524  33.278  1.00  0.00     0.001 A 
ATOM     62  C   UNL A   1      36.595  31.270  31.242  1.00  0.00     0.001 A 
ATOM     63  C   UNL A   1      36.555  31.076  32.620  1.00  0.00     0.000 A 
ENDBRANCH  44  58
BRANCH  45  64
ATOM     64  C   UNL A   1      46.659  27.518  25.584  1.00  0.00    -0.014 A 
ATOM     65  C   UNL A   1      46.676  27.864  24.225  1.00  0.00     0.009 A 
ATOM     66  C   UNL A   1      47.743  26.799  26.113  1.00  0.00     0.009 A 
ATOM     67  C   UNL A   1      47.743  27.479  23.410  1.00  0.00     0.001 A 
ATOM     68  C   UNL A   1      48.826  26.447  25.305  1.00  0.00     0.001 A 
ATOM     69  C   UNL A   1      48.820  26.777  23.952  1.00  0.00     0.000 A 
ENDBRANCH  45  64
BRANCH  57  70
ATOM     70  C   UNL A   1      45.069  33.326  29.086  1.00  0.00    -0.014 A 
ATOM     71  C   UNL A   1      44.885  34.432  28.243  1.00  0.00     0.009 A 
ATOM     72  C   UNL A   1      45.934  33.443  30.186  1.00  0.00     0.009 A 
ATOM     73  C   UNL A   1      45.578  35.621  28.482  1.00  0.00     0.001 A 
ATOM     74  C   UNL A   1      46.600  34.641  30.440  1.00  0.00     0.001 A 
ATOM     75  C   UNL A   1      46.428  35.727  29.583  1.00  0.00     0.000 A 
ENDBRANCH  57  70
ENDBRANCH  31  32
ENDBRANCH  24  26
ENDBRANCH  23  24
ENDBRANCH  22  23
ENDBRANCH   1  22
TORSDOF 14
ENDMDL
