MODEL 1
REMARK VINA RESULT:      -9.4      0.000      0.000
REMARK SMILES O=C(OCCOC(=O)[C@@H](c1ccccc1)N1C(=O)/C(=C\c2ccc(-c3ccc(F)cc3)o2)SC1=S)c1ccc(-c2c3nc(c(-c4ccccc4)c4ccc([nH]4)c(-c4ccccc4)c4nc(c(-c5ccccc5)c5ccc2[nH]5)C=C4)C=C3)cc1
REMARK SMILES IDX 5 1 4 2 3 3 2 4 1 5 36 6 37 7 83 8 38 9 82 10 39 11 40 12
REMARK SMILES IDX 41 13 76 14 42 15 81 16 75 17 77 18 43 19 80 20 74 21 73 22
REMARK SMILES IDX 44 24 66 25 51 26 65 27 52 28 55 29 64 30 78 31 53 32 54 33
REMARK SMILES IDX 63 35 79 36 56 37 45 38 46 39 50 40 47 41 49 42 48 43 67 44
REMARK SMILES IDX 68 45 72 46 69 47 71 48 70 49 57 50 58 51 62 52 59 53 61 54
REMARK SMILES IDX 60 55 6 56 7 57 8 58 9 59 10 60 11 61 15 62 12 63 14 64
REMARK SMILES IDX 13 65 16 66 17 67 34 68 18 69 19 70 33 71 35 72 20 73 21 74
REMARK SMILES IDX 22 75 32 76 23 77 24 78 25 79 26 80 31 81 27 82 30 83 28 84
REMARK SMILES IDX 29 85
REMARK H PARENT 77 23 55 34
REMARK Flexibility Score: inf
ROOT
ATOM      1  C   UNL A   1      47.806  24.343  39.594  1.00  0.00     0.274 C 
ENDROOT
BRANCH   1   2
ATOM      2  C   UNL A   1      46.483  23.567  39.613  1.00  0.00     0.275 C 
BRANCH   2   3
ATOM      3  O   UNL A   1      45.500  24.154  38.748  1.00  0.00    -0.458 OA
BRANCH   3   4
ATOM      4  C   UNL A   1      44.872  25.339  38.872  1.00  0.00     0.338 C 
ATOM      5  O   UNL A   1      44.621  25.759  40.000  1.00  0.00    -0.246 OA
BRANCH   4   6
ATOM      6  C   UNL A   1      44.373  26.168  37.729  1.00  0.00     0.060 A 
ATOM      7  C   UNL A   1      42.670  26.326  37.192  1.00  0.00     0.016 A 
ATOM      8  C   UNL A   1      45.680  27.049  36.938  1.00  0.00     0.016 A 
ATOM      9  C   UNL A   1      42.122  27.348  35.884  1.00  0.00     0.010 A 
ATOM     10  C   UNL A   1      45.273  28.113  35.548  1.00  0.00     0.010 A 
ATOM     11  C   UNL A   1      43.336  28.291  34.963  1.00  0.00    -0.014 A 
BRANCH  11  12
ATOM     12  C   UNL A   1      42.408  29.154  33.970  1.00  0.00     0.031 A 
ATOM     13  C   UNL A   1      41.854  30.474  34.378  1.00  0.00     0.074 A 
ATOM     14  C   UNL A   1      42.188  28.831  32.674  1.00  0.00     0.049 A 
ATOM     15  N   UNL A   1      40.749  31.050  33.991  1.00  0.00    -0.248 NA
ATOM     16  C   UNL A   1      42.627  31.239  35.359  1.00  0.00     0.031 C 
ATOM     17  C   UNL A   1      42.947  27.847  31.940  1.00  0.00     0.029 A 
ATOM     18  N   UNL A   1      41.273  29.261  31.741  1.00  0.00    -0.354 N 
ATOM     19  C   UNL A   1      40.611  32.154  34.814  1.00  0.00     0.074 A 
ATOM     20  C   UNL A   1      41.743  32.160  35.714  1.00  0.00     0.031 C 
ATOM     21  C   UNL A   1      42.412  27.627  30.735  1.00  0.00     0.029 A 
ATOM     22  C   UNL A   1      41.244  28.465  30.610  1.00  0.00     0.049 A 
ATOM     23  H   UNL A   1      40.700  30.052  31.864  1.00  0.00     0.167 HD
ATOM     24  C   UNL A   1      39.617  33.069  34.795  1.00  0.00     0.031 A 
ATOM     25  C   UNL A   1      40.361  28.378  29.598  1.00  0.00     0.031 A 
ATOM     26  C   UNL A   1      38.642  33.147  33.738  1.00  0.00     0.049 A 
ATOM     27  C   UNL A   1      39.243  29.368  29.597  1.00  0.00     0.074 A 
ATOM     28  C   UNL A   1      37.638  34.080  33.563  1.00  0.00     0.029 A 
ATOM     29  N   UNL A   1      38.605  32.303  32.635  1.00  0.00    -0.354 N 
ATOM     30  N   UNL A   1      38.990  30.303  30.479  1.00  0.00    -0.248 NA
ATOM     31  C   UNL A   1      38.319  29.332  28.460  1.00  0.00     0.031 C 
ATOM     32  C   UNL A   1      36.972  33.783  32.370  1.00  0.00     0.029 A 
ATOM     33  C   UNL A   1      37.593  32.695  31.775  1.00  0.00     0.049 A 
ATOM     34  H   UNL A   1      39.208  31.539  32.486  1.00  0.00     0.167 HD
ATOM     35  C   UNL A   1      37.914  31.007  29.976  1.00  0.00     0.074 A 
ATOM     36  C   UNL A   1      37.567  30.394  28.708  1.00  0.00     0.031 C 
ATOM     37  C   UNL A   1      37.277  32.073  30.515  1.00  0.00     0.031 A 
BRANCH  24  38
ATOM     38  C   UNL A   1      39.514  34.005  35.962  1.00  0.00    -0.014 A 
ATOM     39  C   UNL A   1      40.099  35.279  35.970  1.00  0.00     0.009 A 
ATOM     40  C   UNL A   1      38.806  33.579  37.098  1.00  0.00     0.009 A 
ATOM     41  C   UNL A   1      40.026  36.082  37.111  1.00  0.00     0.001 A 
ATOM     42  C   UNL A   1      38.695  34.401  38.219  1.00  0.00     0.001 A 
ATOM     43  C   UNL A   1      39.318  35.646  38.230  1.00  0.00     0.000 A 
ENDBRANCH  24  38
BRANCH  25  44
ATOM     44  C   UNL A   1      40.467  27.325  28.546  1.00  0.00    -0.014 A 
ATOM     45  C   UNL A   1      41.182  27.555  27.359  1.00  0.00     0.009 A 
ATOM     46  C   UNL A   1      39.793  26.100  28.692  1.00  0.00     0.009 A 
ATOM     47  C   UNL A   1      41.164  26.616  26.322  1.00  0.00     0.001 A 
ATOM     48  C   UNL A   1      39.803  25.149  27.665  1.00  0.00     0.001 A 
ATOM     49  C   UNL A   1      40.472  25.416  26.473  1.00  0.00     0.000 A 
ENDBRANCH  25  44
BRANCH  37  50
ATOM     50  C   UNL A   1      36.172  32.668  29.698  1.00  0.00    -0.014 A 
ATOM     51  C   UNL A   1      34.838  32.283  29.892  1.00  0.00     0.009 A 
ATOM     52  C   UNL A   1      36.476  33.650  28.744  1.00  0.00     0.009 A 
ATOM     53  C   UNL A   1      33.827  32.851  29.119  1.00  0.00     0.001 A 
ATOM     54  C   UNL A   1      35.459  34.245  28.001  1.00  0.00     0.001 A 
ATOM     55  C   UNL A   1      34.137  33.838  28.183  1.00  0.00     0.000 A 
ENDBRANCH  37  50
ENDBRANCH  11  12
ENDBRANCH   4   6
ENDBRANCH   3   4
ENDBRANCH   2   3
ENDBRANCH   1   2
BRANCH   1  56
ATOM     56  O   UNL A   1      48.283  24.499  38.247  1.00  0.00    -0.460 OA
BRANCH  56  57
ATOM     57  C   UNL A   1      49.253  23.702  37.738  1.00  0.00     0.334 C 
ATOM     58  O   UNL A   1      50.207  23.323  38.411  1.00  0.00    -0.249 OA
BRANCH  57  59
ATOM     59  C   UNL A   1      49.139  23.449  36.204  1.00  0.00     0.232 C 
BRANCH  59  60
ATOM     60  C   UNL A   1      50.336  23.430  35.001  1.00  0.00    -0.014 A 
ATOM     61  C   UNL A   1      49.606  24.461  33.671  1.00  0.00     0.006 A 
ATOM     62  C   UNL A   1      52.301  22.986  34.744  1.00  0.00     0.006 A 
ATOM     63  C   UNL A   1      50.609  24.969  32.299  1.00  0.00     0.000 A 
ATOM     64  C   UNL A   1      53.185  23.590  33.309  1.00  0.00     0.000 A 
ATOM     65  C   UNL A   1      52.318  24.547  32.141  1.00  0.00     0.000 A 
ENDBRANCH  59  60
BRANCH  59  66
ATOM     66  N   UNL A   1      48.098  22.372  36.115  1.00  0.00    -0.274 N 
ATOM     67  C   UNL A   1      46.815  22.754  35.772  1.00  0.00     0.267 C 
ATOM     68  C   UNL A   1      48.287  21.011  36.254  1.00  0.00     0.149 C 
ATOM     69  O   UNL A   1      46.423  23.908  35.691  1.00  0.00    -0.268 OA
ATOM     70  C   UNL A   1      45.923  21.575  35.604  1.00  0.00     0.084 C 
ATOM     71  S   UNL A   1      46.725  20.173  36.182  1.00  0.00    -0.054 SA
ATOM     72  S   UNL A   1      49.705  20.159  36.475  1.00  0.00    -0.052 S 
ATOM     73  C   UNL A   1      44.707  21.604  35.042  1.00  0.00     0.068 C 
BRANCH  73  74
ATOM     74  C   UNL A   1      44.346  22.702  34.210  1.00  0.00     0.128 A 
ATOM     75  C   UNL A   1      43.543  23.778  34.582  1.00  0.00     0.051 A 
ATOM     76  O   UNL A   1      44.736  22.897  32.903  1.00  0.00    -0.457 OA
ATOM     77  C   UNL A   1      43.401  24.620  33.470  1.00  0.00     0.051 A 
ATOM     78  C   UNL A   1      44.155  24.055  32.470  1.00  0.00     0.134 A 
BRANCH  78  79
ATOM     79  C   UNL A   1      44.475  24.521  31.134  1.00  0.00     0.017 A 
ATOM     80  C   UNL A   1      43.683  24.199  30.025  1.00  0.00     0.015 A 
ATOM     81  C   UNL A   1      45.563  25.395  30.974  1.00  0.00     0.015 A 
ATOM     82  C   UNL A   1      43.977  24.755  28.774  1.00  0.00     0.040 A 
ATOM     83  C   UNL A   1      45.860  25.939  29.726  1.00  0.00     0.040 A 
ATOM     84  C   UNL A   1      45.062  25.616  28.637  1.00  0.00     0.123 A 
ATOM     85  F   UNL A   1      45.338  26.151  27.441  1.00  0.00    -0.207 F 
ENDBRANCH  78  79
ENDBRANCH  73  74
ENDBRANCH  59  66
ENDBRANCH  57  59
ENDBRANCH  56  57
ENDBRANCH   1  56
TORSDOF 15
ENDMDL
MODEL 2
REMARK VINA RESULT:      -9.3      2.707      4.949
REMARK SMILES O=C(OCCOC(=O)[C@@H](c1ccccc1)N1C(=O)/C(=C\c2ccc(-c3ccc(F)cc3)o2)SC1=S)c1ccc(-c2c3nc(c(-c4ccccc4)c4ccc([nH]4)c(-c4ccccc4)c4nc(c(-c5ccccc5)c5ccc2[nH]5)C=C4)C=C3)cc1
REMARK SMILES IDX 5 1 4 2 3 3 2 4 1 5 36 6 37 7 83 8 38 9 82 10 39 11 40 12
REMARK SMILES IDX 41 13 76 14 42 15 81 16 75 17 77 18 43 19 80 20 74 21 73 22
REMARK SMILES IDX 44 24 66 25 51 26 65 27 52 28 55 29 64 30 78 31 53 32 54 33
REMARK SMILES IDX 63 35 79 36 56 37 45 38 46 39 50 40 47 41 49 42 48 43 67 44
REMARK SMILES IDX 68 45 72 46 69 47 71 48 70 49 57 50 58 51 62 52 59 53 61 54
REMARK SMILES IDX 60 55 6 56 7 57 8 58 9 59 10 60 11 61 15 62 12 63 14 64
REMARK SMILES IDX 13 65 16 66 17 67 34 68 18 69 19 70 33 71 35 72 20 73 21 74
REMARK SMILES IDX 22 75 32 76 23 77 24 78 25 79 26 80 31 81 27 82 30 83 28 84
REMARK SMILES IDX 29 85
REMARK H PARENT 77 23 55 34
REMARK Flexibility Score: inf
ROOT
ATOM      1  C   UNL A   1      47.800  26.631  39.196  1.00  0.00     0.274 C 
ENDROOT
BRANCH   1   2
ATOM      2  C   UNL A   1      46.796  26.264  40.296  1.00  0.00     0.275 C 
BRANCH   2   3
ATOM      3  O   UNL A   1      45.451  26.200  39.799  1.00  0.00    -0.458 OA
BRANCH   3   4
ATOM      4  C   UNL A   1      45.006  25.667  38.644  1.00  0.00     0.338 C 
ATOM      5  O   UNL A   1      45.096  24.452  38.482  1.00  0.00    -0.246 OA
BRANCH   4   6
ATOM      6  C   UNL A   1      44.474  26.455  37.486  1.00  0.00     0.060 A 
ATOM      7  C   UNL A   1      42.753  26.632  37.020  1.00  0.00     0.016 A 
ATOM      8  C   UNL A   1      45.764  27.265  36.597  1.00  0.00     0.016 A 
ATOM      9  C   UNL A   1      42.169  27.607  35.692  1.00  0.00     0.010 A 
ATOM     10  C   UNL A   1      45.319  28.274  35.178  1.00  0.00     0.010 A 
ATOM     11  C   UNL A   1      43.361  28.475  34.674  1.00  0.00    -0.014 A 
BRANCH  11  12
ATOM     12  C   UNL A   1      42.409  29.315  33.684  1.00  0.00     0.031 A 
ATOM     13  C   UNL A   1      41.880  30.653  34.067  1.00  0.00     0.074 A 
ATOM     14  C   UNL A   1      42.143  28.953  32.407  1.00  0.00     0.049 A 
ATOM     15  N   UNL A   1      40.769  31.227  33.698  1.00  0.00    -0.248 NA
ATOM     16  C   UNL A   1      42.692  31.442  34.997  1.00  0.00     0.031 C 
ATOM     17  C   UNL A   1      42.869  27.938  31.681  1.00  0.00     0.029 A 
ATOM     18  N   UNL A   1      41.203  29.362  31.490  1.00  0.00    -0.354 N 
ATOM     19  C   UNL A   1      40.668  32.358  34.489  1.00  0.00     0.074 A 
ATOM     20  C   UNL A   1      41.829  32.382  35.350  1.00  0.00     0.031 C 
ATOM     21  C   UNL A   1      42.293  27.685  30.502  1.00  0.00     0.029 A 
ATOM     22  C   UNL A   1      41.129  28.531  30.388  1.00  0.00     0.049 A 
ATOM     23  H   UNL A   1      40.641  30.162  31.607  1.00  0.00     0.167 HD
ATOM     24  C   UNL A   1      39.682  33.282  34.472  1.00  0.00     0.031 A 
ATOM     25  C   UNL A   1      40.213  28.420  29.409  1.00  0.00     0.031 A 
ATOM     26  C   UNL A   1      38.674  33.337  33.446  1.00  0.00     0.049 A 
ATOM     27  C   UNL A   1      39.104  29.420  29.412  1.00  0.00     0.074 A 
ATOM     28  C   UNL A   1      37.673  34.273  33.274  1.00  0.00     0.029 A 
ATOM     29  N   UNL A   1      38.593  32.458  32.372  1.00  0.00    -0.354 N 
ATOM     30  N   UNL A   1      38.889  30.386  30.270  1.00  0.00    -0.248 NA
ATOM     31  C   UNL A   1      38.143  29.358  28.307  1.00  0.00     0.031 C 
ATOM     32  C   UNL A   1      36.966  33.945  32.113  1.00  0.00     0.029 A 
ATOM     33  C   UNL A   1      37.556  32.833  31.534  1.00  0.00     0.049 A 
ATOM     34  H   UNL A   1      39.183  31.684  32.229  1.00  0.00     0.167 HD
ATOM     35  C   UNL A   1      37.803  31.085  29.781  1.00  0.00     0.074 A 
ATOM     36  C   UNL A   1      37.409  30.434  28.545  1.00  0.00     0.031 C 
ATOM     37  C   UNL A   1      37.194  32.174  30.305  1.00  0.00     0.031 A 
BRANCH  24  38
ATOM     38  C   UNL A   1      39.626  34.257  35.611  1.00  0.00    -0.014 A 
ATOM     39  C   UNL A   1      40.220  35.526  35.558  1.00  0.00     0.009 A 
ATOM     40  C   UNL A   1      38.955  33.873  36.784  1.00  0.00     0.009 A 
ATOM     41  C   UNL A   1      40.192  36.365  36.674  1.00  0.00     0.001 A 
ATOM     42  C   UNL A   1      38.888  34.731  37.881  1.00  0.00     0.001 A 
ATOM     43  C   UNL A   1      39.520  35.971  37.830  1.00  0.00     0.000 A 
ENDBRANCH  24  38
BRANCH  25  44
ATOM     44  C   UNL A   1      40.274  27.333  28.388  1.00  0.00    -0.014 A 
ATOM     45  C   UNL A   1      40.958  27.515  27.175  1.00  0.00     0.009 A 
ATOM     46  C   UNL A   1      39.588  26.123  28.592  1.00  0.00     0.009 A 
ATOM     47  C   UNL A   1      40.898  26.544  26.169  1.00  0.00     0.001 A 
ATOM     48  C   UNL A   1      39.556  25.140  27.597  1.00  0.00     0.001 A 
ATOM     49  C   UNL A   1      40.194  25.360  26.377  1.00  0.00     0.000 A 
ENDBRANCH  25  44
BRANCH  37  50
ATOM     50  C   UNL A   1      36.068  32.754  29.506  1.00  0.00    -0.014 A 
ATOM     51  C   UNL A   1      36.262  33.876  28.688  1.00  0.00     0.009 A 
ATOM     52  C   UNL A   1      34.806  32.144  29.554  1.00  0.00     0.009 A 
ATOM     53  C   UNL A   1      35.199  34.398  27.954  1.00  0.00     0.001 A 
ATOM     54  C   UNL A   1      33.756  32.644  28.789  1.00  0.00     0.001 A 
ATOM     55  C   UNL A   1      33.951  33.776  27.997  1.00  0.00     0.000 A 
ENDBRANCH  37  50
ENDBRANCH  11  12
ENDBRANCH   4   6
ENDBRANCH   3   4
ENDBRANCH   2   3
ENDBRANCH   1   2
BRANCH   1  56
ATOM     56  O   UNL A   1      48.430  25.451  38.670  1.00  0.00    -0.460 OA
BRANCH  56  57
ATOM     57  C   UNL A   1      48.742  25.335  37.357  1.00  0.00     0.334 C 
ATOM     58  O   UNL A   1      49.332  26.221  36.746  1.00  0.00    -0.249 OA
BRANCH  57  59
ATOM     59  C   UNL A   1      48.147  24.073  36.663  1.00  0.00     0.232 C 
BRANCH  59  60
ATOM     60  C   UNL A   1      47.066  23.940  35.362  1.00  0.00    -0.014 A 
ATOM     61  C   UNL A   1      45.978  22.550  35.863  1.00  0.00     0.006 A 
ATOM     62  C   UNL A   1      46.411  24.984  33.747  1.00  0.00     0.006 A 
ATOM     63  C   UNL A   1      44.503  22.209  34.942  1.00  0.00     0.000 A 
ATOM     64  C   UNL A   1      44.885  24.526  32.932  1.00  0.00     0.000 A 
ATOM     65  C   UNL A   1      43.991  23.163  33.545  1.00  0.00     0.000 A 
ENDBRANCH  59  60
BRANCH  59  66
ATOM     66  N   UNL A   1      49.299  23.113  36.663  1.00  0.00    -0.274 N 
ATOM     67  C   UNL A   1      49.400  22.238  37.727  1.00  0.00     0.267 C 
ATOM     68  C   UNL A   1      50.242  22.936  35.668  1.00  0.00     0.149 C 
ATOM     69  O   UNL A   1      48.723  22.287  38.744  1.00  0.00    -0.268 OA
ATOM     70  C   UNL A   1      50.513  21.270  37.534  1.00  0.00     0.084 C 
ATOM     71  S   UNL A   1      51.467  21.766  36.197  1.00  0.00    -0.054 SA
ATOM     72  S   UNL A   1      50.340  23.656  34.167  1.00  0.00    -0.052 S 
ATOM     73  C   UNL A   1      50.704  20.161  38.262  1.00  0.00     0.068 C 
BRANCH  73  74
ATOM     74  C   UNL A   1      49.624  19.628  39.022  1.00  0.00     0.128 A 
ATOM     75  C   UNL A   1      49.492  19.690  40.407  1.00  0.00     0.051 A 
ATOM     76  O   UNL A   1      48.521  18.971  38.520  1.00  0.00    -0.457 OA
ATOM     77  C   UNL A   1      48.313  19.018  40.762  1.00  0.00     0.051 A 
ATOM     78  C   UNL A   1      47.742  18.607  39.581  1.00  0.00     0.134 A 
BRANCH  78  79
ATOM     79  C   UNL A   1      46.474  17.959  39.308  1.00  0.00     0.017 A 
ATOM     80  C   UNL A   1      45.751  18.207  38.134  1.00  0.00     0.015 A 
ATOM     81  C   UNL A   1      46.010  16.990  40.211  1.00  0.00     0.015 A 
ATOM     82  C   UNL A   1      44.582  17.483  37.870  1.00  0.00     0.040 A 
ATOM     83  C   UNL A   1      44.841  16.278  39.952  1.00  0.00     0.040 A 
ATOM     84  C   UNL A   1      44.138  16.529  38.782  1.00  0.00     0.123 A 
ATOM     85  F   UNL A   1      43.023  15.834  38.525  1.00  0.00    -0.207 F 
ENDBRANCH  78  79
ENDBRANCH  73  74
ENDBRANCH  59  66
ENDBRANCH  57  59
ENDBRANCH  56  57
ENDBRANCH   1  56
TORSDOF 15
ENDMDL
MODEL 3
REMARK VINA RESULT:      -9.1      6.845     13.312
REMARK SMILES O=C(OCCOC(=O)[C@@H](c1ccccc1)N1C(=O)/C(=C\c2ccc(-c3ccc(F)cc3)o2)SC1=S)c1ccc(-c2c3nc(c(-c4ccccc4)c4ccc([nH]4)c(-c4ccccc4)c4nc(c(-c5ccccc5)c5ccc2[nH]5)C=C4)C=C3)cc1
REMARK SMILES IDX 5 1 4 2 3 3 2 4 1 5 36 6 37 7 83 8 38 9 82 10 39 11 40 12
REMARK SMILES IDX 41 13 76 14 42 15 81 16 75 17 77 18 43 19 80 20 74 21 73 22
REMARK SMILES IDX 44 24 66 25 51 26 65 27 52 28 55 29 64 30 78 31 53 32 54 33
REMARK SMILES IDX 63 35 79 36 56 37 45 38 46 39 50 40 47 41 49 42 48 43 67 44
REMARK SMILES IDX 68 45 72 46 69 47 71 48 70 49 57 50 58 51 62 52 59 53 61 54
REMARK SMILES IDX 60 55 6 56 7 57 8 58 9 59 10 60 11 61 15 62 12 63 14 64
REMARK SMILES IDX 13 65 16 66 17 67 34 68 18 69 19 70 33 71 35 72 20 73 21 74
REMARK SMILES IDX 22 75 32 76 23 77 24 78 25 79 26 80 31 81 27 82 30 83 28 84
REMARK SMILES IDX 29 85
REMARK H PARENT 77 23 55 34
REMARK Flexibility Score: inf
ROOT
ATOM      1  C   UNL A   1      36.791  21.240  24.356  1.00  0.00     0.274 C 
ENDROOT
BRANCH   1   2
ATOM      2  C   UNL A   1      37.506  21.719  25.626  1.00  0.00     0.275 C 
BRANCH   2   3
ATOM      3  O   UNL A   1      38.872  22.081  25.373  1.00  0.00    -0.458 OA
BRANCH   3   4
ATOM      4  C   UNL A   1      39.862  22.295  26.260  1.00  0.00     0.338 C 
ATOM      5  O   UNL A   1      40.585  21.353  26.578  1.00  0.00    -0.246 OA
BRANCH   4   6
ATOM      6  C   UNL A   1      40.112  23.593  26.967  1.00  0.00     0.060 A 
ATOM      7  C   UNL A   1      38.985  24.434  28.079  1.00  0.00     0.016 A 
ATOM      8  C   UNL A   1      41.718  24.233  26.615  1.00  0.00     0.016 A 
ATOM      9  C   UNL A   1      39.337  25.921  28.926  1.00  0.00     0.010 A 
ATOM     10  C   UNL A   1      42.207  25.779  27.386  1.00  0.00     0.010 A 
ATOM     11  C   UNL A   1      40.923  26.712  28.654  1.00  0.00    -0.014 A 
BRANCH  11  12
ATOM     12  C   UNL A   1      40.868  27.940  29.693  1.00  0.00     0.031 A 
ATOM     13  C   UNL A   1      41.814  28.029  30.840  1.00  0.00     0.074 A 
ATOM     14  C   UNL A   1      40.085  29.032  29.527  1.00  0.00     0.049 A 
ATOM     15  N   UNL A   1      41.633  28.587  32.004  1.00  0.00    -0.248 NA
ATOM     16  C   UNL A   1      43.123  27.394  30.666  1.00  0.00     0.031 C 
ATOM     17  C   UNL A   1      39.409  29.370  28.298  1.00  0.00     0.029 A 
ATOM     18  N   UNL A   1      39.702  30.050  30.370  1.00  0.00    -0.354 N 
ATOM     19  C   UNL A   1      42.732  28.214  32.757  1.00  0.00     0.074 A 
ATOM     20  C   UNL A   1      43.567  27.387  31.914  1.00  0.00     0.031 C 
ATOM     21  C   UNL A   1      38.588  30.411  28.470  1.00  0.00     0.029 A 
ATOM     22  C   UNL A   1      38.676  30.819  29.852  1.00  0.00     0.049 A 
ATOM     23  H   UNL A   1      40.114  30.214  31.248  1.00  0.00     0.167 HD
ATOM     24  C   UNL A   1      43.000  28.553  34.037  1.00  0.00     0.031 A 
ATOM     25  C   UNL A   1      37.860  31.725  30.421  1.00  0.00     0.031 A 
ATOM     26  C   UNL A   1      42.261  29.559  34.755  1.00  0.00     0.049 A 
ATOM     27  C   UNL A   1      38.134  32.072  31.847  1.00  0.00     0.074 A 
ATOM     28  C   UNL A   1      42.488  30.049  36.027  1.00  0.00     0.029 A 
ATOM     29  N   UNL A   1      41.200  30.285  34.227  1.00  0.00    -0.354 N 
ATOM     30  N   UNL A   1      39.060  31.583  32.635  1.00  0.00    -0.248 NA
ATOM     31  C   UNL A   1      37.300  33.113  32.455  1.00  0.00     0.031 C 
ATOM     32  C   UNL A   1      41.546  31.049  36.281  1.00  0.00     0.029 A 
ATOM     33  C   UNL A   1      40.763  31.220  35.150  1.00  0.00     0.049 A 
ATOM     34  H   UNL A   1      40.816  30.155  33.330  1.00  0.00     0.167 HD
ATOM     35  C   UNL A   1      38.961  32.296  33.813  1.00  0.00     0.074 A 
ATOM     36  C   UNL A   1      37.889  33.256  33.633  1.00  0.00     0.031 C 
ATOM     37  C   UNL A   1      39.700  32.170  34.940  1.00  0.00     0.031 A 
BRANCH  24  38
ATOM     38  C   UNL A   1      44.090  27.799  34.741  1.00  0.00    -0.014 A 
ATOM     39  C   UNL A   1      45.444  28.145  34.637  1.00  0.00     0.009 A 
ATOM     40  C   UNL A   1      43.732  26.693  35.530  1.00  0.00     0.009 A 
ATOM     41  C   UNL A   1      46.421  27.366  35.262  1.00  0.00     0.001 A 
ATOM     42  C   UNL A   1      44.705  25.944  36.191  1.00  0.00     0.001 A 
ATOM     43  C   UNL A   1      46.050  26.272  36.044  1.00  0.00     0.000 A 
ENDBRANCH  24  38
BRANCH  25  44
ATOM     44  C   UNL A   1      36.713  32.330  29.682  1.00  0.00    -0.014 A 
ATOM     45  C   UNL A   1      36.816  33.603  29.099  1.00  0.00     0.009 A 
ATOM     46  C   UNL A   1      35.477  31.663  29.613  1.00  0.00     0.009 A 
ATOM     47  C   UNL A   1      35.698  34.219  28.526  1.00  0.00     0.001 A 
ATOM     48  C   UNL A   1      34.368  32.268  29.011  1.00  0.00     0.001 A 
ATOM     49  C   UNL A   1      34.474  33.554  28.485  1.00  0.00     0.000 A 
ENDBRANCH  25  44
BRANCH  37  50
ATOM     50  C   UNL A   1      39.399  33.137  36.043  1.00  0.00    -0.014 A 
ATOM     51  C   UNL A   1      38.454  32.834  37.034  1.00  0.00     0.009 A 
ATOM     52  C   UNL A   1      40.095  34.352  36.101  1.00  0.00     0.009 A 
ATOM     53  C   UNL A   1      38.190  33.751  38.050  1.00  0.00     0.001 A 
ATOM     54  C   UNL A   1      39.858  35.249  37.140  1.00  0.00     0.001 A 
ATOM     55  C   UNL A   1      38.899  34.951  38.108  1.00  0.00     0.000 A 
ENDBRANCH  37  50
ENDBRANCH  11  12
ENDBRANCH   4   6
ENDBRANCH   3   4
ENDBRANCH   2   3
ENDBRANCH   1   2
BRANCH   1  56
ATOM     56  O   UNL A   1      36.328  22.360  23.582  1.00  0.00    -0.460 OA
BRANCH  56  57
ATOM     57  C   UNL A   1      35.411  23.230  24.067  1.00  0.00     0.334 C 
ATOM     58  O   UNL A   1      35.729  24.317  24.540  1.00  0.00    -0.249 OA
BRANCH  57  59
ATOM     59  C   UNL A   1      33.958  22.669  24.125  1.00  0.00     0.232 C 
BRANCH  59  60
ATOM     60  C   UNL A   1      33.363  21.117  23.782  1.00  0.00    -0.014 A 
ATOM     61  C   UNL A   1      32.379  21.376  22.256  1.00  0.00     0.006 A 
ATOM     62  C   UNL A   1      33.681  19.169  24.262  1.00  0.00     0.006 A 
ATOM     63  C   UNL A   1      31.778  19.978  21.346  1.00  0.00     0.000 A 
ATOM     64  C   UNL A   1      33.021  17.864  23.229  1.00  0.00     0.000 A 
ATOM     65  C   UNL A   1      32.095  18.305  21.823  1.00  0.00     0.000 A 
ENDBRANCH  59  60
BRANCH  59  66
ATOM     66  N   UNL A   1      33.385  23.340  25.338  1.00  0.00    -0.274 N 
ATOM     67  C   UNL A   1      32.662  24.501  25.142  1.00  0.00     0.267 C 
ATOM     68  C   UNL A   1      33.421  22.886  26.643  1.00  0.00     0.149 C 
ATOM     69  O   UNL A   1      32.583  25.111  24.086  1.00  0.00    -0.268 OA
ATOM     70  C   UNL A   1      32.055  24.986  26.411  1.00  0.00     0.084 C 
ATOM     71  S   UNL A   1      32.709  24.099  27.725  1.00  0.00    -0.054 SA
ATOM     72  S   UNL A   1      34.024  21.452  27.245  1.00  0.00    -0.052 S 
ATOM     73  C   UNL A   1      31.110  25.932  26.500  1.00  0.00     0.068 C 
BRANCH  73  74
ATOM     74  C   UNL A   1      30.339  26.263  25.349  1.00  0.00     0.128 A 
ATOM     75  C   UNL A   1      29.500  25.396  24.652  1.00  0.00     0.051 A 
ATOM     76  O   UNL A   1      30.279  27.495  24.734  1.00  0.00    -0.457 OA
ATOM     77  C   UNL A   1      28.957  26.096  23.566  1.00  0.00     0.051 A 
ATOM     78  C   UNL A   1      29.445  27.377  23.659  1.00  0.00     0.134 A 
BRANCH  78  79
ATOM     79  C   UNL A   1      29.158  28.568  22.884  1.00  0.00     0.017 A 
ATOM     80  C   UNL A   1      27.863  29.091  22.777  1.00  0.00     0.015 A 
ATOM     81  C   UNL A   1      30.231  29.262  22.301  1.00  0.00     0.015 A 
ATOM     82  C   UNL A   1      27.653  30.298  22.100  1.00  0.00     0.040 A 
ATOM     83  C   UNL A   1      30.018  30.457  21.619  1.00  0.00     0.040 A 
ATOM     84  C   UNL A   1      28.731  30.967  21.527  1.00  0.00     0.123 A 
ATOM     85  F   UNL A   1      28.528  32.124  20.884  1.00  0.00    -0.207 F 
ENDBRANCH  78  79
ENDBRANCH  73  74
ENDBRANCH  59  66
ENDBRANCH  57  59
ENDBRANCH  56  57
ENDBRANCH   1  56
TORSDOF 15
ENDMDL
