MODEL 1
REMARK VINA RESULT:     -10.9      0.000      0.000
REMARK SMILES CCCCCCNC(=O)Oc1cccc(-c2ccc([C@@H](C)C(=O)OCCOC(=O)c3ccc(-c4c5nc(c(-c6ccccc6)c6ccc([nH]6)c(-c6ccccc6)c6nc(c(-c7ccccc7)c7ccc4[nH]7)C=C6)C=C5)cc3)cc2F)c1
REMARK SMILES IDX 20 1 21 2 19 3 16 4 17 5 79 6 18 7 78 8 80 9 15 10 11 11
REMARK SMILES IDX 12 12 81 13 13 14 14 15 10 16 8 17 7 18 9 20 6 21 5 22 4 23
REMARK SMILES IDX 3 24 2 25 1 26 22 27 23 28 24 29 25 30 26 31 27 32 28 33
REMARK SMILES IDX 29 34 30 35 31 36 77 37 32 38 76 39 33 40 34 41 35 42 70 43
REMARK SMILES IDX 36 44 75 45 69 46 71 47 37 48 74 49 68 50 67 51 38 53 60 54
REMARK SMILES IDX 45 55 59 56 46 57 49 58 58 59 72 60 47 61 48 62 57 64 73 65
REMARK SMILES IDX 50 66 39 67 40 68 44 69 41 70 43 71 42 72 61 73 62 74 66 75
REMARK SMILES IDX 63 76 65 77 64 78 51 79 52 80 56 81 53 82 55 83 54 84
REMARK H PARENT 7 19 71 52 49 63
REMARK Flexibility Score: inf
ROOT
ATOM      1  C   UNL A   1      34.125  34.812  29.008  1.00  0.00     0.126 C 
ATOM      2  C   UNL A   1      34.391  35.928  28.001  1.00  0.00     0.025 C 
ENDROOT
BRANCH   1   3
ATOM      3  C   UNL A   1      33.708  33.508  28.345  1.00  0.00    -0.031 A 
ATOM      4  C   UNL A   1      32.902  31.098  27.053  1.00  0.00     0.018 A 
ATOM      5  C   UNL A   1      34.106  31.173  27.771  1.00  0.00     0.012 A 
ATOM      6  C   UNL A   1      32.114  32.254  26.998  1.00  0.00     0.131 A 
ATOM      7  C   UNL A   1      34.502  32.356  28.407  1.00  0.00     0.005 A 
ATOM      8  C   UNL A   1      32.500  33.434  27.636  1.00  0.00     0.044 A 
ATOM      9  F   UNL A   1      30.942  32.247  26.342  1.00  0.00    -0.206 F 
BRANCH   4  10
ATOM     10  C   UNL A   1      32.492  29.842  26.406  1.00  0.00    -0.012 A 
ATOM     11  C   UNL A   1      32.262  28.434  24.443  1.00  0.00     0.133 A 
ATOM     12  C   UNL A   1      31.711  27.409  25.208  1.00  0.00     0.047 A 
ATOM     13  C   UNL A   1      32.634  29.649  25.023  1.00  0.00     0.056 A 
ATOM     14  C   UNL A   1      31.557  27.588  26.578  1.00  0.00     0.004 A 
ATOM     15  C   UNL A   1      31.946  28.793  27.171  1.00  0.00     0.009 A 
BRANCH  11  16
ATOM     16  O   UNL A   1      32.324  28.226  23.057  1.00  0.00    -0.410 OA
BRANCH  16  17
ATOM     17  C   UNL A   1      31.259  27.574  22.456  1.00  0.00     0.412 C 
ATOM     18  N   UNL A   1      31.596  26.350  21.944  1.00  0.00    -0.321 N 
ATOM     19  H   UNL A   1      30.868  25.829  21.534  1.00  0.00     0.167 HD
ATOM     20  O   UNL A   1      30.116  28.003  22.346  1.00  0.00    -0.224 OA
BRANCH  18  21
ATOM     21  C   UNL A   1      32.911  25.741  21.937  1.00  0.00     0.119 C 
BRANCH  21  22
ATOM     22  C   UNL A   1      32.879  24.296  22.436  1.00  0.00     0.021 C 
BRANCH  22  23
ATOM     23  C   UNL A   1      33.890  23.973  23.544  1.00  0.00     0.002 C 
BRANCH  23  24
ATOM     24  C   UNL A   1      35.141  23.207  23.099  1.00  0.00    -0.000 C 
BRANCH  24  25
ATOM     25  C   UNL A   1      36.290  23.171  24.111  1.00  0.00    -0.003 C 
ATOM     26  C   UNL A   1      36.917  21.795  24.264  1.00  0.00     0.004 C 
ENDBRANCH  24  25
ENDBRANCH  23  24
ENDBRANCH  22  23
ENDBRANCH  21  22
ENDBRANCH  18  21
ENDBRANCH  16  17
ENDBRANCH  11  16
ENDBRANCH   4  10
ENDBRANCH   1   3
BRANCH   1  27
ATOM     27  C   UNL A   1      33.200  35.319  30.112  1.00  0.00     0.313 C 
ATOM     28  O   UNL A   1      32.523  36.334  29.979  1.00  0.00    -0.252 OA
BRANCH  27  29
ATOM     29  O   UNL A   1      33.172  34.520  31.209  1.00  0.00    -0.462 OA
BRANCH  29  30
ATOM     30  C   UNL A   1      34.038  34.879  32.304  1.00  0.00     0.274 C 
BRANCH  30  31
ATOM     31  C   UNL A   1      34.274  33.697  33.248  1.00  0.00     0.275 C 
BRANCH  31  32
ATOM     32  O   UNL A   1      35.102  32.693  32.633  1.00  0.00    -0.458 OA
BRANCH  32  33
ATOM     33  C   UNL A   1      36.229  32.392  33.315  1.00  0.00     0.338 C 
ATOM     34  O   UNL A   1      36.419  32.493  34.514  1.00  0.00    -0.246 OA
BRANCH  33  35
ATOM     35  C   UNL A   1      37.206  31.767  32.413  1.00  0.00     0.060 A 
ATOM     36  C   UNL A   1      38.263  31.064  32.993  1.00  0.00     0.016 A 
ATOM     37  C   UNL A   1      37.145  31.945  31.032  1.00  0.00     0.016 A 
ATOM     38  C   UNL A   1      39.285  30.556  32.201  1.00  0.00     0.010 A 
ATOM     39  C   UNL A   1      38.168  31.423  30.231  1.00  0.00     0.010 A 
ATOM     40  C   UNL A   1      39.253  30.744  30.815  1.00  0.00    -0.014 A 
BRANCH  40  41
ATOM     41  C   UNL A   1      40.394  30.270  29.999  1.00  0.00     0.031 A 
ATOM     42  C   UNL A   1      41.573  31.168  29.762  1.00  0.00     0.074 A 
ATOM     43  C   UNL A   1      40.394  29.014  29.518  1.00  0.00     0.049 A 
ATOM     44  N   UNL A   1      42.670  30.930  29.089  1.00  0.00    -0.248 NA
ATOM     45  C   UNL A   1      41.509  32.510  30.359  1.00  0.00     0.031 C 
ATOM     46  C   UNL A   1      39.324  28.036  29.714  1.00  0.00     0.029 A 
ATOM     47  N   UNL A   1      41.332  28.345  28.775  1.00  0.00    -0.354 N 
ATOM     48  C   UNL A   1      43.420  32.096  29.168  1.00  0.00     0.074 A 
ATOM     49  C   UNL A   1      42.644  33.047  29.934  1.00  0.00     0.031 C 
ATOM     50  C   UNL A   1      39.672  26.885  29.115  1.00  0.00     0.029 A 
ATOM     51  C   UNL A   1      40.970  27.058  28.468  1.00  0.00     0.049 A 
ATOM     52  H   UNL A   1      42.183  28.749  28.489  1.00  0.00     0.167 HD
ATOM     53  C   UNL A   1      44.646  32.351  28.650  1.00  0.00     0.031 A 
ATOM     54  C   UNL A   1      41.605  26.124  27.735  1.00  0.00     0.031 A 
ATOM     55  C   UNL A   1      45.417  31.406  27.887  1.00  0.00     0.049 A 
ATOM     56  C   UNL A   1      42.944  26.443  27.137  1.00  0.00     0.074 A 
ATOM     57  C   UNL A   1      46.676  31.566  27.335  1.00  0.00     0.029 A 
ATOM     58  N   UNL A   1      44.999  30.124  27.565  1.00  0.00    -0.354 N 
ATOM     59  N   UNL A   1      43.648  27.546  27.228  1.00  0.00    -0.248 NA
ATOM     60  C   UNL A   1      43.579  25.387  26.336  1.00  0.00     0.031 C 
ATOM     61  C   UNL A   1      47.001  30.395  26.641  1.00  0.00     0.029 A 
ATOM     62  C   UNL A   1      45.964  29.489  26.802  1.00  0.00     0.049 A 
ATOM     63  H   UNL A   1      44.142  29.724  27.839  1.00  0.00     0.167 HD
ATOM     64  C   UNL A   1      44.814  27.312  26.511  1.00  0.00     0.074 A 
ATOM     65  C   UNL A   1      44.730  25.957  26.005  1.00  0.00     0.031 C 
ATOM     66  C   UNL A   1      45.861  28.145  26.295  1.00  0.00     0.031 A 
BRANCH  53  67
ATOM     67  C   UNL A   1      45.204  33.729  28.865  1.00  0.00    -0.014 A 
ATOM     68  C   UNL A   1      45.981  34.035  29.993  1.00  0.00     0.009 A 
ATOM     69  C   UNL A   1      44.952  34.734  27.919  1.00  0.00     0.009 A 
ATOM     70  C   UNL A   1      46.459  35.334  30.189  1.00  0.00     0.001 A 
ATOM     71  C   UNL A   1      45.451  36.023  28.105  1.00  0.00     0.001 A 
ATOM     72  C   UNL A   1      46.196  36.326  29.245  1.00  0.00     0.000 A 
ENDBRANCH  53  67
BRANCH  54  73
ATOM     73  C   UNL A   1      40.966  24.802  27.525  1.00  0.00    -0.014 A 
ATOM     74  C   UNL A   1      39.855  24.669  26.679  1.00  0.00     0.009 A 
ATOM     75  C   UNL A   1      41.487  23.658  28.151  1.00  0.00     0.009 A 
ATOM     76  C   UNL A   1      39.273  23.417  26.471  1.00  0.00     0.001 A 
ATOM     77  C   UNL A   1      40.917  22.404  27.922  1.00  0.00     0.001 A 
ATOM     78  C   UNL A   1      39.809  22.285  27.086  1.00  0.00     0.000 A 
ENDBRANCH  54  73
BRANCH  66  79
ATOM     79  C   UNL A   1      47.007  27.607  25.487  1.00  0.00    -0.014 A 
ATOM     80  C   UNL A   1      47.081  27.820  24.102  1.00  0.00     0.009 A 
ATOM     81  C   UNL A   1      48.043  26.910  26.127  1.00  0.00     0.009 A 
ATOM     82  C   UNL A   1      48.159  27.318  23.369  1.00  0.00     0.001 A 
ATOM     83  C   UNL A   1      49.130  26.430  25.395  1.00  0.00     0.001 A 
ATOM     84  C   UNL A   1      49.183  26.628  24.017  1.00  0.00     0.000 A 
ENDBRANCH  66  79
ENDBRANCH  40  41
ENDBRANCH  33  35
ENDBRANCH  32  33
ENDBRANCH  31  32
ENDBRANCH  30  31
ENDBRANCH  29  30
ENDBRANCH  27  29
ENDBRANCH   1  27
TORSDOF 20
ENDMDL
MODEL 2
REMARK VINA RESULT:     -10.8      4.364      6.926
REMARK SMILES CCCCCCNC(=O)Oc1cccc(-c2ccc([C@@H](C)C(=O)OCCOC(=O)c3ccc(-c4c5nc(c(-c6ccccc6)c6ccc([nH]6)c(-c6ccccc6)c6nc(c(-c7ccccc7)c7ccc4[nH]7)C=C6)C=C5)cc3)cc2F)c1
REMARK SMILES IDX 20 1 21 2 19 3 16 4 17 5 79 6 18 7 78 8 80 9 15 10 11 11
REMARK SMILES IDX 12 12 81 13 13 14 14 15 10 16 8 17 7 18 9 20 6 21 5 22 4 23
REMARK SMILES IDX 3 24 2 25 1 26 22 27 23 28 24 29 25 30 26 31 27 32 28 33
REMARK SMILES IDX 29 34 30 35 31 36 77 37 32 38 76 39 33 40 34 41 35 42 70 43
REMARK SMILES IDX 36 44 75 45 69 46 71 47 37 48 74 49 68 50 67 51 38 53 60 54
REMARK SMILES IDX 45 55 59 56 46 57 49 58 58 59 72 60 47 61 48 62 57 64 73 65
REMARK SMILES IDX 50 66 39 67 40 68 44 69 41 70 43 71 42 72 61 73 62 74 66 75
REMARK SMILES IDX 63 76 65 77 64 78 51 79 52 80 56 81 53 82 55 83 54 84
REMARK H PARENT 7 19 71 52 49 63
REMARK Flexibility Score: inf
ROOT
ATOM      1  C   UNL A   1      33.938  32.588  28.745  1.00  0.00     0.126 C 
ATOM      2  C   UNL A   1      34.969  32.421  29.858  1.00  0.00     0.025 C 
ENDROOT
BRANCH   1   3
ATOM      3  C   UNL A   1      33.839  31.364  27.847  1.00  0.00    -0.031 A 
ATOM      4  C   UNL A   1      33.622  29.107  26.120  1.00  0.00     0.018 A 
ATOM      5  C   UNL A   1      34.772  29.323  26.896  1.00  0.00     0.012 A 
ATOM      6  C   UNL A   1      32.588  30.043  26.228  1.00  0.00     0.131 A 
ATOM      7  C   UNL A   1      34.879  30.430  27.746  1.00  0.00     0.005 A 
ATOM      8  C   UNL A   1      32.686  31.146  27.078  1.00  0.00     0.044 A 
ATOM      9  F   UNL A   1      31.454  29.888  25.526  1.00  0.00    -0.206 F 
BRANCH   4  10
ATOM     10  C   UNL A   1      33.519  27.927  25.246  1.00  0.00    -0.012 A 
ATOM     11  C   UNL A   1      32.817  25.643  24.826  1.00  0.00     0.133 A 
ATOM     12  C   UNL A   1      33.323  25.695  23.530  1.00  0.00     0.047 A 
ATOM     13  C   UNL A   1      32.926  26.735  25.690  1.00  0.00     0.056 A 
ATOM     14  C   UNL A   1      33.920  26.867  23.077  1.00  0.00     0.004 A 
ATOM     15  C   UNL A   1      34.015  27.973  23.928  1.00  0.00     0.009 A 
BRANCH  11  16
ATOM     16  O   UNL A   1      32.293  24.412  25.251  1.00  0.00    -0.410 OA
BRANCH  16  17
ATOM     17  C   UNL A   1      31.168  24.437  26.061  1.00  0.00     0.412 C 
ATOM     18  N   UNL A   1      30.042  24.854  25.404  1.00  0.00    -0.321 N 
ATOM     19  H   UNL A   1      29.205  24.858  25.924  1.00  0.00     0.167 HD
ATOM     20  O   UNL A   1      31.125  24.145  27.250  1.00  0.00    -0.224 OA
BRANCH  18  21
ATOM     21  C   UNL A   1      29.949  25.292  24.026  1.00  0.00     0.119 C 
BRANCH  21  22
ATOM     22  C   UNL A   1      29.564  26.768  23.915  1.00  0.00     0.021 C 
BRANCH  22  23
ATOM     23  C   UNL A   1      30.217  27.519  22.748  1.00  0.00     0.002 C 
BRANCH  23  24
ATOM     24  C   UNL A   1      30.139  29.049  22.816  1.00  0.00    -0.000 C 
BRANCH  24  25
ATOM     25  C   UNL A   1      28.747  29.629  23.080  1.00  0.00    -0.003 C 
ATOM     26  C   UNL A   1      28.027  30.070  21.815  1.00  0.00     0.004 C 
ENDBRANCH  24  25
ENDBRANCH  23  24
ENDBRANCH  22  23
ENDBRANCH  21  22
ENDBRANCH  18  21
ENDBRANCH  16  17
ENDBRANCH  11  16
ENDBRANCH   4  10
ENDBRANCH   1   3
BRANCH   1  27
ATOM     27  C   UNL A   1      34.155  33.918  28.029  1.00  0.00     0.313 C 
ATOM     28  O   UNL A   1      35.121  34.113  27.297  1.00  0.00    -0.252 OA
BRANCH  27  29
ATOM     29  O   UNL A   1      33.166  34.823  28.247  1.00  0.00    -0.462 OA
BRANCH  29  30
ATOM     30  C   UNL A   1      33.560  36.118  28.741  1.00  0.00     0.274 C 
BRANCH  30  31
ATOM     31  C   UNL A   1      32.840  36.466  30.047  1.00  0.00     0.275 C 
BRANCH  31  32
ATOM     32  O   UNL A   1      32.725  35.315  30.904  1.00  0.00    -0.458 OA
BRANCH  32  33
ATOM     33  C   UNL A   1      32.920  35.565  32.218  1.00  0.00     0.338 C 
ATOM     34  O   UNL A   1      32.190  36.186  32.971  1.00  0.00    -0.246 OA
BRANCH  33  35
ATOM     35  C   UNL A   1      34.111  34.846  32.691  1.00  0.00     0.060 A 
ATOM     36  C   UNL A   1      35.355  35.440  32.469  1.00  0.00     0.016 A 
ATOM     37  C   UNL A   1      34.022  33.574  33.255  1.00  0.00     0.016 A 
ATOM     38  C   UNL A   1      36.522  34.756  32.781  1.00  0.00     0.010 A 
ATOM     39  C   UNL A   1      35.198  32.889  33.582  1.00  0.00     0.010 A 
ATOM     40  C   UNL A   1      36.454  33.469  33.326  1.00  0.00    -0.014 A 
BRANCH  40  41
ATOM     41  C   UNL A   1      37.710  32.725  33.571  1.00  0.00     0.031 A 
ATOM     42  C   UNL A   1      38.484  32.954  34.837  1.00  0.00     0.074 A 
ATOM     43  C   UNL A   1      38.127  31.807  32.682  1.00  0.00     0.049 A 
ATOM     44  N   UNL A   1      39.596  32.391  35.239  1.00  0.00    -0.248 NA
ATOM     45  C   UNL A   1      37.935  33.945  35.774  1.00  0.00     0.031 C 
ATOM     46  C   UNL A   1      37.441  31.468  31.434  1.00  0.00     0.029 A 
ATOM     47  N   UNL A   1      39.223  30.982  32.700  1.00  0.00    -0.354 N 
ATOM     48  C   UNL A   1      39.888  32.971  36.466  1.00  0.00     0.074 A 
ATOM     49  C   UNL A   1      38.851  33.944  36.732  1.00  0.00     0.031 C 
ATOM     50  C   UNL A   1      38.128  30.497  30.811  1.00  0.00     0.029 A 
ATOM     51  C   UNL A   1      39.314  30.170  31.597  1.00  0.00     0.049 A 
ATOM     52  H   UNL A   1      39.880  30.973  33.433  1.00  0.00     0.167 HD
ATOM     53  C   UNL A   1      40.927  32.714  37.298  1.00  0.00     0.031 A 
ATOM     54  C   UNL A   1      40.255  29.272  31.251  1.00  0.00     0.031 A 
ATOM     55  C   UNL A   1      41.959  31.748  37.032  1.00  0.00     0.049 A 
ATOM     56  C   UNL A   1      41.419  29.034  32.169  1.00  0.00     0.074 A 
ATOM     57  C   UNL A   1      43.044  31.405  37.821  1.00  0.00     0.029 A 
ATOM     58  N   UNL A   1      42.037  30.971  35.886  1.00  0.00    -0.354 N 
ATOM     59  N   UNL A   1      41.679  29.581  33.332  1.00  0.00    -0.248 NA
ATOM     60  C   UNL A   1      42.419  28.051  31.728  1.00  0.00     0.031 C 
ATOM     61  C   UNL A   1      43.802  30.452  37.131  1.00  0.00     0.029 A 
ATOM     62  C   UNL A   1      43.163  30.167  35.935  1.00  0.00     0.049 A 
ATOM     63  H   UNL A   1      41.387  30.989  35.147  1.00  0.00     0.167 HD
ATOM     64  C   UNL A   1      42.861  28.999  33.769  1.00  0.00     0.074 A 
ATOM     65  C   UNL A   1      43.259  28.045  32.753  1.00  0.00     0.031 C 
ATOM     66  C   UNL A   1      43.553  29.233  34.911  1.00  0.00     0.031 A 
BRANCH  53  67
ATOM     67  C   UNL A   1      41.010  33.529  38.556  1.00  0.00    -0.014 A 
ATOM     68  C   UNL A   1      41.705  34.748  38.593  1.00  0.00     0.009 A 
ATOM     69  C   UNL A   1      40.378  33.071  39.722  1.00  0.00     0.009 A 
ATOM     70  C   UNL A   1      41.800  35.471  39.785  1.00  0.00     0.001 A 
ATOM     71  C   UNL A   1      40.453  33.807  40.905  1.00  0.00     0.001 A 
ATOM     72  C   UNL A   1      41.172  35.002  40.939  1.00  0.00     0.000 A 
ENDBRANCH  53  67
BRANCH  54  73
ATOM     73  C   UNL A   1      40.129  28.542  29.966  1.00  0.00    -0.014 A 
ATOM     74  C   UNL A   1      40.687  29.062  28.789  1.00  0.00     0.009 A 
ATOM     75  C   UNL A   1      39.472  27.302  29.919  1.00  0.00     0.009 A 
ATOM     76  C   UNL A   1      40.582  28.357  27.588  1.00  0.00     0.001 A 
ATOM     77  C   UNL A   1      39.390  26.589  28.721  1.00  0.00     0.001 A 
ATOM     78  C   UNL A   1      39.941  27.119  27.556  1.00  0.00     0.000 A 
ENDBRANCH  54  73
BRANCH  66  79
ATOM     79  C   UNL A   1      44.804  28.432  35.127  1.00  0.00    -0.014 A 
ATOM     80  C   UNL A   1      46.054  28.908  34.700  1.00  0.00     0.009 A 
ATOM     81  C   UNL A   1      44.737  27.202  35.801  1.00  0.00     0.009 A 
ATOM     82  C   UNL A   1      47.208  28.152  34.918  1.00  0.00     0.001 A 
ATOM     83  C   UNL A   1      45.895  26.461  36.037  1.00  0.00     0.001 A 
ATOM     84  C   UNL A   1      47.127  26.932  35.589  1.00  0.00     0.000 A 
ENDBRANCH  66  79
ENDBRANCH  40  41
ENDBRANCH  33  35
ENDBRANCH  32  33
ENDBRANCH  31  32
ENDBRANCH  30  31
ENDBRANCH  29  30
ENDBRANCH  27  29
ENDBRANCH   1  27
TORSDOF 20
ENDMDL
MODEL 3
REMARK VINA RESULT:     -10.8      4.345      6.687
REMARK SMILES CCCCCCNC(=O)Oc1cccc(-c2ccc([C@@H](C)C(=O)OCCOC(=O)c3ccc(-c4c5nc(c(-c6ccccc6)c6ccc([nH]6)c(-c6ccccc6)c6nc(c(-c7ccccc7)c7ccc4[nH]7)C=C6)C=C5)cc3)cc2F)c1
REMARK SMILES IDX 20 1 21 2 19 3 16 4 17 5 79 6 18 7 78 8 80 9 15 10 11 11
REMARK SMILES IDX 12 12 81 13 13 14 14 15 10 16 8 17 7 18 9 20 6 21 5 22 4 23
REMARK SMILES IDX 3 24 2 25 1 26 22 27 23 28 24 29 25 30 26 31 27 32 28 33
REMARK SMILES IDX 29 34 30 35 31 36 77 37 32 38 76 39 33 40 34 41 35 42 70 43
REMARK SMILES IDX 36 44 75 45 69 46 71 47 37 48 74 49 68 50 67 51 38 53 60 54
REMARK SMILES IDX 45 55 59 56 46 57 49 58 58 59 72 60 47 61 48 62 57 64 73 65
REMARK SMILES IDX 50 66 39 67 40 68 44 69 41 70 43 71 42 72 61 73 62 74 66 75
REMARK SMILES IDX 63 76 65 77 64 78 51 79 52 80 56 81 53 82 55 83 54 84
REMARK H PARENT 7 19 71 52 49 63
REMARK Flexibility Score: inf
ROOT
ATOM      1  C   UNL A   1      34.111  32.640  28.863  1.00  0.00     0.126 C 
ATOM      2  C   UNL A   1      35.342  32.663  29.765  1.00  0.00     0.025 C 
ENDROOT
BRANCH   1   3
ATOM      3  C   UNL A   1      34.018  31.372  28.027  1.00  0.00    -0.031 A 
ATOM      4  C   UNL A   1      33.810  29.030  26.415  1.00  0.00     0.018 A 
ATOM      5  C   UNL A   1      34.970  29.304  27.158  1.00  0.00     0.012 A 
ATOM      6  C   UNL A   1      32.761  29.953  26.499  1.00  0.00     0.131 A 
ATOM      7  C   UNL A   1      35.072  30.453  27.951  1.00  0.00     0.005 A 
ATOM      8  C   UNL A   1      32.854  31.097  27.293  1.00  0.00     0.044 A 
ATOM      9  F   UNL A   1      31.617  29.744  25.827  1.00  0.00    -0.206 F 
BRANCH   4  10
ATOM     10  C   UNL A   1      33.712  27.808  25.601  1.00  0.00    -0.012 A 
ATOM     11  C   UNL A   1      33.501  25.400  25.393  1.00  0.00     0.133 A 
ATOM     12  C   UNL A   1      33.506  25.491  24.003  1.00  0.00     0.047 A 
ATOM     13  C   UNL A   1      33.622  26.538  26.193  1.00  0.00     0.056 A 
ATOM     14  C   UNL A   1      33.601  26.742  23.402  1.00  0.00     0.004 A 
ATOM     15  C   UNL A   1      33.702  27.889  24.195  1.00  0.00     0.009 A 
BRANCH  11  16
ATOM     16  O   UNL A   1      33.477  24.109  25.941  1.00  0.00    -0.410 OA
BRANCH  16  17
ATOM     17  C   UNL A   1      32.382  23.759  26.716  1.00  0.00     0.412 C 
ATOM     18  N   UNL A   1      32.533  22.555  27.350  1.00  0.00    -0.321 N 
ATOM     19  H   UNL A   1      31.798  22.273  27.940  1.00  0.00     0.167 HD
ATOM     20  O   UNL A   1      31.349  24.406  26.845  1.00  0.00    -0.224 OA
BRANCH  18  21
ATOM     21  C   UNL A   1      33.660  21.650  27.243  1.00  0.00     0.119 C 
BRANCH  21  22
ATOM     22  C   UNL A   1      33.593  20.792  25.980  1.00  0.00     0.021 C 
BRANCH  22  23
ATOM     23  C   UNL A   1      34.653  21.118  24.920  1.00  0.00     0.002 C 
BRANCH  23  24
ATOM     24  C   UNL A   1      35.990  21.642  25.457  1.00  0.00    -0.000 C 
BRANCH  24  25
ATOM     25  C   UNL A   1      36.513  22.920  24.795  1.00  0.00    -0.003 C 
ATOM     26  C   UNL A   1      36.543  22.846  23.277  1.00  0.00     0.004 C 
ENDBRANCH  24  25
ENDBRANCH  23  24
ENDBRANCH  22  23
ENDBRANCH  21  22
ENDBRANCH  18  21
ENDBRANCH  16  17
ENDBRANCH  11  16
ENDBRANCH   4  10
ENDBRANCH   1   3
BRANCH   1  27
ATOM     27  C   UNL A   1      34.008  33.952  28.089  1.00  0.00     0.313 C 
ATOM     28  O   UNL A   1      34.829  34.268  27.233  1.00  0.00    -0.252 OA
BRANCH  27  29
ATOM     29  O   UNL A   1      32.914  34.689  28.409  1.00  0.00    -0.462 OA
BRANCH  29  30
ATOM     30  C   UNL A   1      33.121  36.092  28.669  1.00  0.00     0.274 C 
BRANCH  30  31
ATOM     31  C   UNL A   1      32.808  36.448  30.124  1.00  0.00     0.275 C 
BRANCH  31  32
ATOM     32  O   UNL A   1      32.774  35.273  30.955  1.00  0.00    -0.458 OA
BRANCH  32  33
ATOM     33  C   UNL A   1      32.964  35.504  32.273  1.00  0.00     0.338 C 
ATOM     34  O   UNL A   1      32.228  36.110  33.033  1.00  0.00    -0.246 OA
BRANCH  33  35
ATOM     35  C   UNL A   1      34.157  34.786  32.740  1.00  0.00     0.060 A 
ATOM     36  C   UNL A   1      35.394  35.412  32.575  1.00  0.00     0.016 A 
ATOM     37  C   UNL A   1      34.081  33.487  33.240  1.00  0.00     0.016 A 
ATOM     38  C   UNL A   1      36.568  34.736  32.881  1.00  0.00     0.010 A 
ATOM     39  C   UNL A   1      35.263  32.809  33.561  1.00  0.00     0.010 A 
ATOM     40  C   UNL A   1      36.512  33.424  33.363  1.00  0.00    -0.014 A 
BRANCH  40  41
ATOM     41  C   UNL A   1      37.777  32.693  33.602  1.00  0.00     0.031 A 
ATOM     42  C   UNL A   1      38.552  32.926  34.866  1.00  0.00     0.074 A 
ATOM     43  C   UNL A   1      38.200  31.781  32.708  1.00  0.00     0.049 A 
ATOM     44  N   UNL A   1      39.671  32.374  35.262  1.00  0.00    -0.248 NA
ATOM     45  C   UNL A   1      37.997  33.909  35.807  1.00  0.00     0.031 C 
ATOM     46  C   UNL A   1      37.514  31.439  31.463  1.00  0.00     0.029 A 
ATOM     47  N   UNL A   1      39.305  30.968  32.721  1.00  0.00    -0.354 N 
ATOM     48  C   UNL A   1      39.962  32.953  36.490  1.00  0.00     0.074 A 
ATOM     49  C   UNL A   1      38.915  33.915  36.762  1.00  0.00     0.031 C 
ATOM     50  C   UNL A   1      38.208  30.476  30.834  1.00  0.00     0.029 A 
ATOM     51  C   UNL A   1      39.400  30.160  31.616  1.00  0.00     0.049 A 
ATOM     52  H   UNL A   1      39.965  30.964  33.451  1.00  0.00     0.167 HD
ATOM     53  C   UNL A   1      41.006  32.705  37.317  1.00  0.00     0.031 A 
ATOM     54  C   UNL A   1      40.350  29.272  31.264  1.00  0.00     0.031 A 
ATOM     55  C   UNL A   1      42.048  31.751  37.046  1.00  0.00     0.049 A 
ATOM     56  C   UNL A   1      41.519  29.044  32.177  1.00  0.00     0.074 A 
ATOM     57  C   UNL A   1      43.138  31.417  37.831  1.00  0.00     0.029 A 
ATOM     58  N   UNL A   1      42.130  30.978  35.898  1.00  0.00    -0.354 N 
ATOM     59  N   UNL A   1      41.778  29.591  33.341  1.00  0.00    -0.248 NA
ATOM     60  C   UNL A   1      42.528  28.073  31.730  1.00  0.00     0.031 C 
ATOM     61  C   UNL A   1      43.904  30.474  37.135  1.00  0.00     0.029 A 
ATOM     62  C   UNL A   1      43.265  30.186  35.940  1.00  0.00     0.049 A 
ATOM     63  H   UNL A   1      41.477  30.991  35.160  1.00  0.00     0.167 HD
ATOM     64  C   UNL A   1      42.967  29.020  33.772  1.00  0.00     0.074 A 
ATOM     65  C   UNL A   1      43.372  28.073  32.752  1.00  0.00     0.031 C 
ATOM     66  C   UNL A   1      43.661  29.258  34.912  1.00  0.00     0.031 A 
BRANCH  53  67
ATOM     67  C   UNL A   1      41.085  33.518  38.578  1.00  0.00    -0.014 A 
ATOM     68  C   UNL A   1      40.471  33.088  39.765  1.00  0.00     0.009 A 
ATOM     69  C   UNL A   1      41.791  34.731  38.578  1.00  0.00     0.009 A 
ATOM     70  C   UNL A   1      40.528  33.879  40.916  1.00  0.00     0.001 A 
ATOM     71  C   UNL A   1      41.867  35.506  39.735  1.00  0.00     0.001 A 
ATOM     72  C   UNL A   1      41.227  35.085  40.901  1.00  0.00     0.000 A 
ENDBRANCH  53  67
BRANCH  54  73
ATOM     73  C   UNL A   1      40.228  28.545  29.977  1.00  0.00    -0.014 A 
ATOM     74  C   UNL A   1      39.572  27.306  29.914  1.00  0.00     0.009 A 
ATOM     75  C   UNL A   1      40.744  29.104  28.797  1.00  0.00     0.009 A 
ATOM     76  C   UNL A   1      39.445  26.638  28.694  1.00  0.00     0.001 A 
ATOM     77  C   UNL A   1      40.593  28.444  27.576  1.00  0.00     0.001 A 
ATOM     78  C   UNL A   1      39.948  27.211  27.526  1.00  0.00     0.000 A 
ENDBRANCH  54  73
BRANCH  66  79
ATOM     79  C   UNL A   1      44.921  28.469  35.122  1.00  0.00    -0.014 A 
ATOM     80  C   UNL A   1      46.164  28.960  34.692  1.00  0.00     0.009 A 
ATOM     81  C   UNL A   1      44.869  27.238  35.793  1.00  0.00     0.009 A 
ATOM     82  C   UNL A   1      47.327  28.215  34.904  1.00  0.00     0.001 A 
ATOM     83  C   UNL A   1      46.035  26.508  36.024  1.00  0.00     0.001 A 
ATOM     84  C   UNL A   1      47.261  26.993  35.572  1.00  0.00     0.000 A 
ENDBRANCH  66  79
ENDBRANCH  40  41
ENDBRANCH  33  35
ENDBRANCH  32  33
ENDBRANCH  31  32
ENDBRANCH  30  31
ENDBRANCH  29  30
ENDBRANCH  27  29
ENDBRANCH   1  27
TORSDOF 20
ENDMDL
