MODEL 1
REMARK VINA RESULT:     -12.3      0.000      0.000
REMARK SMILES CS(=O)(=O)c1ccc(-c2cc(Cl)cc3c2O[C@H](C(F)(F)F)C(C(=O)OCCOC(=O)c2ccc(-c4c5nc(c(-c6ccccc6)c6ccc([nH]6)c(-c6ccccc6)c6nc(c(-c7ccccc7)c7ccc4[nH]7)C=C6)C=C5)cc2)=C3)cc1
REMARK SMILES IDX 26 1 25 2 23 3 24 4 22 5 9 6 10 7 15 8 11 9 14 10 16 11
REMARK SMILES IDX 12 12 13 13 79 14 17 15 8 16 5 17 6 18 81 19 7 20 80 21 2 22
REMARK SMILES IDX 1 23 3 24 4 25 18 26 19 27 20 28 21 29 27 30 28 31 29 32
REMARK SMILES IDX 30 33 31 34 32 35 78 36 33 37 77 38 34 39 35 40 36 41 71 42
REMARK SMILES IDX 37 43 76 44 70 45 72 46 38 47 75 48 69 49 68 50 39 52 61 53
REMARK SMILES IDX 46 54 60 55 47 56 50 57 59 58 73 59 48 60 49 61 58 63 74 64
REMARK SMILES IDX 51 65 40 66 41 67 45 68 42 69 44 70 43 71 62 72 63 73 67 74
REMARK SMILES IDX 64 75 66 76 65 77 52 78 53 79 57 80 54 81 56 82 55 83
REMARK H PARENT 72 51 50 62
REMARK Flexibility Score: inf
ROOT
ATOM      1  C   UNL A   1      32.272  29.025  25.321  1.00  0.00     0.275 C 
ENDROOT
BRANCH   1   2
ATOM      2  O   UNL A   1      31.141  28.213  25.714  1.00  0.00    -0.459 OA
BRANCH   2   3
ATOM      3  C   UNL A   1      30.983  27.133  24.905  1.00  0.00     0.338 C 
ATOM      4  O   UNL A   1      29.949  26.866  24.304  1.00  0.00    -0.246 OA
BRANCH   3   5
ATOM      5  C   UNL A   1      32.221  26.335  24.719  1.00  0.00     0.087 C 
ATOM      6  C   UNL A   1      32.028  22.265  24.893  1.00  0.00     0.026 A 
ATOM      7  C   UNL A   1      30.943  22.013  25.771  1.00  0.00     0.033 A 
ATOM      8  C   UNL A   1      32.443  23.597  24.837  1.00  0.00     0.135 A 
ATOM      9  C   UNL A   1      30.431  22.971  26.651  1.00  0.00     0.042 A 
ATOM     10  C   UNL A   1      32.080  24.476  25.886  1.00  0.00     0.019 A 
ATOM     11  O   UNL A   1      33.093  24.170  23.756  1.00  0.00    -0.475 OA
ATOM     12  Cl  UNL A   1      29.044  22.700  27.622  1.00  0.00    -0.084 Cl
ATOM     13  C   UNL A   1      31.065  24.182  26.779  1.00  0.00     0.032 A 
ATOM     14  C   UNL A   1      32.655  25.833  25.887  1.00  0.00     0.027 C 
ATOM     15  C   UNL A   1      32.556  25.547  23.462  1.00  0.00     0.316 C 
BRANCH   6  16
ATOM     16  C   UNL A   1      32.703  21.044  24.366  1.00  0.00    -0.015 A 
ATOM     17  C   UNL A   1      33.625  18.359  24.152  1.00  0.00     0.067 A 
ATOM     18  C   UNL A   1      32.605  18.824  23.316  1.00  0.00     0.021 A 
ATOM     19  C   UNL A   1      34.260  19.245  25.016  1.00  0.00     0.021 A 
ATOM     20  C   UNL A   1      32.169  20.168  23.408  1.00  0.00     0.010 A 
ATOM     21  C   UNL A   1      33.803  20.565  25.114  1.00  0.00     0.010 A 
BRANCH  17  22
ATOM     22  S   UNL A   1      34.172  16.658  24.098  1.00  0.00     0.175 S 
ATOM     23  C   UNL A   1      32.909  15.707  24.891  1.00  0.00     0.163 C 
ATOM     24  O   UNL A   1      35.360  16.563  24.932  1.00  0.00    -0.224 OA
ATOM     25  O   UNL A   1      34.221  16.280  22.699  1.00  0.00    -0.224 OA
ENDBRANCH  17  22
ENDBRANCH   6  16
BRANCH  15  26
ATOM     26  C   UNL A   1      33.586  26.376  22.689  1.00  0.00     0.430 C 
ATOM     27  F   UNL A   1      34.154  27.328  23.469  1.00  0.00    -0.167 F 
ATOM     28  F   UNL A   1      34.579  25.611  22.185  1.00  0.00    -0.167 F 
ATOM     29  F   UNL A   1      33.006  27.017  21.642  1.00  0.00    -0.167 F 
ENDBRANCH  15  26
ENDBRANCH   3   5
ENDBRANCH   2   3
ENDBRANCH   1   2
BRANCH   1  30
ATOM     30  C   UNL A   1      32.741  29.968  26.431  1.00  0.00     0.275 C 
BRANCH  30  31
ATOM     31  O   UNL A   1      34.044  29.583  26.912  1.00  0.00    -0.458 OA
BRANCH  31  32
ATOM     32  C   UNL A   1      34.620  30.497  27.726  1.00  0.00     0.338 C 
ATOM     33  O   UNL A   1      34.111  31.539  28.114  1.00  0.00    -0.246 OA
BRANCH  32  34
ATOM     34  C   UNL A   1      35.936  30.031  28.227  1.00  0.00     0.060 A 
ATOM     35  C   UNL A   1      36.976  30.036  27.300  1.00  0.00     0.016 A 
ATOM     36  C   UNL A   1      36.182  29.578  29.530  1.00  0.00     0.016 A 
ATOM     37  C   UNL A   1      38.247  29.615  27.680  1.00  0.00     0.010 A 
ATOM     38  C   UNL A   1      37.476  29.143  29.902  1.00  0.00     0.010 A 
ATOM     39  C   UNL A   1      38.531  29.170  28.980  1.00  0.00    -0.014 A 
BRANCH  39  40
ATOM     40  C   UNL A   1      39.940  28.745  29.263  1.00  0.00     0.031 A 
ATOM     41  C   UNL A   1      40.405  27.384  28.829  1.00  0.00     0.074 A 
ATOM     42  C   UNL A   1      40.877  29.624  29.681  1.00  0.00     0.049 A 
ATOM     43  N   UNL A   1      41.621  26.901  28.804  1.00  0.00    -0.248 NA
ATOM     44  C   UNL A   1      39.372  26.455  28.345  1.00  0.00     0.031 C 
ATOM     45  C   UNL A   1      40.605  30.993  30.076  1.00  0.00     0.029 A 
ATOM     46  N   UNL A   1      42.249  29.541  29.751  1.00  0.00    -0.354 N 
ATOM     47  C   UNL A   1      41.500  25.615  28.303  1.00  0.00     0.074 A 
ATOM     48  C   UNL A   1      40.101  25.405  27.997  1.00  0.00     0.031 C 
ATOM     49  C   UNL A   1      41.754  31.679  30.165  1.00  0.00     0.029 A 
ATOM     50  C   UNL A   1      42.866  30.751  29.997  1.00  0.00     0.049 A 
ATOM     51  H   UNL A   1      42.745  28.698  29.638  1.00  0.00     0.167 HD
ATOM     52  C   UNL A   1      42.459  24.675  28.145  1.00  0.00     0.031 A 
ATOM     53  C   UNL A   1      44.170  31.078  30.115  1.00  0.00     0.031 A 
ATOM     54  C   UNL A   1      43.828  24.823  28.550  1.00  0.00     0.049 A 
ATOM     55  C   UNL A   1      45.192  29.974  30.092  1.00  0.00     0.074 A 
ATOM     56  C   UNL A   1      44.847  23.889  28.496  1.00  0.00     0.029 A 
ATOM     57  N   UNL A   1      44.366  25.969  29.110  1.00  0.00    -0.354 N 
ATOM     58  N   UNL A   1      45.022  28.706  29.813  1.00  0.00    -0.248 NA
ATOM     59  C   UNL A   1      46.571  30.332  30.459  1.00  0.00     0.031 C 
ATOM     60  C   UNL A   1      46.004  24.473  29.022  1.00  0.00     0.029 A 
ATOM     61  C   UNL A   1      45.721  25.792  29.332  1.00  0.00     0.049 A 
ATOM     62  H   UNL A   1      43.861  26.787  29.319  1.00  0.00     0.167 HD
ATOM     63  C   UNL A   1      46.269  28.116  29.967  1.00  0.00     0.074 A 
ATOM     64  C   UNL A   1      47.189  29.164  30.354  1.00  0.00     0.031 C 
ATOM     65  C   UNL A   1      46.619  26.822  29.783  1.00  0.00     0.031 A 
BRANCH  52  66
ATOM     66  C   UNL A   1      42.017  23.369  27.560  1.00  0.00    -0.014 A 
ATOM     67  C   UNL A   1      41.430  22.382  28.366  1.00  0.00     0.009 A 
ATOM     68  C   UNL A   1      42.212  23.117  26.195  1.00  0.00     0.009 A 
ATOM     69  C   UNL A   1      41.075  21.149  27.817  1.00  0.00     0.001 A 
ATOM     70  C   UNL A   1      41.836  21.893  25.646  1.00  0.00     0.001 A 
ATOM     71  C   UNL A   1      41.278  20.906  26.458  1.00  0.00     0.000 A 
ENDBRANCH  52  66
BRANCH  53  72
ATOM     72  C   UNL A   1      44.604  32.485  30.366  1.00  0.00    -0.014 A 
ATOM     73  C   UNL A   1      44.666  32.997  31.673  1.00  0.00     0.009 A 
ATOM     74  C   UNL A   1      44.894  33.347  29.296  1.00  0.00     0.009 A 
ATOM     75  C   UNL A   1      44.986  34.341  31.897  1.00  0.00     0.001 A 
ATOM     76  C   UNL A   1      45.253  34.678  29.524  1.00  0.00     0.001 A 
ATOM     77  C   UNL A   1      45.285  35.178  30.824  1.00  0.00     0.000 A 
ENDBRANCH  53  72
BRANCH  65  78
ATOM     78  C   UNL A   1      48.067  26.473  29.955  1.00  0.00    -0.014 A 
ATOM     79  C   UNL A   1      48.566  25.955  31.158  1.00  0.00     0.009 A 
ATOM     80  C   UNL A   1      48.941  26.642  28.869  1.00  0.00     0.009 A 
ATOM     81  C   UNL A   1      49.919  25.632  31.276  1.00  0.00     0.001 A 
ATOM     82  C   UNL A   1      50.287  26.296  28.982  1.00  0.00     0.001 A 
ATOM     83  C   UNL A   1      50.777  25.797  30.187  1.00  0.00     0.000 A 
ENDBRANCH  65  78
ENDBRANCH  39  40
ENDBRANCH  32  34
ENDBRANCH  31  32
ENDBRANCH  30  31
ENDBRANCH   1  30
TORSDOF 14
ENDMDL
MODEL 2
REMARK VINA RESULT:     -11.9      3.683      8.249
REMARK SMILES CS(=O)(=O)c1ccc(-c2cc(Cl)cc3c2O[C@H](C(F)(F)F)C(C(=O)OCCOC(=O)c2ccc(-c4c5nc(c(-c6ccccc6)c6ccc([nH]6)c(-c6ccccc6)c6nc(c(-c7ccccc7)c7ccc4[nH]7)C=C6)C=C5)cc2)=C3)cc1
REMARK SMILES IDX 26 1 25 2 23 3 24 4 22 5 9 6 10 7 15 8 11 9 14 10 16 11
REMARK SMILES IDX 12 12 13 13 79 14 17 15 8 16 5 17 6 18 81 19 7 20 80 21 2 22
REMARK SMILES IDX 1 23 3 24 4 25 18 26 19 27 20 28 21 29 27 30 28 31 29 32
REMARK SMILES IDX 30 33 31 34 32 35 78 36 33 37 77 38 34 39 35 40 36 41 71 42
REMARK SMILES IDX 37 43 76 44 70 45 72 46 38 47 75 48 69 49 68 50 39 52 61 53
REMARK SMILES IDX 46 54 60 55 47 56 50 57 59 58 73 59 48 60 49 61 58 63 74 64
REMARK SMILES IDX 51 65 40 66 41 67 45 68 42 69 44 70 43 71 62 72 63 73 67 74
REMARK SMILES IDX 64 75 66 76 65 77 52 78 53 79 57 80 54 81 56 82 55 83
REMARK H PARENT 72 51 50 62
REMARK Flexibility Score: inf
ROOT
ATOM      1  C   UNL A   1      35.001  21.421  24.338  1.00  0.00     0.275 C 
ENDROOT
BRANCH   1   2
ATOM      2  O   UNL A   1      33.599  21.082  24.464  1.00  0.00    -0.459 OA
BRANCH   2   3
ATOM      3  C   UNL A   1      32.797  22.009  23.879  1.00  0.00     0.338 C 
ATOM      4  O   UNL A   1      32.227  21.849  22.805  1.00  0.00    -0.246 OA
BRANCH   3   5
ATOM      5  C   UNL A   1      32.577  23.222  24.704  1.00  0.00     0.087 C 
ATOM      6  C   UNL A   1      30.868  26.516  23.012  1.00  0.00     0.026 A 
ATOM      7  C   UNL A   1      31.255  26.438  21.649  1.00  0.00     0.033 A 
ATOM      8  C   UNL A   1      31.512  25.613  23.859  1.00  0.00     0.135 A 
ATOM      9  C   UNL A   1      32.319  25.650  21.199  1.00  0.00     0.042 A 
ATOM     10  C   UNL A   1      32.722  25.013  23.434  1.00  0.00     0.019 A 
ATOM     11  O   UNL A   1      30.990  25.154  25.057  1.00  0.00    -0.475 OA
ATOM     12  Cl  UNL A   1      32.704  25.466  19.539  1.00  0.00    -0.084 Cl
ATOM     13  C   UNL A   1      33.120  25.008  22.110  1.00  0.00     0.032 A 
ATOM     14  C   UNL A   1      33.465  24.183  24.401  1.00  0.00     0.027 C 
ATOM     15  C   UNL A   1      31.221  23.674  25.225  1.00  0.00     0.316 C 
BRANCH   6  16
ATOM     16  C   UNL A   1      30.031  27.702  23.357  1.00  0.00    -0.015 A 
ATOM     17  C   UNL A   1      28.887  30.307  23.267  1.00  0.00     0.067 A 
ATOM     18  C   UNL A   1      28.129  29.190  22.901  1.00  0.00     0.021 A 
ATOM     19  C   UNL A   1      30.168  30.128  23.777  1.00  0.00     0.021 A 
ATOM     20  C   UNL A   1      28.695  27.893  22.973  1.00  0.00     0.010 A 
ATOM     21  C   UNL A   1      30.724  28.843  23.821  1.00  0.00     0.010 A 
BRANCH  17  22
ATOM     22  S   UNL A   1      28.225  31.963  23.147  1.00  0.00     0.175 S 
ATOM     23  C   UNL A   1      28.022  32.290  21.420  1.00  0.00     0.163 C 
ATOM     24  O   UNL A   1      29.252  32.871  23.633  1.00  0.00    -0.224 OA
ATOM     25  O   UNL A   1      26.914  31.934  23.765  1.00  0.00    -0.224 OA
ENDBRANCH  17  22
ENDBRANCH   6  16
BRANCH  15  26
ATOM     26  C   UNL A   1      31.169  23.283  26.705  1.00  0.00     0.430 C 
ATOM     27  F   UNL A   1      29.899  23.271  27.178  1.00  0.00    -0.167 F 
ATOM     28  F   UNL A   1      31.702  22.062  26.926  1.00  0.00    -0.167 F 
ATOM     29  F   UNL A   1      31.867  24.165  27.465  1.00  0.00    -0.167 F 
ENDBRANCH  15  26
ENDBRANCH   3   5
ENDBRANCH   2   3
ENDBRANCH   1   2
BRANCH   1  30
ATOM     30  C   UNL A   1      35.900  20.570  25.237  1.00  0.00     0.275 C 
BRANCH  30  31
ATOM     31  O   UNL A   1      36.783  21.404  26.013  1.00  0.00    -0.458 OA
BRANCH  31  32
ATOM     32  C   UNL A   1      38.096  21.126  25.835  1.00  0.00     0.338 C 
ATOM     33  O   UNL A   1      38.559  20.088  25.385  1.00  0.00    -0.246 OA
BRANCH  32  34
ATOM     34  C   UNL A   1      38.948  22.303  26.134  1.00  0.00     0.060 A 
ATOM     35  C   UNL A   1      38.384  23.547  25.863  1.00  0.00     0.016 A 
ATOM     36  C   UNL A   1      40.254  22.238  26.636  1.00  0.00     0.016 A 
ATOM     37  C   UNL A   1      39.110  24.708  26.112  1.00  0.00     0.010 A 
ATOM     38  C   UNL A   1      40.987  23.425  26.876  1.00  0.00     0.010 A 
ATOM     39  C   UNL A   1      40.414  24.679  26.628  1.00  0.00    -0.014 A 
BRANCH  39  40
ATOM     40  C   UNL A   1      41.089  25.999  26.854  1.00  0.00     0.031 A 
ATOM     41  C   UNL A   1      40.558  26.930  27.907  1.00  0.00     0.074 A 
ATOM     42  C   UNL A   1      42.293  26.283  26.314  1.00  0.00     0.049 A 
ATOM     43  N   UNL A   1      41.103  28.019  28.389  1.00  0.00    -0.248 NA
ATOM     44  C   UNL A   1      39.261  26.583  28.506  1.00  0.00     0.031 C 
ATOM     45  C   UNL A   1      42.973  25.459  25.333  1.00  0.00     0.029 A 
ATOM     46  N   UNL A   1      43.207  27.279  26.577  1.00  0.00    -0.354 N 
ATOM     47  C   UNL A   1      40.215  28.485  29.346  1.00  0.00     0.074 A 
ATOM     48  C   UNL A   1      39.119  27.543  29.408  1.00  0.00     0.031 C 
ATOM     49  C   UNL A   1      44.248  25.854  25.209  1.00  0.00     0.029 A 
ATOM     50  C   UNL A   1      44.436  27.076  25.982  1.00  0.00     0.049 A 
ATOM     51  H   UNL A   1      43.003  28.064  27.135  1.00  0.00     0.167 HD
ATOM     52  C   UNL A   1      40.283  29.616  30.083  1.00  0.00     0.031 A 
ATOM     53  C   UNL A   1      45.573  27.802  26.017  1.00  0.00     0.031 A 
ATOM     54  C   UNL A   1      41.300  30.621  29.953  1.00  0.00     0.049 A 
ATOM     55  C   UNL A   1      45.554  29.133  26.716  1.00  0.00     0.074 A 
ATOM     56  C   UNL A   1      41.399  31.835  30.608  1.00  0.00     0.029 A 
ATOM     57  N   UNL A   1      42.381  30.543  29.090  1.00  0.00    -0.354 N 
ATOM     58  N   UNL A   1      44.609  29.655  27.459  1.00  0.00    -0.248 NA
ATOM     59  C   UNL A   1      46.727  30.002  26.533  1.00  0.00     0.031 C 
ATOM     60  C   UNL A   1      42.544  32.491  30.143  1.00  0.00     0.029 A 
ATOM     61  C   UNL A   1      43.195  31.651  29.256  1.00  0.00     0.049 A 
ATOM     62  H   UNL A   1      42.546  29.809  28.455  1.00  0.00     0.167 HD
ATOM     63  C   UNL A   1      45.075  30.908  27.834  1.00  0.00     0.074 A 
ATOM     64  C   UNL A   1      46.387  31.067  27.247  1.00  0.00     0.031 C 
ATOM     65  C   UNL A   1      44.470  31.834  28.615  1.00  0.00     0.031 A 
BRANCH  52  66
ATOM     66  C   UNL A   1      39.166  29.844  31.054  1.00  0.00    -0.014 A 
ATOM     67  C   UNL A   1      37.980  30.478  30.651  1.00  0.00     0.009 A 
ATOM     68  C   UNL A   1      39.312  29.440  32.389  1.00  0.00     0.009 A 
ATOM     69  C   UNL A   1      36.972  30.732  31.581  1.00  0.00     0.001 A 
ATOM     70  C   UNL A   1      38.293  29.676  33.310  1.00  0.00     0.001 A 
ATOM     71  C   UNL A   1      37.128  30.330  32.908  1.00  0.00     0.000 A 
ENDBRANCH  52  66
BRANCH  53  72
ATOM     72  C   UNL A   1      46.805  27.361  25.296  1.00  0.00    -0.014 A 
ATOM     73  C   UNL A   1      47.799  26.618  25.955  1.00  0.00     0.009 A 
ATOM     74  C   UNL A   1      47.026  27.738  23.962  1.00  0.00     0.009 A 
ATOM     75  C   UNL A   1      48.990  26.285  25.301  1.00  0.00     0.001 A 
ATOM     76  C   UNL A   1      48.199  27.369  23.298  1.00  0.00     0.001 A 
ATOM     77  C   UNL A   1      49.187  26.655  23.972  1.00  0.00     0.000 A 
ENDBRANCH  53  72
BRANCH  65  78
ATOM     78  C   UNL A   1      45.240  33.084  28.916  1.00  0.00    -0.014 A 
ATOM     79  C   UNL A   1      46.138  33.161  29.989  1.00  0.00     0.009 A 
ATOM     80  C   UNL A   1      45.077  34.201  28.080  1.00  0.00     0.009 A 
ATOM     81  C   UNL A   1      46.846  34.340  30.231  1.00  0.00     0.001 A 
ATOM     82  C   UNL A   1      45.803  35.369  28.309  1.00  0.00     0.001 A 
ATOM     83  C   UNL A   1      46.682  35.440  29.387  1.00  0.00     0.000 A 
ENDBRANCH  65  78
ENDBRANCH  39  40
ENDBRANCH  32  34
ENDBRANCH  31  32
ENDBRANCH  30  31
ENDBRANCH   1  30
TORSDOF 14
ENDMDL
MODEL 3
REMARK VINA RESULT:     -11.9      3.841      8.775
REMARK SMILES CS(=O)(=O)c1ccc(-c2cc(Cl)cc3c2O[C@H](C(F)(F)F)C(C(=O)OCCOC(=O)c2ccc(-c4c5nc(c(-c6ccccc6)c6ccc([nH]6)c(-c6ccccc6)c6nc(c(-c7ccccc7)c7ccc4[nH]7)C=C6)C=C5)cc2)=C3)cc1
REMARK SMILES IDX 26 1 25 2 23 3 24 4 22 5 9 6 10 7 15 8 11 9 14 10 16 11
REMARK SMILES IDX 12 12 13 13 79 14 17 15 8 16 5 17 6 18 81 19 7 20 80 21 2 22
REMARK SMILES IDX 1 23 3 24 4 25 18 26 19 27 20 28 21 29 27 30 28 31 29 32
REMARK SMILES IDX 30 33 31 34 32 35 78 36 33 37 77 38 34 39 35 40 36 41 71 42
REMARK SMILES IDX 37 43 76 44 70 45 72 46 38 47 75 48 69 49 68 50 39 52 61 53
REMARK SMILES IDX 46 54 60 55 47 56 50 57 59 58 73 59 48 60 49 61 58 63 74 64
REMARK SMILES IDX 51 65 40 66 41 67 45 68 42 69 44 70 43 71 62 72 63 73 67 74
REMARK SMILES IDX 64 75 66 76 65 77 52 78 53 79 57 80 54 81 56 82 55 83
REMARK H PARENT 72 51 50 62
REMARK Flexibility Score: inf
ROOT
ATOM      1  C   UNL A   1      36.030  21.790  24.317  1.00  0.00     0.275 C 
ENDROOT
BRANCH   1   2
ATOM      2  O   UNL A   1      34.675  21.406  24.649  1.00  0.00    -0.459 OA
BRANCH   2   3
ATOM      3  C   UNL A   1      33.758  22.221  24.066  1.00  0.00     0.338 C 
ATOM      4  O   UNL A   1      33.125  21.936  23.055  1.00  0.00    -0.246 OA
BRANCH   3   5
ATOM      5  C   UNL A   1      33.499  23.473  24.820  1.00  0.00     0.087 C 
ATOM      6  C   UNL A   1      31.287  26.433  23.094  1.00  0.00     0.026 A 
ATOM      7  C   UNL A   1      31.534  26.277  21.706  1.00  0.00     0.033 A 
ATOM      8  C   UNL A   1      32.107  25.670  23.928  1.00  0.00     0.135 A 
ATOM      9  C   UNL A   1      32.621  25.561  21.197  1.00  0.00     0.042 A 
ATOM     10  C   UNL A   1      33.322  25.155  23.414  1.00  0.00     0.019 A 
ATOM     11  O   UNL A   1      31.764  25.266  25.207  1.00  0.00    -0.475 OA
ATOM     12  Cl  UNL A   1      32.848  25.274  19.522  1.00  0.00    -0.084 Cl
ATOM     13  C   UNL A   1      33.577  25.077  22.057  1.00  0.00     0.032 A 
ATOM     14  C   UNL A   1      34.244  24.486  24.349  1.00  0.00     0.027 C 
ATOM     15  C   UNL A   1      32.165  23.834  25.456  1.00  0.00     0.316 C 
BRANCH   6  16
ATOM     16  C   UNL A   1      30.371  27.557  23.444  1.00  0.00    -0.015 A 
ATOM     17  C   UNL A   1      29.004  30.051  23.326  1.00  0.00     0.067 A 
ATOM     18  C   UNL A   1      28.326  28.861  23.045  1.00  0.00     0.021 A 
ATOM     19  C   UNL A   1      30.322  30.001  23.768  1.00  0.00     0.021 A 
ATOM     20  C   UNL A   1      29.004  27.620  23.131  1.00  0.00     0.010 A 
ATOM     21  C   UNL A   1      30.987  28.770  23.826  1.00  0.00     0.010 A 
BRANCH  17  22
ATOM     22  S   UNL A   1      28.196  31.640  23.184  1.00  0.00     0.175 S 
ATOM     23  C   UNL A   1      27.900  31.891  21.458  1.00  0.00     0.163 C 
ATOM     24  O   UNL A   1      29.159  32.648  23.600  1.00  0.00    -0.224 OA
ATOM     25  O   UNL A   1      26.918  31.519  23.856  1.00  0.00    -0.224 OA
ENDBRANCH  17  22
ENDBRANCH   6  16
BRANCH  15  26
ATOM     26  C   UNL A   1      32.310  23.566  26.957  1.00  0.00     0.430 C 
ATOM     27  F   UNL A   1      33.593  23.296  27.298  1.00  0.00    -0.167 F 
ATOM     28  F   UNL A   1      31.897  24.613  27.703  1.00  0.00    -0.167 F 
ATOM     29  F   UNL A   1      31.567  22.493  27.331  1.00  0.00    -0.167 F 
ENDBRANCH  15  26
ENDBRANCH   3   5
ENDBRANCH   2   3
ENDBRANCH   1   2
BRANCH   1  30
ATOM     30  C   UNL A   1      36.939  21.881  25.545  1.00  0.00     0.275 C 
BRANCH  30  31
ATOM     31  O   UNL A   1      37.735  23.081  25.504  1.00  0.00    -0.458 OA
BRANCH  31  32
ATOM     32  C   UNL A   1      38.939  22.960  26.109  1.00  0.00     0.338 C 
ATOM     33  O   UNL A   1      39.644  21.962  26.120  1.00  0.00    -0.246 OA
BRANCH  32  34
ATOM     34  C   UNL A   1      39.399  24.253  26.673  1.00  0.00     0.060 A 
ATOM     35  C   UNL A   1      38.920  24.568  27.943  1.00  0.00     0.016 A 
ATOM     36  C   UNL A   1      40.242  25.159  26.016  1.00  0.00     0.016 A 
ATOM     37  C   UNL A   1      39.298  25.761  28.552  1.00  0.00     0.010 A 
ATOM     38  C   UNL A   1      40.612  26.373  26.640  1.00  0.00     0.010 A 
ATOM     39  C   UNL A   1      40.152  26.682  27.927  1.00  0.00    -0.014 A 
BRANCH  39  40
ATOM     40  C   UNL A   1      40.486  27.929  28.690  1.00  0.00     0.031 A 
ATOM     41  C   UNL A   1      39.480  29.043  28.763  1.00  0.00     0.074 A 
ATOM     42  C   UNL A   1      41.556  27.995  29.511  1.00  0.00     0.049 A 
ATOM     43  N   UNL A   1      39.492  30.111  29.520  1.00  0.00    -0.248 NA
ATOM     44  C   UNL A   1      38.305  28.934  27.885  1.00  0.00     0.031 C 
ATOM     45  C   UNL A   1      42.584  26.978  29.609  1.00  0.00     0.029 A 
ATOM     46  N   UNL A   1      41.912  28.899  30.487  1.00  0.00    -0.354 N 
ATOM     47  C   UNL A   1      38.328  30.798  29.211  1.00  0.00     0.074 A 
ATOM     48  C   UNL A   1      37.614  30.010  28.230  1.00  0.00     0.031 C 
ATOM     49  C   UNL A   1      43.343  27.197  30.693  1.00  0.00     0.029 A 
ATOM     50  C   UNL A   1      42.960  28.475  31.280  1.00  0.00     0.049 A 
ATOM     51  H   UNL A   1      41.463  29.767  30.607  1.00  0.00     0.167 HD
ATOM     52  C   UNL A   1      37.907  31.997  29.671  1.00  0.00     0.031 A 
ATOM     53  C   UNL A   1      43.572  29.057  32.332  1.00  0.00     0.031 A 
ATOM     54  C   UNL A   1      38.655  32.847  30.554  1.00  0.00     0.049 A 
ATOM     55  C   UNL A   1      43.176  30.459  32.707  1.00  0.00     0.074 A 
ATOM     56  C   UNL A   1      38.333  34.114  31.007  1.00  0.00     0.029 A 
ATOM     57  N   UNL A   1      39.889  32.531  31.096  1.00  0.00    -0.354 N 
ATOM     58  N   UNL A   1      42.183  31.181  32.250  1.00  0.00    -0.248 NA
ATOM     59  C   UNL A   1      44.019  31.150  33.696  1.00  0.00     0.031 C 
ATOM     60  C   UNL A   1      39.373  34.562  31.828  1.00  0.00     0.029 A 
ATOM     61  C   UNL A   1      40.304  33.544  31.943  1.00  0.00     0.049 A 
ATOM     62  H   UNL A   1      40.395  31.708  30.908  1.00  0.00     0.167 HD
ATOM     63  C   UNL A   1      42.280  32.406  32.896  1.00  0.00     0.074 A 
ATOM     64  C   UNL A   1      43.420  32.330  33.783  1.00  0.00     0.031 C 
ATOM     65  C   UNL A   1      41.477  33.490  32.774  1.00  0.00     0.031 A 
BRANCH  52  66
ATOM     66  C   UNL A   1      36.586  32.479  29.155  1.00  0.00    -0.014 A 
ATOM     67  C   UNL A   1      36.508  33.601  28.316  1.00  0.00     0.009 A 
ATOM     68  C   UNL A   1      35.409  31.816  29.531  1.00  0.00     0.009 A 
ATOM     69  C   UNL A   1      35.265  34.070  27.889  1.00  0.00     0.001 A 
ATOM     70  C   UNL A   1      34.171  32.275  29.085  1.00  0.00     0.001 A 
ATOM     71  C   UNL A   1      34.099  33.407  28.272  1.00  0.00     0.000 A 
ENDBRANCH  52  66
BRANCH  53  72
ATOM     72  C   UNL A   1      44.690  28.384  33.057  1.00  0.00    -0.014 A 
ATOM     73  C   UNL A   1      46.016  28.501  32.605  1.00  0.00     0.009 A 
ATOM     74  C   UNL A   1      44.433  27.563  34.166  1.00  0.00     0.009 A 
ATOM     75  C   UNL A   1      47.048  27.795  33.233  1.00  0.00     0.001 A 
ATOM     76  C   UNL A   1      45.470  26.891  34.818  1.00  0.00     0.001 A 
ATOM     77  C   UNL A   1      46.776  26.997  34.343  1.00  0.00     0.000 A 
ENDBRANCH  53  72
BRANCH  65  78
ATOM     78  C   UNL A   1      41.778  34.666  33.653  1.00  0.00    -0.014 A 
ATOM     79  C   UNL A   1      42.662  35.680  33.258  1.00  0.00     0.009 A 
ATOM     80  C   UNL A   1      41.132  34.769  34.896  1.00  0.00     0.009 A 
ATOM     81  C   UNL A   1      42.907  36.766  34.100  1.00  0.00     0.001 A 
ATOM     82  C   UNL A   1      41.361  35.866  35.725  1.00  0.00     0.001 A 
ATOM     83  C   UNL A   1      42.252  36.861  35.329  1.00  0.00     0.000 A 
ENDBRANCH  65  78
ENDBRANCH  39  40
ENDBRANCH  32  34
ENDBRANCH  31  32
ENDBRANCH  30  31
ENDBRANCH   1  30
TORSDOF 14
ENDMDL
