MODEL 1
REMARK VINA RESULT:      -9.9      0.000      0.000
REMARK SMILES CCc1nc(=O)n([C@@H](CC)C(C)C)c(CC)c1CC(=O)OCCOC(=O)c1ccc(-c2c3nc(c(-c4ccccc4)c4ccc([nH]4)c(-c4ccccc4)c4nc(c(-c5ccccc5)c5ccc2[nH]5)C=C4)C=C3)cc1
REMARK SMILES IDX 22 1 21 2 19 3 20 4 18 5 17 6 3 7 4 8 5 9 14 10 6 11 7 12
REMARK SMILES IDX 2 13 1 14 15 15 16 16 8 17 9 18 10 19 11 20 12 21 13 22
REMARK SMILES IDX 23 23 24 24 25 25 26 26 27 27 28 28 74 29 29 30 73 31 30 32
REMARK SMILES IDX 31 33 32 34 67 35 33 36 72 37 66 38 68 39 34 40 71 41 65 42
REMARK SMILES IDX 64 43 35 45 57 46 42 47 56 48 43 49 46 50 55 51 69 52 44 53
REMARK SMILES IDX 45 54 54 56 70 57 47 58 36 59 37 60 41 61 38 62 40 63 39 64
REMARK SMILES IDX 58 65 59 66 63 67 60 68 62 69 61 70 48 71 49 72 53 73 50 74
REMARK SMILES IDX 52 75 51 76
REMARK H PARENT 68 44 46 55
REMARK Flexibility Score: inf
ROOT
ATOM      1  C   UNL A   1      36.497  22.842  25.752  1.00  0.00     0.274 C 
ENDROOT
BRANCH   1   2
ATOM      2  O   UNL A   1      36.109  23.853  24.776  1.00  0.00    -0.462 OA
BRANCH   2   3
ATOM      3  C   UNL A   1      35.785  23.401  23.537  1.00  0.00     0.310 C 
ATOM      4  O   UNL A   1      36.611  22.979  22.728  1.00  0.00    -0.252 OA
BRANCH   3   5
ATOM      5  C   UNL A   1      34.283  23.261  23.246  1.00  0.00     0.162 C 
BRANCH   5   6
ATOM      6  C   UNL A   1      33.212  23.952  24.051  1.00  0.00     0.005 A 
ATOM      7  C   UNL A   1      32.594  23.186  25.182  1.00  0.00     0.051 A 
ATOM      8  N   UNL A   1      31.797  23.696  26.052  1.00  0.00    -0.198 NA
ATOM      9  C   UNL A   1      31.456  25.016  26.001  1.00  0.00     0.348 A 
ATOM     10  C   UNL A   1      32.890  25.276  24.019  1.00  0.00     0.028 A 
ATOM     11  O   UNL A   1      30.736  25.482  26.868  1.00  0.00    -0.246 OA
ATOM     12  N   UNL A   1      31.972  25.800  24.955  1.00  0.00    -0.293 N 
BRANCH   7  13
ATOM     13  C   UNL A   1      32.944  21.715  25.440  1.00  0.00     0.053 C 
ATOM     14  C   UNL A   1      32.155  20.779  24.543  1.00  0.00     0.011 C 
ENDBRANCH   7  13
BRANCH  10  15
ATOM     15  C   UNL A   1      33.593  26.293  23.101  1.00  0.00     0.051 C 
ATOM     16  C   UNL A   1      33.112  26.357  21.639  1.00  0.00     0.010 C 
ENDBRANCH  10  15
BRANCH  12  17
ATOM     17  C   UNL A   1      31.483  27.205  24.855  1.00  0.00     0.094 C 
BRANCH  17  18
ATOM     18  C   UNL A   1      30.019  27.265  24.349  1.00  0.00     0.022 C 
ATOM     19  C   UNL A   1      29.805  27.504  22.867  1.00  0.00     0.006 C 
ENDBRANCH  17  18
BRANCH  17  20
ATOM     20  C   UNL A   1      31.892  28.159  26.014  1.00  0.00     0.006 C 
ATOM     21  C   UNL A   1      33.354  27.915  26.428  1.00  0.00     0.009 C 
ATOM     22  C   UNL A   1      31.765  29.628  25.576  1.00  0.00     0.009 C 
ENDBRANCH  17  20
ENDBRANCH  12  17
ENDBRANCH   5   6
ENDBRANCH   3   5
ENDBRANCH   2   3
ENDBRANCH   1   2
BRANCH   1  23
ATOM     23  C   UNL A   1      38.034  22.686  25.899  1.00  0.00     0.275 C 
BRANCH  23  24
ATOM     24  O   UNL A   1      38.775  23.932  25.776  1.00  0.00    -0.458 OA
BRANCH  24  25
ATOM     25  C   UNL A   1      39.865  23.921  26.561  1.00  0.00     0.338 C 
ATOM     26  O   UNL A   1      40.691  23.028  26.553  1.00  0.00    -0.246 OA
BRANCH  25  27
ATOM     27  C   UNL A   1      40.151  25.067  27.418  1.00  0.00     0.060 A 
ATOM     28  C   UNL A   1      40.819  26.189  26.930  1.00  0.00     0.016 A 
ATOM     29  C   UNL A   1      39.390  25.155  28.589  1.00  0.00     0.016 A 
ATOM     30  C   UNL A   1      40.787  27.375  27.675  1.00  0.00     0.010 A 
ATOM     31  C   UNL A   1      39.265  26.362  29.263  1.00  0.00     0.010 A 
ATOM     32  C   UNL A   1      40.030  27.460  28.859  1.00  0.00    -0.014 A 
BRANCH  32  33
ATOM     33  C   UNL A   1      40.174  28.617  29.777  1.00  0.00     0.031 A 
ATOM     34  C   UNL A   1      39.153  29.727  29.691  1.00  0.00     0.074 A 
ATOM     35  C   UNL A   1      41.158  28.672  30.692  1.00  0.00     0.049 A 
ATOM     36  N   UNL A   1      38.964  30.735  30.502  1.00  0.00    -0.248 NA
ATOM     37  C   UNL A   1      38.229  29.710  28.541  1.00  0.00     0.031 C 
ATOM     38  C   UNL A   1      42.242  27.700  30.836  1.00  0.00     0.029 A 
ATOM     39  N   UNL A   1      41.387  29.578  31.700  1.00  0.00    -0.354 N 
ATOM     40  C   UNL A   1      37.893  31.444  29.971  1.00  0.00     0.074 A 
ATOM     41  C   UNL A   1      37.533  30.818  28.725  1.00  0.00     0.031 C 
ATOM     42  C   UNL A   1      42.982  28.026  31.910  1.00  0.00     0.029 A 
ATOM     43  C   UNL A   1      42.428  29.230  32.528  1.00  0.00     0.049 A 
ATOM     44  H   UNL A   1      40.855  30.399  31.818  1.00  0.00     0.167 HD
ATOM     45  C   UNL A   1      37.226  32.494  30.497  1.00  0.00     0.031 A 
ATOM     46  C   UNL A   1      42.854  29.792  33.677  1.00  0.00     0.031 A 
ATOM     47  C   UNL A   1      37.576  33.116  31.740  1.00  0.00     0.049 A 
ATOM     48  C   UNL A   1      42.106  30.973  34.241  1.00  0.00     0.074 A 
ATOM     49  C   UNL A   1      36.942  34.165  32.380  1.00  0.00     0.029 A 
ATOM     50  N   UNL A   1      38.651  32.743  32.527  1.00  0.00    -0.354 N 
ATOM     51  N   UNL A   1      41.032  31.569  33.781  1.00  0.00    -0.248 NA
ATOM     52  C   UNL A   1      42.610  31.540  35.502  1.00  0.00     0.031 C 
ATOM     53  C   UNL A   1      37.670  34.464  33.533  1.00  0.00     0.029 A 
ATOM     54  C   UNL A   1      38.711  33.555  33.643  1.00  0.00     0.049 A 
ATOM     55  H   UNL A   1      39.276  32.011  32.323  1.00  0.00     0.167 HD
ATOM     56  C   UNL A   1      40.711  32.551  34.711  1.00  0.00     0.074 A 
ATOM     57  C   UNL A   1      41.697  32.465  35.768  1.00  0.00     0.031 C 
ATOM     58  C   UNL A   1      39.690  33.442  34.692  1.00  0.00     0.031 A 
BRANCH  45  59
ATOM     59  C   UNL A   1      36.030  33.010  29.750  1.00  0.00    -0.014 A 
ATOM     60  C   UNL A   1      34.868  32.232  29.657  1.00  0.00     0.009 A 
ATOM     61  C   UNL A   1      36.083  34.241  29.075  1.00  0.00     0.009 A 
ATOM     62  C   UNL A   1      33.788  32.667  28.887  1.00  0.00     0.001 A 
ATOM     63  C   UNL A   1      34.991  34.687  28.331  1.00  0.00     0.001 A 
ATOM     64  C   UNL A   1      33.848  33.895  28.229  1.00  0.00     0.000 A 
ENDBRANCH  45  59
BRANCH  46  65
ATOM     65  C   UNL A   1      43.987  29.182  34.426  1.00  0.00    -0.014 A 
ATOM     66  C   UNL A   1      43.763  28.196  35.398  1.00  0.00     0.009 A 
ATOM     67  C   UNL A   1      45.305  29.599  34.179  1.00  0.00     0.009 A 
ATOM     68  C   UNL A   1      44.831  27.650  36.117  1.00  0.00     0.001 A 
ATOM     69  C   UNL A   1      46.374  29.032  34.879  1.00  0.00     0.001 A 
ATOM     70  C   UNL A   1      46.135  28.065  35.853  1.00  0.00     0.000 A 
ENDBRANCH  46  65
BRANCH  58  71
ATOM     71  C   UNL A   1      39.546  34.387  35.852  1.00  0.00    -0.014 A 
ATOM     72  C   UNL A   1      40.187  35.637  35.809  1.00  0.00     0.009 A 
ATOM     73  C   UNL A   1      38.898  33.996  37.032  1.00  0.00     0.009 A 
ATOM     74  C   UNL A   1      40.200  36.466  36.931  1.00  0.00     0.001 A 
ATOM     75  C   UNL A   1      38.885  34.842  38.142  1.00  0.00     0.001 A 
ATOM     76  C   UNL A   1      39.545  36.070  38.094  1.00  0.00     0.000 A 
ENDBRANCH  58  71
ENDBRANCH  32  33
ENDBRANCH  25  27
ENDBRANCH  24  25
ENDBRANCH  23  24
ENDBRANCH   1  23
TORSDOF 17
ENDMDL
MODEL 2
REMARK VINA RESULT:      -9.8      4.442      9.381
REMARK SMILES CCc1nc(=O)n([C@@H](CC)C(C)C)c(CC)c1CC(=O)OCCOC(=O)c1ccc(-c2c3nc(c(-c4ccccc4)c4ccc([nH]4)c(-c4ccccc4)c4nc(c(-c5ccccc5)c5ccc2[nH]5)C=C4)C=C3)cc1
REMARK SMILES IDX 22 1 21 2 19 3 20 4 18 5 17 6 3 7 4 8 5 9 14 10 6 11 7 12
REMARK SMILES IDX 2 13 1 14 15 15 16 16 8 17 9 18 10 19 11 20 12 21 13 22
REMARK SMILES IDX 23 23 24 24 25 25 26 26 27 27 28 28 74 29 29 30 73 31 30 32
REMARK SMILES IDX 31 33 32 34 67 35 33 36 72 37 66 38 68 39 34 40 71 41 65 42
REMARK SMILES IDX 64 43 35 45 57 46 42 47 56 48 43 49 46 50 55 51 69 52 44 53
REMARK SMILES IDX 45 54 54 56 70 57 47 58 36 59 37 60 41 61 38 62 40 63 39 64
REMARK SMILES IDX 58 65 59 66 63 67 60 68 62 69 61 70 48 71 49 72 53 73 50 74
REMARK SMILES IDX 52 75 51 76
REMARK H PARENT 68 44 46 55
REMARK Flexibility Score: inf
ROOT
ATOM      1  C   UNL A   1      32.637  29.740  26.392  1.00  0.00     0.274 C 
ENDROOT
BRANCH   1   2
ATOM      2  O   UNL A   1      31.785  28.818  27.133  1.00  0.00    -0.462 OA
BRANCH   2   3
ATOM      3  C   UNL A   1      31.812  27.519  26.737  1.00  0.00     0.310 C 
ATOM      4  O   UNL A   1      30.819  26.794  26.712  1.00  0.00    -0.252 OA
BRANCH   3   5
ATOM      5  C   UNL A   1      33.135  27.033  26.126  1.00  0.00     0.162 C 
BRANCH   5   6
ATOM      6  C   UNL A   1      33.214  26.020  25.012  1.00  0.00     0.005 A 
ATOM      7  C   UNL A   1      33.366  26.540  23.614  1.00  0.00     0.051 A 
ATOM      8  N   UNL A   1      33.611  25.803  22.590  1.00  0.00    -0.198 NA
ATOM      9  C   UNL A   1      33.759  24.452  22.717  1.00  0.00     0.348 A 
ATOM     10  C   UNL A   1      33.388  24.674  25.139  1.00  0.00     0.028 A 
ATOM     11  O   UNL A   1      34.038  23.786  21.735  1.00  0.00    -0.246 OA
ATOM     12  N   UNL A   1      33.605  23.881  23.993  1.00  0.00    -0.293 N 
BRANCH   7  13
ATOM     13  C   UNL A   1      33.320  28.043  23.307  1.00  0.00     0.053 C 
ATOM     14  C   UNL A   1      31.962  28.475  22.787  1.00  0.00     0.011 C 
ENDBRANCH   7  13
BRANCH  10  15
ATOM     15  C   UNL A   1      33.518  23.966  26.501  1.00  0.00     0.051 C 
ATOM     16  C   UNL A   1      32.205  23.604  27.223  1.00  0.00     0.010 C 
ENDBRANCH  10  15
BRANCH  12  17
ATOM     17  C   UNL A   1      33.649  22.393  24.079  1.00  0.00     0.094 C 
BRANCH  17  18
ATOM     18  C   UNL A   1      34.646  21.913  25.165  1.00  0.00     0.022 C 
ATOM     19  C   UNL A   1      35.690  20.895  24.749  1.00  0.00     0.006 C 
ENDBRANCH  17  18
BRANCH  17  20
ATOM     20  C   UNL A   1      32.283  21.657  23.971  1.00  0.00     0.006 C 
ATOM     21  C   UNL A   1      32.153  20.950  22.610  1.00  0.00     0.009 C 
ATOM     22  C   UNL A   1      32.155  20.590  25.070  1.00  0.00     0.009 C 
ENDBRANCH  17  20
ENDBRANCH  12  17
ENDBRANCH   5   6
ENDBRANCH   3   5
ENDBRANCH   2   3
ENDBRANCH   1   2
BRANCH   1  23
ATOM     23  C   UNL A   1      33.595  30.558  27.299  1.00  0.00     0.275 C 
BRANCH  23  24
ATOM     24  O   UNL A   1      34.639  29.766  27.932  1.00  0.00    -0.458 OA
BRANCH  24  25
ATOM     25  C   UNL A   1      35.458  30.545  28.657  1.00  0.00     0.338 C 
ATOM     26  O   UNL A   1      35.085  31.525  29.274  1.00  0.00    -0.246 OA
BRANCH  25  27
ATOM     27  C   UNL A   1      36.863  30.177  28.805  1.00  0.00     0.060 A 
ATOM     28  C   UNL A   1      37.342  29.598  29.978  1.00  0.00     0.016 A 
ATOM     29  C   UNL A   1      37.588  30.056  27.613  1.00  0.00     0.016 A 
ATOM     30  C   UNL A   1      38.595  28.973  29.964  1.00  0.00     0.010 A 
ATOM     31  C   UNL A   1      38.773  29.336  27.577  1.00  0.00     0.010 A 
ATOM     32  C   UNL A   1      39.329  28.860  28.768  1.00  0.00    -0.014 A 
BRANCH  32  33
ATOM     33  C   UNL A   1      40.746  28.419  28.779  1.00  0.00     0.031 A 
ATOM     34  C   UNL A   1      41.046  26.974  28.463  1.00  0.00     0.074 A 
ATOM     35  C   UNL A   1      41.750  29.281  29.024  1.00  0.00     0.049 A 
ATOM     36  N   UNL A   1      42.200  26.405  28.231  1.00  0.00    -0.248 NA
ATOM     37  C   UNL A   1      39.904  26.041  28.408  1.00  0.00     0.031 C 
ATOM     38  C   UNL A   1      41.592  30.685  29.404  1.00  0.00     0.029 A 
ATOM     39  N   UNL A   1      43.111  29.104  28.958  1.00  0.00    -0.354 N 
ATOM     40  C   UNL A   1      41.913  25.068  27.982  1.00  0.00     0.074 A 
ATOM     41  C   UNL A   1      40.499  24.883  28.183  1.00  0.00     0.031 C 
ATOM     42  C   UNL A   1      42.806  31.258  29.475  1.00  0.00     0.029 A 
ATOM     43  C   UNL A   1      43.827  30.262  29.149  1.00  0.00     0.049 A 
ATOM     44  H   UNL A   1      43.533  28.231  28.789  1.00  0.00     0.167 HD
ATOM     45  C   UNL A   1      42.742  24.086  27.567  1.00  0.00     0.031 A 
ATOM     46  C   UNL A   1      45.149  30.501  29.028  1.00  0.00     0.031 A 
ATOM     47  C   UNL A   1      44.148  24.266  27.358  1.00  0.00     0.049 A 
ATOM     48  C   UNL A   1      46.060  29.387  28.578  1.00  0.00     0.074 A 
ATOM     49  C   UNL A   1      45.071  23.343  26.904  1.00  0.00     0.029 A 
ATOM     50  N   UNL A   1      44.828  25.449  27.588  1.00  0.00    -0.354 N 
ATOM     51  N   UNL A   1      45.759  28.155  28.246  1.00  0.00    -0.248 NA
ATOM     52  C   UNL A   1      47.491  29.707  28.455  1.00  0.00     0.031 C 
ATOM     53  C   UNL A   1      46.326  23.955  26.911  1.00  0.00     0.029 A 
ATOM     54  C   UNL A   1      46.168  25.275  27.302  1.00  0.00     0.049 A 
ATOM     55  H   UNL A   1      44.419  26.286  27.906  1.00  0.00     0.167 HD
ATOM     56  C   UNL A   1      46.951  27.566  27.841  1.00  0.00     0.074 A 
ATOM     57  C   UNL A   1      47.979  28.578  27.957  1.00  0.00     0.031 C 
ATOM     58  C   UNL A   1      47.173  26.301  27.408  1.00  0.00     0.031 A 
BRANCH  45  59
ATOM     59  C   UNL A   1      42.142  22.740  27.275  1.00  0.00    -0.014 A 
ATOM     60  C   UNL A   1      42.263  21.698  28.205  1.00  0.00     0.009 A 
ATOM     61  C   UNL A   1      41.520  22.485  26.041  1.00  0.00     0.009 A 
ATOM     62  C   UNL A   1      41.788  20.421  27.899  1.00  0.00     0.001 A 
ATOM     63  C   UNL A   1      41.018  21.216  25.751  1.00  0.00     0.001 A 
ATOM     64  C   UNL A   1      41.163  20.183  26.676  1.00  0.00     0.000 A 
ENDBRANCH  45  59
BRANCH  46  65
ATOM     65  C   UNL A   1      45.676  31.877  29.238  1.00  0.00    -0.014 A 
ATOM     66  C   UNL A   1      45.757  32.790  28.175  1.00  0.00     0.009 A 
ATOM     67  C   UNL A   1      46.120  32.280  30.508  1.00  0.00     0.009 A 
ATOM     68  C   UNL A   1      46.282  34.071  28.376  1.00  0.00     0.001 A 
ATOM     69  C   UNL A   1      46.618  33.570  30.713  1.00  0.00     0.001 A 
ATOM     70  C   UNL A   1      46.706  34.460  29.646  1.00  0.00     0.000 A 
ENDBRANCH  46  65
BRANCH  58  71
ATOM     71  C   UNL A   1      48.567  25.923  26.992  1.00  0.00    -0.014 A 
ATOM     72  C   UNL A   1      49.457  25.406  27.949  1.00  0.00     0.009 A 
ATOM     73  C   UNL A   1      49.041  26.200  25.703  1.00  0.00     0.009 A 
ATOM     74  C   UNL A   1      50.798  25.194  27.629  1.00  0.00     0.001 A 
ATOM     75  C   UNL A   1      50.376  25.957  25.376  1.00  0.00     0.001 A 
ATOM     76  C   UNL A   1      51.255  25.466  26.341  1.00  0.00     0.000 A 
ENDBRANCH  58  71
ENDBRANCH  32  33
ENDBRANCH  25  27
ENDBRANCH  24  25
ENDBRANCH  23  24
ENDBRANCH   1  23
TORSDOF 17
ENDMDL
MODEL 3
REMARK VINA RESULT:      -9.8      2.088      7.387
REMARK SMILES CCc1nc(=O)n([C@@H](CC)C(C)C)c(CC)c1CC(=O)OCCOC(=O)c1ccc(-c2c3nc(c(-c4ccccc4)c4ccc([nH]4)c(-c4ccccc4)c4nc(c(-c5ccccc5)c5ccc2[nH]5)C=C4)C=C3)cc1
REMARK SMILES IDX 22 1 21 2 19 3 20 4 18 5 17 6 3 7 4 8 5 9 14 10 6 11 7 12
REMARK SMILES IDX 2 13 1 14 15 15 16 16 8 17 9 18 10 19 11 20 12 21 13 22
REMARK SMILES IDX 23 23 24 24 25 25 26 26 27 27 28 28 74 29 29 30 73 31 30 32
REMARK SMILES IDX 31 33 32 34 67 35 33 36 72 37 66 38 68 39 34 40 71 41 65 42
REMARK SMILES IDX 64 43 35 45 57 46 42 47 56 48 43 49 46 50 55 51 69 52 44 53
REMARK SMILES IDX 45 54 54 56 70 57 47 58 36 59 37 60 41 61 38 62 40 63 39 64
REMARK SMILES IDX 58 65 59 66 63 67 60 68 62 69 61 70 48 71 49 72 53 73 50 74
REMARK SMILES IDX 52 75 51 76
REMARK H PARENT 68 44 46 55
REMARK Flexibility Score: inf
ROOT
ATOM      1  C   UNL A   1      31.798  30.137  26.879  1.00  0.00     0.274 C 
ENDROOT
BRANCH   1   2
ATOM      2  O   UNL A   1      32.344  28.974  27.569  1.00  0.00    -0.462 OA
BRANCH   2   3
ATOM      3  C   UNL A   1      32.286  27.794  26.901  1.00  0.00     0.310 C 
ATOM      4  O   UNL A   1      31.306  27.050  26.914  1.00  0.00    -0.252 OA
BRANCH   3   5
ATOM      5  C   UNL A   1      33.457  27.505  25.948  1.00  0.00     0.162 C 
BRANCH   5   6
ATOM      6  C   UNL A   1      33.321  26.689  24.688  1.00  0.00     0.005 A 
ATOM      7  C   UNL A   1      32.953  27.415  23.430  1.00  0.00     0.051 A 
ATOM      8  N   UNL A   1      32.963  26.887  22.258  1.00  0.00    -0.198 NA
ATOM      9  C   UNL A   1      33.330  25.584  22.080  1.00  0.00     0.348 A 
ATOM     10  C   UNL A   1      33.712  25.396  24.504  1.00  0.00     0.028 A 
ATOM     11  O   UNL A   1      33.377  25.125  20.952  1.00  0.00    -0.246 OA
ATOM     12  N   UNL A   1      33.666  24.824  23.214  1.00  0.00    -0.293 N 
BRANCH   7  13
ATOM     13  C   UNL A   1      32.605  28.910  23.438  1.00  0.00     0.053 C 
ATOM     14  C   UNL A   1      31.145  29.155  23.103  1.00  0.00     0.011 C 
ENDBRANCH   7  13
BRANCH  10  15
ATOM     15  C   UNL A   1      34.359  24.544  25.612  1.00  0.00     0.051 C 
ATOM     16  C   UNL A   1      33.407  23.901  26.638  1.00  0.00     0.010 C 
ENDBRANCH  10  15
BRANCH  12  17
ATOM     17  C   UNL A   1      33.941  23.374  23.001  1.00  0.00     0.094 C 
BRANCH  17  18
ATOM     18  C   UNL A   1      35.236  22.926  23.726  1.00  0.00     0.022 C 
ATOM     19  C   UNL A   1      36.527  22.973  22.933  1.00  0.00     0.006 C 
ENDBRANCH  17  18
BRANCH  17  20
ATOM     20  C   UNL A   1      32.709  22.425  23.061  1.00  0.00     0.006 C 
ATOM     21  C   UNL A   1      32.972  21.254  24.025  1.00  0.00     0.009 C 
ATOM     22  C   UNL A   1      31.468  23.180  23.566  1.00  0.00     0.009 C 
ENDBRANCH  17  20
ENDBRANCH  12  17
ENDBRANCH   5   6
ENDBRANCH   3   5
ENDBRANCH   2   3
ENDBRANCH   1   2
BRANCH   1  23
ATOM     23  C   UNL A   1      32.757  31.357  26.877  1.00  0.00     0.275 C 
BRANCH  23  24
ATOM     24  O   UNL A   1      32.121  32.616  27.234  1.00  0.00    -0.458 OA
BRANCH  24  25
ATOM     25  C   UNL A   1      32.963  33.399  27.929  1.00  0.00     0.338 C 
ATOM     26  O   UNL A   1      32.654  34.483  28.386  1.00  0.00    -0.246 OA
BRANCH  25  27
ATOM     27  C   UNL A   1      34.304  32.916  28.246  1.00  0.00     0.060 A 
ATOM     28  C   UNL A   1      35.441  33.593  27.811  1.00  0.00     0.016 A 
ATOM     29  C   UNL A   1      34.387  32.012  29.312  1.00  0.00     0.016 A 
ATOM     30  C   UNL A   1      36.678  33.290  28.396  1.00  0.00     0.010 A 
ATOM     31  C   UNL A   1      35.592  31.800  29.967  1.00  0.00     0.010 A 
ATOM     32  C   UNL A   1      36.763  32.372  29.461  1.00  0.00    -0.014 A 
BRANCH  32  33
ATOM     33  C   UNL A   1      38.076  31.865  29.929  1.00  0.00     0.031 A 
ATOM     34  C   UNL A   1      38.712  32.529  31.127  1.00  0.00     0.074 A 
ATOM     35  C   UNL A   1      38.678  30.818  29.337  1.00  0.00     0.049 A 
ATOM     36  N   UNL A   1      39.750  32.148  31.825  1.00  0.00    -0.248 NA
ATOM     37  C   UNL A   1      38.112  33.792  31.600  1.00  0.00     0.031 C 
ATOM     38  C   UNL A   1      38.202  30.129  28.137  1.00  0.00     0.029 A 
ATOM     39  N   UNL A   1      39.814  30.128  29.690  1.00  0.00    -0.354 N 
ATOM     40  C   UNL A   1      39.902  33.106  32.820  1.00  0.00     0.074 A 
ATOM     41  C   UNL A   1      38.921  34.134  32.587  1.00  0.00     0.031 C 
ATOM     42  C   UNL A   1      39.002  29.078  27.890  1.00  0.00     0.029 A 
ATOM     43  C   UNL A   1      40.048  29.019  28.911  1.00  0.00     0.049 A 
ATOM     44  H   UNL A   1      40.403  30.402  30.430  1.00  0.00     0.167 HD
ATOM     45  C   UNL A   1      40.747  33.108  33.874  1.00  0.00     0.031 A 
ATOM     46  C   UNL A   1      40.971  28.044  29.036  1.00  0.00     0.031 A 
ATOM     47  C   UNL A   1      41.720  32.084  34.115  1.00  0.00     0.049 A 
ATOM     48  C   UNL A   1      41.917  28.072  30.211  1.00  0.00     0.074 A 
ATOM     49  C   UNL A   1      42.601  31.973  35.174  1.00  0.00     0.029 A 
ATOM     50  N   UNL A   1      41.935  30.997  33.286  1.00  0.00    -0.354 N 
ATOM     51  N   UNL A   1      41.980  28.929  31.202  1.00  0.00    -0.248 NA
ATOM     52  C   UNL A   1      42.897  26.978  30.302  1.00  0.00     0.031 C 
ATOM     53  C   UNL A   1      43.391  30.842  34.956  1.00  0.00     0.029 A 
ATOM     54  C   UNL A   1      42.951  30.216  33.801  1.00  0.00     0.049 A 
ATOM     55  H   UNL A   1      41.438  30.809  32.457  1.00  0.00     0.167 HD
ATOM     56  C   UNL A   1      42.977  28.459  32.050  1.00  0.00     0.074 A 
ATOM     57  C   UNL A   1      43.483  27.236  31.465  1.00  0.00     0.031 C 
ATOM     58  C   UNL A   1      43.429  28.992  33.211  1.00  0.00     0.031 A 
BRANCH  45  59
ATOM     59  C   UNL A   1      40.630  34.230  34.864  1.00  0.00    -0.014 A 
ATOM     60  C   UNL A   1      39.773  34.112  35.967  1.00  0.00     0.009 A 
ATOM     61  C   UNL A   1      41.316  35.440  34.660  1.00  0.00     0.009 A 
ATOM     62  C   UNL A   1      39.591  35.187  36.839  1.00  0.00     0.001 A 
ATOM     63  C   UNL A   1      41.156  36.502  35.550  1.00  0.00     0.001 A 
ATOM     64  C   UNL A   1      40.285  36.378  36.632  1.00  0.00     0.000 A 
ENDBRANCH  45  59
BRANCH  46  65
ATOM     65  C   UNL A   1      40.982  26.904  28.079  1.00  0.00    -0.014 A 
ATOM     66  C   UNL A   1      40.300  25.712  28.368  1.00  0.00     0.009 A 
ATOM     67  C   UNL A   1      41.693  26.999  26.872  1.00  0.00     0.009 A 
ATOM     68  C   UNL A   1      40.340  24.636  27.476  1.00  0.00     0.001 A 
ATOM     69  C   UNL A   1      41.708  25.932  25.969  1.00  0.00     0.001 A 
ATOM     70  C   UNL A   1      41.039  24.750  26.275  1.00  0.00     0.000 A 
ENDBRANCH  46  65
BRANCH  58  71
ATOM     71  C   UNL A   1      44.505  28.259  33.962  1.00  0.00    -0.014 A 
ATOM     72  C   UNL A   1      45.853  28.499  33.645  1.00  0.00     0.009 A 
ATOM     73  C   UNL A   1      44.191  27.245  34.876  1.00  0.00     0.009 A 
ATOM     74  C   UNL A   1      46.864  27.722  34.213  1.00  0.00     0.001 A 
ATOM     75  C   UNL A   1      45.207  26.491  35.467  1.00  0.00     0.001 A 
ATOM     76  C   UNL A   1      46.540  26.722  35.126  1.00  0.00     0.000 A 
ENDBRANCH  58  71
ENDBRANCH  32  33
ENDBRANCH  25  27
ENDBRANCH  24  25
ENDBRANCH  23  24
ENDBRANCH   1  23
TORSDOF 17
ENDMDL
