MODEL 1
REMARK VINA RESULT:     -10.4      0.000      0.000
REMARK SMILES N#CCSCC(=O)N1Cc2ccccc2C[C@@H]1C(=O)OCCOC(=O)c1ccc(-c2c3nc(c(-c4ccccc4)c4ccc([nH]4)c(-c4ccccc4)c4nc(c(-c5ccccc5)c5ccc2[nH]5)C=C4)C=C3)cc1
REMARK SMILES IDX 20 1 18 2 19 3 17 4 8 5 9 6 10 7 16 8 11 9 15 10 12 11 14 12
REMARK SMILES IDX 13 13 6 14 7 15 5 16 4 17 3 18 2 19 1 20 21 21 22 22 23 23
REMARK SMILES IDX 24 24 25 25 26 26 27 27 73 28 28 29 72 30 29 31 30 32 31 33
REMARK SMILES IDX 66 34 32 35 71 36 65 37 67 38 33 39 70 40 64 41 63 42 34 44
REMARK SMILES IDX 56 45 41 46 55 47 42 48 45 49 54 50 68 51 43 52 44 53 53 55
REMARK SMILES IDX 69 56 46 57 35 58 36 59 40 60 37 61 39 62 38 63 57 64 58 65
REMARK SMILES IDX 62 66 59 67 61 68 60 69 47 70 48 71 52 72 49 73 51 74 50 75
REMARK H PARENT 67 43 45 54
REMARK Flexibility Score: inf
ROOT
ATOM      1  O   UNL A   1      35.374  22.954  22.783  1.00  0.00    -0.461 OA
ENDROOT
BRANCH   1   2
ATOM      2  C   UNL A   1      34.428  23.761  23.324  1.00  0.00     0.329 C 
ATOM      3  O   UNL A   1      34.036  24.786  22.776  1.00  0.00    -0.250 OA
BRANCH   2   4
ATOM      4  C   UNL A   1      33.928  23.329  24.721  1.00  0.00     0.199 C 
ATOM      5  N   UNL A   1      32.638  22.647  24.570  1.00  0.00    -0.323 N 
ATOM      6  C   UNL A   1      31.409  23.448  24.734  1.00  0.00     0.156 C 
ATOM      7  C   UNL A   1      31.602  24.937  24.926  1.00  0.00    -0.025 A 
ATOM      8  C   UNL A   1      33.910  24.479  25.726  1.00  0.00     0.073 C 
ATOM      9  C   UNL A   1      30.571  25.837  24.631  1.00  0.00     0.006 A 
ATOM     10  C   UNL A   1      32.816  25.446  25.405  1.00  0.00    -0.040 A 
ATOM     11  C   UNL A   1      30.771  27.214  24.762  1.00  0.00     0.000 A 
ATOM     12  C   UNL A   1      33.014  26.824  25.543  1.00  0.00     0.004 A 
ATOM     13  C   UNL A   1      31.995  27.708  25.207  1.00  0.00     0.000 A 
BRANCH   5  14
ATOM     14  C   UNL A   1      32.507  21.345  24.097  1.00  0.00     0.233 C 
ATOM     15  O   UNL A   1      32.143  21.149  22.930  1.00  0.00    -0.274 OA
BRANCH  14  16
ATOM     16  C   UNL A   1      32.608  20.131  25.025  1.00  0.00     0.170 C 
BRANCH  16  17
ATOM     17  S   UNL A   1      33.635  18.701  24.579  1.00  0.00    -0.137 SA
BRANCH  17  18
ATOM     18  C   UNL A   1      32.502  17.285  24.844  1.00  0.00     0.189 C 
BRANCH  18  19
ATOM     19  C   UNL A   1      33.281  16.003  25.090  1.00  0.00     0.073 C 
ATOM     20  N   UNL A   1      33.927  14.940  25.294  1.00  0.00    -0.197 NA
ENDBRANCH  18  19
ENDBRANCH  17  18
ENDBRANCH  16  17
ENDBRANCH  14  16
ENDBRANCH   5  14
ENDBRANCH   2   4
ENDBRANCH   1   2
BRANCH   1  21
ATOM     21  C   UNL A   1      36.655  22.957  23.442  1.00  0.00     0.274 C 
BRANCH  21  22
ATOM     22  C   UNL A   1      36.994  21.628  24.133  1.00  0.00     0.275 C 
BRANCH  22  23
ATOM     23  O   UNL A   1      37.260  21.791  25.544  1.00  0.00    -0.458 OA
BRANCH  23  24
ATOM     24  C   UNL A   1      38.525  21.499  25.927  1.00  0.00     0.338 C 
ATOM     25  O   UNL A   1      39.152  20.482  25.681  1.00  0.00    -0.246 OA
BRANCH  24  26
ATOM     26  C   UNL A   1      39.173  22.668  26.547  1.00  0.00     0.060 A 
ATOM     27  C   UNL A   1      38.660  23.929  26.227  1.00  0.00     0.016 A 
ATOM     28  C   UNL A   1      40.336  22.562  27.304  1.00  0.00     0.016 A 
ATOM     29  C   UNL A   1      39.292  25.087  26.636  1.00  0.00     0.010 A 
ATOM     30  C   UNL A   1      40.993  23.732  27.708  1.00  0.00     0.010 A 
ATOM     31  C   UNL A   1      40.483  24.995  27.353  1.00  0.00    -0.014 A 
BRANCH  31  32
ATOM     32  C   UNL A   1      41.231  26.244  27.590  1.00  0.00     0.031 A 
ATOM     33  C   UNL A   1      40.668  27.256  28.544  1.00  0.00     0.074 A 
ATOM     34  C   UNL A   1      42.459  26.400  27.068  1.00  0.00     0.049 A 
ATOM     35  N   UNL A   1      41.150  28.420  28.891  1.00  0.00    -0.248 NA
ATOM     36  C   UNL A   1      39.402  26.902  29.207  1.00  0.00     0.031 C 
ATOM     37  C   UNL A   1      43.155  25.421  26.232  1.00  0.00     0.029 A 
ATOM     38  N   UNL A   1      43.349  27.434  27.191  1.00  0.00    -0.354 N 
ATOM     39  C   UNL A   1      40.235  28.950  29.790  1.00  0.00     0.074 A 
ATOM     40  C   UNL A   1      39.171  27.982  29.940  1.00  0.00     0.031 C 
ATOM     41  C   UNL A   1      44.369  25.902  25.918  1.00  0.00     0.029 A 
ATOM     42  C   UNL A   1      44.515  27.236  26.493  1.00  0.00     0.049 A 
ATOM     43  H   UNL A   1      43.169  28.242  27.724  1.00  0.00     0.167 HD
ATOM     44  C   UNL A   1      40.277  30.143  30.427  1.00  0.00     0.031 A 
ATOM     45  C   UNL A   1      45.568  28.054  26.322  1.00  0.00     0.031 A 
ATOM     46  C   UNL A   1      41.337  31.101  30.273  1.00  0.00     0.049 A 
ATOM     47  C   UNL A   1      45.552  29.408  26.973  1.00  0.00     0.074 A 
ATOM     48  C   UNL A   1      41.456  32.358  30.836  1.00  0.00     0.029 A 
ATOM     49  N   UNL A   1      42.469  30.897  29.498  1.00  0.00    -0.354 N 
ATOM     50  N   UNL A   1      44.650  29.930  27.768  1.00  0.00    -0.248 NA
ATOM     51  C   UNL A   1      46.697  30.286  26.697  1.00  0.00     0.031 C 
ATOM     52  C   UNL A   1      42.647  32.931  30.373  1.00  0.00     0.029 A 
ATOM     53  C   UNL A   1      43.286  32.011  29.557  1.00  0.00     0.049 A 
ATOM     54  H   UNL A   1      42.662  30.081  28.983  1.00  0.00     0.167 HD
ATOM     55  C   UNL A   1      45.122  31.193  28.098  1.00  0.00     0.074 A 
ATOM     56  C   UNL A   1      46.400  31.349  27.432  1.00  0.00     0.031 C 
ATOM     57  C   UNL A   1      44.550  32.141  28.880  1.00  0.00     0.031 A 
BRANCH  44  58
ATOM     58  C   UNL A   1      39.107  30.493  31.297  1.00  0.00    -0.014 A 
ATOM     59  C   UNL A   1      39.087  30.174  32.664  1.00  0.00     0.009 A 
ATOM     60  C   UNL A   1      38.004  31.155  30.735  1.00  0.00     0.009 A 
ATOM     61  C   UNL A   1      37.972  30.488  33.444  1.00  0.00     0.001 A 
ATOM     62  C   UNL A   1      36.900  31.485  31.521  1.00  0.00     0.001 A 
ATOM     63  C   UNL A   1      36.882  31.144  32.874  1.00  0.00     0.000 A 
ENDBRANCH  44  58
BRANCH  45  64
ATOM     64  C   UNL A   1      46.702  27.633  25.461  1.00  0.00    -0.014 A 
ATOM     65  C   UNL A   1      46.730  27.961  24.099  1.00  0.00     0.009 A 
ATOM     66  C   UNL A   1      47.764  26.894  26.005  1.00  0.00     0.009 A 
ATOM     67  C   UNL A   1      47.794  27.544  23.294  1.00  0.00     0.001 A 
ATOM     68  C   UNL A   1      48.837  26.499  25.204  1.00  0.00     0.001 A 
ATOM     69  C   UNL A   1      48.848  26.818  23.848  1.00  0.00     0.000 A 
ENDBRANCH  45  64
BRANCH  57  70
ATOM     70  C   UNL A   1      45.320  33.414  29.071  1.00  0.00    -0.014 A 
ATOM     71  C   UNL A   1      46.311  33.519  30.058  1.00  0.00     0.009 A 
ATOM     72  C   UNL A   1      45.066  34.511  28.235  1.00  0.00     0.009 A 
ATOM     73  C   UNL A   1      47.012  34.714  30.225  1.00  0.00     0.001 A 
ATOM     74  C   UNL A   1      45.784  35.697  28.390  1.00  0.00     0.001 A 
ATOM     75  C   UNL A   1      46.751  35.800  29.390  1.00  0.00     0.000 A 
ENDBRANCH  57  70
ENDBRANCH  31  32
ENDBRANCH  24  26
ENDBRANCH  23  24
ENDBRANCH  22  23
ENDBRANCH  21  22
ENDBRANCH   1  21
TORSDOF 16
ENDMDL
MODEL 2
REMARK VINA RESULT:     -10.4      0.997      6.108
REMARK SMILES N#CCSCC(=O)N1Cc2ccccc2C[C@@H]1C(=O)OCCOC(=O)c1ccc(-c2c3nc(c(-c4ccccc4)c4ccc([nH]4)c(-c4ccccc4)c4nc(c(-c5ccccc5)c5ccc2[nH]5)C=C4)C=C3)cc1
REMARK SMILES IDX 20 1 18 2 19 3 17 4 8 5 9 6 10 7 16 8 11 9 15 10 12 11 14 12
REMARK SMILES IDX 13 13 6 14 7 15 5 16 4 17 3 18 2 19 1 20 21 21 22 22 23 23
REMARK SMILES IDX 24 24 25 25 26 26 27 27 73 28 28 29 72 30 29 31 30 32 31 33
REMARK SMILES IDX 66 34 32 35 71 36 65 37 67 38 33 39 70 40 64 41 63 42 34 44
REMARK SMILES IDX 56 45 41 46 55 47 42 48 45 49 54 50 68 51 43 52 44 53 53 55
REMARK SMILES IDX 69 56 46 57 35 58 36 59 40 60 37 61 39 62 38 63 57 64 58 65
REMARK SMILES IDX 62 66 59 67 61 68 60 69 47 70 48 71 52 72 49 73 51 74 50 75
REMARK H PARENT 67 43 45 54
REMARK Flexibility Score: inf
ROOT
ATOM      1  O   UNL A   1      36.186  23.167  24.847  1.00  0.00    -0.461 OA
ENDROOT
BRANCH   1   2
ATOM      2  C   UNL A   1      35.124  23.283  24.013  1.00  0.00     0.329 C 
ATOM      3  O   UNL A   1      35.241  23.355  22.794  1.00  0.00    -0.250 OA
BRANCH   2   4
ATOM      4  C   UNL A   1      33.753  23.389  24.717  1.00  0.00     0.199 C 
ATOM      5  N   UNL A   1      32.701  23.032  23.759  1.00  0.00    -0.323 N 
ATOM      6  C   UNL A   1      32.041  24.125  23.016  1.00  0.00     0.156 C 
ATOM      7  C   UNL A   1      32.604  25.514  23.232  1.00  0.00    -0.025 A 
ATOM      8  C   UNL A   1      33.540  24.740  25.399  1.00  0.00     0.073 C 
ATOM      9  C   UNL A   1      32.402  26.523  22.282  1.00  0.00     0.006 A 
ATOM     10  C   UNL A   1      33.336  25.819  24.387  1.00  0.00    -0.040 A 
ATOM     11  C   UNL A   1      32.966  27.789  22.462  1.00  0.00     0.000 A 
ATOM     12  C   UNL A   1      33.894  27.089  24.569  1.00  0.00     0.004 A 
ATOM     13  C   UNL A   1      33.720  28.069  23.599  1.00  0.00     0.000 A 
BRANCH   5  14
ATOM     14  C   UNL A   1      32.424  21.724  23.372  1.00  0.00     0.233 C 
ATOM     15  O   UNL A   1      32.197  21.471  22.182  1.00  0.00    -0.274 OA
BRANCH  14  16
ATOM     16  C   UNL A   1      32.197  20.607  24.394  1.00  0.00     0.170 C 
BRANCH  16  17
ATOM     17  S   UNL A   1      33.561  19.521  24.905  1.00  0.00    -0.137 SA
BRANCH  17  18
ATOM     18  C   UNL A   1      32.827  17.848  24.759  1.00  0.00     0.189 C 
BRANCH  18  19
ATOM     19  C   UNL A   1      33.532  17.037  23.684  1.00  0.00     0.073 C 
ATOM     20  N   UNL A   1      34.116  16.365  22.791  1.00  0.00    -0.197 NA
ENDBRANCH  18  19
ENDBRANCH  17  18
ENDBRANCH  16  17
ENDBRANCH  14  16
ENDBRANCH   5  14
ENDBRANCH   2   4
ENDBRANCH   1   2
BRANCH   1  21
ATOM     21  C   UNL A   1      36.194  22.003  25.696  1.00  0.00     0.274 C 
BRANCH  21  22
ATOM     22  C   UNL A   1      37.234  20.950  25.287  1.00  0.00     0.275 C 
BRANCH  22  23
ATOM     23  O   UNL A   1      38.559  21.507  25.144  1.00  0.00    -0.458 OA
BRANCH  23  24
ATOM     24  C   UNL A   1      39.406  21.243  26.166  1.00  0.00     0.338 C 
ATOM     25  O   UNL A   1      39.887  20.162  26.464  1.00  0.00    -0.246 OA
BRANCH  24  26
ATOM     26  C   UNL A   1      39.863  22.488  26.809  1.00  0.00     0.060 A 
ATOM     27  C   UNL A   1      39.290  23.684  26.367  1.00  0.00     0.016 A 
ATOM     28  C   UNL A   1      40.920  22.515  27.714  1.00  0.00     0.016 A 
ATOM     29  C   UNL A   1      39.761  24.909  26.799  1.00  0.00     0.010 A 
ATOM     30  C   UNL A   1      41.415  23.754  28.144  1.00  0.00     0.010 A 
ATOM     31  C   UNL A   1      40.850  24.952  27.666  1.00  0.00    -0.014 A 
BRANCH  31  32
ATOM     32  C   UNL A   1      41.449  26.272  27.940  1.00  0.00     0.031 A 
ATOM     33  C   UNL A   1      42.744  26.633  27.274  1.00  0.00     0.074 A 
ATOM     34  C   UNL A   1      40.768  27.181  28.659  1.00  0.00     0.049 A 
ATOM     35  N   UNL A   1      43.447  27.729  27.380  1.00  0.00    -0.248 NA
ATOM     36  C   UNL A   1      43.313  25.633  26.356  1.00  0.00     0.031 C 
ATOM     37  C   UNL A   1      39.442  26.978  29.243  1.00  0.00     0.029 A 
ATOM     38  N   UNL A   1      41.093  28.468  28.995  1.00  0.00    -0.354 N 
ATOM     39  C   UNL A   1      44.556  27.541  26.565  1.00  0.00     0.074 A 
ATOM     40  C   UNL A   1      44.431  26.229  25.968  1.00  0.00     0.031 C 
ATOM     41  C   UNL A   1      39.064  28.107  29.865  1.00  0.00     0.029 A 
ATOM     42  C   UNL A   1      40.137  29.090  29.760  1.00  0.00     0.049 A 
ATOM     43  H   UNL A   1      41.931  28.904  28.717  1.00  0.00     0.167 HD
ATOM     44  C   UNL A   1      45.588  28.386  26.342  1.00  0.00     0.031 A 
ATOM     45  C   UNL A   1      40.145  30.308  30.329  1.00  0.00     0.031 A 
ATOM     46  C   UNL A   1      45.706  29.688  26.940  1.00  0.00     0.049 A 
ATOM     47  C   UNL A   1      41.342  31.196  30.134  1.00  0.00     0.074 A 
ATOM     48  C   UNL A   1      46.733  30.606  26.818  1.00  0.00     0.029 A 
ATOM     49  N   UNL A   1      44.753  30.257  27.771  1.00  0.00    -0.354 N 
ATOM     50  N   UNL A   1      42.418  30.982  29.416  1.00  0.00    -0.248 NA
ATOM     51  C   UNL A   1      41.326  32.487  30.833  1.00  0.00     0.031 C 
ATOM     52  C   UNL A   1      46.415  31.720  27.605  1.00  0.00     0.029 A 
ATOM     53  C   UNL A   1      45.173  31.509  28.180  1.00  0.00     0.049 A 
ATOM     54  H   UNL A   1      43.903  29.832  28.030  1.00  0.00     0.167 HD
ATOM     55  C   UNL A   1      43.204  32.117  29.567  1.00  0.00     0.074 A 
ATOM     56  C   UNL A   1      42.470  33.022  30.429  1.00  0.00     0.031 C 
ATOM     57  C   UNL A   1      44.424  32.387  29.042  1.00  0.00     0.031 A 
BRANCH  44  58
ATOM     58  C   UNL A   1      46.696  27.891  25.462  1.00  0.00    -0.014 A 
ATOM     59  C   UNL A   1      46.708  28.149  24.082  1.00  0.00     0.009 A 
ATOM     60  C   UNL A   1      47.748  27.153  26.027  1.00  0.00     0.009 A 
ATOM     61  C   UNL A   1      47.739  27.653  23.281  1.00  0.00     0.001 A 
ATOM     62  C   UNL A   1      48.788  26.675  25.228  1.00  0.00     0.001 A 
ATOM     63  C   UNL A   1      48.778  26.919  23.855  1.00  0.00     0.000 A 
ENDBRANCH  44  58
BRANCH  45  64
ATOM     64  C   UNL A   1      39.003  30.739  31.173  1.00  0.00    -0.014 A 
ATOM     65  C   UNL A   1      37.928  31.449  30.620  1.00  0.00     0.009 A 
ATOM     66  C   UNL A   1      38.988  30.441  32.545  1.00  0.00     0.009 A 
ATOM     67  C   UNL A   1      36.867  31.865  31.428  1.00  0.00     0.001 A 
ATOM     68  C   UNL A   1      37.914  30.837  33.345  1.00  0.00     0.001 A 
ATOM     69  C   UNL A   1      36.859  31.555  32.787  1.00  0.00     0.000 A 
ENDBRANCH  45  64
BRANCH  57  70
ATOM     70  C   UNL A   1      45.020  33.723  29.369  1.00  0.00    -0.014 A 
ATOM     71  C   UNL A   1      44.762  34.846  28.570  1.00  0.00     0.009 A 
ATOM     72  C   UNL A   1      45.830  33.863  30.506  1.00  0.00     0.009 A 
ATOM     73  C   UNL A   1      45.331  36.080  28.887  1.00  0.00     0.001 A 
ATOM     74  C   UNL A   1      46.379  35.102  30.834  1.00  0.00     0.001 A 
ATOM     75  C   UNL A   1      46.136  36.208  30.020  1.00  0.00     0.000 A 
ENDBRANCH  57  70
ENDBRANCH  31  32
ENDBRANCH  24  26
ENDBRANCH  23  24
ENDBRANCH  22  23
ENDBRANCH  21  22
ENDBRANCH   1  21
TORSDOF 16
ENDMDL
MODEL 3
REMARK VINA RESULT:     -10.3      3.559      6.387
REMARK SMILES N#CCSCC(=O)N1Cc2ccccc2C[C@@H]1C(=O)OCCOC(=O)c1ccc(-c2c3nc(c(-c4ccccc4)c4ccc([nH]4)c(-c4ccccc4)c4nc(c(-c5ccccc5)c5ccc2[nH]5)C=C4)C=C3)cc1
REMARK SMILES IDX 20 1 18 2 19 3 17 4 8 5 9 6 10 7 16 8 11 9 15 10 12 11 14 12
REMARK SMILES IDX 13 13 6 14 7 15 5 16 4 17 3 18 2 19 1 20 21 21 22 22 23 23
REMARK SMILES IDX 24 24 25 25 26 26 27 27 73 28 28 29 72 30 29 31 30 32 31 33
REMARK SMILES IDX 66 34 32 35 71 36 65 37 67 38 33 39 70 40 64 41 63 42 34 44
REMARK SMILES IDX 56 45 41 46 55 47 42 48 45 49 54 50 68 51 43 52 44 53 53 55
REMARK SMILES IDX 69 56 46 57 35 58 36 59 40 60 37 61 39 62 38 63 57 64 58 65
REMARK SMILES IDX 62 66 59 67 61 68 60 69 47 70 48 71 52 72 49 73 51 74 50 75
REMARK H PARENT 67 43 45 54
REMARK Flexibility Score: inf
ROOT
ATOM      1  O   UNL A   1      31.920  27.327  25.359  1.00  0.00    -0.461 OA
ENDROOT
BRANCH   1   2
ATOM      2  C   UNL A   1      30.812  26.555  25.483  1.00  0.00     0.329 C 
ATOM      3  O   UNL A   1      30.263  26.348  26.560  1.00  0.00    -0.250 OA
BRANCH   2   4
ATOM      4  C   UNL A   1      30.330  25.896  24.171  1.00  0.00     0.199 C 
ATOM      5  N   UNL A   1      31.377  26.048  23.154  1.00  0.00    -0.323 N 
ATOM      6  C   UNL A   1      31.283  27.198  22.232  1.00  0.00     0.156 C 
ATOM      7  C   UNL A   1      30.168  28.185  22.506  1.00  0.00    -0.025 A 
ATOM      8  C   UNL A   1      28.955  26.393  23.728  1.00  0.00     0.073 C 
ATOM      9  C   UNL A   1      30.245  29.501  22.035  1.00  0.00     0.006 A 
ATOM     10  C   UNL A   1      29.035  27.801  23.235  1.00  0.00    -0.040 A 
ATOM     11  C   UNL A   1      29.237  30.422  22.333  1.00  0.00     0.000 A 
ATOM     12  C   UNL A   1      28.022  28.722  23.527  1.00  0.00     0.004 A 
ATOM     13  C   UNL A   1      28.132  30.036  23.088  1.00  0.00     0.000 A 
BRANCH   5  14
ATOM     14  C   UNL A   1      32.544  25.291  23.131  1.00  0.00     0.233 C 
ATOM     15  O   UNL A   1      33.626  25.838  22.883  1.00  0.00    -0.274 OA
BRANCH  14  16
ATOM     16  C   UNL A   1      32.519  23.761  23.208  1.00  0.00     0.170 C 
BRANCH  16  17
ATOM     17  S   UNL A   1      33.528  22.875  24.432  1.00  0.00    -0.137 SA
BRANCH  17  18
ATOM     18  C   UNL A   1      33.421  23.955  25.908  1.00  0.00     0.189 C 
BRANCH  18  19
ATOM     19  C   UNL A   1      32.258  23.547  26.798  1.00  0.00     0.073 C 
ATOM     20  N   UNL A   1      31.294  23.208  27.536  1.00  0.00    -0.197 NA
ENDBRANCH  18  19
ENDBRANCH  17  18
ENDBRANCH  16  17
ENDBRANCH  14  16
ENDBRANCH   5  14
ENDBRANCH   2   4
ENDBRANCH   1   2
BRANCH   1  21
ATOM     21  C   UNL A   1      31.835  28.645  25.934  1.00  0.00     0.274 C 
BRANCH  21  22
ATOM     22  C   UNL A   1      32.455  28.747  27.335  1.00  0.00     0.275 C 
BRANCH  22  23
ATOM     23  O   UNL A   1      33.895  28.849  27.297  1.00  0.00    -0.458 OA
BRANCH  23  24
ATOM     24  C   UNL A   1      34.396  30.046  27.682  1.00  0.00     0.338 C 
ATOM     25  O   UNL A   1      33.792  31.102  27.774  1.00  0.00    -0.246 OA
BRANCH  24  26
ATOM     26  C   UNL A   1      35.775  29.906  28.185  1.00  0.00     0.060 A 
ATOM     27  C   UNL A   1      36.813  30.105  27.269  1.00  0.00     0.016 A 
ATOM     28  C   UNL A   1      36.057  29.451  29.470  1.00  0.00     0.016 A 
ATOM     29  C   UNL A   1      38.127  29.846  27.607  1.00  0.00     0.010 A 
ATOM     30  C   UNL A   1      37.386  29.171  29.814  1.00  0.00     0.010 A 
ATOM     31  C   UNL A   1      38.418  29.345  28.874  1.00  0.00    -0.014 A 
BRANCH  31  32
ATOM     32  C   UNL A   1      39.800  28.891  29.123  1.00  0.00     0.031 A 
ATOM     33  C   UNL A   1      40.716  29.763  29.928  1.00  0.00     0.074 A 
ATOM     34  C   UNL A   1      40.175  27.654  28.753  1.00  0.00     0.049 A 
ATOM     35  N   UNL A   1      41.966  29.565  30.257  1.00  0.00    -0.248 NA
ATOM     36  C   UNL A   1      40.145  31.018  30.445  1.00  0.00     0.031 C 
ATOM     37  C   UNL A   1      39.321  26.676  28.078  1.00  0.00     0.029 A 
ATOM     38  N   UNL A   1      41.370  27.005  28.920  1.00  0.00    -0.354 N 
ATOM     39  C   UNL A   1      42.339  30.680  30.995  1.00  0.00     0.074 A 
ATOM     40  C   UNL A   1      41.185  31.550  31.070  1.00  0.00     0.031 C 
ATOM     41  C   UNL A   1      40.021  25.545  27.892  1.00  0.00     0.029 A 
ATOM     42  C   UNL A   1      41.379  25.737  28.392  1.00  0.00     0.049 A 
ATOM     43  H   UNL A   1      42.146  27.407  29.372  1.00  0.00     0.167 HD
ATOM     44  C   UNL A   1      43.540  30.955  31.553  1.00  0.00     0.031 A 
ATOM     45  C   UNL A   1      42.382  24.846  28.303  1.00  0.00     0.031 A 
ATOM     46  C   UNL A   1      44.682  30.086  31.472  1.00  0.00     0.049 A 
ATOM     47  C   UNL A   1      43.730  25.210  28.857  1.00  0.00     0.074 A 
ATOM     48  C   UNL A   1      45.960  30.289  31.962  1.00  0.00     0.029 A 
ATOM     49  N   UNL A   1      44.677  28.841  30.863  1.00  0.00    -0.354 N 
ATOM     50  N   UNL A   1      44.094  26.297  29.494  1.00  0.00    -0.248 NA
ATOM     51  C   UNL A   1      44.806  24.228  28.672  1.00  0.00     0.031 C 
ATOM     52  C   UNL A   1      46.739  29.177  31.618  1.00  0.00     0.029 A 
ATOM     53  C   UNL A   1      45.933  28.267  30.953  1.00  0.00     0.049 A 
ATOM     54  H   UNL A   1      43.895  28.426  30.432  1.00  0.00     0.167 HD
ATOM     55  C   UNL A   1      45.437  26.125  29.797  1.00  0.00     0.074 A 
ATOM     56  C   UNL A   1      45.818  24.821  29.291  1.00  0.00     0.031 C 
ATOM     57  C   UNL A   1      46.283  26.970  30.436  1.00  0.00     0.031 A 
BRANCH  44  58
ATOM     58  C   UNL A   1      43.685  32.279  32.240  1.00  0.00    -0.014 A 
ATOM     59  C   UNL A   1      43.433  32.424  33.613  1.00  0.00     0.009 A 
ATOM     60  C   UNL A   1      44.082  33.402  31.498  1.00  0.00     0.009 A 
ATOM     61  C   UNL A   1      43.550  33.675  34.223  1.00  0.00     0.001 A 
ATOM     62  C   UNL A   1      44.218  34.647  32.113  1.00  0.00     0.001 A 
ATOM     63  C   UNL A   1      43.944  34.784  33.474  1.00  0.00     0.000 A 
ENDBRANCH  44  58
BRANCH  45  64
ATOM     64  C   UNL A   1      42.160  23.545  27.624  1.00  0.00    -0.014 A 
ATOM     65  C   UNL A   1      42.478  23.379  26.268  1.00  0.00     0.009 A 
ATOM     66  C   UNL A   1      41.625  22.460  28.336  1.00  0.00     0.009 A 
ATOM     67  C   UNL A   1      42.248  22.155  25.635  1.00  0.00     0.001 A 
ATOM     68  C   UNL A   1      41.419  21.231  27.706  1.00  0.00     0.001 A 
ATOM     69  C   UNL A   1      41.723  21.082  26.355  1.00  0.00     0.000 A 
ENDBRANCH  45  64
BRANCH  57  70
ATOM     70  C   UNL A   1      47.690  26.492  30.640  1.00  0.00    -0.014 A 
ATOM     71  C   UNL A   1      48.677  26.712  29.668  1.00  0.00     0.009 A 
ATOM     72  C   UNL A   1      48.035  25.837  31.831  1.00  0.00     0.009 A 
ATOM     73  C   UNL A   1      49.980  26.255  29.873  1.00  0.00     0.001 A 
ATOM     74  C   UNL A   1      49.343  25.400  32.043  1.00  0.00     0.001 A 
ATOM     75  C   UNL A   1      50.312  25.602  31.061  1.00  0.00     0.000 A 
ENDBRANCH  57  70
ENDBRANCH  31  32
ENDBRANCH  24  26
ENDBRANCH  23  24
ENDBRANCH  22  23
ENDBRANCH  21  22
ENDBRANCH   1  21
TORSDOF 16
ENDMDL
