MODEL 1
REMARK VINA RESULT:     -10.4      0.000      0.000
REMARK SMILES CC(C)(C)[N@H+](CCC(=O)Nc1ccccc1F)CC(=O)OCCOC(=O)c1ccc(-c2c3nc(c(-c4ccccc4)c4ccc([nH]4)c(-c4ccccc4)c4nc(c(-c5ccccc5)c5ccc2[nH]5)C=C4)C=C3)cc1
REMARK SMILES IDX 21 1 19 2 20 3 18 4 5 5 2 7 1 8 3 9 4 10 6 11 7 12 8 13 9 14
REMARK SMILES IDX 10 15 11 17 12 18 16 19 13 20 15 21 17 22 14 23 22 24 23 25
REMARK SMILES IDX 24 26 25 27 26 28 27 29 28 30 74 31 29 32 73 33 30 34 31 35
REMARK SMILES IDX 32 36 67 37 33 38 72 39 66 40 68 41 34 42 71 43 65 44 64 45
REMARK SMILES IDX 35 47 57 48 42 49 56 50 43 51 46 52 55 53 69 54 44 55 45 56
REMARK SMILES IDX 54 58 70 59 47 60 36 61 37 62 41 63 38 64 40 65 39 66 58 67
REMARK SMILES IDX 59 68 63 69 60 70 62 71 61 72 48 73 49 74 53 75 50 76 52 77
REMARK SMILES IDX 51 78
REMARK H PARENT 5 6 10 16 68 46 46 57
REMARK Flexibility Score: inf
ROOT
ATOM      1  O   UNL A   1      30.720  27.908  24.709  1.00  0.00    -0.458 OA
ENDROOT
BRANCH   1   2
ATOM      2  C   UNL A   1      30.089  27.174  23.753  1.00  0.00     0.361 C 
ATOM      3  O   UNL A   1      28.970  27.405  23.306  1.00  0.00    -0.245 OA
BRANCH   2   4
ATOM      4  C   UNL A   1      31.050  26.201  23.104  1.00  0.00     0.386 C 
BRANCH   4   5
ATOM      5  N   UNL A   1      31.823  25.362  24.042  1.00  0.00    -0.321 N 
ATOM      6  H   UNL A   1      31.527  25.593  24.990  1.00  0.00     0.349 HD
BRANCH   5   7
ATOM      7  C   UNL A   1      33.295  25.684  23.954  1.00  0.00     0.090 C 
ATOM      8  C   UNL A   1      33.641  26.758  22.892  1.00  0.00     0.078 C 
ATOM      9  C   UNL A   1      34.017  24.391  23.504  1.00  0.00     0.078 C 
ATOM     10  C   UNL A   1      33.921  26.173  25.287  1.00  0.00     0.078 C 
ENDBRANCH   5   7
BRANCH   5  11
ATOM     11  C   UNL A   1      31.521  23.919  23.897  1.00  0.00     0.273 C 
BRANCH  11  12
ATOM     12  C   UNL A   1      30.713  23.154  24.954  1.00  0.00     0.161 C 
BRANCH  12  13
ATOM     13  C   UNL A   1      31.043  23.004  26.434  1.00  0.00     0.230 C 
ATOM     14  O   UNL A   1      30.274  23.534  27.251  1.00  0.00    -0.275 OA
ATOM     15  N   UNL A   1      32.076  22.306  26.964  1.00  0.00    -0.323 N 
ATOM     16  H   UNL A   1      31.990  22.156  27.933  1.00  0.00     0.170 HD
BRANCH  15  17
ATOM     17  C   UNL A   1      33.238  21.758  26.416  1.00  0.00     0.077 A 
ATOM     18  C   UNL A   1      33.085  20.608  25.633  1.00  0.00     0.029 A 
ATOM     19  C   UNL A   1      34.512  22.294  26.583  1.00  0.00     0.146 A 
ATOM     20  C   UNL A   1      34.164  20.109  24.901  1.00  0.00     0.002 A 
ATOM     21  C   UNL A   1      35.597  21.789  25.870  1.00  0.00     0.041 A 
ATOM     22  F   UNL A   1      34.714  23.326  27.416  1.00  0.00    -0.205 F 
ATOM     23  C   UNL A   1      35.415  20.715  25.001  1.00  0.00     0.003 A 
ENDBRANCH  15  17
ENDBRANCH  12  13
ENDBRANCH  11  12
ENDBRANCH   5  11
ENDBRANCH   4   5
ENDBRANCH   2   4
ENDBRANCH   1   2
BRANCH   1  24
ATOM     24  C   UNL A   1      30.999  29.265  24.336  1.00  0.00     0.274 C 
BRANCH  24  25
ATOM     25  C   UNL A   1      32.339  29.682  24.947  1.00  0.00     0.275 C 
BRANCH  25  26
ATOM     26  O   UNL A   1      32.207  29.875  26.376  1.00  0.00    -0.458 OA
BRANCH  26  27
ATOM     27  C   UNL A   1      32.739  31.012  26.879  1.00  0.00     0.338 C 
ATOM     28  O   UNL A   1      32.217  32.120  26.898  1.00  0.00    -0.246 OA
BRANCH  27  29
ATOM     29  C   UNL A   1      34.087  30.779  27.444  1.00  0.00     0.060 A 
ATOM     30  C   UNL A   1      34.589  29.496  27.669  1.00  0.00     0.016 A 
ATOM     31  C   UNL A   1      34.827  31.887  27.865  1.00  0.00     0.016 A 
ATOM     32  C   UNL A   1      35.794  29.328  28.366  1.00  0.00     0.010 A 
ATOM     33  C   UNL A   1      36.068  31.714  28.488  1.00  0.00     0.010 A 
ATOM     34  C   UNL A   1      36.560  30.429  28.780  1.00  0.00    -0.014 A 
BRANCH  34  35
ATOM     35  C   UNL A   1      37.852  30.287  29.524  1.00  0.00     0.031 A 
ATOM     36  C   UNL A   1      39.001  29.515  28.914  1.00  0.00     0.074 A 
ATOM     37  C   UNL A   1      38.018  30.792  30.765  1.00  0.00     0.049 A 
ATOM     38  N   UNL A   1      40.043  28.974  29.495  1.00  0.00    -0.248 NA
ATOM     39  C   UNL A   1      38.958  29.315  27.456  1.00  0.00     0.031 C 
ATOM     40  C   UNL A   1      37.057  31.624  31.488  1.00  0.00     0.029 A 
ATOM     41  N   UNL A   1      39.067  30.660  31.648  1.00  0.00    -0.354 N 
ATOM     42  C   UNL A   1      40.734  28.302  28.492  1.00  0.00     0.074 A 
ATOM     43  C   UNL A   1      40.004  28.522  27.261  1.00  0.00     0.031 C 
ATOM     44  C   UNL A   1      37.566  31.948  32.685  1.00  0.00     0.029 A 
ATOM     45  C   UNL A   1      38.831  31.248  32.868  1.00  0.00     0.049 A 
ATOM     46  H   UNL A   1      39.903  30.189  31.427  1.00  0.00     0.167 HD
ATOM     47  C   UNL A   1      41.860  27.553  28.592  1.00  0.00     0.031 A 
ATOM     48  C   UNL A   1      39.500  31.174  34.036  1.00  0.00     0.031 A 
ATOM     49  C   UNL A   1      42.616  27.374  29.806  1.00  0.00     0.049 A 
ATOM     50  C   UNL A   1      40.714  30.300  34.147  1.00  0.00     0.074 A 
ATOM     51  C   UNL A   1      43.769  26.632  30.005  1.00  0.00     0.029 A 
ATOM     52  N   UNL A   1      42.309  27.964  31.020  1.00  0.00    -0.354 N 
ATOM     53  N   UNL A   1      41.287  29.564  33.225  1.00  0.00    -0.248 NA
ATOM     54  C   UNL A   1      41.353  30.221  35.468  1.00  0.00     0.031 C 
ATOM     55  C   UNL A   1      44.139  26.745  31.350  1.00  0.00     0.029 A 
ATOM     56  C   UNL A   1      43.245  27.598  31.974  1.00  0.00     0.049 A 
ATOM     57  H   UNL A   1      41.540  28.556  31.183  1.00  0.00     0.167 HD
ATOM     58  C   UNL A   1      42.351  28.934  33.856  1.00  0.00     0.074 A 
ATOM     59  C   UNL A   1      42.362  29.394  35.229  1.00  0.00     0.031 C 
ATOM     60  C   UNL A   1      43.237  28.047  33.341  1.00  0.00     0.031 A 
BRANCH  47  61
ATOM     61  C   UNL A   1      42.327  26.816  27.365  1.00  0.00    -0.014 A 
ATOM     62  C   UNL A   1      43.266  27.370  26.480  1.00  0.00     0.009 A 
ATOM     63  C   UNL A   1      41.862  25.511  27.130  1.00  0.00     0.009 A 
ATOM     64  C   UNL A   1      43.709  26.638  25.374  1.00  0.00     0.001 A 
ATOM     65  C   UNL A   1      42.328  24.773  26.040  1.00  0.00     0.001 A 
ATOM     66  C   UNL A   1      43.246  25.341  25.158  1.00  0.00     0.000 A 
ENDBRANCH  47  61
BRANCH  48  67
ATOM     67  C   UNL A   1      38.960  31.881  35.229  1.00  0.00    -0.014 A 
ATOM     68  C   UNL A   1      39.201  33.248  35.422  1.00  0.00     0.009 A 
ATOM     69  C   UNL A   1      38.166  31.191  36.160  1.00  0.00     0.009 A 
ATOM     70  C   UNL A   1      38.650  33.912  36.522  1.00  0.00     0.001 A 
ATOM     71  C   UNL A   1      37.590  31.863  37.238  1.00  0.00     0.001 A 
ATOM     72  C   UNL A   1      37.835  33.222  37.420  1.00  0.00     0.000 A 
ENDBRANCH  48  67
BRANCH  60  73
ATOM     73  C   UNL A   1      44.305  27.540  34.266  1.00  0.00    -0.014 A 
ATOM     74  C   UNL A   1      45.519  28.227  34.418  1.00  0.00     0.009 A 
ATOM     75  C   UNL A   1      44.091  26.363  35.000  1.00  0.00     0.009 A 
ATOM     76  C   UNL A   1      46.514  27.723  35.260  1.00  0.00     0.001 A 
ATOM     77  C   UNL A   1      45.077  25.874  35.857  1.00  0.00     0.001 A 
ATOM     78  C   UNL A   1      46.291  26.549  35.979  1.00  0.00     0.000 A 
ENDBRANCH  60  73
ENDBRANCH  34  35
ENDBRANCH  27  29
ENDBRANCH  26  27
ENDBRANCH  25  26
ENDBRANCH  24  25
ENDBRANCH   1  24
TORSDOF 17
ENDMDL
MODEL 2
REMARK VINA RESULT:     -10.3      3.670      6.853
REMARK SMILES CC(C)(C)[N@H+](CCC(=O)Nc1ccccc1F)CC(=O)OCCOC(=O)c1ccc(-c2c3nc(c(-c4ccccc4)c4ccc([nH]4)c(-c4ccccc4)c4nc(c(-c5ccccc5)c5ccc2[nH]5)C=C4)C=C3)cc1
REMARK SMILES IDX 21 1 19 2 20 3 18 4 5 5 2 7 1 8 3 9 4 10 6 11 7 12 8 13 9 14
REMARK SMILES IDX 10 15 11 17 12 18 16 19 13 20 15 21 17 22 14 23 22 24 23 25
REMARK SMILES IDX 24 26 25 27 26 28 27 29 28 30 74 31 29 32 73 33 30 34 31 35
REMARK SMILES IDX 32 36 67 37 33 38 72 39 66 40 68 41 34 42 71 43 65 44 64 45
REMARK SMILES IDX 35 47 57 48 42 49 56 50 43 51 46 52 55 53 69 54 44 55 45 56
REMARK SMILES IDX 54 58 70 59 47 60 36 61 37 62 41 63 38 64 40 65 39 66 58 67
REMARK SMILES IDX 59 68 63 69 60 70 62 71 61 72 48 73 49 74 53 75 50 76 52 77
REMARK SMILES IDX 51 78
REMARK H PARENT 5 6 10 16 68 46 46 57
REMARK Flexibility Score: inf
ROOT
ATOM      1  O   UNL A   1      32.861  28.916  25.548  1.00  0.00    -0.458 OA
ENDROOT
BRANCH   1   2
ATOM      2  C   UNL A   1      32.815  28.783  24.195  1.00  0.00     0.361 C 
ATOM      3  O   UNL A   1      33.557  29.353  23.402  1.00  0.00    -0.245 OA
BRANCH   2   4
ATOM      4  C   UNL A   1      31.918  27.629  23.800  1.00  0.00     0.386 C 
BRANCH   4   5
ATOM      5  N   UNL A   1      32.284  26.323  24.384  1.00  0.00    -0.321 N 
ATOM      6  H   UNL A   1      33.024  26.479  25.068  1.00  0.00     0.349 HD
BRANCH   5   7
ATOM      7  C   UNL A   1      32.851  25.407  23.326  1.00  0.00     0.090 C 
ATOM      8  C   UNL A   1      31.895  24.262  22.908  1.00  0.00     0.078 C 
ATOM      9  C   UNL A   1      34.096  24.722  23.939  1.00  0.00     0.078 C 
ATOM     10  C   UNL A   1      33.266  26.128  22.016  1.00  0.00     0.078 C 
ENDBRANCH   5   7
BRANCH   5  11
ATOM     11  C   UNL A   1      31.178  25.718  25.162  1.00  0.00     0.273 C 
BRANCH  11  12
ATOM     12  C   UNL A   1      31.441  24.890  26.428  1.00  0.00     0.161 C 
BRANCH  12  13
ATOM     13  C   UNL A   1      30.869  23.519  26.766  1.00  0.00     0.230 C 
ATOM     14  O   UNL A   1      29.767  23.481  27.335  1.00  0.00    -0.275 OA
ATOM     15  N   UNL A   1      31.420  22.318  26.466  1.00  0.00    -0.323 N 
ATOM     16  H   UNL A   1      30.798  21.564  26.577  1.00  0.00     0.170 HD
BRANCH  15  17
ATOM     17  C   UNL A   1      32.691  21.934  26.033  1.00  0.00     0.077 A 
ATOM     18  C   UNL A   1      33.765  22.245  26.874  1.00  0.00     0.029 A 
ATOM     19  C   UNL A   1      32.942  21.250  24.846  1.00  0.00     0.146 A 
ATOM     20  C   UNL A   1      35.038  21.735  26.606  1.00  0.00     0.002 A 
ATOM     21  C   UNL A   1      34.212  20.755  24.563  1.00  0.00     0.041 A 
ATOM     22  F   UNL A   1      31.955  21.035  23.962  1.00  0.00    -0.205 F 
ATOM     23  C   UNL A   1      35.256  20.968  25.463  1.00  0.00     0.003 A 
ENDBRANCH  15  17
ENDBRANCH  12  13
ENDBRANCH  11  12
ENDBRANCH   5  11
ENDBRANCH   4   5
ENDBRANCH   2   4
ENDBRANCH   1   2
BRANCH   1  24
ATOM     24  C   UNL A   1      32.023  29.953  26.078  1.00  0.00     0.274 C 
BRANCH  24  25
ATOM     25  C   UNL A   1      32.867  30.865  26.973  1.00  0.00     0.275 C 
BRANCH  25  26
ATOM     26  O   UNL A   1      33.956  30.122  27.570  1.00  0.00    -0.458 OA
BRANCH  26  27
ATOM     27  C   UNL A   1      34.839  30.836  28.303  1.00  0.00     0.338 C 
ATOM     28  O   UNL A   1      34.659  31.945  28.793  1.00  0.00    -0.246 OA
BRANCH  27  29
ATOM     29  C   UNL A   1      36.119  30.112  28.474  1.00  0.00     0.060 A 
ATOM     30  C   UNL A   1      36.497  29.546  29.692  1.00  0.00     0.016 A 
ATOM     31  C   UNL A   1      37.018  30.097  27.403  1.00  0.00     0.016 A 
ATOM     32  C   UNL A   1      37.790  29.026  29.851  1.00  0.00     0.010 A 
ATOM     33  C   UNL A   1      38.277  29.504  27.546  1.00  0.00     0.010 A 
ATOM     34  C   UNL A   1      38.700  28.986  28.783  1.00  0.00    -0.014 A 
BRANCH  34  35
ATOM     35  C   UNL A   1      40.087  28.436  28.917  1.00  0.00     0.031 A 
ATOM     36  C   UNL A   1      41.235  29.349  29.287  1.00  0.00     0.074 A 
ATOM     37  C   UNL A   1      40.365  27.139  28.670  1.00  0.00     0.049 A 
ATOM     38  N   UNL A   1      42.522  29.180  29.114  1.00  0.00    -0.248 NA
ATOM     39  C   UNL A   1      40.880  30.629  29.920  1.00  0.00     0.031 C 
ATOM     40  C   UNL A   1      39.386  26.093  28.371  1.00  0.00     0.029 A 
ATOM     41  N   UNL A   1      41.574  26.481  28.615  1.00  0.00    -0.354 N 
ATOM     42  C   UNL A   1      43.123  30.360  29.540  1.00  0.00     0.074 A 
ATOM     43  C   UNL A   1      42.060  31.229  30.000  1.00  0.00     0.031 C 
ATOM     44  C   UNL A   1      40.025  24.928  28.193  1.00  0.00     0.029 A 
ATOM     45  C   UNL A   1      41.463  25.164  28.238  1.00  0.00     0.049 A 
ATOM     46  H   UNL A   1      42.434  26.913  28.825  1.00  0.00     0.167 HD
ATOM     47  C   UNL A   1      44.437  30.696  29.529  1.00  0.00     0.031 A 
ATOM     48  C   UNL A   1      42.395  24.258  27.883  1.00  0.00     0.031 A 
ATOM     49  C   UNL A   1      45.501  29.813  29.120  1.00  0.00     0.049 A 
ATOM     50  C   UNL A   1      43.840  24.658  27.823  1.00  0.00     0.074 A 
ATOM     51  C   UNL A   1      46.863  30.065  29.073  1.00  0.00     0.029 A 
ATOM     52  N   UNL A   1      45.326  28.502  28.712  1.00  0.00    -0.354 N 
ATOM     53  N   UNL A   1      44.386  25.816  28.104  1.00  0.00    -0.248 NA
ATOM     54  C   UNL A   1      44.791  23.634  27.367  1.00  0.00     0.031 C 
ATOM     55  C   UNL A   1      47.508  28.916  28.601  1.00  0.00     0.029 A 
ATOM     56  C   UNL A   1      46.552  27.934  28.405  1.00  0.00     0.049 A 
ATOM     57  H   UNL A   1      44.458  28.041  28.650  1.00  0.00     0.167 HD
ATOM     58  C   UNL A   1      45.743  25.660  27.856  1.00  0.00     0.074 A 
ATOM     59  C   UNL A   1      45.941  24.291  27.429  1.00  0.00     0.031 C 
ATOM     60  C   UNL A   1      46.736  26.577  27.965  1.00  0.00     0.031 A 
BRANCH  47  61
ATOM     61  C   UNL A   1      44.809  32.100  29.922  1.00  0.00    -0.014 A 
ATOM     62  C   UNL A   1      44.754  33.165  29.010  1.00  0.00     0.009 A 
ATOM     63  C   UNL A   1      45.158  32.369  31.257  1.00  0.00     0.009 A 
ATOM     64  C   UNL A   1      45.065  34.464  29.422  1.00  0.00     0.001 A 
ATOM     65  C   UNL A   1      45.441  33.671  31.672  1.00  0.00     0.001 A 
ATOM     66  C   UNL A   1      45.401  34.717  30.752  1.00  0.00     0.000 A 
ENDBRANCH  47  61
BRANCH  48  67
ATOM     67  C   UNL A   1      41.963  22.901  27.453  1.00  0.00    -0.014 A 
ATOM     68  C   UNL A   1      41.807  22.595  26.093  1.00  0.00     0.009 A 
ATOM     69  C   UNL A   1      41.744  21.893  28.406  1.00  0.00     0.009 A 
ATOM     70  C   UNL A   1      41.447  21.304  25.699  1.00  0.00     0.001 A 
ATOM     71  C   UNL A   1      41.417  20.596  28.008  1.00  0.00     0.001 A 
ATOM     72  C   UNL A   1      41.266  20.304  26.654  1.00  0.00     0.000 A 
ENDBRANCH  48  67
BRANCH  60  73
ATOM     73  C   UNL A   1      48.127  26.112  27.643  1.00  0.00    -0.014 A 
ATOM     74  C   UNL A   1      48.935  25.509  28.619  1.00  0.00     0.009 A 
ATOM     75  C   UNL A   1      48.632  26.275  26.344  1.00  0.00     0.009 A 
ATOM     76  C   UNL A   1      50.237  25.111  28.308  1.00  0.00     0.001 A 
ATOM     77  C   UNL A   1      49.926  25.857  26.030  1.00  0.00     0.001 A 
ATOM     78  C   UNL A   1      50.731  25.284  27.015  1.00  0.00     0.000 A 
ENDBRANCH  60  73
ENDBRANCH  34  35
ENDBRANCH  27  29
ENDBRANCH  26  27
ENDBRANCH  25  26
ENDBRANCH  24  25
ENDBRANCH   1  24
TORSDOF 17
ENDMDL
MODEL 3
REMARK VINA RESULT:     -10.2      2.746      6.907
REMARK SMILES CC(C)(C)[N@H+](CCC(=O)Nc1ccccc1F)CC(=O)OCCOC(=O)c1ccc(-c2c3nc(c(-c4ccccc4)c4ccc([nH]4)c(-c4ccccc4)c4nc(c(-c5ccccc5)c5ccc2[nH]5)C=C4)C=C3)cc1
REMARK SMILES IDX 21 1 19 2 20 3 18 4 5 5 2 7 1 8 3 9 4 10 6 11 7 12 8 13 9 14
REMARK SMILES IDX 10 15 11 17 12 18 16 19 13 20 15 21 17 22 14 23 22 24 23 25
REMARK SMILES IDX 24 26 25 27 26 28 27 29 28 30 74 31 29 32 73 33 30 34 31 35
REMARK SMILES IDX 32 36 67 37 33 38 72 39 66 40 68 41 34 42 71 43 65 44 64 45
REMARK SMILES IDX 35 47 57 48 42 49 56 50 43 51 46 52 55 53 69 54 44 55 45 56
REMARK SMILES IDX 54 58 70 59 47 60 36 61 37 62 41 63 38 64 40 65 39 66 58 67
REMARK SMILES IDX 59 68 63 69 60 70 62 71 61 72 48 73 49 74 53 75 50 76 52 77
REMARK SMILES IDX 51 78
REMARK H PARENT 5 6 10 16 68 46 46 57
REMARK Flexibility Score: inf
ROOT
ATOM      1  O   UNL A   1      35.556  22.269  24.001  1.00  0.00    -0.458 OA
ENDROOT
BRANCH   1   2
ATOM      2  C   UNL A   1      34.548  22.958  23.400  1.00  0.00     0.361 C 
ATOM      3  O   UNL A   1      34.604  23.466  22.285  1.00  0.00    -0.245 OA
BRANCH   2   4
ATOM      4  C   UNL A   1      33.250  22.780  24.159  1.00  0.00     0.386 C 
BRANCH   4   5
ATOM      5  N   UNL A   1      32.457  24.012  24.344  1.00  0.00    -0.321 N 
ATOM      6  H   UNL A   1      33.103  24.801  24.378  1.00  0.00     0.349 HD
BRANCH   5   7
ATOM      7  C   UNL A   1      31.731  23.984  25.667  1.00  0.00     0.090 C 
ATOM      8  C   UNL A   1      32.670  24.000  26.899  1.00  0.00     0.078 C 
ATOM      9  C   UNL A   1      30.960  22.644  25.734  1.00  0.00     0.078 C 
ATOM     10  C   UNL A   1      30.730  25.153  25.869  1.00  0.00     0.078 C 
ENDBRANCH   5   7
BRANCH   5  11
ATOM     11  C   UNL A   1      31.576  24.299  23.189  1.00  0.00     0.273 C 
BRANCH  11  12
ATOM     12  C   UNL A   1      31.698  25.602  22.386  1.00  0.00     0.161 C 
BRANCH  12  13
ATOM     13  C   UNL A   1      32.931  26.485  22.247  1.00  0.00     0.230 C 
ATOM     14  O   UNL A   1      33.652  26.312  21.252  1.00  0.00    -0.275 OA
ATOM     15  N   UNL A   1      33.307  27.485  23.080  1.00  0.00    -0.323 N 
ATOM     16  H   UNL A   1      34.005  28.067  22.703  1.00  0.00     0.170 HD
BRANCH  15  17
ATOM     17  C   UNL A   1      32.906  27.856  24.366  1.00  0.00     0.077 A 
ATOM     18  C   UNL A   1      33.652  27.340  25.432  1.00  0.00     0.029 A 
ATOM     19  C   UNL A   1      31.843  28.712  24.640  1.00  0.00     0.146 A 
ATOM     20  C   UNL A   1      33.435  27.807  26.731  1.00  0.00     0.002 A 
ATOM     21  C   UNL A   1      31.609  29.167  25.935  1.00  0.00     0.041 A 
ATOM     22  F   UNL A   1      31.037  29.135  23.654  1.00  0.00    -0.205 F 
ATOM     23  C   UNL A   1      32.429  28.739  26.978  1.00  0.00     0.003 A 
ENDBRANCH  15  17
ENDBRANCH  12  13
ENDBRANCH  11  12
ENDBRANCH   5  11
ENDBRANCH   4   5
ENDBRANCH   2   4
ENDBRANCH   1   2
BRANCH   1  24
ATOM     24  C   UNL A   1      35.936  22.768  25.291  1.00  0.00     0.274 C 
BRANCH  24  25
ATOM     25  C   UNL A   1      37.400  23.214  25.239  1.00  0.00     0.275 C 
BRANCH  25  26
ATOM     26  O   UNL A   1      38.174  22.532  26.255  1.00  0.00    -0.458 OA
BRANCH  26  27
ATOM     27  C   UNL A   1      39.460  22.926  26.394  1.00  0.00     0.338 C 
ATOM     28  O   UNL A   1      40.459  22.289  26.082  1.00  0.00    -0.246 OA
BRANCH  27  29
ATOM     29  C   UNL A   1      39.556  24.278  26.988  1.00  0.00     0.060 A 
ATOM     30  C   UNL A   1      40.291  25.303  26.390  1.00  0.00     0.016 A 
ATOM     31  C   UNL A   1      38.979  24.491  28.243  1.00  0.00     0.016 A 
ATOM     32  C   UNL A   1      40.496  26.509  27.076  1.00  0.00     0.010 A 
ATOM     33  C   UNL A   1      39.121  25.726  28.886  1.00  0.00     0.010 A 
ATOM     34  C   UNL A   1      39.910  26.748  28.330  1.00  0.00    -0.014 A 
BRANCH  34  35
ATOM     35  C   UNL A   1      40.106  28.024  29.089  1.00  0.00     0.031 A 
ATOM     36  C   UNL A   1      41.267  28.167  30.049  1.00  0.00     0.074 A 
ATOM     37  C   UNL A   1      39.243  29.056  28.982  1.00  0.00     0.049 A 
ATOM     38  N   UNL A   1      41.426  29.006  31.042  1.00  0.00    -0.248 NA
ATOM     39  C   UNL A   1      42.387  27.229  29.872  1.00  0.00     0.031 C 
ATOM     40  C   UNL A   1      38.109  29.134  28.060  1.00  0.00     0.029 A 
ATOM     41  N   UNL A   1      39.181  30.242  29.679  1.00  0.00    -0.354 N 
ATOM     42  C   UNL A   1      42.620  28.645  31.658  1.00  0.00     0.074 A 
ATOM     43  C   UNL A   1      43.155  27.525  30.912  1.00  0.00     0.031 C 
ATOM     44  C   UNL A   1      37.484  30.308  28.227  1.00  0.00     0.029 A 
ATOM     45  C   UNL A   1      38.091  31.012  29.350  1.00  0.00     0.049 A 
ATOM     46  H   UNL A   1      39.851  30.511  30.348  1.00  0.00     0.167 HD
ATOM     47  C   UNL A   1      43.206  29.183  32.757  1.00  0.00     0.031 A 
ATOM     48  C   UNL A   1      37.573  32.115  29.927  1.00  0.00     0.031 A 
ATOM     49  C   UNL A   1      42.701  30.330  33.471  1.00  0.00     0.049 A 
ATOM     50  C   UNL A   1      38.199  32.669  31.173  1.00  0.00     0.074 A 
ATOM     51  C   UNL A   1      43.225  30.946  34.596  1.00  0.00     0.029 A 
ATOM     52  N   UNL A   1      41.572  31.047  33.114  1.00  0.00    -0.354 N 
ATOM     53  N   UNL A   1      39.255  32.244  31.824  1.00  0.00    -0.248 NA
ATOM     54  C   UNL A   1      37.543  33.835  31.781  1.00  0.00     0.031 C 
ATOM     55  C   UNL A   1      42.391  32.016  34.941  1.00  0.00     0.029 A 
ATOM     56  C   UNL A   1      41.378  32.095  34.000  1.00  0.00     0.049 A 
ATOM     57  H   UNL A   1      40.993  30.844  32.345  1.00  0.00     0.167 HD
ATOM     58  C   UNL A   1      39.387  33.089  32.918  1.00  0.00     0.074 A 
ATOM     59  C   UNL A   1      38.322  34.066  32.828  1.00  0.00     0.031 C 
ATOM     60  C   UNL A   1      40.307  33.051  33.912  1.00  0.00     0.031 A 
BRANCH  47  61
ATOM     61  C   UNL A   1      44.438  28.510  33.300  1.00  0.00    -0.014 A 
ATOM     62  C   UNL A   1      45.729  28.915  32.927  1.00  0.00     0.009 A 
ATOM     63  C   UNL A   1      44.297  27.491  34.257  1.00  0.00     0.009 A 
ATOM     64  C   UNL A   1      46.851  28.296  33.485  1.00  0.00     0.001 A 
ATOM     65  C   UNL A   1      45.419  26.893  34.833  1.00  0.00     0.001 A 
ATOM     66  C   UNL A   1      46.696  27.291  34.441  1.00  0.00     0.000 A 
ENDBRANCH  47  61
BRANCH  48  67
ATOM     67  C   UNL A   1      36.323  32.705  29.378  1.00  0.00    -0.014 A 
ATOM     68  C   UNL A   1      36.368  33.627  28.323  1.00  0.00     0.009 A 
ATOM     69  C   UNL A   1      35.073  32.313  29.887  1.00  0.00     0.009 A 
ATOM     70  C   UNL A   1      35.184  34.139  27.784  1.00  0.00     0.001 A 
ATOM     71  C   UNL A   1      33.893  32.800  29.324  1.00  0.00     0.001 A 
ATOM     72  C   UNL A   1      33.950  33.715  28.276  1.00  0.00     0.000 A 
ENDBRANCH  48  67
BRANCH  60  73
ATOM     73  C   UNL A   1      40.212  34.117  34.966  1.00  0.00    -0.014 A 
ATOM     74  C   UNL A   1      39.451  33.923  36.128  1.00  0.00     0.009 A 
ATOM     75  C   UNL A   1      40.900  35.328  34.794  1.00  0.00     0.009 A 
ATOM     76  C   UNL A   1      39.350  34.938  37.082  1.00  0.00     0.001 A 
ATOM     77  C   UNL A   1      40.816  36.332  35.760  1.00  0.00     0.001 A 
ATOM     78  C   UNL A   1      40.033  36.140  36.898  1.00  0.00     0.000 A 
ENDBRANCH  60  73
ENDBRANCH  34  35
ENDBRANCH  27  29
ENDBRANCH  26  27
ENDBRANCH  25  26
ENDBRANCH  24  25
ENDBRANCH   1  24
TORSDOF 17
ENDMDL
