MODEL 1
REMARK VINA RESULT:     -11.4      0.000      0.000
REMARK SMILES CC(=O)NS(=O)(=O)c1cc(-c2ccn(C(F)F)c(=O)c2)ccc1C(=O)OCCOC(=O)c1ccc(-c2c3nc(c(-c4ccccc4)c4ccc([nH]4)c(-c4ccccc4)c4nc(c(-c5ccccc5)c5ccc2[nH]5)C=C4)C=C3)cc1
REMARK SMILES IDX 27 1 26 2 24 3 25 4 23 5 8 6 9 7 10 8 22 9 21 10 5 11 6 12
REMARK SMILES IDX 7 13 4 14 1 15 2 16 3 17 11 19 12 20 20 21 13 22 18 23 14 24
REMARK SMILES IDX 19 25 15 26 16 27 17 28 28 29 29 30 30 31 31 32 32 33 33 34
REMARK SMILES IDX 79 35 34 36 78 37 35 38 36 39 37 40 72 41 38 42 77 43 71 44
REMARK SMILES IDX 73 45 39 46 76 47 70 48 69 49 40 51 62 52 47 53 61 54 48 55
REMARK SMILES IDX 51 56 60 57 74 58 49 59 50 60 59 62 75 63 52 64 41 65 42 66
REMARK SMILES IDX 46 67 43 68 45 69 44 70 63 71 64 72 68 73 65 74 67 75 66 76
REMARK SMILES IDX 53 77 54 78 58 79 55 80 57 81 56 82
REMARK H PARENT 4 18 73 50 51 61
REMARK Flexibility Score: inf
ROOT
ATOM      1  C   UNL A   1      31.771  27.626  27.415  1.00  0.00     0.275 C 
ENDROOT
BRANCH   1   2
ATOM      2  O   UNL A   1      32.218  26.699  26.404  1.00  0.00    -0.458 OA
BRANCH   2   3
ATOM      3  C   UNL A   1      31.271  26.057  25.700  1.00  0.00     0.339 C 
ATOM      4  O   UNL A   1      30.225  26.545  25.298  1.00  0.00    -0.246 OA
BRANCH   3   5
ATOM      5  C   UNL A   1      31.677  24.675  25.319  1.00  0.00     0.080 A 
ATOM      6  C   UNL A   1      32.472  24.292  24.230  1.00  0.00     0.103 A 
ATOM      7  C   UNL A   1      32.836  22.941  24.073  1.00  0.00     0.032 A 
ATOM      8  C   UNL A   1      32.306  21.949  24.902  1.00  0.00    -0.017 A 
ATOM      9  C   UNL A   1      31.210  23.666  26.191  1.00  0.00     0.018 A 
ATOM     10  C   UNL A   1      31.485  22.316  25.963  1.00  0.00     0.010 A 
BRANCH   6  11
ATOM     11  S   UNL A   1      32.973  25.454  22.987  1.00  0.00     0.264 S 
ATOM     12  O   UNL A   1      31.767  25.971  22.379  1.00  0.00    -0.201 OA
ATOM     13  O   UNL A   1      34.052  24.867  22.228  1.00  0.00    -0.201 OA
BRANCH  11  14
ATOM     14  N   UNL A   1      33.628  26.743  23.828  1.00  0.00    -0.249 N 
ATOM     15  C   UNL A   1      34.169  28.348  21.978  1.00  0.00     0.115 C 
ATOM     16  C   UNL A   1      33.642  28.075  23.364  1.00  0.00     0.230 C 
ATOM     17  O   UNL A   1      33.424  28.979  24.160  1.00  0.00    -0.274 OA
ATOM     18  H   UNL A   1      34.031  26.560  24.707  1.00  0.00     0.183 HD
ENDBRANCH  11  14
ENDBRANCH   6  11
BRANCH   8  19
ATOM     19  C   UNL A   1      32.535  20.533  24.585  1.00  0.00    -0.011 A 
ATOM     20  C   UNL A   1      32.969  19.588  25.596  1.00  0.00     0.027 A 
ATOM     21  C   UNL A   1      32.313  20.104  23.332  1.00  0.00     0.080 A 
ATOM     22  C   UNL A   1      33.162  18.303  25.283  1.00  0.00     0.095 A 
ATOM     23  C   UNL A   1      32.522  18.672  22.970  1.00  0.00     0.255 A 
ATOM     24  N   UNL A   1      32.950  17.844  23.996  1.00  0.00    -0.258 N 
ATOM     25  O   UNL A   1      32.306  18.327  21.814  1.00  0.00    -0.269 OA
BRANCH  24  26
ATOM     26  C   UNL A   1      33.184  16.462  23.666  1.00  0.00     0.451 C 
ATOM     27  F   UNL A   1      34.329  16.316  22.959  1.00  0.00    -0.185 F 
ATOM     28  F   UNL A   1      33.280  15.706  24.787  1.00  0.00    -0.185 F 
ENDBRANCH  24  26
ENDBRANCH   8  19
ENDBRANCH   3   5
ENDBRANCH   2   3
ENDBRANCH   1   2
BRANCH   1  29
ATOM     29  C   UNL A   1      32.391  28.997  27.163  1.00  0.00     0.275 C 
BRANCH  29  30
ATOM     30  O   UNL A   1      33.776  28.957  27.553  1.00  0.00    -0.458 OA
BRANCH  30  31
ATOM     31  C   UNL A   1      34.343  30.149  27.843  1.00  0.00     0.338 C 
ATOM     32  O   UNL A   1      33.824  31.251  27.842  1.00  0.00    -0.246 OA
BRANCH  31  33
ATOM     33  C   UNL A   1      35.755  29.933  28.192  1.00  0.00     0.060 A 
ATOM     34  C   UNL A   1      36.741  30.105  27.222  1.00  0.00     0.016 A 
ATOM     35  C   UNL A   1      36.087  29.447  29.457  1.00  0.00     0.016 A 
ATOM     36  C   UNL A   1      38.058  29.732  27.492  1.00  0.00     0.010 A 
ATOM     37  C   UNL A   1      37.420  29.143  29.749  1.00  0.00     0.010 A 
ATOM     38  C   UNL A   1      38.415  29.247  28.760  1.00  0.00    -0.014 A 
BRANCH  38  39
ATOM     39  C   UNL A   1      39.809  28.793  29.035  1.00  0.00     0.031 A 
ATOM     40  C   UNL A   1      40.768  29.694  29.772  1.00  0.00     0.074 A 
ATOM     41  C   UNL A   1      40.226  27.570  28.650  1.00  0.00     0.049 A 
ATOM     42  N   UNL A   1      42.055  29.548  29.971  1.00  0.00    -0.248 NA
ATOM     43  C   UNL A   1      40.209  30.925  30.353  1.00  0.00     0.031 C 
ATOM     44  C   UNL A   1      39.406  26.566  27.970  1.00  0.00     0.029 A 
ATOM     45  N   UNL A   1      41.448  26.958  28.793  1.00  0.00    -0.354 N 
ATOM     46  C   UNL A   1      42.469  30.694  30.637  1.00  0.00     0.074 A 
ATOM     47  C   UNL A   1      41.297  31.523  30.821  1.00  0.00     0.031 C 
ATOM     48  C   UNL A   1      40.131  25.448  27.802  1.00  0.00     0.029 A 
ATOM     49  C   UNL A   1      41.487  25.683  28.287  1.00  0.00     0.049 A 
ATOM     50  H   UNL A   1      42.222  27.394  29.219  1.00  0.00     0.167 HD
ATOM     51  C   UNL A   1      43.713  31.034  31.052  1.00  0.00     0.031 A 
ATOM     52  C   UNL A   1      42.505  24.806  28.189  1.00  0.00     0.031 A 
ATOM     53  C   UNL A   1      44.876  30.197  30.920  1.00  0.00     0.049 A 
ATOM     54  C   UNL A   1      43.877  25.206  28.648  1.00  0.00     0.074 A 
ATOM     55  C   UNL A   1      46.178  30.460  31.317  1.00  0.00     0.029 A 
ATOM     56  N   UNL A   1      44.874  28.928  30.369  1.00  0.00    -0.354 N 
ATOM     57  N   UNL A   1      44.265  26.325  29.209  1.00  0.00    -0.248 NA
ATOM     58  C   UNL A   1      44.956  24.231  28.436  1.00  0.00     0.031 C 
ATOM     59  C   UNL A   1      46.969  29.356  30.981  1.00  0.00     0.029 A 
ATOM     60  C   UNL A   1      46.152  28.394  30.409  1.00  0.00     0.049 A 
ATOM     61  H   UNL A   1      44.083  28.471  30.002  1.00  0.00     0.167 HD
ATOM     62  C   UNL A   1      45.632  26.190  29.412  1.00  0.00     0.074 A 
ATOM     63  C   UNL A   1      46.001  24.870  28.942  1.00  0.00     0.031 C 
ATOM     64  C   UNL A   1      46.506  27.086  29.930  1.00  0.00     0.031 A 
BRANCH  51  65
ATOM     65  C   UNL A   1      43.891  32.399  31.655  1.00  0.00    -0.014 A 
ATOM     66  C   UNL A   1      43.758  32.615  33.034  1.00  0.00     0.009 A 
ATOM     67  C   UNL A   1      44.232  33.478  30.823  1.00  0.00     0.009 A 
ATOM     68  C   UNL A   1      43.937  33.895  33.566  1.00  0.00     0.001 A 
ATOM     69  C   UNL A   1      44.432  34.750  31.361  1.00  0.00     0.001 A 
ATOM     70  C   UNL A   1      44.277  34.959  32.730  1.00  0.00     0.000 A 
ENDBRANCH  51  65
BRANCH  52  71
ATOM     71  C   UNL A   1      42.274  23.470  27.584  1.00  0.00    -0.014 A 
ATOM     72  C   UNL A   1      41.766  22.416  28.360  1.00  0.00     0.009 A 
ATOM     73  C   UNL A   1      42.552  23.244  26.227  1.00  0.00     0.009 A 
ATOM     74  C   UNL A   1      41.552  21.160  27.789  1.00  0.00     0.001 A 
ATOM     75  C   UNL A   1      42.313  21.994  25.653  1.00  0.00     0.001 A 
ATOM     76  C   UNL A   1      41.817  20.952  26.436  1.00  0.00     0.000 A 
ENDBRANCH  52  71
BRANCH  64  77
ATOM     77  C   UNL A   1      47.942  26.661  30.022  1.00  0.00    -0.014 A 
ATOM     78  C   UNL A   1      48.396  25.892  31.103  1.00  0.00     0.009 A 
ATOM     79  C   UNL A   1      48.842  27.012  29.005  1.00  0.00     0.009 A 
ATOM     80  C   UNL A   1      49.736  25.506  31.179  1.00  0.00     0.001 A 
ATOM     81  C   UNL A   1      50.177  26.608  29.074  1.00  0.00     0.001 A 
ATOM     82  C   UNL A   1      50.623  25.863  30.164  1.00  0.00     0.000 A 
ENDBRANCH  64  77
ENDBRANCH  38  39
ENDBRANCH  31  33
ENDBRANCH  30  31
ENDBRANCH  29  30
ENDBRANCH   1  29
TORSDOF 15
ENDMDL
MODEL 2
REMARK VINA RESULT:     -11.3      5.231      9.543
REMARK SMILES CC(=O)NS(=O)(=O)c1cc(-c2ccn(C(F)F)c(=O)c2)ccc1C(=O)OCCOC(=O)c1ccc(-c2c3nc(c(-c4ccccc4)c4ccc([nH]4)c(-c4ccccc4)c4nc(c(-c5ccccc5)c5ccc2[nH]5)C=C4)C=C3)cc1
REMARK SMILES IDX 27 1 26 2 24 3 25 4 23 5 8 6 9 7 10 8 22 9 21 10 5 11 6 12
REMARK SMILES IDX 7 13 4 14 1 15 2 16 3 17 11 19 12 20 20 21 13 22 18 23 14 24
REMARK SMILES IDX 19 25 15 26 16 27 17 28 28 29 29 30 30 31 31 32 32 33 33 34
REMARK SMILES IDX 79 35 34 36 78 37 35 38 36 39 37 40 72 41 38 42 77 43 71 44
REMARK SMILES IDX 73 45 39 46 76 47 70 48 69 49 40 51 62 52 47 53 61 54 48 55
REMARK SMILES IDX 51 56 60 57 74 58 49 59 50 60 59 62 75 63 52 64 41 65 42 66
REMARK SMILES IDX 46 67 43 68 45 69 44 70 63 71 64 72 68 73 65 74 67 75 66 76
REMARK SMILES IDX 53 77 54 78 58 79 55 80 57 81 56 82
REMARK H PARENT 4 18 73 50 51 61
REMARK Flexibility Score: inf
ROOT
ATOM      1  C   UNL A   1      43.676  24.402  26.862  1.00  0.00     0.275 C 
ENDROOT
BRANCH   1   2
ATOM      2  O   UNL A   1      43.203  23.045  26.984  1.00  0.00    -0.458 OA
BRANCH   2   3
ATOM      3  C   UNL A   1      42.212  22.818  27.863  1.00  0.00     0.339 C 
ATOM      4  O   UNL A   1      42.306  22.890  29.080  1.00  0.00    -0.246 OA
BRANCH   3   5
ATOM      5  C   UNL A   1      40.897  22.589  27.200  1.00  0.00     0.080 A 
ATOM      6  C   UNL A   1      40.420  21.392  26.650  1.00  0.00     0.103 A 
ATOM      7  C   UNL A   1      39.108  21.331  26.143  1.00  0.00     0.032 A 
ATOM      8  C   UNL A   1      38.317  22.478  26.049  1.00  0.00    -0.017 A 
ATOM      9  C   UNL A   1      40.054  23.722  27.163  1.00  0.00     0.018 A 
ATOM     10  C   UNL A   1      38.796  23.681  26.558  1.00  0.00     0.010 A 
BRANCH   6  11
ATOM     11  S   UNL A   1      41.453  19.958  26.498  1.00  0.00     0.264 S 
ATOM     12  O   UNL A   1      40.774  19.038  25.612  1.00  0.00    -0.201 OA
ATOM     13  O   UNL A   1      41.915  19.591  27.815  1.00  0.00    -0.201 OA
BRANCH  11  14
ATOM     14  N   UNL A   1      42.798  20.473  25.646  1.00  0.00    -0.249 N 
ATOM     15  C   UNL A   1      44.300  18.468  25.787  1.00  0.00     0.115 C 
ATOM     16  C   UNL A   1      43.713  19.614  25.002  1.00  0.00     0.230 C 
ATOM     17  O   UNL A   1      44.154  19.938  23.907  1.00  0.00    -0.274 OA
ATOM     18  H   UNL A   1      42.963  21.441  25.592  1.00  0.00     0.183 HD
ENDBRANCH  11  14
ENDBRANCH   6  11
BRANCH   8  19
ATOM     19  C   UNL A   1      37.039  22.427  25.326  1.00  0.00    -0.011 A 
ATOM     20  C   UNL A   1      36.548  23.561  24.566  1.00  0.00     0.027 A 
ATOM     21  C   UNL A   1      36.322  21.292  25.353  1.00  0.00     0.080 A 
ATOM     22  C   UNL A   1      35.386  23.486  23.910  1.00  0.00     0.095 A 
ATOM     23  C   UNL A   1      35.024  21.193  24.624  1.00  0.00     0.255 A 
ATOM     24  N   UNL A   1      34.629  22.330  23.936  1.00  0.00    -0.258 N 
ATOM     25  O   UNL A   1      34.406  20.136  24.678  1.00  0.00    -0.269 OA
BRANCH  24  26
ATOM     26  C   UNL A   1      33.367  22.269  23.244  1.00  0.00     0.451 C 
ATOM     27  F   UNL A   1      32.331  22.399  24.106  1.00  0.00    -0.185 F 
ATOM     28  F   UNL A   1      33.274  23.253  22.318  1.00  0.00    -0.185 F 
ENDBRANCH  24  26
ENDBRANCH   8  19
ENDBRANCH   3   5
ENDBRANCH   2   3
ENDBRANCH   1   2
BRANCH   1  29
ATOM     29  C   UNL A   1      43.394  24.917  25.454  1.00  0.00     0.275 C 
BRANCH  29  30
ATOM     30  O   UNL A   1      42.158  25.654  25.469  1.00  0.00    -0.458 OA
BRANCH  30  31
ATOM     31  C   UNL A   1      42.258  26.982  25.242  1.00  0.00     0.338 C 
ATOM     32  O   UNL A   1      42.681  27.548  24.251  1.00  0.00    -0.246 OA
BRANCH  31  33
ATOM     33  C   UNL A   1      41.750  27.706  26.418  1.00  0.00     0.060 A 
ATOM     34  C   UNL A   1      42.231  28.982  26.704  1.00  0.00     0.016 A 
ATOM     35  C   UNL A   1      40.878  27.067  27.299  1.00  0.00     0.016 A 
ATOM     36  C   UNL A   1      41.893  29.602  27.907  1.00  0.00     0.010 A 
ATOM     37  C   UNL A   1      40.481  27.720  28.470  1.00  0.00     0.010 A 
ATOM     38  C   UNL A   1      41.011  28.979  28.806  1.00  0.00    -0.014 A 
BRANCH  38  39
ATOM     39  C   UNL A   1      40.692  29.611  30.118  1.00  0.00     0.031 A 
ATOM     40  C   UNL A   1      39.490  30.512  30.252  1.00  0.00     0.074 A 
ATOM     41  C   UNL A   1      41.454  29.373  31.204  1.00  0.00     0.049 A 
ATOM     42  N   UNL A   1      39.134  31.273  31.257  1.00  0.00    -0.248 NA
ATOM     43  C   UNL A   1      38.574  30.574  29.102  1.00  0.00     0.031 C 
ATOM     44  C   UNL A   1      42.621  28.490  31.248  1.00  0.00     0.029 A 
ATOM     45  N   UNL A   1      41.348  29.846  32.490  1.00  0.00    -0.354 N 
ATOM     46  C   UNL A   1      37.997  31.952  30.837  1.00  0.00     0.074 A 
ATOM     47  C   UNL A   1      37.713  31.505  29.490  1.00  0.00     0.031 C 
ATOM     48  C   UNL A   1      43.090  28.445  32.505  1.00  0.00     0.029 A 
ATOM     49  C   UNL A   1      42.311  29.356  33.337  1.00  0.00     0.049 A 
ATOM     50  H   UNL A   1      40.648  30.476  32.776  1.00  0.00     0.167 HD
ATOM     51  C   UNL A   1      37.258  32.870  31.505  1.00  0.00     0.031 A 
ATOM     52  C   UNL A   1      42.565  29.629  34.632  1.00  0.00     0.031 A 
ATOM     53  C   UNL A   1      37.500  33.283  32.861  1.00  0.00     0.049 A 
ATOM     54  C   UNL A   1      41.739  30.655  35.350  1.00  0.00     0.074 A 
ATOM     55  C   UNL A   1      36.799  34.207  33.620  1.00  0.00     0.029 A 
ATOM     56  N   UNL A   1      38.508  32.786  33.669  1.00  0.00    -0.354 N 
ATOM     57  N   UNL A   1      40.712  31.341  34.912  1.00  0.00    -0.248 NA
ATOM     58  C   UNL A   1      42.125  30.962  36.735  1.00  0.00     0.031 C 
ATOM     59  C   UNL A   1      37.400  34.285  34.881  1.00  0.00     0.029 A 
ATOM     60  C   UNL A   1      38.452  33.384  34.917  1.00  0.00     0.049 A 
ATOM     61  H   UNL A   1      39.167  32.107  33.397  1.00  0.00     0.167 HD
ATOM     62  C   UNL A   1      40.333  32.164  35.964  1.00  0.00     0.074 A 
ATOM     63  C   UNL A   1      41.220  31.871  37.071  1.00  0.00     0.031 C 
ATOM     64  C   UNL A   1      39.345  33.091  36.004  1.00  0.00     0.031 A 
BRANCH  51  65
ATOM     65  C   UNL A   1      36.133  33.527  30.757  1.00  0.00    -0.014 A 
ATOM     66  C   UNL A   1      36.281  33.942  29.426  1.00  0.00     0.009 A 
ATOM     67  C   UNL A   1      34.893  33.699  31.393  1.00  0.00     0.009 A 
ATOM     68  C   UNL A   1      35.214  34.543  28.753  1.00  0.00     0.001 A 
ATOM     69  C   UNL A   1      33.823  34.281  30.711  1.00  0.00     0.001 A 
ATOM     70  C   UNL A   1      33.987  34.709  29.395  1.00  0.00     0.000 A 
ENDBRANCH  51  65
BRANCH  52  71
ATOM     71  C   UNL A   1      43.691  28.950  35.322  1.00  0.00    -0.014 A 
ATOM     72  C   UNL A   1      45.001  29.438  35.195  1.00  0.00     0.009 A 
ATOM     73  C   UNL A   1      43.461  27.816  36.117  1.00  0.00     0.009 A 
ATOM     74  C   UNL A   1      46.058  28.796  35.843  1.00  0.00     0.001 A 
ATOM     75  C   UNL A   1      44.516  27.192  36.784  1.00  0.00     0.001 A 
ATOM     76  C   UNL A   1      45.814  27.680  36.643  1.00  0.00     0.000 A 
ENDBRANCH  52  71
BRANCH  64  77
ATOM     77  C   UNL A   1      39.170  33.843  37.290  1.00  0.00    -0.014 A 
ATOM     78  C   UNL A   1      39.721  35.123  37.454  1.00  0.00     0.009 A 
ATOM     79  C   UNL A   1      38.425  33.278  38.335  1.00  0.00     0.009 A 
ATOM     80  C   UNL A   1      39.553  35.812  38.657  1.00  0.00     0.001 A 
ATOM     81  C   UNL A   1      38.243  33.978  39.530  1.00  0.00     0.001 A 
ATOM     82  C   UNL A   1      38.814  35.240  39.692  1.00  0.00     0.000 A 
ENDBRANCH  64  77
ENDBRANCH  38  39
ENDBRANCH  31  33
ENDBRANCH  30  31
ENDBRANCH  29  30
ENDBRANCH   1  29
TORSDOF 15
ENDMDL
MODEL 3
REMARK VINA RESULT:     -11.0      3.291      7.860
REMARK SMILES CC(=O)NS(=O)(=O)c1cc(-c2ccn(C(F)F)c(=O)c2)ccc1C(=O)OCCOC(=O)c1ccc(-c2c3nc(c(-c4ccccc4)c4ccc([nH]4)c(-c4ccccc4)c4nc(c(-c5ccccc5)c5ccc2[nH]5)C=C4)C=C3)cc1
REMARK SMILES IDX 27 1 26 2 24 3 25 4 23 5 8 6 9 7 10 8 22 9 21 10 5 11 6 12
REMARK SMILES IDX 7 13 4 14 1 15 2 16 3 17 11 19 12 20 20 21 13 22 18 23 14 24
REMARK SMILES IDX 19 25 15 26 16 27 17 28 28 29 29 30 30 31 31 32 32 33 33 34
REMARK SMILES IDX 79 35 34 36 78 37 35 38 36 39 37 40 72 41 38 42 77 43 71 44
REMARK SMILES IDX 73 45 39 46 76 47 70 48 69 49 40 51 62 52 47 53 61 54 48 55
REMARK SMILES IDX 51 56 60 57 74 58 49 59 50 60 59 62 75 63 52 64 41 65 42 66
REMARK SMILES IDX 46 67 43 68 45 69 44 70 63 71 64 72 68 73 65 74 67 75 66 76
REMARK SMILES IDX 53 77 54 78 58 79 55 80 57 81 56 82
REMARK H PARENT 4 18 73 50 51 61
REMARK Flexibility Score: inf
ROOT
ATOM      1  C   UNL A   1      37.689  21.807  25.380  1.00  0.00     0.275 C 
ENDROOT
BRANCH   1   2
ATOM      2  O   UNL A   1      36.340  21.745  24.873  1.00  0.00    -0.458 OA
BRANCH   2   3
ATOM      3  C   UNL A   1      35.346  21.963  25.749  1.00  0.00     0.339 C 
ATOM      4  O   UNL A   1      35.272  21.498  26.877  1.00  0.00    -0.246 OA
BRANCH   3   5
ATOM      5  C   UNL A   1      34.360  22.968  25.261  1.00  0.00     0.080 A 
ATOM      6  C   UNL A   1      33.077  22.723  24.752  1.00  0.00     0.103 A 
ATOM      7  C   UNL A   1      32.239  23.805  24.422  1.00  0.00     0.032 A 
ATOM      8  C   UNL A   1      32.710  25.120  24.458  1.00  0.00    -0.017 A 
ATOM      9  C   UNL A   1      34.792  24.309  25.359  1.00  0.00     0.018 A 
ATOM     10  C   UNL A   1      33.996  25.370  24.925  1.00  0.00     0.010 A 
BRANCH   6  11
ATOM     11  S   UNL A   1      32.498  21.076  24.435  1.00  0.00     0.264 S 
ATOM     12  O   UNL A   1      32.318  20.959  23.004  1.00  0.00    -0.201 OA
ATOM     13  O   UNL A   1      31.461  20.769  25.389  1.00  0.00    -0.201 OA
BRANCH  11  14
ATOM     14  N   UNL A   1      33.791  20.078  24.796  1.00  0.00    -0.249 N 
ATOM     15  C   UNL A   1      32.649  17.887  25.231  1.00  0.00     0.115 C 
ATOM     16  C   UNL A   1      33.787  18.676  24.636  1.00  0.00     0.230 C 
ATOM     17  O   UNL A   1      34.794  18.130  24.206  1.00  0.00    -0.274 OA
ATOM     18  H   UNL A   1      34.610  20.497  25.145  1.00  0.00     0.183 HD
ENDBRANCH  11  14
ENDBRANCH   6  11
BRANCH   8  19
ATOM     19  C   UNL A   1      31.886  26.206  23.908  1.00  0.00    -0.011 A 
ATOM     20  C   UNL A   1      32.480  27.343  23.232  1.00  0.00     0.027 A 
ATOM     21  C   UNL A   1      30.550  26.126  24.017  1.00  0.00     0.080 A 
ATOM     22  C   UNL A   1      31.708  28.314  22.734  1.00  0.00     0.095 A 
ATOM     23  C   UNL A   1      29.676  27.201  23.464  1.00  0.00     0.255 A 
ATOM     24  N   UNL A   1      30.332  28.256  22.846  1.00  0.00    -0.258 N 
ATOM     25  O   UNL A   1      28.463  27.085  23.586  1.00  0.00    -0.269 OA
BRANCH  24  26
ATOM     26  C   UNL A   1      29.511  29.320  22.325  1.00  0.00     0.451 C 
ATOM     27  F   UNL A   1      29.089  30.140  23.317  1.00  0.00    -0.185 F 
ATOM     28  F   UNL A   1      30.197  30.063  21.424  1.00  0.00    -0.185 F 
ENDBRANCH  24  26
ENDBRANCH   8  19
ENDBRANCH   3   5
ENDBRANCH   2   3
ENDBRANCH   1   2
BRANCH   1  29
ATOM     29  C   UNL A   1      38.443  20.542  24.984  1.00  0.00     0.275 C 
BRANCH  29  30
ATOM     30  O   UNL A   1      39.121  20.024  26.144  1.00  0.00    -0.458 OA
BRANCH  30  31
ATOM     31  C   UNL A   1      40.460  19.887  26.034  1.00  0.00     0.338 C 
ATOM     32  O   UNL A   1      41.087  18.963  25.547  1.00  0.00    -0.246 OA
BRANCH  31  33
ATOM     33  C   UNL A   1      41.110  21.075  26.608  1.00  0.00     0.060 A 
ATOM     34  C   UNL A   1      41.167  21.231  27.992  1.00  0.00     0.016 A 
ATOM     35  C   UNL A   1      41.561  22.090  25.765  1.00  0.00     0.016 A 
ATOM     36  C   UNL A   1      41.617  22.432  28.541  1.00  0.00     0.010 A 
ATOM     37  C   UNL A   1      42.082  23.264  26.318  1.00  0.00     0.010 A 
ATOM     38  C   UNL A   1      42.083  23.464  27.710  1.00  0.00    -0.014 A 
BRANCH  38  39
ATOM     39  C   UNL A   1      42.511  24.770  28.289  1.00  0.00     0.031 A 
ATOM     40  C   UNL A   1      41.494  25.853  28.549  1.00  0.00     0.074 A 
ATOM     41  C   UNL A   1      43.802  24.995  28.607  1.00  0.00     0.049 A 
ATOM     42  N   UNL A   1      41.686  27.102  28.899  1.00  0.00    -0.248 NA
ATOM     43  C   UNL A   1      40.078  25.489  28.385  1.00  0.00     0.031 C 
ATOM     44  C   UNL A   1      44.896  24.034  28.459  1.00  0.00     0.029 A 
ATOM     45  N   UNL A   1      44.409  26.108  29.137  1.00  0.00    -0.354 N 
ATOM     46  C   UNL A   1      40.426  27.685  28.929  1.00  0.00     0.074 A 
ATOM     47  C   UNL A   1      39.474  26.654  28.575  1.00  0.00     0.031 C 
ATOM     48  C   UNL A   1      46.026  24.578  28.936  1.00  0.00     0.029 A 
ATOM     49  C   UNL A   1      45.757  25.953  29.346  1.00  0.00     0.049 A 
ATOM     50  H   UNL A   1      43.923  26.938  29.348  1.00  0.00     0.167 HD
ATOM     51  C   UNL A   1      40.087  28.965  29.218  1.00  0.00     0.031 A 
ATOM     52  C   UNL A   1      46.686  26.823  29.786  1.00  0.00     0.031 A 
ATOM     53  C   UNL A   1      41.018  29.985  29.620  1.00  0.00     0.049 A 
ATOM     54  C   UNL A   1      46.290  28.239  30.092  1.00  0.00     0.074 A 
ATOM     55  C   UNL A   1      40.763  31.311  29.935  1.00  0.00     0.029 A 
ATOM     56  N   UNL A   1      42.378  29.791  29.783  1.00  0.00    -0.354 N 
ATOM     57  N   UNL A   1      45.103  28.792  30.044  1.00  0.00    -0.248 NA
ATOM     58  C   UNL A   1      47.369  29.155  30.488  1.00  0.00     0.031 C 
ATOM     59  C   UNL A   1      41.976  31.924  30.266  1.00  0.00     0.029 A 
ATOM     60  C   UNL A   1      42.979  30.971  30.191  1.00  0.00     0.049 A 
ATOM     61  H   UNL A   1      42.850  28.940  29.633  1.00  0.00     0.167 HD
ATOM     62  C   UNL A   1      45.293  30.121  30.398  1.00  0.00     0.074 A 
ATOM     63  C   UNL A   1      46.704  30.284  30.687  1.00  0.00     0.031 C 
ATOM     64  C   UNL A   1      44.382  31.121  30.465  1.00  0.00     0.031 A 
BRANCH  51  65
ATOM     65  C   UNL A   1      38.643  29.348  29.065  1.00  0.00    -0.014 A 
ATOM     66  C   UNL A   1      38.110  29.719  27.822  1.00  0.00     0.009 A 
ATOM     67  C   UNL A   1      37.797  29.301  30.185  1.00  0.00     0.009 A 
ATOM     68  C   UNL A   1      36.759  30.062  27.709  1.00  0.00     0.001 A 
ATOM     69  C   UNL A   1      36.445  29.623  30.064  1.00  0.00     0.001 A 
ATOM     70  C   UNL A   1      35.929  30.011  28.829  1.00  0.00     0.000 A 
ENDBRANCH  51  65
BRANCH  52  71
ATOM     71  C   UNL A   1      48.100  26.391  29.917  1.00  0.00    -0.014 A 
ATOM     72  C   UNL A   1      48.577  25.881  31.135  1.00  0.00     0.009 A 
ATOM     73  C   UNL A   1      48.977  26.480  28.826  1.00  0.00     0.009 A 
ATOM     74  C   UNL A   1      49.908  25.479  31.257  1.00  0.00     0.001 A 
ATOM     75  C   UNL A   1      50.301  26.052  28.943  1.00  0.00     0.001 A 
ATOM     76  C   UNL A   1      50.766  25.557  30.161  1.00  0.00     0.000 A 
ENDBRANCH  52  71
BRANCH  64  77
ATOM     77  C   UNL A   1      44.884  32.474  30.875  1.00  0.00    -0.014 A 
ATOM     78  C   UNL A   1      44.941  32.839  32.228  1.00  0.00     0.009 A 
ATOM     79  C   UNL A   1      45.328  33.380  29.901  1.00  0.00     0.009 A 
ATOM     80  C   UNL A   1      45.407  34.103  32.597  1.00  0.00     0.001 A 
ATOM     81  C   UNL A   1      45.811  34.636  30.274  1.00  0.00     0.001 A 
ATOM     82  C   UNL A   1      45.843  34.999  31.620  1.00  0.00     0.000 A 
ENDBRANCH  64  77
ENDBRANCH  38  39
ENDBRANCH  31  33
ENDBRANCH  30  31
ENDBRANCH  29  30
ENDBRANCH   1  29
TORSDOF 15
ENDMDL
