MODEL 1
REMARK VINA RESULT:     -10.3      0.000      0.000
REMARK SMILES CCC1CCN(C(=O)NC[C@@H]2CC[C@H](C(=O)OCCOC(=O)c3ccc(-c4c5nc(c(-c6ccccc6)c6ccc([nH]6)c(-c6ccccc6)c6nc(c(-c7ccccc7)c7ccc4[nH]7)C=C6)C=C5)cc3)O2)CC1
REMARK SMILES IDX 18 1 17 2 15 3 16 4 14 5 11 6 12 7 71 8 13 9 10 10 9 11 3 12
REMARK SMILES IDX 4 13 73 14 5 15 72 16 6 17 7 18 8 19 2 21 1 22 19 23 20 24
REMARK SMILES IDX 21 25 22 26 23 27 24 28 70 29 25 30 69 31 26 32 27 33 28 34
REMARK SMILES IDX 63 35 29 36 68 37 62 38 64 39 30 40 67 41 61 42 60 43 31 45
REMARK SMILES IDX 53 46 38 47 52 48 39 49 42 50 51 51 65 52 40 53 41 54 50 56
REMARK SMILES IDX 66 57 43 58 32 59 33 60 37 61 34 62 36 63 35 64 54 65 55 66
REMARK SMILES IDX 59 67 56 68 58 69 57 70 44 71 45 72 49 73 46 74 48 75 47 76
REMARK H PARENT 9 20 64 44 42 55
REMARK Flexibility Score: inf
ROOT
ATOM      1  C   UNL A   1      31.799  29.465  26.091  1.00  0.00     0.274 C 
ENDROOT
BRANCH   1   2
ATOM      2  O   UNL A   1      32.304  29.024  24.814  1.00  0.00    -0.460 OA
BRANCH   2   3
ATOM      3  C   UNL A   1      31.549  28.104  24.150  1.00  0.00     0.335 C 
ATOM      4  O   UNL A   1      30.648  27.451  24.663  1.00  0.00    -0.249 OA
BRANCH   3   5
ATOM      5  C   UNL A   1      31.951  27.963  22.670  1.00  0.00     0.228 C 
ATOM      6  C   UNL A   1      32.282  25.748  22.036  1.00  0.00     0.138 C 
ATOM      7  C   UNL A   1      33.641  26.316  22.440  1.00  0.00     0.037 C 
ATOM      8  O   UNL A   1      31.349  26.845  22.026  1.00  0.00    -0.361 OA
ATOM      9  C   UNL A   1      33.436  27.813  22.409  1.00  0.00     0.047 C 
BRANCH   6  10
ATOM     10  C   UNL A   1      31.781  24.599  22.942  1.00  0.00     0.149 C 
BRANCH  10  11
ATOM     11  N   UNL A   1      31.936  24.843  24.369  1.00  0.00    -0.335 N 
ATOM     12  C   UNL A   1      36.548  23.131  24.055  1.00  0.00    -0.008 C 
ATOM     13  C   UNL A   1      36.306  23.960  25.340  1.00  0.00     0.025 C 
ATOM     14  C   UNL A   1      35.282  23.156  23.177  1.00  0.00     0.025 C 
ATOM     15  C   UNL A   1      34.983  23.621  26.041  1.00  0.00     0.121 C 
ATOM     16  C   UNL A   1      34.060  22.729  23.980  1.00  0.00     0.121 C 
ATOM     17  N   UNL A   1      33.878  23.659  25.081  1.00  0.00    -0.325 N 
ATOM     18  C   UNL A   1      32.844  24.521  25.310  1.00  0.00     0.317 C 
ATOM     19  O   UNL A   1      32.703  25.100  26.392  1.00  0.00    -0.249 OA
ATOM     20  H   UNL A   1      31.195  25.375  24.736  1.00  0.00     0.165 HD
BRANCH  12  21
ATOM     21  C   UNL A   1      37.037  21.710  24.406  1.00  0.00     0.000 C 
ATOM     22  C   UNL A   1      38.154  21.673  25.440  1.00  0.00     0.004 C 
ENDBRANCH  12  21
ENDBRANCH  10  11
ENDBRANCH   6  10
ENDBRANCH   3   5
ENDBRANCH   2   3
ENDBRANCH   1   2
BRANCH   1  23
ATOM     23  C   UNL A   1      32.684  28.999  27.251  1.00  0.00     0.275 C 
BRANCH  23  24
ATOM     24  O   UNL A   1      34.071  29.316  27.028  1.00  0.00    -0.458 OA
BRANCH  24  25
ATOM     25  C   UNL A   1      34.561  30.322  27.784  1.00  0.00     0.338 C 
ATOM     26  O   UNL A   1      33.960  31.303  28.194  1.00  0.00    -0.246 OA
BRANCH  25  27
ATOM     27  C   UNL A   1      35.935  30.012  28.201  1.00  0.00     0.060 A 
ATOM     28  C   UNL A   1      36.948  30.130  27.246  1.00  0.00     0.016 A 
ATOM     29  C   UNL A   1      36.214  29.516  29.474  1.00  0.00     0.016 A 
ATOM     30  C   UNL A   1      38.249  29.752  27.553  1.00  0.00     0.010 A 
ATOM     31  C   UNL A   1      37.524  29.132  29.783  1.00  0.00     0.010 A 
ATOM     32  C   UNL A   1      38.543  29.236  28.820  1.00  0.00    -0.014 A 
BRANCH  32  33
ATOM     33  C   UNL A   1      39.911  28.746  29.098  1.00  0.00     0.031 A 
ATOM     34  C   UNL A   1      40.873  29.615  29.854  1.00  0.00     0.074 A 
ATOM     35  C   UNL A   1      40.269  27.505  28.724  1.00  0.00     0.049 A 
ATOM     36  N   UNL A   1      42.126  29.391  30.159  1.00  0.00    -0.248 NA
ATOM     37  C   UNL A   1      40.355  30.906  30.336  1.00  0.00     0.031 C 
ATOM     38  C   UNL A   1      39.400  26.541  28.047  1.00  0.00     0.029 A 
ATOM     39  N   UNL A   1      41.459  26.840  28.873  1.00  0.00    -0.354 N 
ATOM     40  C   UNL A   1      42.552  30.519  30.848  1.00  0.00     0.074 A 
ATOM     41  C   UNL A   1      41.429  31.429  30.909  1.00  0.00     0.031 C 
ATOM     42  C   UNL A   1      40.085  25.402  27.850  1.00  0.00     0.029 A 
ATOM     43  C   UNL A   1      41.448  25.573  28.345  1.00  0.00     0.049 A 
ATOM     44  H   UNL A   1      42.245  27.234  29.315  1.00  0.00     0.167 HD
ATOM     45  C   UNL A   1      43.772  30.771  31.380  1.00  0.00     0.031 A 
ATOM     46  C   UNL A   1      42.434  24.662  28.251  1.00  0.00     0.031 A 
ATOM     47  C   UNL A   1      44.887  29.865  31.321  1.00  0.00     0.049 A 
ATOM     48  C   UNL A   1      43.797  24.996  28.786  1.00  0.00     0.074 A 
ATOM     49  C   UNL A   1      46.167  30.037  31.820  1.00  0.00     0.029 A 
ATOM     50  N   UNL A   1      44.853  28.614  30.726  1.00  0.00    -0.354 N 
ATOM     51  N   UNL A   1      44.198  26.079  29.408  1.00  0.00    -0.248 NA
ATOM     52  C   UNL A   1      44.846  23.984  28.600  1.00  0.00     0.031 C 
ATOM     53  C   UNL A   1      46.918  28.901  31.494  1.00  0.00     0.029 A 
ATOM     54  C   UNL A   1      46.093  28.008  30.830  1.00  0.00     0.049 A 
ATOM     55  H   UNL A   1      44.063  28.215  30.294  1.00  0.00     0.167 HD
ATOM     56  C   UNL A   1      45.540  25.872  29.699  1.00  0.00     0.074 A 
ATOM     57  C   UNL A   1      45.880  24.556  29.200  1.00  0.00     0.031 C 
ATOM     58  C   UNL A   1      46.412  26.700  30.323  1.00  0.00     0.031 A 
BRANCH  45  59
ATOM     59  C   UNL A   1      43.966  32.105  32.039  1.00  0.00    -0.014 A 
ATOM     60  C   UNL A   1      43.671  32.299  33.396  1.00  0.00     0.009 A 
ATOM     61  C   UNL A   1      44.469  33.181  31.289  1.00  0.00     0.009 A 
ATOM     62  C   UNL A   1      43.847  33.554  33.983  1.00  0.00     0.001 A 
ATOM     63  C   UNL A   1      44.663  34.428  31.884  1.00  0.00     0.001 A 
ATOM     64  C   UNL A   1      44.344  34.616  33.228  1.00  0.00     0.000 A 
ENDBRANCH  45  59
BRANCH  46  65
ATOM     65  C   UNL A   1      42.174  23.355  27.597  1.00  0.00    -0.014 A 
ATOM     66  C   UNL A   1      42.497  23.156  26.248  1.00  0.00     0.009 A 
ATOM     67  C   UNL A   1      41.599  22.301  28.323  1.00  0.00     0.009 A 
ATOM     68  C   UNL A   1      42.234  21.930  25.633  1.00  0.00     0.001 A 
ATOM     69  C   UNL A   1      41.359  21.069  27.713  1.00  0.00     0.001 A 
ATOM     70  C   UNL A   1      41.671  20.886  26.367  1.00  0.00     0.000 A 
ENDBRANCH  46  65
BRANCH  58  71
ATOM     71  C   UNL A   1      47.809  26.191  30.521  1.00  0.00    -0.014 A 
ATOM     72  C   UNL A   1      48.747  26.226  29.477  1.00  0.00     0.009 A 
ATOM     73  C   UNL A   1      48.198  25.694  31.774  1.00  0.00     0.009 A 
ATOM     74  C   UNL A   1      50.042  25.747  29.680  1.00  0.00     0.001 A 
ATOM     75  C   UNL A   1      49.500  25.236  31.979  1.00  0.00     0.001 A 
ATOM     76  C   UNL A   1      50.419  25.256  30.930  1.00  0.00     0.000 A 
ENDBRANCH  58  71
ENDBRANCH  32  33
ENDBRANCH  25  27
ENDBRANCH  24  25
ENDBRANCH  23  24
ENDBRANCH   1  23
TORSDOF 14
ENDMDL
MODEL 2
REMARK VINA RESULT:     -10.1      2.216      7.778
REMARK SMILES CCC1CCN(C(=O)NC[C@@H]2CC[C@H](C(=O)OCCOC(=O)c3ccc(-c4c5nc(c(-c6ccccc6)c6ccc([nH]6)c(-c6ccccc6)c6nc(c(-c7ccccc7)c7ccc4[nH]7)C=C6)C=C5)cc3)O2)CC1
REMARK SMILES IDX 18 1 17 2 15 3 16 4 14 5 11 6 12 7 71 8 13 9 10 10 9 11 3 12
REMARK SMILES IDX 4 13 73 14 5 15 72 16 6 17 7 18 8 19 2 21 1 22 19 23 20 24
REMARK SMILES IDX 21 25 22 26 23 27 24 28 70 29 25 30 69 31 26 32 27 33 28 34
REMARK SMILES IDX 63 35 29 36 68 37 62 38 64 39 30 40 67 41 61 42 60 43 31 45
REMARK SMILES IDX 53 46 38 47 52 48 39 49 42 50 51 51 65 52 40 53 41 54 50 56
REMARK SMILES IDX 66 57 43 58 32 59 33 60 37 61 34 62 36 63 35 64 54 65 55 66
REMARK SMILES IDX 59 67 56 68 58 69 57 70 44 71 45 72 49 73 46 74 48 75 47 76
REMARK H PARENT 9 20 64 44 42 55
REMARK Flexibility Score: inf
ROOT
ATOM      1  C   UNL A   1      38.034  21.141  25.274  1.00  0.00     0.274 C 
ENDROOT
BRANCH   1   2
ATOM      2  O   UNL A   1      36.646  20.773  25.410  1.00  0.00    -0.460 OA
BRANCH   2   3
ATOM      3  C   UNL A   1      35.738  21.621  24.849  1.00  0.00     0.335 C 
ATOM      4  O   UNL A   1      36.014  22.468  24.006  1.00  0.00    -0.249 OA
BRANCH   3   5
ATOM      5  C   UNL A   1      34.313  21.408  25.391  1.00  0.00     0.228 C 
ATOM      6  C   UNL A   1      33.239  23.407  25.907  1.00  0.00     0.138 C 
ATOM      7  C   UNL A   1      33.895  22.896  27.188  1.00  0.00     0.037 C 
ATOM      8  O   UNL A   1      33.378  22.372  24.916  1.00  0.00    -0.361 OA
ATOM      9  C   UNL A   1      34.176  21.440  26.900  1.00  0.00     0.047 C 
BRANCH   6  10
ATOM     10  C   UNL A   1      33.811  24.750  25.395  1.00  0.00     0.149 C 
BRANCH  10  11
ATOM     11  N   UNL A   1      33.977  24.824  23.950  1.00  0.00    -0.335 N 
ATOM     12  C   UNL A   1      30.227  28.019  23.787  1.00  0.00    -0.008 C 
ATOM     13  C   UNL A   1      31.094  28.051  22.506  1.00  0.00     0.025 C 
ATOM     14  C   UNL A   1      30.849  27.047  24.808  1.00  0.00     0.025 C 
ATOM     15  C   UNL A   1      31.457  26.654  21.982  1.00  0.00     0.121 C 
ATOM     16  C   UNL A   1      31.089  25.681  24.176  1.00  0.00     0.121 C 
ATOM     17  N   UNL A   1      32.011  25.838  23.064  1.00  0.00    -0.325 N 
ATOM     18  C   UNL A   1      33.272  25.334  22.923  1.00  0.00     0.317 C 
ATOM     19  O   UNL A   1      33.867  25.358  21.841  1.00  0.00    -0.249 OA
ATOM     20  H   UNL A   1      34.810  24.395  23.651  1.00  0.00     0.165 HD
BRANCH  12  21
ATOM     21  C   UNL A   1      28.755  27.707  23.444  1.00  0.00     0.000 C 
ATOM     22  C   UNL A   1      27.996  28.879  22.837  1.00  0.00     0.004 C 
ENDBRANCH  12  21
ENDBRANCH  10  11
ENDBRANCH   6  10
ENDBRANCH   3   5
ENDBRANCH   2   3
ENDBRANCH   1   2
BRANCH   1  23
ATOM     23  C   UNL A   1      38.934  19.919  25.062  1.00  0.00     0.275 C 
BRANCH  23  24
ATOM     24  O   UNL A   1      39.685  19.595  26.248  1.00  0.00    -0.458 OA
BRANCH  24  25
ATOM     25  C   UNL A   1      41.028  19.643  26.110  1.00  0.00     0.338 C 
ATOM     26  O   UNL A   1      41.747  18.826  25.556  1.00  0.00    -0.246 OA
BRANCH  25  27
ATOM     27  C   UNL A   1      41.535  20.930  26.603  1.00  0.00     0.060 A 
ATOM     28  C   UNL A   1      41.366  21.222  27.958  1.00  0.00     0.016 A 
ATOM     29  C   UNL A   1      42.077  21.879  25.735  1.00  0.00     0.016 A 
ATOM     30  C   UNL A   1      41.732  22.465  28.459  1.00  0.00     0.010 A 
ATOM     31  C   UNL A   1      42.443  23.132  26.238  1.00  0.00     0.010 A 
ATOM     32  C   UNL A   1      42.260  23.434  27.599  1.00  0.00    -0.014 A 
BRANCH  32  33
ATOM     33  C   UNL A   1      42.553  24.784  28.129  1.00  0.00     0.031 A 
ATOM     34  C   UNL A   1      43.963  25.154  28.483  1.00  0.00     0.074 A 
ATOM     35  C   UNL A   1      41.567  25.691  28.238  1.00  0.00     0.049 A 
ATOM     36  N   UNL A   1      44.421  26.265  29.003  1.00  0.00    -0.248 NA
ATOM     37  C   UNL A   1      44.997  24.143  28.213  1.00  0.00     0.031 C 
ATOM     38  C   UNL A   1      40.170  25.473  27.858  1.00  0.00     0.029 A 
ATOM     39  N   UNL A   1      41.595  26.986  28.690  1.00  0.00    -0.354 N 
ATOM     40  C   UNL A   1      45.790  26.079  29.141  1.00  0.00     0.074 A 
ATOM     41  C   UNL A   1      46.088  24.747  28.660  1.00  0.00     0.031 C 
ATOM     42  C   UNL A   1      39.476  26.602  28.083  1.00  0.00     0.029 A 
ATOM     43  C   UNL A   1      40.369  27.602  28.662  1.00  0.00     0.049 A 
ATOM     44  H   UNL A   1      42.415  27.429  29.005  1.00  0.00     0.167 HD
ATOM     45  C   UNL A   1      46.714  26.942  29.626  1.00  0.00     0.031 A 
ATOM     46  C   UNL A   1      40.003  28.829  29.078  1.00  0.00     0.031 A 
ATOM     47  C   UNL A   1      46.418  28.266  30.103  1.00  0.00     0.049 A 
ATOM     48  C   UNL A   1      41.035  29.740  29.679  1.00  0.00     0.074 A 
ATOM     49  C   UNL A   1      47.284  29.210  30.626  1.00  0.00     0.029 A 
ATOM     50  N   UNL A   1      45.153  28.833  30.111  1.00  0.00    -0.354 N 
ATOM     51  N   UNL A   1      42.322  29.541  29.834  1.00  0.00    -0.248 NA
ATOM     52  C   UNL A   1      40.562  31.042  30.168  1.00  0.00     0.031 C 
ATOM     53  C   UNL A   1      46.536  30.338  30.984  1.00  0.00     0.029 A 
ATOM     54  C   UNL A   1      45.212  30.109  30.645  1.00  0.00     0.049 A 
ATOM     55  H   UNL A   1      44.334  28.394  29.786  1.00  0.00     0.167 HD
ATOM     56  C   UNL A   1      42.813  30.697  30.425  1.00  0.00     0.074 A 
ATOM     57  C   UNL A   1      41.691  31.597  30.586  1.00  0.00     0.031 C 
ATOM     58  C   UNL A   1      44.083  30.987  30.801  1.00  0.00     0.031 A 
BRANCH  45  59
ATOM     59  C   UNL A   1      48.131  26.454  29.701  1.00  0.00    -0.014 A 
ATOM     60  C   UNL A   1      49.035  26.674  28.651  1.00  0.00     0.009 A 
ATOM     61  C   UNL A   1      48.571  25.777  30.850  1.00  0.00     0.009 A 
ATOM     62  C   UNL A   1      50.345  26.197  28.738  1.00  0.00     0.001 A 
ATOM     63  C   UNL A   1      49.887  25.321  30.942  1.00  0.00     0.001 A 
ATOM     64  C   UNL A   1      50.770  25.524  29.883  1.00  0.00     0.000 A 
ENDBRANCH  45  59
BRANCH  46  65
ATOM     65  C   UNL A   1      38.586  29.256  28.966  1.00  0.00    -0.014 A 
ATOM     66  C   UNL A   1      37.699  29.068  30.035  1.00  0.00     0.009 A 
ATOM     67  C   UNL A   1      38.115  29.852  27.786  1.00  0.00     0.009 A 
ATOM     68  C   UNL A   1      36.362  29.457  29.918  1.00  0.00     0.001 A 
ATOM     69  C   UNL A   1      36.785  30.261  27.680  1.00  0.00     0.001 A 
ATOM     70  C   UNL A   1      35.908  30.057  28.744  1.00  0.00     0.000 A 
ENDBRANCH  46  65
BRANCH  58  71
ATOM     71  C   UNL A   1      44.322  32.341  31.400  1.00  0.00    -0.014 A 
ATOM     72  C   UNL A   1      44.251  32.542  32.787  1.00  0.00     0.009 A 
ATOM     73  C   UNL A   1      44.647  33.422  30.568  1.00  0.00     0.009 A 
ATOM     74  C   UNL A   1      44.476  33.809  33.327  1.00  0.00     0.001 A 
ATOM     75  C   UNL A   1      44.892  34.684  31.112  1.00  0.00     0.001 A 
ATOM     76  C   UNL A   1      44.799  34.878  32.490  1.00  0.00     0.000 A 
ENDBRANCH  58  71
ENDBRANCH  32  33
ENDBRANCH  25  27
ENDBRANCH  24  25
ENDBRANCH  23  24
ENDBRANCH   1  23
TORSDOF 14
ENDMDL
MODEL 3
REMARK VINA RESULT:     -10.0      2.872      7.188
REMARK SMILES CCC1CCN(C(=O)NC[C@@H]2CC[C@H](C(=O)OCCOC(=O)c3ccc(-c4c5nc(c(-c6ccccc6)c6ccc([nH]6)c(-c6ccccc6)c6nc(c(-c7ccccc7)c7ccc4[nH]7)C=C6)C=C5)cc3)O2)CC1
REMARK SMILES IDX 18 1 17 2 15 3 16 4 14 5 11 6 12 7 71 8 13 9 10 10 9 11 3 12
REMARK SMILES IDX 4 13 73 14 5 15 72 16 6 17 7 18 8 19 2 21 1 22 19 23 20 24
REMARK SMILES IDX 21 25 22 26 23 27 24 28 70 29 25 30 69 31 26 32 27 33 28 34
REMARK SMILES IDX 63 35 29 36 68 37 62 38 64 39 30 40 67 41 61 42 60 43 31 45
REMARK SMILES IDX 53 46 38 47 52 48 39 49 42 50 51 51 65 52 40 53 41 54 50 56
REMARK SMILES IDX 66 57 43 58 32 59 33 60 37 61 34 62 36 63 35 64 54 65 55 66
REMARK SMILES IDX 59 67 56 68 58 69 57 70 44 71 45 72 49 73 46 74 48 75 47 76
REMARK H PARENT 9 20 64 44 42 55
REMARK Flexibility Score: inf
ROOT
ATOM      1  C   UNL A   1      32.276  31.153  26.885  1.00  0.00     0.274 C 
ENDROOT
BRANCH   1   2
ATOM      2  O   UNL A   1      31.407  30.067  27.267  1.00  0.00    -0.460 OA
BRANCH   2   3
ATOM      3  C   UNL A   1      31.876  28.808  27.037  1.00  0.00     0.335 C 
ATOM      4  O   UNL A   1      31.466  27.804  27.610  1.00  0.00    -0.249 OA
BRANCH   3   5
ATOM      5  C   UNL A   1      32.990  28.774  25.975  1.00  0.00     0.228 C 
ATOM      6  C   UNL A   1      32.748  27.011  24.475  1.00  0.00     0.138 C 
ATOM      7  C   UNL A   1      33.679  26.538  25.590  1.00  0.00     0.037 C 
ATOM      8  O   UNL A   1      32.522  28.418  24.678  1.00  0.00    -0.361 OA
ATOM      9  C   UNL A   1      34.131  27.817  26.256  1.00  0.00     0.047 C 
BRANCH   6  10
ATOM     10  C   UNL A   1      31.411  26.237  24.396  1.00  0.00     0.149 C 
BRANCH  10  11
ATOM     11  N   UNL A   1      31.046  25.537  25.619  1.00  0.00    -0.335 N 
ATOM     12  C   UNL A   1      32.945  21.412  23.702  1.00  0.00    -0.008 C 
ATOM     13  C   UNL A   1      32.773  21.331  25.238  1.00  0.00     0.025 C 
ATOM     14  C   UNL A   1      32.554  22.819  23.211  1.00  0.00     0.025 C 
ATOM     15  C   UNL A   1      31.423  21.874  25.728  1.00  0.00     0.121 C 
ATOM     16  C   UNL A   1      31.166  23.198  23.710  1.00  0.00     0.121 C 
ATOM     17  N   UNL A   1      31.177  23.201  25.162  1.00  0.00    -0.325 N 
ATOM     18  C   UNL A   1      30.993  24.251  26.016  1.00  0.00     0.317 C 
ATOM     19  O   UNL A   1      30.810  24.085  27.226  1.00  0.00    -0.249 OA
ATOM     20  H   UNL A   1      30.769  26.156  26.332  1.00  0.00     0.165 HD
BRANCH  12  21
ATOM     21  C   UNL A   1      32.174  20.270  23.005  1.00  0.00     0.000 C 
ATOM     22  C   UNL A   1      32.516  18.881  23.526  1.00  0.00     0.004 C 
ENDBRANCH  12  21
ENDBRANCH  10  11
ENDBRANCH   6  10
ENDBRANCH   3   5
ENDBRANCH   2   3
ENDBRANCH   1   2
BRANCH   1  23
ATOM     23  C   UNL A   1      31.681  32.518  27.244  1.00  0.00     0.275 C 
BRANCH  23  24
ATOM     24  O   UNL A   1      32.632  33.584  27.056  1.00  0.00    -0.458 OA
BRANCH  24  25
ATOM     25  C   UNL A   1      33.088  34.156  28.191  1.00  0.00     0.338 C 
ATOM     26  O   UNL A   1      32.526  34.999  28.875  1.00  0.00    -0.246 OA
BRANCH  25  27
ATOM     27  C   UNL A   1      34.338  33.510  28.610  1.00  0.00     0.060 A 
ATOM     28  C   UNL A   1      34.297  32.676  29.730  1.00  0.00     0.016 A 
ATOM     29  C   UNL A   1      35.550  33.793  27.980  1.00  0.00     0.016 A 
ATOM     30  C   UNL A   1      35.466  32.120  30.233  1.00  0.00     0.010 A 
ATOM     31  C   UNL A   1      36.728  33.236  28.489  1.00  0.00     0.010 A 
ATOM     32  C   UNL A   1      36.692  32.408  29.625  1.00  0.00    -0.014 A 
BRANCH  32  33
ATOM     33  C   UNL A   1      37.937  31.888  30.232  1.00  0.00     0.031 A 
ATOM     34  C   UNL A   1      38.587  30.661  29.662  1.00  0.00     0.074 A 
ATOM     35  C   UNL A   1      38.513  32.547  31.254  1.00  0.00     0.049 A 
ATOM     36  N   UNL A   1      39.652  30.022  30.075  1.00  0.00    -0.248 NA
ATOM     37  C   UNL A   1      37.959  30.079  28.465  1.00  0.00     0.031 C 
ATOM     38  C   UNL A   1      38.015  33.789  31.847  1.00  0.00     0.029 A 
ATOM     39  N   UNL A   1      39.651  32.265  31.964  1.00  0.00    -0.354 N 
ATOM     40  C   UNL A   1      39.809  28.952  29.203  1.00  0.00     0.074 A 
ATOM     41  C   UNL A   1      38.726  29.022  28.245  1.00  0.00     0.031 C 
ATOM     42  C   UNL A   1      38.853  34.169  32.826  1.00  0.00     0.029 A 
ATOM     43  C   UNL A   1      39.916  33.176  32.957  1.00  0.00     0.049 A 
ATOM     44  H   UNL A   1      40.222  31.485  31.781  1.00  0.00     0.167 HD
ATOM     45  C   UNL A   1      40.770  27.997  29.204  1.00  0.00     0.031 A 
ATOM     46  C   UNL A   1      40.894  33.195  33.881  1.00  0.00     0.031 A 
ATOM     47  C   UNL A   1      41.845  27.928  30.156  1.00  0.00     0.049 A 
ATOM     48  C   UNL A   1      41.905  32.084  33.904  1.00  0.00     0.074 A 
ATOM     49  C   UNL A   1      42.860  26.991  30.246  1.00  0.00     0.029 A 
ATOM     50  N   UNL A   1      42.046  28.838  31.182  1.00  0.00    -0.354 N 
ATOM     51  N   UNL A   1      42.026  31.059  33.095  1.00  0.00    -0.248 NA
ATOM     52  C   UNL A   1      42.912  32.130  34.974  1.00  0.00     0.031 C 
ATOM     53  C   UNL A   1      43.656  27.315  31.352  1.00  0.00     0.029 A 
ATOM     54  C   UNL A   1      43.159  28.477  31.922  1.00  0.00     0.049 A 
ATOM     55  H   UNL A   1      41.482  29.625  31.358  1.00  0.00     0.167 HD
ATOM     56  C   UNL A   1      43.127  30.348  33.548  1.00  0.00     0.074 A 
ATOM     57  C   UNL A   1      43.649  31.065  34.693  1.00  0.00     0.031 C 
ATOM     58  C   UNL A   1      43.659  29.201  33.060  1.00  0.00     0.031 A 
BRANCH  45  59
ATOM     59  C   UNL A   1      40.666  26.924  28.160  1.00  0.00    -0.014 A 
ATOM     60  C   UNL A   1      39.978  25.728  28.410  1.00  0.00     0.009 A 
ATOM     61  C   UNL A   1      41.255  27.124  26.901  1.00  0.00     0.009 A 
ATOM     62  C   UNL A   1      39.908  24.738  27.427  1.00  0.00     0.001 A 
ATOM     63  C   UNL A   1      41.165  26.141  25.914  1.00  0.00     0.001 A 
ATOM     64  C   UNL A   1      40.499  24.946  26.180  1.00  0.00     0.000 A 
ENDBRANCH  45  59
BRANCH  46  65
ATOM     65  C   UNL A   1      40.947  34.291  34.880  1.00  0.00    -0.014 A 
ATOM     66  C   UNL A   1      40.261  34.179  36.097  1.00  0.00     0.009 A 
ATOM     67  C   UNL A   1      41.684  35.456  34.618  1.00  0.00     0.009 A 
ATOM     68  C   UNL A   1      40.300  35.221  37.027  1.00  0.00     0.001 A 
ATOM     69  C   UNL A   1      41.741  36.485  35.558  1.00  0.00     0.001 A 
ATOM     70  C   UNL A   1      41.044  36.370  36.760  1.00  0.00     0.000 A 
ENDBRANCH  46  65
BRANCH  58  71
ATOM     71  C   UNL A   1      44.880  28.670  33.751  1.00  0.00    -0.014 A 
ATOM     72  C   UNL A   1      44.774  27.742  34.798  1.00  0.00     0.009 A 
ATOM     73  C   UNL A   1      46.153  29.084  33.330  1.00  0.00     0.009 A 
ATOM     74  C   UNL A   1      45.921  27.259  35.429  1.00  0.00     0.001 A 
ATOM     75  C   UNL A   1      47.299  28.584  33.950  1.00  0.00     0.001 A 
ATOM     76  C   UNL A   1      47.182  27.677  35.003  1.00  0.00     0.000 A 
ENDBRANCH  58  71
ENDBRANCH  32  33
ENDBRANCH  25  27
ENDBRANCH  24  25
ENDBRANCH  23  24
ENDBRANCH   1  23
TORSDOF 14
ENDMDL
