MODEL 1
REMARK VINA RESULT:     -11.0      0.000      0.000
REMARK SMILES CC(C)C[C@H](NC(=O)CNC(=O)[C@@H](NC(=O)OCc1ccccc1)C(C)C)C(=O)N[C@@H](C)C(=O)OCCOC(=O)c1ccc(-c2c3nc(c(-c4ccccc4)c4ccc([nH]4)c(-c4ccccc4)c4nc(c(-c5ccccc5)c5ccc2[nH]5)C=C4)C=C3)cc1
REMARK SMILES IDX 31 1 32 2 30 3 28 4 29 5 5 7 4 8 2 9 1 10 3 11 6 12 7 13
REMARK SMILES IDX 8 15 9 16 10 17 11 18 12 20 13 21 14 22 15 23 16 25 17 26
REMARK SMILES IDX 18 27 19 28 20 29 24 30 21 31 23 32 22 33 25 34 26 35 27 36
REMARK SMILES IDX 33 37 34 38 35 39 36 40 37 41 38 42 39 43 40 44 41 45 42 46
REMARK SMILES IDX 88 47 43 48 87 49 44 50 45 51 46 52 81 53 47 54 86 55 80 56
REMARK SMILES IDX 82 57 48 58 85 59 79 60 78 61 49 63 71 64 56 65 70 66 57 67
REMARK SMILES IDX 60 68 69 69 83 70 58 71 59 72 68 74 84 75 61 76 50 77 51 78
REMARK SMILES IDX 55 79 52 80 54 81 53 82 72 83 73 84 77 85 74 86 76 87 75 88
REMARK SMILES IDX 62 89 63 90 67 91 64 92 66 93 65 94
REMARK H PARENT 30 6 6 14 10 19 14 24 82 62 60 73
REMARK Flexibility Score: inf
ROOT
ATOM      1  C   UNL A   1      36.888  21.971  25.377  1.00  0.00     0.189 C 
ATOM      2  C   UNL A   1      37.405  23.407  25.445  1.00  0.00     0.043 C 
ENDROOT
BRANCH   1   3
ATOM      3  N   UNL A   1      35.948  21.754  26.488  1.00  0.00    -0.341 N 
ATOM      4  C   UNL A   1      34.594  21.570  26.491  1.00  0.00     0.243 C 
ATOM      5  O   UNL A   1      34.028  21.491  27.584  1.00  0.00    -0.273 OA
ATOM      6  H   UNL A   1      36.365  21.739  27.379  1.00  0.00     0.164 HD
BRANCH   4   7
ATOM      7  C   UNL A   1      33.817  21.283  25.190  1.00  0.00     0.171 C 
BRANCH   7   8
ATOM      8  C   UNL A   1      34.314  19.950  24.631  1.00  0.00     0.038 C 
BRANCH   8   9
ATOM      9  C   UNL A   1      33.404  18.704  24.584  1.00  0.00    -0.015 C 
ATOM     10  C   UNL A   1      32.540  18.698  23.321  1.00  0.00     0.007 C 
ATOM     11  C   UNL A   1      34.243  17.414  24.552  1.00  0.00     0.007 C 
ENDBRANCH   8   9
ENDBRANCH   7   8
BRANCH   7  12
ATOM     12  N   UNL A   1      33.883  22.487  24.313  1.00  0.00    -0.343 N 
ATOM     13  C   UNL A   1      33.969  23.835  24.386  1.00  0.00     0.240 C 
ATOM     14  H   UNL A   1      33.856  22.208  23.369  1.00  0.00     0.164 HD
ATOM     15  O   UNL A   1      34.319  24.391  23.334  1.00  0.00    -0.273 OA
BRANCH  13  16
ATOM     16  C   UNL A   1      33.767  24.706  25.622  1.00  0.00     0.216 C 
BRANCH  16  17
ATOM     17  N   UNL A   1      32.522  24.526  26.310  1.00  0.00    -0.345 N 
ATOM     18  C   UNL A   1      31.320  25.125  26.136  1.00  0.00     0.243 C 
ATOM     19  H   UNL A   1      32.546  23.853  27.029  1.00  0.00     0.164 HD
ATOM     20  O   UNL A   1      30.372  24.771  26.843  1.00  0.00    -0.273 OA
BRANCH  18  21
ATOM     21  C   UNL A   1      31.093  26.210  25.085  1.00  0.00     0.177 C 
BRANCH  21  22
ATOM     22  N   UNL A   1      32.273  27.040  24.784  1.00  0.00    -0.309 N 
ATOM     23  C   UNL A   1      32.463  28.380  24.832  1.00  0.00     0.408 C 
ATOM     24  H   UNL A   1      33.064  26.528  24.497  1.00  0.00     0.167 HD
ATOM     25  O   UNL A   1      33.525  28.897  24.506  1.00  0.00    -0.225 OA
BRANCH  23  26
ATOM     26  O   UNL A   1      31.408  29.007  25.344  1.00  0.00    -0.445 OA
BRANCH  26  27
ATOM     27  C   UNL A   1      31.028  30.310  24.899  1.00  0.00     0.270 C 
BRANCH  27  28
ATOM     28  C   UNL A   1      29.920  30.443  23.879  1.00  0.00    -0.011 A 
ATOM     29  C   UNL A   1      29.100  31.572  23.973  1.00  0.00     0.007 A 
ATOM     30  C   UNL A   1      29.677  29.530  22.840  1.00  0.00     0.007 A 
ATOM     31  C   UNL A   1      28.009  31.733  23.122  1.00  0.00     0.000 A 
ATOM     32  C   UNL A   1      28.570  29.675  22.004  1.00  0.00     0.000 A 
ATOM     33  C   UNL A   1      27.728  30.770  22.156  1.00  0.00     0.000 A 
ENDBRANCH  27  28
ENDBRANCH  26  27
ENDBRANCH  23  26
ENDBRANCH  21  22
BRANCH  21  34
ATOM     34  C   UNL A   1      30.215  25.702  23.931  1.00  0.00     0.015 C 
ATOM     35  C   UNL A   1      28.831  26.330  23.879  1.00  0.00     0.010 C 
ATOM     36  C   UNL A   1      30.963  25.944  22.635  1.00  0.00     0.010 C 
ENDBRANCH  21  34
ENDBRANCH  18  21
ENDBRANCH  16  17
ENDBRANCH  13  16
ENDBRANCH   7  12
ENDBRANCH   4   7
ENDBRANCH   1   3
BRANCH   1  37
ATOM     37  C   UNL A   1      38.094  21.005  25.295  1.00  0.00     0.328 C 
ATOM     38  O   UNL A   1      37.976  19.818  25.000  1.00  0.00    -0.250 OA
BRANCH  37  39
ATOM     39  O   UNL A   1      39.264  21.579  25.706  1.00  0.00    -0.461 OA
BRANCH  39  40
ATOM     40  C   UNL A   1      40.058  20.816  26.649  1.00  0.00     0.274 C 
BRANCH  40  41
ATOM     41  C   UNL A   1      41.465  20.479  26.095  1.00  0.00     0.275 C 
BRANCH  41  42
ATOM     42  O   UNL A   1      42.588  21.269  26.589  1.00  0.00    -0.458 OA
BRANCH  42  43
ATOM     43  C   UNL A   1      42.719  22.469  25.992  1.00  0.00     0.338 C 
ATOM     44  O   UNL A   1      42.763  22.629  24.782  1.00  0.00    -0.246 OA
BRANCH  43  45
ATOM     45  C   UNL A   1      42.854  23.676  26.840  1.00  0.00     0.060 A 
ATOM     46  C   UNL A   1      41.940  23.719  27.884  1.00  0.00     0.016 A 
ATOM     47  C   UNL A   1      43.557  24.843  26.515  1.00  0.00     0.016 A 
ATOM     48  C   UNL A   1      41.643  24.933  28.499  1.00  0.00     0.010 A 
ATOM     49  C   UNL A   1      43.326  26.055  27.236  1.00  0.00     0.010 A 
ATOM     50  C   UNL A   1      42.343  26.135  28.237  1.00  0.00    -0.014 A 
BRANCH  50  51
ATOM     51  C   UNL A   1      41.976  27.344  29.088  1.00  0.00     0.031 A 
ATOM     52  C   UNL A   1      40.782  28.280  28.838  1.00  0.00     0.074 A 
ATOM     53  C   UNL A   1      42.608  27.440  30.286  1.00  0.00     0.049 A 
ATOM     54  N   UNL A   1      40.203  29.116  29.684  1.00  0.00    -0.248 NA
ATOM     55  C   UNL A   1      40.079  28.211  27.545  1.00  0.00     0.031 C 
ATOM     56  C   UNL A   1      43.754  26.614  30.706  1.00  0.00     0.029 A 
ATOM     57  N   UNL A   1      42.347  28.202  31.401  1.00  0.00    -0.354 N 
ATOM     58  C   UNL A   1      39.008  29.543  29.088  1.00  0.00     0.074 A 
ATOM     59  C   UNL A   1      39.003  28.971  27.757  1.00  0.00     0.031 C 
ATOM     60  C   UNL A   1      44.009  26.823  32.000  1.00  0.00     0.029 A 
ATOM     61  C   UNL A   1      43.206  27.947  32.446  1.00  0.00     0.049 A 
ATOM     62  H   UNL A   1      41.620  28.862  31.447  1.00  0.00     0.167 HD
ATOM     63  C   UNL A   1      37.985  30.264  29.636  1.00  0.00     0.031 A 
ATOM     64  C   UNL A   1      43.432  28.605  33.598  1.00  0.00     0.031 A 
ATOM     65  C   UNL A   1      38.054  30.922  30.917  1.00  0.00     0.049 A 
ATOM     66  C   UNL A   1      42.569  29.777  33.922  1.00  0.00     0.074 A 
ATOM     67  C   UNL A   1      37.138  31.797  31.483  1.00  0.00     0.029 A 
ATOM     68  N   UNL A   1      39.120  30.843  31.793  1.00  0.00    -0.354 N 
ATOM     69  N   UNL A   1      41.436  30.131  33.372  1.00  0.00    -0.248 NA
ATOM     70  C   UNL A   1      43.030  30.663  34.997  1.00  0.00     0.031 C 
ATOM     71  C   UNL A   1      37.712  32.347  32.633  1.00  0.00     0.029 A 
ATOM     72  C   UNL A   1      38.949  31.756  32.823  1.00  0.00     0.049 A 
ATOM     73  H   UNL A   1      39.886  30.232  31.699  1.00  0.00     0.167 HD
ATOM     74  C   UNL A   1      41.038  31.275  34.042  1.00  0.00     0.074 A 
ATOM     75  C   UNL A   1      42.039  31.542  35.055  1.00  0.00     0.031 C 
ATOM     76  C   UNL A   1      39.938  32.033  33.828  1.00  0.00     0.031 A 
BRANCH  63  77
ATOM     77  C   UNL A   1      36.681  30.460  28.882  1.00  0.00    -0.014 A 
ATOM     78  C   UNL A   1      36.331  31.723  28.368  1.00  0.00     0.009 A 
ATOM     79  C   UNL A   1      35.907  29.367  28.480  1.00  0.00     0.009 A 
ATOM     80  C   UNL A   1      35.163  31.924  27.626  1.00  0.00     0.001 A 
ATOM     81  C   UNL A   1      34.776  29.552  27.670  1.00  0.00     0.001 A 
ATOM     82  C   UNL A   1      34.382  30.832  27.276  1.00  0.00     0.000 A 
ENDBRANCH  63  77
BRANCH  64  83
ATOM     83  C   UNL A   1      44.668  28.308  34.378  1.00  0.00    -0.014 A 
ATOM     84  C   UNL A   1      45.909  28.880  34.076  1.00  0.00     0.009 A 
ATOM     85  C   UNL A   1      44.595  27.384  35.441  1.00  0.00     0.009 A 
ATOM     86  C   UNL A   1      47.043  28.529  34.818  1.00  0.00     0.001 A 
ATOM     87  C   UNL A   1      45.711  27.077  36.212  1.00  0.00     0.001 A 
ATOM     88  C   UNL A   1      46.940  27.640  35.891  1.00  0.00     0.000 A 
ENDBRANCH  64  83
BRANCH  76  89
ATOM     89  C   UNL A   1      39.741  33.214  34.731  1.00  0.00    -0.014 A 
ATOM     90  C   UNL A   1      40.204  34.488  34.368  1.00  0.00     0.009 A 
ATOM     91  C   UNL A   1      39.083  33.050  35.958  1.00  0.00     0.009 A 
ATOM     92  C   UNL A   1      40.050  35.567  35.238  1.00  0.00     0.001 A 
ATOM     93  C   UNL A   1      38.897  34.139  36.810  1.00  0.00     0.001 A 
ATOM     94  C   UNL A   1      39.393  35.392  36.455  1.00  0.00     0.000 A 
ENDBRANCH  76  89
ENDBRANCH  50  51
ENDBRANCH  43  45
ENDBRANCH  42  43
ENDBRANCH  41  42
ENDBRANCH  40  41
ENDBRANCH  39  40
ENDBRANCH  37  39
ENDBRANCH   1  37
TORSDOF 24
ENDMDL
MODEL 2
REMARK VINA RESULT:     -10.1      3.299      6.223
REMARK SMILES CC(C)C[C@H](NC(=O)CNC(=O)[C@@H](NC(=O)OCc1ccccc1)C(C)C)C(=O)N[C@@H](C)C(=O)OCCOC(=O)c1ccc(-c2c3nc(c(-c4ccccc4)c4ccc([nH]4)c(-c4ccccc4)c4nc(c(-c5ccccc5)c5ccc2[nH]5)C=C4)C=C3)cc1
REMARK SMILES IDX 31 1 32 2 30 3 28 4 29 5 5 7 4 8 2 9 1 10 3 11 6 12 7 13
REMARK SMILES IDX 8 15 9 16 10 17 11 18 12 20 13 21 14 22 15 23 16 25 17 26
REMARK SMILES IDX 18 27 19 28 20 29 24 30 21 31 23 32 22 33 25 34 26 35 27 36
REMARK SMILES IDX 33 37 34 38 35 39 36 40 37 41 38 42 39 43 40 44 41 45 42 46
REMARK SMILES IDX 88 47 43 48 87 49 44 50 45 51 46 52 81 53 47 54 86 55 80 56
REMARK SMILES IDX 82 57 48 58 85 59 79 60 78 61 49 63 71 64 56 65 70 66 57 67
REMARK SMILES IDX 60 68 69 69 83 70 58 71 59 72 68 74 84 75 61 76 50 77 51 78
REMARK SMILES IDX 55 79 52 80 54 81 53 82 72 83 73 84 77 85 74 86 76 87 75 88
REMARK SMILES IDX 62 89 63 90 67 91 64 92 66 93 65 94
REMARK H PARENT 30 6 6 14 10 19 14 24 82 62 60 73
REMARK Flexibility Score: inf
ROOT
ATOM      1  C   UNL A   1      36.738  21.959  25.290  1.00  0.00     0.189 C 
ATOM      2  C   UNL A   1      37.167  23.412  25.487  1.00  0.00     0.043 C 
ENDROOT
BRANCH   1   3
ATOM      3  N   UNL A   1      35.717  21.628  26.295  1.00  0.00    -0.341 N 
ATOM      4  C   UNL A   1      34.393  21.318  26.157  1.00  0.00     0.243 C 
ATOM      5  O   UNL A   1      33.730  21.159  27.185  1.00  0.00    -0.273 OA
ATOM      6  H   UNL A   1      36.041  21.628  27.224  1.00  0.00     0.164 HD
BRANCH   4   7
ATOM      7  C   UNL A   1      33.781  20.994  24.779  1.00  0.00     0.171 C 
BRANCH   7   8
ATOM      8  C   UNL A   1      33.928  19.491  24.543  1.00  0.00     0.038 C 
BRANCH   8   9
ATOM      9  C   UNL A   1      32.698  18.580  24.341  1.00  0.00    -0.015 C 
ATOM     10  C   UNL A   1      32.852  17.711  23.091  1.00  0.00     0.007 C 
ATOM     11  C   UNL A   1      32.528  17.619  25.530  1.00  0.00     0.007 C 
ENDBRANCH   8   9
ENDBRANCH   7   8
BRANCH   7  12
ATOM     12  N   UNL A   1      34.350  21.929  23.766  1.00  0.00    -0.343 N 
ATOM     13  C   UNL A   1      34.005  22.999  23.016  1.00  0.00     0.240 C 
ATOM     14  H   UNL A   1      35.287  21.687  23.586  1.00  0.00     0.164 HD
ATOM     15  O   UNL A   1      34.961  23.632  22.541  1.00  0.00    -0.273 OA
BRANCH  13  16
ATOM     16  C   UNL A   1      32.599  23.540  22.771  1.00  0.00     0.216 C 
BRANCH  16  17
ATOM     17  N   UNL A   1      32.424  24.286  21.560  1.00  0.00    -0.345 N 
ATOM     18  C   UNL A   1      32.222  25.610  21.359  1.00  0.00     0.243 C 
ATOM     19  H   UNL A   1      32.458  23.746  20.738  1.00  0.00     0.164 HD
ATOM     20  O   UNL A   1      32.132  26.027  20.200  1.00  0.00    -0.273 OA
BRANCH  18  21
ATOM     21  C   UNL A   1      32.118  26.606  22.512  1.00  0.00     0.177 C 
BRANCH  21  22
ATOM     22  N   UNL A   1      31.125  26.259  23.544  1.00  0.00    -0.309 N 
ATOM     23  C   UNL A   1      29.995  26.888  23.949  1.00  0.00     0.408 C 
ATOM     24  H   UNL A   1      31.315  25.421  24.023  1.00  0.00     0.167 HD
ATOM     25  O   UNL A   1      29.303  26.455  24.863  1.00  0.00    -0.225 OA
BRANCH  23  26
ATOM     26  O   UNL A   1      29.720  27.942  23.185  1.00  0.00    -0.445 OA
BRANCH  26  27
ATOM     27  C   UNL A   1      29.680  29.263  23.727  1.00  0.00     0.270 C 
BRANCH  27  28
ATOM     28  C   UNL A   1      29.144  30.390  22.872  1.00  0.00    -0.011 A 
ATOM     29  C   UNL A   1      28.941  31.624  23.500  1.00  0.00     0.007 A 
ATOM     30  C   UNL A   1      28.863  30.288  21.501  1.00  0.00     0.007 A 
ATOM     31  C   UNL A   1      28.379  32.692  22.806  1.00  0.00     0.000 A 
ATOM     32  C   UNL A   1      28.275  31.347  20.810  1.00  0.00     0.000 A 
ATOM     33  C   UNL A   1      28.020  32.544  21.469  1.00  0.00     0.000 A 
ENDBRANCH  27  28
ENDBRANCH  26  27
ENDBRANCH  23  26
ENDBRANCH  21  22
BRANCH  21  34
ATOM     34  C   UNL A   1      33.501  27.118  22.941  1.00  0.00     0.015 C 
ATOM     35  C   UNL A   1      33.688  28.619  22.777  1.00  0.00     0.010 C 
ATOM     36  C   UNL A   1      33.725  26.704  24.383  1.00  0.00     0.010 C 
ENDBRANCH  21  34
ENDBRANCH  18  21
ENDBRANCH  16  17
ENDBRANCH  13  16
ENDBRANCH   7  12
ENDBRANCH   4   7
ENDBRANCH   1   3
BRANCH   1  37
ATOM     37  C   UNL A   1      37.999  21.061  25.266  1.00  0.00     0.328 C 
ATOM     38  O   UNL A   1      37.942  19.840  25.142  1.00  0.00    -0.250 OA
BRANCH  37  39
ATOM     39  O   UNL A   1      39.149  21.753  25.522  1.00  0.00    -0.461 OA
BRANCH  39  40
ATOM     40  C   UNL A   1      39.950  21.277  26.634  1.00  0.00     0.274 C 
BRANCH  40  41
ATOM     41  C   UNL A   1      41.033  20.263  26.185  1.00  0.00     0.275 C 
BRANCH  41  42
ATOM     42  O   UNL A   1      42.383  20.446  26.710  1.00  0.00    -0.458 OA
BRANCH  42  43
ATOM     43  C   UNL A   1      43.213  21.099  25.874  1.00  0.00     0.338 C 
ATOM     44  O   UNL A   1      43.647  20.625  24.835  1.00  0.00    -0.246 OA
BRANCH  43  45
ATOM     45  C   UNL A   1      43.663  22.462  26.236  1.00  0.00     0.060 A 
ATOM     46  C   UNL A   1      43.832  22.641  27.603  1.00  0.00     0.016 A 
ATOM     47  C   UNL A   1      43.628  23.594  25.411  1.00  0.00     0.016 A 
ATOM     48  C   UNL A   1      43.831  23.925  28.142  1.00  0.00     0.010 A 
ATOM     49  C   UNL A   1      43.749  24.904  25.970  1.00  0.00     0.010 A 
ATOM     50  C   UNL A   1      43.832  25.103  27.357  1.00  0.00    -0.014 A 
BRANCH  50  51
ATOM     51  C   UNL A   1      43.962  26.426  28.103  1.00  0.00     0.031 A 
ATOM     52  C   UNL A   1      45.283  27.152  28.406  1.00  0.00     0.074 A 
ATOM     53  C   UNL A   1      42.809  27.119  28.286  1.00  0.00     0.049 A 
ATOM     54  N   UNL A   1      45.466  28.421  28.729  1.00  0.00    -0.248 NA
ATOM     55  C   UNL A   1      46.554  26.426  28.229  1.00  0.00     0.031 C 
ATOM     56  C   UNL A   1      41.456  26.594  28.029  1.00  0.00     0.029 A 
ATOM     57  N   UNL A   1      42.573  28.424  28.648  1.00  0.00    -0.354 N 
ATOM     58  C   UNL A   1      46.843  28.673  28.644  1.00  0.00     0.074 A 
ATOM     59  C   UNL A   1      47.462  27.395  28.359  1.00  0.00     0.031 C 
ATOM     60  C   UNL A   1      40.564  27.582  28.120  1.00  0.00     0.029 A 
ATOM     61  C   UNL A   1      41.236  28.753  28.655  1.00  0.00     0.049 A 
ATOM     62  H   UNL A   1      43.287  29.059  28.879  1.00  0.00     0.167 HD
ATOM     63  C   UNL A   1      47.503  29.867  28.710  1.00  0.00     0.031 A 
ATOM     64  C   UNL A   1      40.580  29.820  29.146  1.00  0.00     0.031 A 
ATOM     65  C   UNL A   1      46.891  31.110  29.108  1.00  0.00     0.049 A 
ATOM     66  C   UNL A   1      41.382  30.941  29.716  1.00  0.00     0.074 A 
ATOM     67  C   UNL A   1      47.504  32.329  29.355  1.00  0.00     0.029 A 
ATOM     68  N   UNL A   1      45.548  31.277  29.392  1.00  0.00    -0.354 N 
ATOM     69  N   UNL A   1      42.665  31.171  29.589  1.00  0.00    -0.248 NA
ATOM     70  C   UNL A   1      40.662  31.927  30.527  1.00  0.00     0.031 C 
ATOM     71  C   UNL A   1      46.555  33.191  29.915  1.00  0.00     0.029 A 
ATOM     72  C   UNL A   1      45.338  32.533  29.941  1.00  0.00     0.049 A 
ATOM     73  H   UNL A   1      44.847  30.606  29.229  1.00  0.00     0.167 HD
ATOM     74  C   UNL A   1      42.905  32.339  30.293  1.00  0.00     0.074 A 
ATOM     75  C   UNL A   1      41.632  32.781  30.825  1.00  0.00     0.031 C 
ATOM     76  C   UNL A   1      44.082  32.980  30.478  1.00  0.00     0.031 A 
BRANCH  63  77
ATOM     77  C   UNL A   1      48.987  29.954  28.399  1.00  0.00    -0.014 A 
ATOM     78  C   UNL A   1      49.433  30.427  27.149  1.00  0.00     0.009 A 
ATOM     79  C   UNL A   1      49.948  29.788  29.402  1.00  0.00     0.009 A 
ATOM     80  C   UNL A   1      50.791  30.567  26.851  1.00  0.00     0.001 A 
ATOM     81  C   UNL A   1      51.308  30.002  29.130  1.00  0.00     0.001 A 
ATOM     82  C   UNL A   1      51.734  30.353  27.848  1.00  0.00     0.000 A 
ENDBRANCH  63  77
BRANCH  64  83
ATOM     83  C   UNL A   1      39.102  29.746  29.334  1.00  0.00    -0.014 A 
ATOM     84  C   UNL A   1      38.193  30.194  28.369  1.00  0.00     0.009 A 
ATOM     85  C   UNL A   1      38.597  29.238  30.549  1.00  0.00     0.009 A 
ATOM     86  C   UNL A   1      36.818  30.137  28.622  1.00  0.00     0.001 A 
ATOM     87  C   UNL A   1      37.229  29.132  30.777  1.00  0.00     0.001 A 
ATOM     88  C   UNL A   1      36.338  29.597  29.817  1.00  0.00     0.000 A 
ENDBRANCH  64  83
BRANCH  76  89
ATOM     89  C   UNL A   1      44.045  34.252  31.270  1.00  0.00    -0.014 A 
ATOM     90  C   UNL A   1      44.370  34.265  32.635  1.00  0.00     0.009 A 
ATOM     91  C   UNL A   1      43.681  35.452  30.643  1.00  0.00     0.009 A 
ATOM     92  C   UNL A   1      44.289  35.450  33.367  1.00  0.00     0.001 A 
ATOM     93  C   UNL A   1      43.637  36.643  31.369  1.00  0.00     0.001 A 
ATOM     94  C   UNL A   1      43.928  36.637  32.732  1.00  0.00     0.000 A 
ENDBRANCH  76  89
ENDBRANCH  50  51
ENDBRANCH  43  45
ENDBRANCH  42  43
ENDBRANCH  41  42
ENDBRANCH  40  41
ENDBRANCH  39  40
ENDBRANCH  37  39
ENDBRANCH   1  37
TORSDOF 24
ENDMDL
MODEL 3
REMARK VINA RESULT:     -10.0      3.799      5.497
REMARK SMILES CC(C)C[C@H](NC(=O)CNC(=O)[C@@H](NC(=O)OCc1ccccc1)C(C)C)C(=O)N[C@@H](C)C(=O)OCCOC(=O)c1ccc(-c2c3nc(c(-c4ccccc4)c4ccc([nH]4)c(-c4ccccc4)c4nc(c(-c5ccccc5)c5ccc2[nH]5)C=C4)C=C3)cc1
REMARK SMILES IDX 31 1 32 2 30 3 28 4 29 5 5 7 4 8 2 9 1 10 3 11 6 12 7 13
REMARK SMILES IDX 8 15 9 16 10 17 11 18 12 20 13 21 14 22 15 23 16 25 17 26
REMARK SMILES IDX 18 27 19 28 20 29 24 30 21 31 23 32 22 33 25 34 26 35 27 36
REMARK SMILES IDX 33 37 34 38 35 39 36 40 37 41 38 42 39 43 40 44 41 45 42 46
REMARK SMILES IDX 88 47 43 48 87 49 44 50 45 51 46 52 81 53 47 54 86 55 80 56
REMARK SMILES IDX 82 57 48 58 85 59 79 60 78 61 49 63 71 64 56 65 70 66 57 67
REMARK SMILES IDX 60 68 69 69 83 70 58 71 59 72 68 74 84 75 61 76 50 77 51 78
REMARK SMILES IDX 55 79 52 80 54 81 53 82 72 83 73 84 77 85 74 86 76 87 75 88
REMARK SMILES IDX 62 89 63 90 67 91 64 92 66 93 65 94
REMARK H PARENT 30 6 6 14 10 19 14 24 82 62 60 73
REMARK Flexibility Score: inf
ROOT
ATOM      1  C   UNL A   1      37.256  22.293  25.606  1.00  0.00     0.189 C 
ATOM      2  C   UNL A   1      37.901  23.617  26.014  1.00  0.00     0.043 C 
ENDROOT
BRANCH   1   3
ATOM      3  N   UNL A   1      36.176  21.981  26.555  1.00  0.00    -0.341 N 
ATOM      4  C   UNL A   1      34.860  21.678  26.345  1.00  0.00     0.243 C 
ATOM      5  O   UNL A   1      34.139  21.536  27.336  1.00  0.00    -0.273 OA
ATOM      6  H   UNL A   1      36.448  21.992  27.501  1.00  0.00     0.164 HD
BRANCH   4   7
ATOM      7  C   UNL A   1      34.326  21.339  24.939  1.00  0.00     0.171 C 
BRANCH   7   8
ATOM      8  C   UNL A   1      34.740  19.903  24.614  1.00  0.00     0.038 C 
BRANCH   8   9
ATOM      9  C   UNL A   1      33.772  18.718  24.814  1.00  0.00    -0.015 C 
ATOM     10  C   UNL A   1      32.324  19.134  24.548  1.00  0.00     0.007 C 
ATOM     11  C   UNL A   1      34.093  17.577  23.832  1.00  0.00     0.007 C 
ENDBRANCH   8   9
ENDBRANCH   7   8
BRANCH   7  12
ATOM     12  N   UNL A   1      34.727  22.422  23.996  1.00  0.00    -0.343 N 
ATOM     13  C   UNL A   1      34.192  23.413  23.248  1.00  0.00     0.240 C 
ATOM     14  H   UNL A   1      35.705  22.414  23.882  1.00  0.00     0.164 HD
ATOM     15  O   UNL A   1      35.001  24.271  22.864  1.00  0.00    -0.273 OA
BRANCH  13  16
ATOM     16  C   UNL A   1      32.718  23.620  22.910  1.00  0.00     0.216 C 
BRANCH  16  17
ATOM     17  N   UNL A   1      32.455  24.279  21.664  1.00  0.00    -0.345 N 
ATOM     18  C   UNL A   1      31.911  25.491  21.403  1.00  0.00     0.243 C 
ATOM     19  H   UNL A   1      32.714  23.764  20.866  1.00  0.00     0.164 HD
ATOM     20  O   UNL A   1      31.816  25.858  20.228  1.00  0.00    -0.273 OA
BRANCH  18  21
ATOM     21  C   UNL A   1      31.426  26.426  22.510  1.00  0.00     0.177 C 
BRANCH  21  22
ATOM     22  N   UNL A   1      30.753  27.649  22.040  1.00  0.00    -0.309 N 
ATOM     23  C   UNL A   1      30.816  28.931  22.472  1.00  0.00     0.408 C 
ATOM     24  H   UNL A   1      30.150  27.509  21.273  1.00  0.00     0.167 HD
ATOM     25  O   UNL A   1      30.144  29.821  21.966  1.00  0.00    -0.225 OA
BRANCH  23  26
ATOM     26  O   UNL A   1      31.736  29.083  23.421  1.00  0.00    -0.445 OA
BRANCH  26  27
ATOM     27  C   UNL A   1      31.393  29.573  24.719  1.00  0.00     0.270 C 
BRANCH  27  28
ATOM     28  C   UNL A   1      32.492  29.791  25.734  1.00  0.00    -0.011 A 
ATOM     29  C   UNL A   1      33.548  28.873  25.735  1.00  0.00     0.007 A 
ATOM     30  C   UNL A   1      32.534  30.855  26.649  1.00  0.00     0.007 A 
ATOM     31  C   UNL A   1      34.561  28.955  26.688  1.00  0.00     0.000 A 
ATOM     32  C   UNL A   1      33.533  30.924  27.620  1.00  0.00     0.000 A 
ATOM     33  C   UNL A   1      34.538  29.964  27.647  1.00  0.00     0.000 A 
ENDBRANCH  27  28
ENDBRANCH  26  27
ENDBRANCH  23  26
ENDBRANCH  21  22
BRANCH  21  34
ATOM     34  C   UNL A   1      30.825  25.641  23.686  1.00  0.00     0.015 C 
ATOM     35  C   UNL A   1      31.488  25.922  25.026  1.00  0.00     0.010 C 
ATOM     36  C   UNL A   1      29.342  25.952  23.746  1.00  0.00     0.010 C 
ENDBRANCH  21  34
ENDBRANCH  18  21
ENDBRANCH  16  17
ENDBRANCH  13  16
ENDBRANCH   7  12
ENDBRANCH   4   7
ENDBRANCH   1   3
BRANCH   1  37
ATOM     37  C   UNL A   1      38.362  21.222  25.443  1.00  0.00     0.328 C 
ATOM     38  O   UNL A   1      38.127  20.076  25.072  1.00  0.00    -0.250 OA
BRANCH  37  39
ATOM     39  O   UNL A   1      39.585  21.653  25.874  1.00  0.00    -0.461 OA
BRANCH  39  40
ATOM     40  C   UNL A   1      40.340  20.724  26.693  1.00  0.00     0.274 C 
BRANCH  40  41
ATOM     41  C   UNL A   1      41.148  19.712  25.841  1.00  0.00     0.275 C 
BRANCH  41  42
ATOM     42  O   UNL A   1      42.491  19.372  26.297  1.00  0.00    -0.458 OA
BRANCH  42  43
ATOM     43  C   UNL A   1      43.469  19.731  25.443  1.00  0.00     0.338 C 
ATOM     44  O   UNL A   1      44.004  18.965  24.656  1.00  0.00    -0.246 OA
BRANCH  43  45
ATOM     45  C   UNL A   1      43.959  21.128  25.467  1.00  0.00     0.060 A 
ATOM     46  C   UNL A   1      43.938  21.697  26.734  1.00  0.00     0.016 A 
ATOM     47  C   UNL A   1      44.127  21.967  24.358  1.00  0.00     0.016 A 
ATOM     48  C   UNL A   1      43.952  23.082  26.875  1.00  0.00     0.010 A 
ATOM     49  C   UNL A   1      44.260  23.380  24.530  1.00  0.00     0.010 A 
ATOM     50  C   UNL A   1      44.154  23.976  25.796  1.00  0.00    -0.014 A 
BRANCH  50  51
ATOM     51  C   UNL A   1      44.269  25.456  26.143  1.00  0.00     0.031 A 
ATOM     52  C   UNL A   1      43.102  26.365  26.562  1.00  0.00     0.074 A 
ATOM     53  C   UNL A   1      45.529  25.925  26.331  1.00  0.00     0.049 A 
ATOM     54  N   UNL A   1      43.152  27.528  27.190  1.00  0.00    -0.248 NA
ATOM     55  C   UNL A   1      41.720  25.893  26.361  1.00  0.00     0.031 C 
ATOM     56  C   UNL A   1      46.763  25.188  26.009  1.00  0.00     0.029 A 
ATOM     57  N   UNL A   1      45.998  27.083  26.905  1.00  0.00    -0.354 N 
ATOM     58  C   UNL A   1      41.843  27.840  27.586  1.00  0.00     0.074 A 
ATOM     59  C   UNL A   1      41.002  26.805  27.019  1.00  0.00     0.031 C 
ATOM     60  C   UNL A   1      47.820  25.844  26.493  1.00  0.00     0.029 A 
ATOM     61  C   UNL A   1      47.372  27.145  26.958  1.00  0.00     0.049 A 
ATOM     62  H   UNL A   1      45.411  27.796  27.243  1.00  0.00     0.167 HD
ATOM     63  C   UNL A   1      41.410  28.838  28.411  1.00  0.00     0.031 A 
ATOM     64  C   UNL A   1      48.212  28.161  27.228  1.00  0.00     0.031 A 
ATOM     65  C   UNL A   1      42.239  29.924  28.871  1.00  0.00     0.049 A 
ATOM     66  C   UNL A   1      47.628  29.466  27.651  1.00  0.00     0.074 A 
ATOM     67  C   UNL A   1      41.858  31.057  29.575  1.00  0.00     0.029 A 
ATOM     68  N   UNL A   1      43.591  30.055  28.613  1.00  0.00    -0.354 N 
ATOM     69  N   UNL A   1      46.408  29.721  28.052  1.00  0.00    -0.248 NA
ATOM     70  C   UNL A   1      48.518  30.632  27.624  1.00  0.00     0.031 C 
ATOM     71  C   UNL A   1      42.948  31.931  29.622  1.00  0.00     0.029 A 
ATOM     72  C   UNL A   1      44.026  31.307  29.019  1.00  0.00     0.049 A 
ATOM     73  H   UNL A   1      44.158  29.364  28.202  1.00  0.00     0.167 HD
ATOM     74  C   UNL A   1      46.386  31.075  28.339  1.00  0.00     0.074 A 
ATOM     75  C   UNL A   1      47.719  31.582  28.089  1.00  0.00     0.031 C 
ATOM     76  C   UNL A   1      45.344  31.824  28.770  1.00  0.00     0.031 A 
BRANCH  63  77
ATOM     77  C   UNL A   1      39.966  28.891  28.876  1.00  0.00    -0.014 A 
ATOM     78  C   UNL A   1      39.553  28.182  30.021  1.00  0.00     0.009 A 
ATOM     79  C   UNL A   1      39.063  29.810  28.331  1.00  0.00     0.009 A 
ATOM     80  C   UNL A   1      38.243  28.252  30.503  1.00  0.00     0.001 A 
ATOM     81  C   UNL A   1      37.770  29.941  28.860  1.00  0.00     0.001 A 
ATOM     82  C   UNL A   1      37.347  29.136  29.919  1.00  0.00     0.000 A 
ENDBRANCH  63  77
BRANCH  64  83
ATOM     83  C   UNL A   1      49.653  28.034  26.863  1.00  0.00    -0.014 A 
ATOM     84  C   UNL A   1      50.119  28.193  25.553  1.00  0.00     0.009 A 
ATOM     85  C   UNL A   1      50.582  27.704  27.872  1.00  0.00     0.009 A 
ATOM     86  C   UNL A   1      51.478  28.020  25.266  1.00  0.00     0.001 A 
ATOM     87  C   UNL A   1      51.940  27.585  27.595  1.00  0.00     0.001 A 
ATOM     88  C   UNL A   1      52.386  27.729  26.286  1.00  0.00     0.000 A 
ENDBRANCH  64  83
BRANCH  76  89
ATOM     89  C   UNL A   1      45.614  33.276  29.029  1.00  0.00    -0.014 A 
ATOM     90  C   UNL A   1      46.141  33.707  30.256  1.00  0.00     0.009 A 
ATOM     91  C   UNL A   1      45.337  34.224  28.034  1.00  0.00     0.009 A 
ATOM     92  C   UNL A   1      46.345  35.066  30.497  1.00  0.00     0.001 A 
ATOM     93  C   UNL A   1      45.578  35.579  28.263  1.00  0.00     0.001 A 
ATOM     94  C   UNL A   1      46.068  35.999  29.498  1.00  0.00     0.000 A 
ENDBRANCH  76  89
ENDBRANCH  50  51
ENDBRANCH  43  45
ENDBRANCH  42  43
ENDBRANCH  41  42
ENDBRANCH  40  41
ENDBRANCH  39  40
ENDBRANCH  37  39
ENDBRANCH   1  37
TORSDOF 24
ENDMDL
