MODEL 1
REMARK VINA RESULT:     -10.3      0.000      0.000
REMARK SMILES CN(CCS(C)(=O)=O)C(=O)Nc1cccc(C(=O)OCCOC(=O)c2ccc(-c3c4nc(c(-c5ccccc5)c5ccc([nH]5)c(-c5ccccc5)c5nc(c(-c6ccccc6)c6ccc3[nH]6)C=C5)C=C4)cc2)c1
REMARK SMILES IDX 19 1 17 2 18 3 16 4 12 5 13 6 73 7 14 8 15 9 11 10 9 11
REMARK SMILES IDX 10 12 2 14 1 15 3 16 4 17 5 18 6 19 7 20 8 21 20 22 21 23
REMARK SMILES IDX 22 24 23 25 24 26 25 27 26 28 72 29 27 30 71 31 28 32 29 33
REMARK SMILES IDX 30 34 65 35 31 36 70 37 64 38 66 39 32 40 69 41 63 42 62 43
REMARK SMILES IDX 33 45 55 46 40 47 54 48 41 49 44 50 53 51 67 52 42 53 43 54
REMARK SMILES IDX 52 56 68 57 45 58 34 59 35 60 39 61 36 62 38 63 37 64 56 65
REMARK SMILES IDX 57 66 61 67 58 68 60 69 59 70 46 71 47 72 51 73 48 74 50 75
REMARK SMILES IDX 49 76
REMARK H PARENT 11 13 66 44 44 55
REMARK Flexibility Score: inf
ROOT
ATOM      1  O   UNL A   1      32.227  30.812  25.918  1.00  0.00    -0.458 OA
ENDROOT
BRANCH   1   2
ATOM      2  C   UNL A   1      32.313  29.611  26.567  1.00  0.00     0.338 C 
ATOM      3  O   UNL A   1      32.870  29.380  27.615  1.00  0.00    -0.246 OA
BRANCH   2   4
ATOM      4  C   UNL A   1      31.558  28.598  25.780  1.00  0.00     0.062 A 
ATOM      5  C   UNL A   1      30.648  26.345  25.767  1.00  0.00     0.043 A 
ATOM      6  C   UNL A   1      30.232  26.560  24.444  1.00  0.00     0.026 A 
ATOM      7  C   UNL A   1      31.302  27.377  26.396  1.00  0.00     0.041 A 
ATOM      8  C   UNL A   1      30.446  27.791  23.810  1.00  0.00     0.003 A 
ATOM      9  C   UNL A   1      31.088  28.826  24.491  1.00  0.00     0.016 A 
BRANCH   5  10
ATOM     10  N   UNL A   1      30.379  25.098  26.338  1.00  0.00    -0.308 N 
ATOM     11  C   UNL A   1      30.920  23.892  26.572  1.00  0.00     0.321 C 
ATOM     12  O   UNL A   1      30.230  23.231  27.366  1.00  0.00    -0.248 OA
ATOM     13  H   UNL A   1      29.462  25.108  26.696  1.00  0.00     0.171 HD
BRANCH  11  14
ATOM     14  N   UNL A   1      32.098  23.387  26.109  1.00  0.00    -0.327 N 
ATOM     15  C   UNL A   1      32.045  21.967  25.746  1.00  0.00     0.148 C 
BRANCH  14  16
ATOM     16  C   UNL A   1      33.441  23.931  25.941  1.00  0.00     0.137 C 
BRANCH  16  17
ATOM     17  C   UNL A   1      33.941  24.703  24.724  1.00  0.00     0.158 C 
BRANCH  17  18
ATOM     18  S   UNL A   1      33.368  24.479  23.072  1.00  0.00     0.149 S 
ATOM     19  C   UNL A   1      33.398  26.059  22.257  1.00  0.00     0.158 C 
ATOM     20  O   UNL A   1      34.406  23.694  22.422  1.00  0.00    -0.229 OA
ATOM     21  O   UNL A   1      32.008  23.987  23.095  1.00  0.00    -0.229 OA
ENDBRANCH  17  18
ENDBRANCH  16  17
ENDBRANCH  14  16
ENDBRANCH  11  14
ENDBRANCH   5  10
ENDBRANCH   2   4
ENDBRANCH   1   2
BRANCH   1  22
ATOM     22  C   UNL A   1      31.197  31.734  26.339  1.00  0.00     0.275 C 
BRANCH  22  23
ATOM     23  C   UNL A   1      31.747  33.139  26.610  1.00  0.00     0.275 C 
BRANCH  23  24
ATOM     24  O   UNL A   1      32.184  33.229  27.974  1.00  0.00    -0.458 OA
BRANCH  24  25
ATOM     25  C   UNL A   1      33.084  34.207  28.222  1.00  0.00     0.338 C 
ATOM     26  O   UNL A   1      32.880  35.399  28.372  1.00  0.00    -0.246 OA
BRANCH  25  27
ATOM     27  C   UNL A   1      34.345  33.565  28.602  1.00  0.00     0.060 A 
ATOM     28  C   UNL A   1      34.246  32.219  28.930  1.00  0.00     0.016 A 
ATOM     29  C   UNL A   1      35.549  34.242  28.754  1.00  0.00     0.016 A 
ATOM     30  C   UNL A   1      35.328  31.525  29.430  1.00  0.00     0.010 A 
ATOM     31  C   UNL A   1      36.661  33.534  29.229  1.00  0.00     0.010 A 
ATOM     32  C   UNL A   1      36.551  32.174  29.587  1.00  0.00    -0.014 A 
BRANCH  32  33
ATOM     33  C   UNL A   1      37.650  31.434  30.249  1.00  0.00     0.031 A 
ATOM     34  C   UNL A   1      37.876  31.628  31.719  1.00  0.00     0.074 A 
ATOM     35  C   UNL A   1      38.359  30.510  29.571  1.00  0.00     0.049 A 
ATOM     36  N   UNL A   1      38.855  31.199  32.471  1.00  0.00    -0.248 NA
ATOM     37  C   UNL A   1      36.864  32.417  32.438  1.00  0.00     0.031 C 
ATOM     38  C   UNL A   1      38.136  30.123  28.175  1.00  0.00     0.029 A 
ATOM     39  N   UNL A   1      39.390  29.704  29.977  1.00  0.00    -0.354 N 
ATOM     40  C   UNL A   1      38.616  31.728  33.733  1.00  0.00     0.074 A 
ATOM     41  C   UNL A   1      37.399  32.505  33.645  1.00  0.00     0.031 C 
ATOM     42  C   UNL A   1      38.974  29.124  27.858  1.00  0.00     0.029 A 
ATOM     43  C   UNL A   1      39.860  28.877  28.987  1.00  0.00     0.049 A 
ATOM     44  H   UNL A   1      39.759  29.718  30.890  1.00  0.00     0.167 HD
ATOM     45  C   UNL A   1      39.360  31.589  34.855  1.00  0.00     0.031 A 
ATOM     46  C   UNL A   1      40.923  28.051  28.975  1.00  0.00     0.031 A 
ATOM     47  C   UNL A   1      40.554  30.790  34.923  1.00  0.00     0.049 A 
ATOM     48  C   UNL A   1      41.795  27.992  30.195  1.00  0.00     0.074 A 
ATOM     49  C   UNL A   1      41.403  30.590  35.996  1.00  0.00     0.029 A 
ATOM     50  N   UNL A   1      41.062  30.047  33.865  1.00  0.00    -0.354 N 
ATOM     51  N   UNL A   1      41.627  28.576  31.358  1.00  0.00    -0.248 NA
ATOM     52  C   UNL A   1      43.016  27.185  30.093  1.00  0.00     0.031 C 
ATOM     53  C   UNL A   1      42.456  29.770  35.570  1.00  0.00     0.029 A 
ATOM     54  C   UNL A   1      42.227  29.406  34.251  1.00  0.00     0.049 A 
ATOM     55  H   UNL A   1      40.653  29.984  32.972  1.00  0.00     0.167 HD
ATOM     56  C   UNL A   1      42.713  28.195  32.134  1.00  0.00     0.074 A 
ATOM     57  C   UNL A   1      43.522  27.315  31.312  1.00  0.00     0.031 C 
ATOM     58  C   UNL A   1      43.015  28.542  33.410  1.00  0.00     0.031 A 
BRANCH  45  59
ATOM     59  C   UNL A   1      38.941  32.395  36.055  1.00  0.00    -0.014 A 
ATOM     60  C   UNL A   1      39.414  33.696  36.285  1.00  0.00     0.009 A 
ATOM     61  C   UNL A   1      38.079  31.812  36.999  1.00  0.00     0.009 A 
ATOM     62  C   UNL A   1      39.080  34.373  37.462  1.00  0.00     0.001 A 
ATOM     63  C   UNL A   1      37.719  32.504  38.157  1.00  0.00     0.001 A 
ATOM     64  C   UNL A   1      38.232  33.777  38.396  1.00  0.00     0.000 A 
ENDBRANCH  45  59
BRANCH  46  65
ATOM     65  C   UNL A   1      41.248  27.274  27.750  1.00  0.00    -0.014 A 
ATOM     66  C   UNL A   1      40.756  25.972  27.579  1.00  0.00     0.009 A 
ATOM     67  C   UNL A   1      42.030  27.841  26.729  1.00  0.00     0.009 A 
ATOM     68  C   UNL A   1      41.042  25.255  26.413  1.00  0.00     0.001 A 
ATOM     69  C   UNL A   1      42.288  27.135  25.553  1.00  0.00     0.001 A 
ATOM     70  C   UNL A   1      41.798  25.840  25.398  1.00  0.00     0.000 A 
ENDBRANCH  46  65
BRANCH  58  71
ATOM     71  C   UNL A   1      44.253  27.930  34.000  1.00  0.00    -0.014 A 
ATOM     72  C   UNL A   1      44.230  26.661  34.598  1.00  0.00     0.009 A 
ATOM     73  C   UNL A   1      45.469  28.629  33.930  1.00  0.00     0.009 A 
ATOM     74  C   UNL A   1      45.394  26.119  35.145  1.00  0.00     0.001 A 
ATOM     75  C   UNL A   1      46.636  28.071  34.449  1.00  0.00     0.001 A 
ATOM     76  C   UNL A   1      46.596  26.822  35.066  1.00  0.00     0.000 A 
ENDBRANCH  58  71
ENDBRANCH  32  33
ENDBRANCH  25  27
ENDBRANCH  24  25
ENDBRANCH  23  24
ENDBRANCH  22  23
ENDBRANCH   1  22
TORSDOF 16
ENDMDL
MODEL 2
REMARK VINA RESULT:     -10.0      4.398      9.202
REMARK SMILES CN(CCS(C)(=O)=O)C(=O)Nc1cccc(C(=O)OCCOC(=O)c2ccc(-c3c4nc(c(-c5ccccc5)c5ccc([nH]5)c(-c5ccccc5)c5nc(c(-c6ccccc6)c6ccc3[nH]6)C=C5)C=C4)cc2)c1
REMARK SMILES IDX 19 1 17 2 18 3 16 4 12 5 13 6 73 7 14 8 15 9 11 10 9 11
REMARK SMILES IDX 10 12 2 14 1 15 3 16 4 17 5 18 6 19 7 20 8 21 20 22 21 23
REMARK SMILES IDX 22 24 23 25 24 26 25 27 26 28 72 29 27 30 71 31 28 32 29 33
REMARK SMILES IDX 30 34 65 35 31 36 70 37 64 38 66 39 32 40 69 41 63 42 62 43
REMARK SMILES IDX 33 45 55 46 40 47 54 48 41 49 44 50 53 51 67 52 42 53 43 54
REMARK SMILES IDX 52 56 68 57 45 58 34 59 35 60 39 61 36 62 38 63 37 64 56 65
REMARK SMILES IDX 57 66 61 67 58 68 60 69 59 70 46 71 47 72 51 73 48 74 50 75
REMARK SMILES IDX 49 76
REMARK H PARENT 11 13 66 44 44 55
REMARK Flexibility Score: inf
ROOT
ATOM      1  O   UNL A   1      37.665  21.288  25.064  1.00  0.00    -0.458 OA
ENDROOT
BRANCH   1   2
ATOM      2  C   UNL A   1      36.723  22.201  25.448  1.00  0.00     0.338 C 
ATOM      3  O   UNL A   1      36.898  23.363  25.735  1.00  0.00    -0.246 OA
BRANCH   2   4
ATOM      4  C   UNL A   1      35.390  21.537  25.423  1.00  0.00     0.062 A 
ATOM      5  C   UNL A   1      33.066  21.688  26.116  1.00  0.00     0.043 A 
ATOM      6  C   UNL A   1      32.853  20.424  25.546  1.00  0.00     0.026 A 
ATOM      7  C   UNL A   1      34.336  22.207  26.037  1.00  0.00     0.041 A 
ATOM      8  C   UNL A   1      33.887  19.741  24.892  1.00  0.00     0.003 A 
ATOM      9  C   UNL A   1      35.157  20.313  24.806  1.00  0.00     0.016 A 
BRANCH   5  10
ATOM     10  N   UNL A   1      31.979  22.315  26.731  1.00  0.00    -0.308 N 
ATOM     11  C   UNL A   1      31.070  23.287  26.556  1.00  0.00     0.321 C 
ATOM     12  O   UNL A   1      30.166  23.222  27.406  1.00  0.00    -0.248 OA
ATOM     13  H   UNL A   1      31.825  21.893  27.606  1.00  0.00     0.171 HD
BRANCH  11  14
ATOM     14  N   UNL A   1      31.012  24.228  25.571  1.00  0.00    -0.327 N 
ATOM     15  C   UNL A   1      30.181  25.392  25.896  1.00  0.00     0.148 C 
BRANCH  14  16
ATOM     16  C   UNL A   1      31.554  24.319  24.220  1.00  0.00     0.137 C 
BRANCH  16  17
ATOM     17  C   UNL A   1      31.753  25.607  23.427  1.00  0.00     0.158 C 
BRANCH  17  18
ATOM     18  S   UNL A   1      32.935  25.834  22.139  1.00  0.00     0.149 S 
ATOM     19  C   UNL A   1      33.607  27.473  22.287  1.00  0.00     0.158 C 
ATOM     20  O   UNL A   1      34.030  24.939  22.478  1.00  0.00    -0.229 OA
ATOM     21  O   UNL A   1      32.280  25.709  20.855  1.00  0.00    -0.229 OA
ENDBRANCH  17  18
ENDBRANCH  16  17
ENDBRANCH  14  16
ENDBRANCH  11  14
ENDBRANCH   5  10
ENDBRANCH   2   4
ENDBRANCH   1   2
BRANCH   1  22
ATOM     22  C   UNL A   1      38.901  21.238  25.814  1.00  0.00     0.275 C 
BRANCH  22  23
ATOM     23  C   UNL A   1      39.569  19.861  25.746  1.00  0.00     0.275 C 
BRANCH  23  24
ATOM     24  O   UNL A   1      40.663  19.812  26.674  1.00  0.00    -0.458 OA
BRANCH  24  25
ATOM     25  C   UNL A   1      41.888  19.970  26.122  1.00  0.00     0.338 C 
ATOM     26  O   UNL A   1      42.441  19.260  25.302  1.00  0.00    -0.246 OA
BRANCH  25  27
ATOM     27  C   UNL A   1      42.343  21.327  26.432  1.00  0.00     0.060 A 
ATOM     28  C   UNL A   1      42.349  21.653  27.781  1.00  0.00     0.016 A 
ATOM     29  C   UNL A   1      42.641  22.286  25.472  1.00  0.00     0.016 A 
ATOM     30  C   UNL A   1      42.630  22.937  28.204  1.00  0.00     0.010 A 
ATOM     31  C   UNL A   1      42.961  23.583  25.897  1.00  0.00     0.010 A 
ATOM     32  C   UNL A   1      42.940  23.919  27.267  1.00  0.00    -0.014 A 
BRANCH  32  33
ATOM     33  C   UNL A   1      43.104  25.310  27.747  1.00  0.00     0.031 A 
ATOM     34  C   UNL A   1      44.488  25.872  27.891  1.00  0.00     0.074 A 
ATOM     35  C   UNL A   1      42.030  26.101  27.939  1.00  0.00     0.049 A 
ATOM     36  N   UNL A   1      44.873  27.002  28.422  1.00  0.00    -0.248 NA
ATOM     37  C   UNL A   1      45.588  25.044  27.369  1.00  0.00     0.031 C 
ATOM     38  C   UNL A   1      40.638  25.717  27.690  1.00  0.00     0.029 A 
ATOM     39  N   UNL A   1      41.946  27.404  28.353  1.00  0.00    -0.354 N 
ATOM     40  C   UNL A   1      46.262  26.987  28.366  1.00  0.00     0.074 A 
ATOM     41  C   UNL A   1      46.649  25.739  27.746  1.00  0.00     0.031 C 
ATOM     42  C   UNL A   1      39.844  26.776  27.914  1.00  0.00     0.029 A 
ATOM     43  C   UNL A   1      40.657  27.873  28.423  1.00  0.00     0.049 A 
ATOM     44  H   UNL A   1      42.733  27.950  28.580  1.00  0.00     0.167 HD
ATOM     45  C   UNL A   1      47.129  27.926  28.811  1.00  0.00     0.031 A 
ATOM     46  C   UNL A   1      40.180  29.038  28.897  1.00  0.00     0.031 A 
ATOM     47  C   UNL A   1      46.717  29.171  29.402  1.00  0.00     0.049 A 
ATOM     48  C   UNL A   1      41.151  30.023  29.482  1.00  0.00     0.074 A 
ATOM     49  C   UNL A   1      47.502  30.191  29.909  1.00  0.00     0.029 A 
ATOM     50  N   UNL A   1      45.395  29.568  29.554  1.00  0.00    -0.354 N 
ATOM     51  N   UNL A   1      42.460  29.963  29.525  1.00  0.00    -0.248 NA
ATOM     52  C   UNL A   1      40.578  31.219  30.109  1.00  0.00     0.031 C 
ATOM     53  C   UNL A   1      46.652  31.180  30.420  1.00  0.00     0.029 A 
ATOM     54  C   UNL A   1      45.340  30.807  30.171  1.00  0.00     0.049 A 
ATOM     55  H   UNL A   1      44.612  29.046  29.266  1.00  0.00     0.167 HD
ATOM     56  C   UNL A   1      42.872  31.121  30.169  1.00  0.00     0.074 A 
ATOM     57  C   UNL A   1      41.671  31.871  30.482  1.00  0.00     0.031 C 
ATOM     58  C   UNL A   1      44.129  31.527  30.476  1.00  0.00     0.031 A 
BRANCH  45  59
ATOM     59  C   UNL A   1      48.593  27.584  28.753  1.00  0.00    -0.014 A 
ATOM     60  C   UNL A   1      49.254  26.936  29.808  1.00  0.00     0.009 A 
ATOM     61  C   UNL A   1      49.336  27.962  27.621  1.00  0.00     0.009 A 
ATOM     62  C   UNL A   1      50.635  26.726  29.755  1.00  0.00     0.001 A 
ATOM     63  C   UNL A   1      50.709  27.720  27.557  1.00  0.00     0.001 A 
ATOM     64  C   UNL A   1      51.360  27.117  28.630  1.00  0.00     0.000 A 
ENDBRANCH  45  59
BRANCH  46  65
ATOM     65  C   UNL A   1      38.716  29.301  28.894  1.00  0.00    -0.014 A 
ATOM     66  C   UNL A   1      37.952  29.095  30.051  1.00  0.00     0.009 A 
ATOM     67  C   UNL A   1      38.079  29.788  27.740  1.00  0.00     0.009 A 
ATOM     68  C   UNL A   1      36.581  29.370  30.051  1.00  0.00     0.001 A 
ATOM     69  C   UNL A   1      36.716  30.091  27.752  1.00  0.00     0.001 A 
ATOM     70  C   UNL A   1      35.967  29.876  28.907  1.00  0.00     0.000 A 
ENDBRANCH  46  65
BRANCH  58  71
ATOM     71  C   UNL A   1      44.262  32.863  31.149  1.00  0.00    -0.014 A 
ATOM     72  C   UNL A   1      44.322  34.053  30.408  1.00  0.00     0.009 A 
ATOM     73  C   UNL A   1      44.298  32.929  32.551  1.00  0.00     0.009 A 
ATOM     74  C   UNL A   1      44.451  35.281  31.059  1.00  0.00     0.001 A 
ATOM     75  C   UNL A   1      44.395  34.160  33.198  1.00  0.00     0.001 A 
ATOM     76  C   UNL A   1      44.483  35.334  32.452  1.00  0.00     0.000 A 
ENDBRANCH  58  71
ENDBRANCH  32  33
ENDBRANCH  25  27
ENDBRANCH  24  25
ENDBRANCH  23  24
ENDBRANCH  22  23
ENDBRANCH   1  22
TORSDOF 16
ENDMDL
MODEL 3
REMARK VINA RESULT:     -10.0      1.948      2.850
REMARK SMILES CN(CCS(C)(=O)=O)C(=O)Nc1cccc(C(=O)OCCOC(=O)c2ccc(-c3c4nc(c(-c5ccccc5)c5ccc([nH]5)c(-c5ccccc5)c5nc(c(-c6ccccc6)c6ccc3[nH]6)C=C5)C=C4)cc2)c1
REMARK SMILES IDX 19 1 17 2 18 3 16 4 12 5 13 6 73 7 14 8 15 9 11 10 9 11
REMARK SMILES IDX 10 12 2 14 1 15 3 16 4 17 5 18 6 19 7 20 8 21 20 22 21 23
REMARK SMILES IDX 22 24 23 25 24 26 25 27 26 28 72 29 27 30 71 31 28 32 29 33
REMARK SMILES IDX 30 34 65 35 31 36 70 37 64 38 66 39 32 40 69 41 63 42 62 43
REMARK SMILES IDX 33 45 55 46 40 47 54 48 41 49 44 50 53 51 67 52 42 53 43 54
REMARK SMILES IDX 52 56 68 57 45 58 34 59 35 60 39 61 36 62 38 63 37 64 56 65
REMARK SMILES IDX 57 66 61 67 58 68 60 69 59 70 46 71 47 72 51 73 48 74 50 75
REMARK SMILES IDX 49 76
REMARK H PARENT 11 13 66 44 44 55
REMARK Flexibility Score: inf
ROOT
ATOM      1  O   UNL A   1      32.442  30.774  26.394  1.00  0.00    -0.458 OA
ENDROOT
BRANCH   1   2
ATOM      2  C   UNL A   1      33.003  29.651  25.853  1.00  0.00     0.338 C 
ATOM      3  O   UNL A   1      33.997  29.072  26.226  1.00  0.00    -0.246 OA
BRANCH   2   4
ATOM      4  C   UNL A   1      32.155  29.206  24.713  1.00  0.00     0.062 A 
ATOM      5  C   UNL A   1      32.063  27.861  22.692  1.00  0.00     0.043 A 
ATOM      6  C   UNL A   1      30.756  28.326  22.486  1.00  0.00     0.026 A 
ATOM      7  C   UNL A   1      32.725  28.319  23.806  1.00  0.00     0.041 A 
ATOM      8  C   UNL A   1      30.144  29.194  23.400  1.00  0.00     0.003 A 
ATOM      9  C   UNL A   1      30.838  29.615  24.535  1.00  0.00     0.016 A 
BRANCH   5  10
ATOM     10  N   UNL A   1      32.596  26.980  21.747  1.00  0.00    -0.308 N 
ATOM     11  C   UNL A   1      32.774  25.675  21.486  1.00  0.00     0.321 C 
ATOM     12  O   UNL A   1      33.136  25.492  20.312  1.00  0.00    -0.248 OA
ATOM     13  H   UNL A   1      32.978  27.504  21.008  1.00  0.00     0.171 HD
BRANCH  11  14
ATOM     14  N   UNL A   1      32.551  24.608  22.304  1.00  0.00    -0.327 N 
ATOM     15  C   UNL A   1      33.427  23.459  22.051  1.00  0.00     0.148 C 
BRANCH  14  16
ATOM     16  C   UNL A   1      31.586  24.321  23.359  1.00  0.00     0.137 C 
BRANCH  16  17
ATOM     17  C   UNL A   1      31.859  24.394  24.858  1.00  0.00     0.158 C 
BRANCH  17  18
ATOM     18  S   UNL A   1      30.845  25.227  26.036  1.00  0.00     0.149 S 
ATOM     19  C   UNL A   1      29.524  26.031  25.159  1.00  0.00     0.158 C 
ATOM     20  O   UNL A   1      30.207  24.162  26.795  1.00  0.00    -0.229 OA
ATOM     21  O   UNL A   1      31.629  26.227  26.726  1.00  0.00    -0.229 OA
ENDBRANCH  17  18
ENDBRANCH  16  17
ENDBRANCH  14  16
ENDBRANCH  11  14
ENDBRANCH   5  10
ENDBRANCH   2   4
ENDBRANCH   1   2
BRANCH   1  22
ATOM     22  C   UNL A   1      33.265  31.589  27.259  1.00  0.00     0.275 C 
BRANCH  22  23
ATOM     23  C   UNL A   1      32.595  32.920  27.619  1.00  0.00     0.275 C 
BRANCH  23  24
ATOM     24  O   UNL A   1      33.602  33.906  27.894  1.00  0.00    -0.458 OA
BRANCH  24  25
ATOM     25  C   UNL A   1      33.643  34.338  29.175  1.00  0.00     0.338 C 
ATOM     26  O   UNL A   1      32.783  34.936  29.796  1.00  0.00    -0.246 OA
BRANCH  25  27
ATOM     27  C   UNL A   1      34.787  33.693  29.825  1.00  0.00     0.060 A 
ATOM     28  C   UNL A   1      36.026  34.001  29.278  1.00  0.00     0.016 A 
ATOM     29  C   UNL A   1      34.676  32.746  30.836  1.00  0.00     0.016 A 
ATOM     30  C   UNL A   1      37.172  33.365  29.708  1.00  0.00     0.010 A 
ATOM     31  C   UNL A   1      35.842  32.122  31.300  1.00  0.00     0.010 A 
ATOM     32  C   UNL A   1      37.096  32.416  30.725  1.00  0.00    -0.014 A 
BRANCH  32  33
ATOM     33  C   UNL A   1      38.324  31.662  31.066  1.00  0.00     0.031 A 
ATOM     34  C   UNL A   1      39.125  32.078  32.265  1.00  0.00     0.074 A 
ATOM     35  C   UNL A   1      38.655  30.548  30.384  1.00  0.00     0.049 A 
ATOM     36  N   UNL A   1      40.295  31.659  32.665  1.00  0.00    -0.248 NA
ATOM     37  C   UNL A   1      38.525  33.110  33.126  1.00  0.00     0.031 C 
ATOM     38  C   UNL A   1      37.876  29.957  29.292  1.00  0.00     0.029 A 
ATOM     39  N   UNL A   1      39.716  29.694  30.534  1.00  0.00    -0.354 N 
ATOM     40  C   UNL A   1      40.605  32.428  33.781  1.00  0.00     0.074 A 
ATOM     41  C   UNL A   1      39.498  33.333  33.994  1.00  0.00     0.031 C 
ATOM     42  C   UNL A   1      38.463  28.814  28.904  1.00  0.00     0.029 A 
ATOM     43  C   UNL A   1      39.709  28.651  29.641  1.00  0.00     0.049 A 
ATOM     44  H   UNL A   1      40.416  29.817  31.216  1.00  0.00     0.167 HD
ATOM     45  C   UNL A   1      41.724  32.388  34.542  1.00  0.00     0.031 A 
ATOM     46  C   UNL A   1      40.632  27.701  29.406  1.00  0.00     0.031 A 
ATOM     47  C   UNL A   1      42.801  31.459  34.324  1.00  0.00     0.049 A 
ATOM     48  C   UNL A   1      41.911  27.738  30.190  1.00  0.00     0.074 A 
ATOM     49  C   UNL A   1      43.993  31.337  35.014  1.00  0.00     0.029 A 
ATOM     50  N   UNL A   1      42.806  30.481  33.337  1.00  0.00    -0.354 N 
ATOM     51  N   UNL A   1      42.250  28.533  31.177  1.00  0.00    -0.248 NA
ATOM     52  C   UNL A   1      42.945  26.769  29.811  1.00  0.00     0.031 C 
ATOM     53  C   UNL A   1      44.743  30.321  34.408  1.00  0.00     0.029 A 
ATOM     54  C   UNL A   1      43.991  29.767  33.383  1.00  0.00     0.049 A 
ATOM     55  H   UNL A   1      42.074  30.320  32.699  1.00  0.00     0.167 HD
ATOM     56  C   UNL A   1      43.532  28.151  31.549  1.00  0.00     0.074 A 
ATOM     57  C   UNL A   1      43.899  27.041  30.691  1.00  0.00     0.031 C 
ATOM     58  C   UNL A   1      44.333  28.671  32.512  1.00  0.00     0.031 A 
BRANCH  45  59
ATOM     59  C   UNL A   1      41.860  33.439  35.610  1.00  0.00    -0.014 A 
ATOM     60  C   UNL A   1      41.400  33.239  36.921  1.00  0.00     0.009 A 
ATOM     61  C   UNL A   1      42.432  34.678  35.276  1.00  0.00     0.009 A 
ATOM     62  C   UNL A   1      41.456  34.276  37.856  1.00  0.00     0.001 A 
ATOM     63  C   UNL A   1      42.518  35.701  36.222  1.00  0.00     0.001 A 
ATOM     64  C   UNL A   1      42.016  35.505  37.506  1.00  0.00     0.000 A 
ENDBRANCH  45  59
BRANCH  46  65
ATOM     65  C   UNL A   1      40.402  26.685  28.344  1.00  0.00    -0.014 A 
ATOM     66  C   UNL A   1      39.639  25.539  28.607  1.00  0.00     0.009 A 
ATOM     67  C   UNL A   1      40.921  26.871  27.052  1.00  0.00     0.009 A 
ATOM     68  C   UNL A   1      39.403  24.600  27.598  1.00  0.00     0.001 A 
ATOM     69  C   UNL A   1      40.657  25.948  26.038  1.00  0.00     0.001 A 
ATOM     70  C   UNL A   1      39.903  24.810  26.314  1.00  0.00     0.000 A 
ENDBRANCH  46  65
BRANCH  58  71
ATOM     71  C   UNL A   1      45.667  28.011  32.709  1.00  0.00    -0.014 A 
ATOM     72  C   UNL A   1      46.818  28.477  32.055  1.00  0.00     0.009 A 
ATOM     73  C   UNL A   1      45.775  26.922  33.587  1.00  0.00     0.009 A 
ATOM     74  C   UNL A   1      48.045  27.840  32.252  1.00  0.00     0.001 A 
ATOM     75  C   UNL A   1      47.008  26.309  33.806  1.00  0.00     0.001 A 
ATOM     76  C   UNL A   1      48.139  26.761  33.129  1.00  0.00     0.000 A 
ENDBRANCH  58  71
ENDBRANCH  32  33
ENDBRANCH  25  27
ENDBRANCH  24  25
ENDBRANCH  23  24
ENDBRANCH  22  23
ENDBRANCH   1  22
TORSDOF 16
ENDMDL
