MODEL 1
REMARK VINA RESULT:     -10.9      0.000      0.000
REMARK SMILES CSc1ccc(CNc2ccc(N3CCOCC3)c(C(=O)OCCOC(=O)c3ccc(-c4c5nc(c(-c6ccccc6)c6ccc([nH]6)c(-c6ccccc6)c6nc(c(-c7ccccc7)c7ccc4[nH]7)C=C6)C=C5)cc3)c2)cc1
REMARK SMILES IDX 23 1 22 2 20 3 21 4 19 5 9 6 10 7 76 8 11 9 12 10 8 11 7 13
REMARK SMILES IDX 6 14 3 15 4 16 78 17 5 18 77 19 2 20 1 21 13 22 14 23 18 24
REMARK SMILES IDX 15 25 17 26 16 27 24 28 25 29 26 30 27 31 28 32 29 33 75 34
REMARK SMILES IDX 30 35 74 36 31 37 32 38 33 39 68 40 34 41 73 42 67 43 69 44
REMARK SMILES IDX 35 45 72 46 66 47 65 48 36 50 58 51 43 52 57 53 44 54 47 55
REMARK SMILES IDX 56 56 70 57 45 58 46 59 55 61 71 62 48 63 37 64 38 65 42 66
REMARK SMILES IDX 39 67 41 68 40 69 59 70 60 71 64 72 61 73 63 74 62 75 49 76
REMARK SMILES IDX 50 77 54 78 51 79 53 80 52 81
REMARK H PARENT 8 12 69 49 47 60
REMARK Flexibility Score: inf
ROOT
ATOM      1  C   UNL A   1      31.707  29.543  25.718  1.00  0.00     0.275 C 
ENDROOT
BRANCH   1   2
ATOM      2  O   UNL A   1      31.322  30.181  24.492  1.00  0.00    -0.458 OA
BRANCH   2   3
ATOM      3  C   UNL A   1      31.300  29.398  23.384  1.00  0.00     0.340 C 
ATOM      4  O   UNL A   1      32.123  29.400  22.483  1.00  0.00    -0.246 OA
BRANCH   3   5
ATOM      5  C   UNL A   1      30.162  28.458  23.528  1.00  0.00     0.085 A 
ATOM      6  C   UNL A   1      29.469  26.244  24.304  1.00  0.00     0.035 A 
ATOM      7  C   UNL A   1      28.176  26.564  23.892  1.00  0.00     0.028 A 
ATOM      8  C   UNL A   1      30.459  27.195  24.078  1.00  0.00     0.043 A 
ATOM      9  C   UNL A   1      27.869  27.828  23.359  1.00  0.00     0.029 A 
ATOM     10  C   UNL A   1      28.843  28.826  23.197  1.00  0.00     0.052 A 
BRANCH   6  11
ATOM     11  N   UNL A   1      29.700  25.062  24.977  1.00  0.00    -0.381 N 
ATOM     12  H   UNL A   1      29.202  24.261  24.693  1.00  0.00     0.160 HD
BRANCH  11  13
ATOM     13  C   UNL A   1      30.637  24.930  26.081  1.00  0.00     0.148 C 
BRANCH  13  14
ATOM     14  C   UNL A   1      31.958  24.393  25.578  1.00  0.00    -0.029 A 
ATOM     15  C   UNL A   1      34.444  23.449  24.602  1.00  0.00     0.007 A 
ATOM     16  C   UNL A   1      34.396  24.371  25.650  1.00  0.00     0.015 A 
ATOM     17  C   UNL A   1      33.236  23.014  24.042  1.00  0.00     0.015 A 
ATOM     18  C   UNL A   1      33.167  24.844  26.127  1.00  0.00     0.007 A 
ATOM     19  C   UNL A   1      32.006  23.481  24.518  1.00  0.00     0.007 A 
BRANCH  15  20
ATOM     20  S   UNL A   1      35.946  22.743  23.935  1.00  0.00    -0.130 SA
ATOM     21  C   UNL A   1      37.250  23.517  24.927  1.00  0.00     0.091 C 
ENDBRANCH  15  20
ENDBRANCH  13  14
ENDBRANCH  11  13
ENDBRANCH   6  11
BRANCH  10  22
ATOM     22  N   UNL A   1      28.488  30.090  22.760  1.00  0.00    -0.366 N 
ATOM     23  C   UNL A   1      28.023  30.319  21.389  1.00  0.00     0.145 C 
ATOM     24  C   UNL A   1      28.134  31.164  23.693  1.00  0.00     0.145 C 
ATOM     25  C   UNL A   1      28.389  31.715  20.881  1.00  0.00     0.181 C 
ATOM     26  C   UNL A   1      28.580  32.507  23.089  1.00  0.00     0.181 C 
ATOM     27  O   UNL A   1      27.976  32.736  21.805  1.00  0.00    -0.378 OA
ENDBRANCH  10  22
ENDBRANCH   3   5
ENDBRANCH   2   3
ENDBRANCH   1   2
BRANCH   1  28
ATOM     28  C   UNL A   1      33.212  29.721  25.920  1.00  0.00     0.275 C 
BRANCH  28  29
ATOM     29  O   UNL A   1      33.550  29.694  27.323  1.00  0.00    -0.458 OA
BRANCH  29  30
ATOM     30  C   UNL A   1      34.333  30.712  27.771  1.00  0.00     0.338 C 
ATOM     31  O   UNL A   1      34.003  31.875  27.928  1.00  0.00    -0.246 OA
BRANCH  30  32
ATOM     32  C   UNL A   1      35.657  30.173  28.177  1.00  0.00     0.060 A 
ATOM     33  C   UNL A   1      36.714  30.231  27.258  1.00  0.00     0.016 A 
ATOM     34  C   UNL A   1      35.891  29.690  29.472  1.00  0.00     0.016 A 
ATOM     35  C   UNL A   1      38.008  29.856  27.648  1.00  0.00     0.010 A 
ATOM     36  C   UNL A   1      37.183  29.306  29.858  1.00  0.00     0.010 A 
ATOM     37  C   UNL A   1      38.256  29.399  28.955  1.00  0.00    -0.014 A 
BRANCH  37  38
ATOM     38  C   UNL A   1      39.586  28.831  29.304  1.00  0.00     0.031 A 
ATOM     39  C   UNL A   1      40.474  29.663  30.182  1.00  0.00     0.074 A 
ATOM     40  C   UNL A   1      40.026  27.632  28.874  1.00  0.00     0.049 A 
ATOM     41  N   UNL A   1      41.626  29.363  30.721  1.00  0.00    -0.248 NA
ATOM     42  C   UNL A   1      39.989  31.019  30.486  1.00  0.00     0.031 C 
ATOM     43  C   UNL A   1      39.302  26.714  28.002  1.00  0.00     0.029 A 
ATOM     44  N   UNL A   1      41.213  26.977  29.122  1.00  0.00    -0.354 N 
ATOM     45  C   UNL A   1      41.983  30.477  31.464  1.00  0.00     0.074 A 
ATOM     46  C   UNL A   1      40.959  31.478  31.257  1.00  0.00     0.031 C 
ATOM     47  C   UNL A   1      40.045  25.611  27.799  1.00  0.00     0.029 A 
ATOM     48  C   UNL A   1      41.313  25.748  28.510  1.00  0.00     0.049 A 
ATOM     49  H   UNL A   1      41.925  27.354  29.688  1.00  0.00     0.167 HD
ATOM     50  C   UNL A   1      43.060  30.659  32.263  1.00  0.00     0.031 A 
ATOM     51  C   UNL A   1      42.311  24.840  28.523  1.00  0.00     0.031 A 
ATOM     52  C   UNL A   1      44.139  29.725  32.397  1.00  0.00     0.049 A 
ATOM     53  C   UNL A   1      43.564  25.119  29.322  1.00  0.00     0.074 A 
ATOM     54  C   UNL A   1      45.290  29.842  33.156  1.00  0.00     0.029 A 
ATOM     55  N   UNL A   1      44.220  28.516  31.727  1.00  0.00    -0.354 N 
ATOM     56  N   UNL A   1      43.845  26.136  30.100  1.00  0.00    -0.248 NA
ATOM     57  C   UNL A   1      44.634  24.110  29.251  1.00  0.00     0.031 C 
ATOM     58  C   UNL A   1      46.098  28.731  32.895  1.00  0.00     0.029 A 
ATOM     59  C   UNL A   1      45.415  27.887  32.033  1.00  0.00     0.049 A 
ATOM     60  H   UNL A   1      43.531  28.157  31.122  1.00  0.00     0.167 HD
ATOM     61  C   UNL A   1      45.093  25.863  30.649  1.00  0.00     0.074 A 
ATOM     62  C   UNL A   1      45.515  24.584  30.121  1.00  0.00     0.031 C 
ATOM     63  C   UNL A   1      45.821  26.604  31.522  1.00  0.00     0.031 A 
BRANCH  50  64
ATOM     64  C   UNL A   1      43.113  31.959  33.009  1.00  0.00    -0.014 A 
ATOM     65  C   UNL A   1      43.767  33.074  32.457  1.00  0.00     0.009 A 
ATOM     66  C   UNL A   1      42.560  32.055  34.293  1.00  0.00     0.009 A 
ATOM     67  C   UNL A   1      43.911  34.246  33.202  1.00  0.00     0.001 A 
ATOM     68  C   UNL A   1      42.678  33.238  35.021  1.00  0.00     0.001 A 
ATOM     69  C   UNL A   1      43.366  34.325  34.482  1.00  0.00     0.000 A 
ENDBRANCH  50  64
BRANCH  51  70
ATOM     70  C   UNL A   1      42.201  23.558  27.768  1.00  0.00    -0.014 A 
ATOM     71  C   UNL A   1      42.627  23.478  26.431  1.00  0.00     0.009 A 
ATOM     72  C   UNL A   1      41.581  22.438  28.343  1.00  0.00     0.009 A 
ATOM     73  C   UNL A   1      42.390  22.327  25.674  1.00  0.00     0.001 A 
ATOM     74  C   UNL A   1      41.374  21.276  27.594  1.00  0.00     0.001 A 
ATOM     75  C   UNL A   1      41.763  21.226  26.256  1.00  0.00     0.000 A 
ENDBRANCH  51  70
BRANCH  63  76
ATOM     76  C   UNL A   1      47.116  26.026  32.030  1.00  0.00    -0.014 A 
ATOM     77  C   UNL A   1      47.185  25.279  33.215  1.00  0.00     0.009 A 
ATOM     78  C   UNL A   1      48.282  26.186  31.262  1.00  0.00     0.009 A 
ATOM     79  C   UNL A   1      48.400  24.733  33.637  1.00  0.00     0.001 A 
ATOM     80  C   UNL A   1      49.487  25.608  31.666  1.00  0.00     0.001 A 
ATOM     81  C   UNL A   1      49.547  24.891  32.859  1.00  0.00     0.000 A 
ENDBRANCH  63  76
ENDBRANCH  37  38
ENDBRANCH  30  32
ENDBRANCH  29  30
ENDBRANCH  28  29
ENDBRANCH   1  28
TORSDOF 16
ENDMDL
MODEL 2
REMARK VINA RESULT:     -10.8      4.565      9.097
REMARK SMILES CSc1ccc(CNc2ccc(N3CCOCC3)c(C(=O)OCCOC(=O)c3ccc(-c4c5nc(c(-c6ccccc6)c6ccc([nH]6)c(-c6ccccc6)c6nc(c(-c7ccccc7)c7ccc4[nH]7)C=C6)C=C5)cc3)c2)cc1
REMARK SMILES IDX 23 1 22 2 20 3 21 4 19 5 9 6 10 7 76 8 11 9 12 10 8 11 7 13
REMARK SMILES IDX 6 14 3 15 4 16 78 17 5 18 77 19 2 20 1 21 13 22 14 23 18 24
REMARK SMILES IDX 15 25 17 26 16 27 24 28 25 29 26 30 27 31 28 32 29 33 75 34
REMARK SMILES IDX 30 35 74 36 31 37 32 38 33 39 68 40 34 41 73 42 67 43 69 44
REMARK SMILES IDX 35 45 72 46 66 47 65 48 36 50 58 51 43 52 57 53 44 54 47 55
REMARK SMILES IDX 56 56 70 57 45 58 46 59 55 61 71 62 48 63 37 64 38 65 42 66
REMARK SMILES IDX 39 67 41 68 40 69 59 70 60 71 64 72 61 73 63 74 62 75 49 76
REMARK SMILES IDX 50 77 54 78 51 79 53 80 52 81
REMARK H PARENT 8 12 69 49 47 60
REMARK Flexibility Score: inf
ROOT
ATOM      1  C   UNL A   1      36.205  19.898  24.941  1.00  0.00     0.275 C 
ENDROOT
BRANCH   1   2
ATOM      2  O   UNL A   1      35.387  20.999  25.363  1.00  0.00    -0.458 OA
BRANCH   2   3
ATOM      3  C   UNL A   1      34.085  20.721  25.626  1.00  0.00     0.340 C 
ATOM      4  O   UNL A   1      33.608  20.470  26.720  1.00  0.00    -0.246 OA
BRANCH   3   5
ATOM      5  C   UNL A   1      33.331  20.896  24.361  1.00  0.00     0.085 A 
ATOM      6  C   UNL A   1      32.577  22.501  22.675  1.00  0.00     0.035 A 
ATOM      7  C   UNL A   1      31.973  21.434  22.009  1.00  0.00     0.028 A 
ATOM      8  C   UNL A   1      33.222  22.214  23.874  1.00  0.00     0.043 A 
ATOM      9  C   UNL A   1      32.093  20.115  22.479  1.00  0.00     0.029 A 
ATOM     10  C   UNL A   1      32.807  19.801  23.647  1.00  0.00     0.052 A 
BRANCH   6  11
ATOM     11  N   UNL A   1      32.585  23.753  22.097  1.00  0.00    -0.381 N 
ATOM     12  H   UNL A   1      32.057  23.888  21.276  1.00  0.00     0.160 HD
BRANCH  11  13
ATOM     13  C   UNL A   1      33.324  24.885  22.630  1.00  0.00     0.148 C 
BRANCH  13  14
ATOM     14  C   UNL A   1      32.418  26.091  22.741  1.00  0.00    -0.029 A 
ATOM     15  C   UNL A   1      30.750  28.364  23.012  1.00  0.00     0.007 A 
ATOM     16  C   UNL A   1      32.098  28.508  22.672  1.00  0.00     0.015 A 
ATOM     17  C   UNL A   1      30.251  27.073  23.225  1.00  0.00     0.015 A 
ATOM     18  C   UNL A   1      32.923  27.384  22.546  1.00  0.00     0.007 A 
ATOM     19  C   UNL A   1      31.073  25.947  23.097  1.00  0.00     0.007 A 
BRANCH  15  20
ATOM     20  S   UNL A   1      29.588  29.716  23.163  1.00  0.00    -0.130 SA
ATOM     21  C   UNL A   1      27.986  28.928  22.851  1.00  0.00     0.091 C 
ENDBRANCH  15  20
ENDBRANCH  13  14
ENDBRANCH  11  13
ENDBRANCH   6  11
BRANCH  10  22
ATOM     22  N   UNL A   1      32.986  18.483  24.027  1.00  0.00    -0.366 N 
ATOM     23  C   UNL A   1      32.159  17.874  25.074  1.00  0.00     0.145 C 
ATOM     24  C   UNL A   1      33.661  17.510  23.163  1.00  0.00     0.145 C 
ATOM     25  C   UNL A   1      32.915  16.792  25.847  1.00  0.00     0.181 C 
ATOM     26  C   UNL A   1      34.408  16.499  24.052  1.00  0.00     0.181 C 
ATOM     27  O   UNL A   1      33.515  15.832  24.961  1.00  0.00    -0.378 OA
ENDBRANCH  10  22
ENDBRANCH   3   5
ENDBRANCH   2   3
ENDBRANCH   1   2
BRANCH   1  28
ATOM     28  C   UNL A   1      37.635  20.394  24.726  1.00  0.00     0.275 C 
BRANCH  28  29
ATOM     29  O   UNL A   1      38.044  21.265  25.802  1.00  0.00    -0.458 OA
BRANCH  29  30
ATOM     30  C   UNL A   1      39.320  21.110  26.246  1.00  0.00     0.338 C 
ATOM     31  O   UNL A   1      39.989  20.092  26.212  1.00  0.00    -0.246 OA
BRANCH  30  32
ATOM     32  C   UNL A   1      39.854  22.428  26.681  1.00  0.00     0.060 A 
ATOM     33  C   UNL A   1      39.267  23.591  26.164  1.00  0.00     0.016 A 
ATOM     34  C   UNL A   1      40.863  22.532  27.648  1.00  0.00     0.016 A 
ATOM     35  C   UNL A   1      39.652  24.849  26.649  1.00  0.00     0.010 A 
ATOM     36  C   UNL A   1      41.255  23.792  28.124  1.00  0.00     0.010 A 
ATOM     37  C   UNL A   1      40.643  24.961  27.640  1.00  0.00    -0.014 A 
BRANCH  37  38
ATOM     38  C   UNL A   1      41.175  26.299  28.013  1.00  0.00     0.031 A 
ATOM     39  C   UNL A   1      42.530  26.666  27.487  1.00  0.00     0.074 A 
ATOM     40  C   UNL A   1      40.512  27.179  28.791  1.00  0.00     0.049 A 
ATOM     41  N   UNL A   1      43.175  27.800  27.568  1.00  0.00    -0.248 NA
ATOM     42  C   UNL A   1      43.254  25.600  26.774  1.00  0.00     0.031 C 
ATOM     43  C   UNL A   1      39.203  26.972  29.398  1.00  0.00     0.029 A 
ATOM     44  N   UNL A   1      40.867  28.445  29.205  1.00  0.00    -0.354 N 
ATOM     45  C   UNL A   1      44.361  27.597  26.880  1.00  0.00     0.074 A 
ATOM     46  C   UNL A   1      44.373  26.218  26.442  1.00  0.00     0.031 C 
ATOM     47  C   UNL A   1      38.854  28.070  30.092  1.00  0.00     0.029 A 
ATOM     48  C   UNL A   1      39.924  29.059  29.999  1.00  0.00     0.049 A 
ATOM     49  H   UNL A   1      41.717  28.872  28.954  1.00  0.00     0.167 HD
ATOM     50  C   UNL A   1      45.354  28.477  26.617  1.00  0.00     0.031 A 
ATOM     51  C   UNL A   1      39.926  30.276  30.580  1.00  0.00     0.031 A 
ATOM     52  C   UNL A   1      45.413  29.814  27.132  1.00  0.00     0.049 A 
ATOM     53  C   UNL A   1      41.106  31.199  30.378  1.00  0.00     0.074 A 
ATOM     54  C   UNL A   1      46.401  30.765  26.948  1.00  0.00     0.029 A 
ATOM     55  N   UNL A   1      44.461  30.378  27.965  1.00  0.00    -0.354 N 
ATOM     56  N   UNL A   1      42.178  31.029  29.641  1.00  0.00    -0.248 NA
ATOM     57  C   UNL A   1      41.066  32.491  31.082  1.00  0.00     0.031 C 
ATOM     58  C   UNL A   1      46.078  31.883  27.723  1.00  0.00     0.029 A 
ATOM     59  C   UNL A   1      44.852  31.656  28.327  1.00  0.00     0.049 A 
ATOM     60  H   UNL A   1      43.632  29.935  28.258  1.00  0.00     0.167 HD
ATOM     61  C   UNL A   1      42.907  32.209  29.752  1.00  0.00     0.074 A 
ATOM     62  C   UNL A   1      42.156  33.088  30.622  1.00  0.00     0.031 C 
ATOM     63  C   UNL A   1      44.090  32.536  29.176  1.00  0.00     0.031 A 
BRANCH  50  64
ATOM     64  C   UNL A   1      46.474  27.968  25.761  1.00  0.00    -0.014 A 
ATOM     65  C   UNL A   1      47.624  27.407  26.344  1.00  0.00     0.009 A 
ATOM     66  C   UNL A   1      46.409  28.100  24.367  1.00  0.00     0.009 A 
ATOM     67  C   UNL A   1      48.709  27.038  25.549  1.00  0.00     0.001 A 
ATOM     68  C   UNL A   1      47.484  27.700  23.573  1.00  0.00     0.001 A 
ATOM     69  C   UNL A   1      48.637  27.185  24.165  1.00  0.00     0.000 A 
ENDBRANCH  50  64
BRANCH  51  70
ATOM     70  C   UNL A   1      38.779  30.736  31.417  1.00  0.00    -0.014 A 
ATOM     71  C   UNL A   1      37.738  31.491  30.849  1.00  0.00     0.009 A 
ATOM     72  C   UNL A   1      38.766  30.510  32.802  1.00  0.00     0.009 A 
ATOM     73  C   UNL A   1      36.741  32.049  31.653  1.00  0.00     0.001 A 
ATOM     74  C   UNL A   1      37.750  31.043  33.600  1.00  0.00     0.001 A 
ATOM     75  C   UNL A   1      36.747  31.826  33.028  1.00  0.00     0.000 A 
ENDBRANCH  51  70
BRANCH  63  76
ATOM     76  C   UNL A   1      44.621  33.928  29.395  1.00  0.00    -0.014 A 
ATOM     77  C   UNL A   1      45.508  34.234  30.438  1.00  0.00     0.009 A 
ATOM     78  C   UNL A   1      44.267  34.944  28.489  1.00  0.00     0.009 A 
ATOM     79  C   UNL A   1      46.002  35.532  30.589  1.00  0.00     0.001 A 
ATOM     80  C   UNL A   1      44.790  36.231  28.620  1.00  0.00     0.001 A 
ATOM     81  C   UNL A   1      45.650  36.526  29.676  1.00  0.00     0.000 A 
ENDBRANCH  63  76
ENDBRANCH  37  38
ENDBRANCH  30  32
ENDBRANCH  29  30
ENDBRANCH  28  29
ENDBRANCH   1  28
TORSDOF 16
ENDMDL
MODEL 3
REMARK VINA RESULT:     -10.7      3.790      8.352
REMARK SMILES CSc1ccc(CNc2ccc(N3CCOCC3)c(C(=O)OCCOC(=O)c3ccc(-c4c5nc(c(-c6ccccc6)c6ccc([nH]6)c(-c6ccccc6)c6nc(c(-c7ccccc7)c7ccc4[nH]7)C=C6)C=C5)cc3)c2)cc1
REMARK SMILES IDX 23 1 22 2 20 3 21 4 19 5 9 6 10 7 76 8 11 9 12 10 8 11 7 13
REMARK SMILES IDX 6 14 3 15 4 16 78 17 5 18 77 19 2 20 1 21 13 22 14 23 18 24
REMARK SMILES IDX 15 25 17 26 16 27 24 28 25 29 26 30 27 31 28 32 29 33 75 34
REMARK SMILES IDX 30 35 74 36 31 37 32 38 33 39 68 40 34 41 73 42 67 43 69 44
REMARK SMILES IDX 35 45 72 46 66 47 65 48 36 50 58 51 43 52 57 53 44 54 47 55
REMARK SMILES IDX 56 56 70 57 45 58 46 59 55 61 71 62 48 63 37 64 38 65 42 66
REMARK SMILES IDX 39 67 41 68 40 69 59 70 60 71 64 72 61 73 63 74 62 75 49 76
REMARK SMILES IDX 50 77 54 78 51 79 53 80 52 81
REMARK H PARENT 8 12 69 49 47 60
REMARK Flexibility Score: inf
ROOT
ATOM      1  C   UNL A   1      37.373  20.930  24.910  1.00  0.00     0.275 C 
ENDROOT
BRANCH   1   2
ATOM      2  O   UNL A   1      36.077  20.373  24.644  1.00  0.00    -0.458 OA
BRANCH   2   3
ATOM      3  C   UNL A   1      35.035  20.915  25.323  1.00  0.00     0.340 C 
ATOM      4  O   UNL A   1      34.964  21.071  26.530  1.00  0.00    -0.246 OA
BRANCH   3   5
ATOM      5  C   UNL A   1      34.054  21.394  24.318  1.00  0.00     0.085 A 
ATOM      6  C   UNL A   1      33.365  23.280  22.921  1.00  0.00     0.035 A 
ATOM      7  C   UNL A   1      32.332  22.476  22.440  1.00  0.00     0.028 A 
ATOM      8  C   UNL A   1      34.196  22.730  23.891  1.00  0.00     0.043 A 
ATOM      9  C   UNL A   1      32.194  21.138  22.848  1.00  0.00     0.029 A 
ATOM     10  C   UNL A   1      33.073  20.545  23.769  1.00  0.00     0.052 A 
BRANCH   6  11
ATOM     11  N   UNL A   1      33.572  24.529  22.373  1.00  0.00    -0.381 N 
ATOM     12  H   UNL A   1      34.482  24.761  22.078  1.00  0.00     0.160 HD
BRANCH  11  13
ATOM     13  C   UNL A   1      32.523  25.522  22.204  1.00  0.00     0.148 C 
BRANCH  13  14
ATOM     14  C   UNL A   1      32.404  26.368  23.452  1.00  0.00    -0.029 A 
ATOM     15  C   UNL A   1      32.204  27.898  25.828  1.00  0.00     0.007 A 
ATOM     16  C   UNL A   1      33.452  27.620  25.264  1.00  0.00     0.015 A 
ATOM     17  C   UNL A   1      31.061  27.393  25.195  1.00  0.00     0.015 A 
ATOM     18  C   UNL A   1      33.551  26.857  24.095  1.00  0.00     0.007 A 
ATOM     19  C   UNL A   1      31.156  26.633  24.023  1.00  0.00     0.007 A 
BRANCH  15  20
ATOM     20  S   UNL A   1      31.946  28.891  27.292  1.00  0.00    -0.130 SA
ATOM     21  C   UNL A   1      32.884  30.403  26.944  1.00  0.00     0.091 C 
ENDBRANCH  15  20
ENDBRANCH  13  14
ENDBRANCH  11  13
ENDBRANCH   6  11
BRANCH  10  22
ATOM     22  N   UNL A   1      32.967  19.200  24.074  1.00  0.00    -0.366 N 
ATOM     23  C   UNL A   1      32.527  18.753  25.399  1.00  0.00     0.145 C 
ATOM     24  C   UNL A   1      32.855  18.173  23.034  1.00  0.00     0.145 C 
ATOM     25  C   UNL A   1      33.152  17.413  25.793  1.00  0.00     0.181 C 
ATOM     26  C   UNL A   1      33.546  16.891  23.532  1.00  0.00     0.181 C 
ATOM     27  O   UNL A   1      32.971  16.424  24.765  1.00  0.00    -0.378 OA
ENDBRANCH  10  22
ENDBRANCH   3   5
ENDBRANCH   2   3
ENDBRANCH   1   2
BRANCH   1  28
ATOM     28  C   UNL A   1      38.388  19.792  25.030  1.00  0.00     0.275 C 
BRANCH  28  29
ATOM     29  O   UNL A   1      39.133  19.894  26.261  1.00  0.00    -0.458 OA
BRANCH  29  30
ATOM     30  C   UNL A   1      40.488  19.881  26.145  1.00  0.00     0.338 C 
ATOM     31  O   UNL A   1      41.172  19.001  25.653  1.00  0.00    -0.246 OA
BRANCH  30  32
ATOM     32  C   UNL A   1      41.034  21.186  26.602  1.00  0.00     0.060 A 
ATOM     33  C   UNL A   1      40.972  21.496  27.967  1.00  0.00     0.016 A 
ATOM     34  C   UNL A   1      41.677  22.064  25.719  1.00  0.00     0.016 A 
ATOM     35  C   UNL A   1      41.594  22.655  28.455  1.00  0.00     0.010 A 
ATOM     36  C   UNL A   1      42.290  23.228  26.207  1.00  0.00     0.010 A 
ATOM     37  C   UNL A   1      42.267  23.526  27.580  1.00  0.00    -0.014 A 
BRANCH  37  38
ATOM     38  C   UNL A   1      42.762  24.839  28.074  1.00  0.00     0.031 A 
ATOM     39  C   UNL A   1      41.748  25.932  28.242  1.00  0.00     0.074 A 
ATOM     40  C   UNL A   1      44.053  25.092  28.368  1.00  0.00     0.049 A 
ATOM     41  N   UNL A   1      41.888  27.126  28.755  1.00  0.00    -0.248 NA
ATOM     42  C   UNL A   1      40.390  25.628  27.760  1.00  0.00     0.031 C 
ATOM     43  C   UNL A   1      45.162  24.154  28.241  1.00  0.00     0.029 A 
ATOM     44  N   UNL A   1      44.650  26.241  28.843  1.00  0.00    -0.354 N 
ATOM     45  C   UNL A   1      40.628  27.700  28.696  1.00  0.00     0.074 A 
ATOM     46  C   UNL A   1      39.752  26.750  28.045  1.00  0.00     0.031 C 
ATOM     47  C   UNL A   1      46.300  24.751  28.639  1.00  0.00     0.029 A 
ATOM     48  C   UNL A   1      46.010  26.127  29.033  1.00  0.00     0.049 A 
ATOM     49  H   UNL A   1      44.150  27.067  29.029  1.00  0.00     0.167 HD
ATOM     50  C   UNL A   1      40.220  28.906  29.153  1.00  0.00     0.031 A 
ATOM     51  C   UNL A   1      46.911  27.027  29.476  1.00  0.00     0.031 A 
ATOM     52  C   UNL A   1      41.090  29.904  29.702  1.00  0.00     0.049 A 
ATOM     53  C   UNL A   1      46.453  28.415  29.862  1.00  0.00     0.074 A 
ATOM     54  C   UNL A   1      40.769  31.171  30.157  1.00  0.00     0.029 A 
ATOM     55  N   UNL A   1      42.461  29.763  29.836  1.00  0.00    -0.354 N 
ATOM     56  N   UNL A   1      45.240  28.911  29.894  1.00  0.00    -0.248 NA
ATOM     57  C   UNL A   1      47.496  29.363  30.287  1.00  0.00     0.031 C 
ATOM     58  C   UNL A   1      41.956  31.821  30.506  1.00  0.00     0.029 A 
ATOM     59  C   UNL A   1      43.006  30.932  30.342  1.00  0.00     0.049 A 
ATOM     60  H   UNL A   1      42.973  28.954  29.605  1.00  0.00     0.167 HD
ATOM     61  C   UNL A   1      45.370  30.204  30.392  1.00  0.00     0.074 A 
ATOM     62  C   UNL A   1      46.778  30.416  30.652  1.00  0.00     0.031 C 
ATOM     63  C   UNL A   1      44.406  31.130  30.620  1.00  0.00     0.031 A 
BRANCH  50  64
ATOM     64  C   UNL A   1      38.756  29.199  29.018  1.00  0.00    -0.014 A 
ATOM     65  C   UNL A   1      38.237  29.720  27.819  1.00  0.00     0.009 A 
ATOM     66  C   UNL A   1      37.898  29.010  30.110  1.00  0.00     0.009 A 
ATOM     67  C   UNL A   1      36.896  30.095  27.736  1.00  0.00     0.001 A 
ATOM     68  C   UNL A   1      36.551  29.357  30.012  1.00  0.00     0.001 A 
ATOM     69  C   UNL A   1      36.055  29.913  28.833  1.00  0.00     0.000 A 
ENDBRANCH  50  64
BRANCH  51  70
ATOM     70  C   UNL A   1      48.357  26.679  29.598  1.00  0.00    -0.014 A 
ATOM     71  C   UNL A   1      49.228  26.851  28.508  1.00  0.00     0.009 A 
ATOM     72  C   UNL A   1      48.853  26.081  30.766  1.00  0.00     0.009 A 
ATOM     73  C   UNL A   1      50.545  26.388  28.568  1.00  0.00     0.001 A 
ATOM     74  C   UNL A   1      50.181  25.648  30.835  1.00  0.00     0.001 A 
ATOM     75  C   UNL A   1      51.022  25.787  29.731  1.00  0.00     0.000 A 
ENDBRANCH  51  70
BRANCH  63  76
ATOM     76  C   UNL A   1      44.815  32.434  31.253  1.00  0.00    -0.014 A 
ATOM     77  C   UNL A   1      44.874  32.601  32.644  1.00  0.00     0.009 A 
ATOM     78  C   UNL A   1      45.211  33.500  30.426  1.00  0.00     0.009 A 
ATOM     79  C   UNL A   1      45.288  33.818  33.193  1.00  0.00     0.001 A 
ATOM     80  C   UNL A   1      45.659  34.701  30.976  1.00  0.00     0.001 A 
ATOM     81  C   UNL A   1      45.688  34.862  32.360  1.00  0.00     0.000 A 
ENDBRANCH  63  76
ENDBRANCH  37  38
ENDBRANCH  30  32
ENDBRANCH  29  30
ENDBRANCH  28  29
ENDBRANCH   1  28
TORSDOF 16
ENDMDL
