MODEL 1
REMARK VINA RESULT:     -13.5      0.000      0.000
REMARK SMILES Cc1coc2cc3c(cc12)[C@@H](C)[C@H](CCC(=O)N[C@@H](Cc1c[nH]c2ccccc12)C(=O)OCCOC(=O)c1ccc(-c2c4nc(c(-c5ccccc5)c5ccc([nH]5)c(-c5ccccc5)c5nc(c(-c6ccccc6)c6ccc2[nH]6)C=C5)C=C4)cc1)C(=O)O3
REMARK SMILES IDX 33 1 32 2 30 3 31 4 19 5 18 6 16 7 17 8 15 10 14 11 13 12
REMARK SMILES IDX 1 13 2 14 3 15 10 16 4 17 5 18 9 19 6 20 8 21 7 22 11 23
REMARK SMILES IDX 88 24 12 25 86 26 87 27 20 28 21 29 22 30 29 31 23 32 24 33
REMARK SMILES IDX 28 34 25 36 27 37 26 38 34 39 35 40 36 41 37 42 38 43 39 44
REMARK SMILES IDX 85 45 40 46 84 47 41 48 42 49 43 50 78 51 44 52 83 53 77 54
REMARK SMILES IDX 79 55 45 56 82 57 76 58 75 59 46 61 68 62 53 63 67 64 54 65
REMARK SMILES IDX 57 66 66 67 80 68 55 69 56 70 65 72 81 73 58 74 47 75 48 76
REMARK SMILES IDX 52 77 49 78 51 79 50 80 69 81 70 82 74 83 71 84 73 85 72 86
REMARK SMILES IDX 59 87 60 88 64 89 61 90 63 91 62 92
REMARK H PARENT 18 9 23 35 79 60 57 71
REMARK Flexibility Score: inf
ROOT
ATOM      1  C   UNL A   1      33.199  31.786  27.372  1.00  0.00     0.274 C 
ENDROOT
BRANCH   1   2
ATOM      2  O   UNL A   1      34.045  30.680  26.999  1.00  0.00    -0.461 OA
BRANCH   2   3
ATOM      3  C   UNL A   1      33.397  29.525  26.698  1.00  0.00     0.329 C 
ATOM      4  O   UNL A   1      33.378  28.531  27.416  1.00  0.00    -0.250 OA
BRANCH   3   5
ATOM      5  C   UNL A   1      32.750  29.546  25.309  1.00  0.00     0.196 C 
BRANCH   5   6
ATOM      6  N   UNL A   1      33.682  29.294  24.197  1.00  0.00    -0.342 N 
ATOM      7  C   UNL A   1      34.030  28.225  23.427  1.00  0.00     0.220 C 
ATOM      8  O   UNL A   1      34.756  28.471  22.456  1.00  0.00    -0.275 OA
ATOM      9  H   UNL A   1      34.183  30.104  23.948  1.00  0.00     0.164 HD
BRANCH   7  10
ATOM     10  C   UNL A   1      33.618  26.750  23.639  1.00  0.00     0.101 C 
BRANCH  10  11
ATOM     11  C   UNL A   1      33.432  26.087  25.017  1.00  0.00     0.026 C 
BRANCH  11  12
ATOM     12  C   UNL A   1      32.378  24.998  25.073  1.00  0.00     0.107 C 
ATOM     13  C   UNL A   1      32.287  18.371  22.372  1.00  0.00     0.048 C 
ATOM     14  C   UNL A   1      32.449  18.870  23.752  1.00  0.00    -0.005 A 
ATOM     15  C   UNL A   1      32.568  18.117  24.903  1.00  0.00     0.199 A 
ATOM     16  C   UNL A   1      32.591  20.226  24.157  1.00  0.00     0.024 A 
ATOM     17  O   UNL A   1      32.890  18.899  25.961  1.00  0.00    -0.464 OA
ATOM     18  C   UNL A   1      32.972  20.166  25.491  1.00  0.00     0.137 A 
ATOM     19  C   UNL A   1      32.465  21.484  23.529  1.00  0.00     0.020 A 
ATOM     20  C   UNL A   1      33.407  21.246  26.224  1.00  0.00     0.095 A 
ATOM     21  C   UNL A   1      32.776  22.627  24.273  1.00  0.00    -0.001 A 
ATOM     22  C   UNL A   1      33.351  22.458  25.548  1.00  0.00     0.138 A 
ATOM     23  C   UNL A   1      32.358  24.031  23.852  1.00  0.00     0.034 C 
ATOM     24  O   UNL A   1      33.793  23.548  26.258  1.00  0.00    -0.426 OA
ATOM     25  C   UNL A   1      30.918  24.021  23.323  1.00  0.00     0.014 C 
ATOM     26  C   UNL A   1      32.598  24.171  26.325  1.00  0.00     0.314 C 
ATOM     27  O   UNL A   1      31.814  24.002  27.246  1.00  0.00    -0.251 OA
ENDBRANCH  11  12
ENDBRANCH  10  11
ENDBRANCH   7  10
ENDBRANCH   5   6
BRANCH   5  28
ATOM     28  C   UNL A   1      31.436  28.728  25.403  1.00  0.00     0.074 C 
BRANCH  28  29
ATOM     29  C   UNL A   1      30.477  28.729  24.271  1.00  0.00    -0.020 A 
ATOM     30  C   UNL A   1      30.221  27.681  23.411  1.00  0.00     0.087 A 
ATOM     31  C   UNL A   1      29.742  29.847  23.779  1.00  0.00     0.003 A 
ATOM     32  N   UNL A   1      29.208  28.057  22.577  1.00  0.00    -0.361 N 
ATOM     33  C   UNL A   1      28.839  29.354  22.843  1.00  0.00     0.046 A 
ATOM     34  C   UNL A   1      29.720  31.225  24.075  1.00  0.00     0.010 A 
ATOM     35  H   UNL A   1      28.802  27.485  21.886  1.00  0.00     0.166 HD
ATOM     36  C   UNL A   1      27.797  30.129  22.331  1.00  0.00     0.026 A 
ATOM     37  C   UNL A   1      28.684  32.015  23.580  1.00  0.00     0.001 A 
ATOM     38  C   UNL A   1      27.713  31.460  22.755  1.00  0.00     0.002 A 
ENDBRANCH  28  29
ENDBRANCH   5  28
ENDBRANCH   3   5
ENDBRANCH   2   3
ENDBRANCH   1   2
BRANCH   1  39
ATOM     39  C   UNL A   1      34.021  32.838  28.118  1.00  0.00     0.275 C 
BRANCH  39  40
ATOM     40  O   UNL A   1      34.362  32.325  29.423  1.00  0.00    -0.458 OA
BRANCH  40  41
ATOM     41  C   UNL A   1      35.577  32.669  29.906  1.00  0.00     0.338 C 
ATOM     42  O   UNL A   1      35.805  33.400  30.864  1.00  0.00    -0.246 OA
BRANCH  41  43
ATOM     43  C   UNL A   1      36.556  31.692  29.374  1.00  0.00     0.060 A 
ATOM     44  C   UNL A   1      36.297  30.338  29.152  1.00  0.00     0.016 A 
ATOM     45  C   UNL A   1      37.868  32.134  29.378  1.00  0.00     0.016 A 
ATOM     46  C   UNL A   1      37.360  29.411  29.141  1.00  0.00     0.010 A 
ATOM     47  C   UNL A   1      38.908  31.210  29.390  1.00  0.00     0.010 A 
ATOM     48  C   UNL A   1      38.669  29.834  29.384  1.00  0.00    -0.014 A 
BRANCH  48  49
ATOM     49  C   UNL A   1      39.837  28.926  29.447  1.00  0.00     0.031 A 
ATOM     50  C   UNL A   1      40.130  28.475  30.832  1.00  0.00     0.074 A 
ATOM     51  C   UNL A   1      40.567  28.361  28.452  1.00  0.00     0.049 A 
ATOM     52  N   UNL A   1      41.098  28.924  31.553  1.00  0.00    -0.248 NA
ATOM     53  C   UNL A   1      39.218  27.577  31.549  1.00  0.00     0.031 C 
ATOM     54  C   UNL A   1      40.434  28.451  27.004  1.00  0.00     0.029 A 
ATOM     55  N   UNL A   1      41.582  27.442  28.567  1.00  0.00    -0.354 N 
ATOM     56  C   UNL A   1      40.988  28.308  32.789  1.00  0.00     0.074 A 
ATOM     57  C   UNL A   1      39.718  27.629  32.784  1.00  0.00     0.031 C 
ATOM     58  C   UNL A   1      41.101  27.428  26.398  1.00  0.00     0.029 A 
ATOM     59  C   UNL A   1      41.915  26.749  27.393  1.00  0.00     0.049 A 
ATOM     60  H   UNL A   1      42.047  27.280  29.420  1.00  0.00     0.167 HD
ATOM     61  C   UNL A   1      42.029  28.276  33.662  1.00  0.00     0.031 A 
ATOM     62  C   UNL A   1      42.814  25.729  27.275  1.00  0.00     0.031 A 
ATOM     63  C   UNL A   1      43.126  29.088  33.195  1.00  0.00     0.049 A 
ATOM     64  C   UNL A   1      43.783  25.934  28.376  1.00  0.00     0.074 A 
ATOM     65  C   UNL A   1      43.282  30.439  32.947  1.00  0.00     0.029 A 
ATOM     66  N   UNL A   1      44.124  28.455  32.489  1.00  0.00    -0.354 N 
ATOM     67  N   UNL A   1      44.598  26.946  28.409  1.00  0.00    -0.248 NA
ATOM     68  C   UNL A   1      43.564  25.257  29.643  1.00  0.00     0.031 C 
ATOM     69  C   UNL A   1      44.030  30.502  31.737  1.00  0.00     0.029 A 
ATOM     70  C   UNL A   1      44.363  29.199  31.361  1.00  0.00     0.049 A 
ATOM     71  H   UNL A   1      44.582  27.622  32.746  1.00  0.00     0.167 HD
ATOM     72  C   UNL A   1      44.603  27.332  29.737  1.00  0.00     0.074 A 
ATOM     73  C   UNL A   1      44.062  26.183  30.468  1.00  0.00     0.031 C 
ATOM     74  C   UNL A   1      44.745  28.645  30.081  1.00  0.00     0.031 A 
BRANCH  61  75
ATOM     75  C   UNL A   1      42.184  27.301  34.791  1.00  0.00    -0.014 A 
ATOM     76  C   UNL A   1      41.716  27.523  36.098  1.00  0.00     0.009 A 
ATOM     77  C   UNL A   1      42.650  26.008  34.498  1.00  0.00     0.009 A 
ATOM     78  C   UNL A   1      41.714  26.515  37.065  1.00  0.00     0.001 A 
ATOM     79  C   UNL A   1      42.609  24.983  35.448  1.00  0.00     0.001 A 
ATOM     80  C   UNL A   1      42.140  25.237  36.732  1.00  0.00     0.000 A 
ENDBRANCH  61  75
BRANCH  62  81
ATOM     81  C   UNL A   1      42.957  24.530  26.399  1.00  0.00    -0.014 A 
ATOM     82  C   UNL A   1      42.773  23.236  26.908  1.00  0.00     0.009 A 
ATOM     83  C   UNL A   1      43.613  24.634  25.152  1.00  0.00     0.009 A 
ATOM     84  C   UNL A   1      43.306  22.111  26.255  1.00  0.00     0.001 A 
ATOM     85  C   UNL A   1      44.147  23.512  24.499  1.00  0.00     0.001 A 
ATOM     86  C   UNL A   1      44.020  22.251  25.068  1.00  0.00     0.000 A 
ENDBRANCH  62  81
BRANCH  74  87
ATOM     87  C   UNL A   1      45.013  29.653  28.975  1.00  0.00    -0.014 A 
ATOM     88  C   UNL A   1      43.942  30.088  28.185  1.00  0.00     0.009 A 
ATOM     89  C   UNL A   1      46.313  29.983  28.550  1.00  0.00     0.009 A 
ATOM     90  C   UNL A   1      44.166  30.789  26.994  1.00  0.00     0.001 A 
ATOM     91  C   UNL A   1      46.541  30.701  27.371  1.00  0.00     0.001 A 
ATOM     92  C   UNL A   1      45.464  31.088  26.583  1.00  0.00     0.000 A 
ENDBRANCH  74  87
ENDBRANCH  48  49
ENDBRANCH  41  43
ENDBRANCH  40  41
ENDBRANCH  39  40
ENDBRANCH   1  39
TORSDOF 17
ENDMDL
MODEL 2
REMARK VINA RESULT:     -13.4      1.811      3.189
REMARK SMILES Cc1coc2cc3c(cc12)[C@@H](C)[C@H](CCC(=O)N[C@@H](Cc1c[nH]c2ccccc12)C(=O)OCCOC(=O)c1ccc(-c2c4nc(c(-c5ccccc5)c5ccc([nH]5)c(-c5ccccc5)c5nc(c(-c6ccccc6)c6ccc2[nH]6)C=C5)C=C4)cc1)C(=O)O3
REMARK SMILES IDX 33 1 32 2 30 3 31 4 19 5 18 6 16 7 17 8 15 10 14 11 13 12
REMARK SMILES IDX 1 13 2 14 3 15 10 16 4 17 5 18 9 19 6 20 8 21 7 22 11 23
REMARK SMILES IDX 88 24 12 25 86 26 87 27 20 28 21 29 22 30 29 31 23 32 24 33
REMARK SMILES IDX 28 34 25 36 27 37 26 38 34 39 35 40 36 41 37 42 38 43 39 44
REMARK SMILES IDX 85 45 40 46 84 47 41 48 42 49 43 50 78 51 44 52 83 53 77 54
REMARK SMILES IDX 79 55 45 56 82 57 76 58 75 59 46 61 68 62 53 63 67 64 54 65
REMARK SMILES IDX 57 66 66 67 80 68 55 69 56 70 65 72 81 73 58 74 47 75 48 76
REMARK SMILES IDX 52 77 49 78 51 79 50 80 69 81 70 82 74 83 71 84 73 85 72 86
REMARK SMILES IDX 59 87 60 88 64 89 61 90 63 91 62 92
REMARK H PARENT 18 9 23 35 79 60 57 71
REMARK Flexibility Score: inf
ROOT
ATOM      1  C   UNL A   1      32.049  29.885  25.955  1.00  0.00     0.274 C 
ENDROOT
BRANCH   1   2
ATOM      2  O   UNL A   1      32.450  28.507  26.091  1.00  0.00    -0.461 OA
BRANCH   2   3
ATOM      3  C   UNL A   1      31.537  27.688  26.673  1.00  0.00     0.329 C 
ATOM      4  O   UNL A   1      31.005  27.900  27.758  1.00  0.00    -0.250 OA
BRANCH   3   5
ATOM      5  C   UNL A   1      31.290  26.403  25.875  1.00  0.00     0.196 C 
BRANCH   5   6
ATOM      6  N   UNL A   1      30.339  25.470  26.500  1.00  0.00    -0.342 N 
ATOM      7  C   UNL A   1      30.330  24.148  26.830  1.00  0.00     0.220 C 
ATOM      8  O   UNL A   1      29.373  23.768  27.517  1.00  0.00    -0.275 OA
ATOM      9  H   UNL A   1      29.494  25.914  26.741  1.00  0.00     0.164 HD
BRANCH   7  10
ATOM     10  C   UNL A   1      31.378  23.082  26.437  1.00  0.00     0.101 C 
BRANCH  10  11
ATOM     11  C   UNL A   1      31.530  22.490  25.023  1.00  0.00     0.026 C 
BRANCH  11  12
ATOM     12  C   UNL A   1      32.844  22.799  24.330  1.00  0.00     0.107 C 
ATOM     13  C   UNL A   1      39.123  25.074  26.904  1.00  0.00     0.048 C 
ATOM     14  C   UNL A   1      38.683  23.756  26.401  1.00  0.00    -0.005 A 
ATOM     15  C   UNL A   1      39.452  22.620  26.254  1.00  0.00     0.199 A 
ATOM     16  C   UNL A   1      37.359  23.381  26.040  1.00  0.00     0.024 A 
ATOM     17  O   UNL A   1      38.681  21.551  25.947  1.00  0.00    -0.464 OA
ATOM     18  C   UNL A   1      37.405  22.001  25.888  1.00  0.00     0.137 A 
ATOM     19  C   UNL A   1      36.133  24.057  25.858  1.00  0.00     0.020 A 
ATOM     20  C   UNL A   1      36.298  21.200  25.732  1.00  0.00     0.095 A 
ATOM     21  C   UNL A   1      34.996  23.295  25.572  1.00  0.00    -0.001 A 
ATOM     22  C   UNL A   1      35.097  21.891  25.641  1.00  0.00     0.138 A 
ATOM     23  C   UNL A   1      33.711  23.897  25.014  1.00  0.00     0.034 C 
ATOM     24  O   UNL A   1      33.978  21.108  25.498  1.00  0.00    -0.426 OA
ATOM     25  C   UNL A   1      34.037  24.937  23.933  1.00  0.00     0.014 C 
ATOM     26  C   UNL A   1      33.666  21.529  24.253  1.00  0.00     0.314 C 
ATOM     27  O   UNL A   1      34.074  20.972  23.246  1.00  0.00    -0.251 OA
ENDBRANCH  11  12
ENDBRANCH  10  11
ENDBRANCH   7  10
ENDBRANCH   5   6
BRANCH   5  28
ATOM     28  C   UNL A   1      31.093  26.815  24.394  1.00  0.00     0.074 C 
BRANCH  28  29
ATOM     29  C   UNL A   1      29.752  27.220  23.906  1.00  0.00    -0.020 A 
ATOM     30  C   UNL A   1      28.586  26.491  24.008  1.00  0.00     0.087 A 
ATOM     31  C   UNL A   1      29.443  28.375  23.128  1.00  0.00     0.003 A 
ATOM     32  N   UNL A   1      27.565  27.257  23.526  1.00  0.00    -0.361 N 
ATOM     33  C   UNL A   1      28.056  28.454  23.060  1.00  0.00     0.046 A 
ATOM     34  C   UNL A   1      30.205  29.390  22.517  1.00  0.00     0.010 A 
ATOM     35  H   UNL A   1      26.616  26.993  23.512  1.00  0.00     0.166 HD
ATOM     36  C   UNL A   1      27.395  29.585  22.580  1.00  0.00     0.026 A 
ATOM     37  C   UNL A   1      29.566  30.532  22.037  1.00  0.00     0.001 A 
ATOM     38  C   UNL A   1      28.182  30.643  22.110  1.00  0.00     0.002 A 
ENDBRANCH  28  29
ENDBRANCH   5  28
ENDBRANCH   3   5
ENDBRANCH   2   3
ENDBRANCH   1   2
BRANCH   1  39
ATOM     39  C   UNL A   1      32.615  30.707  27.115  1.00  0.00     0.275 C 
BRANCH  39  40
ATOM     40  O   UNL A   1      34.056  30.680  27.044  1.00  0.00    -0.458 OA
BRANCH  40  41
ATOM     41  C   UNL A   1      34.707  31.695  27.655  1.00  0.00     0.338 C 
ATOM     42  O   UNL A   1      34.257  32.808  27.907  1.00  0.00    -0.246 OA
BRANCH  41  43
ATOM     43  C   UNL A   1      35.882  31.114  28.347  1.00  0.00     0.060 A 
ATOM     44  C   UNL A   1      36.956  31.847  28.854  1.00  0.00     0.016 A 
ATOM     45  C   UNL A   1      36.008  29.742  28.208  1.00  0.00     0.016 A 
ATOM     46  C   UNL A   1      38.212  31.228  29.024  1.00  0.00     0.010 A 
ATOM     47  C   UNL A   1      37.256  29.145  28.355  1.00  0.00     0.010 A 
ATOM     48  C   UNL A   1      38.398  29.892  28.655  1.00  0.00    -0.014 A 
BRANCH  48  49
ATOM     49  C   UNL A   1      39.691  29.179  28.745  1.00  0.00     0.031 A 
ATOM     50  C   UNL A   1      39.997  28.732  30.129  1.00  0.00     0.074 A 
ATOM     51  C   UNL A   1      40.542  28.771  27.769  1.00  0.00     0.049 A 
ATOM     52  N   UNL A   1      40.852  29.304  30.905  1.00  0.00    -0.248 NA
ATOM     53  C   UNL A   1      39.212  27.677  30.780  1.00  0.00     0.031 C 
ATOM     54  C   UNL A   1      40.454  28.889  26.319  1.00  0.00     0.029 A 
ATOM     55  N   UNL A   1      41.685  28.020  27.903  1.00  0.00    -0.354 N 
ATOM     56  C   UNL A   1      40.792  28.636  32.117  1.00  0.00     0.074 A 
ATOM     57  C   UNL A   1      39.648  27.766  32.036  1.00  0.00     0.031 C 
ATOM     58  C   UNL A   1      41.298  28.005  25.716  1.00  0.00     0.029 A 
ATOM     59  C   UNL A   1      42.169  27.429  26.727  1.00  0.00     0.049 A 
ATOM     60  H   UNL A   1      42.135  27.905  28.771  1.00  0.00     0.167 HD
ATOM     61  C   UNL A   1      41.790  28.739  33.035  1.00  0.00     0.031 A 
ATOM     62  C   UNL A   1      43.224  26.569  26.621  1.00  0.00     0.031 A 
ATOM     63  C   UNL A   1      42.762  29.730  32.640  1.00  0.00     0.049 A 
ATOM     64  C   UNL A   1      44.103  26.886  27.770  1.00  0.00     0.074 A 
ATOM     65  C   UNL A   1      42.710  31.096  32.436  1.00  0.00     0.029 A 
ATOM     66  N   UNL A   1      43.875  29.287  31.962  1.00  0.00    -0.354 N 
ATOM     67  N   UNL A   1      44.745  28.013  27.867  1.00  0.00    -0.248 NA
ATOM     68  C   UNL A   1      43.945  26.140  29.006  1.00  0.00     0.031 C 
ATOM     69  C   UNL A   1      43.485  31.318  31.262  1.00  0.00     0.029 A 
ATOM     70  C   UNL A   1      44.036  30.098  30.866  1.00  0.00     0.049 A 
ATOM     71  H   UNL A   1      44.449  28.528  32.216  1.00  0.00     0.167 HD
ATOM     72  C   UNL A   1      44.635  28.349  29.203  1.00  0.00     0.074 A 
ATOM     73  C   UNL A   1      44.256  27.105  29.878  1.00  0.00     0.031 C 
ATOM     74  C   UNL A   1      44.553  29.655  29.590  1.00  0.00     0.031 A 
BRANCH  61  75
ATOM     75  C   UNL A   1      42.053  27.763  34.142  1.00  0.00    -0.014 A 
ATOM     76  C   UNL A   1      42.880  26.632  34.020  1.00  0.00     0.009 A 
ATOM     77  C   UNL A   1      41.611  28.086  35.437  1.00  0.00     0.009 A 
ATOM     78  C   UNL A   1      43.246  25.860  35.125  1.00  0.00     0.001 A 
ATOM     79  C   UNL A   1      42.011  27.343  36.552  1.00  0.00     0.001 A 
ATOM     80  C   UNL A   1      42.829  26.230  36.395  1.00  0.00     0.000 A 
ENDBRANCH  61  75
BRANCH  62  81
ATOM     81  C   UNL A   1      43.590  25.438  25.720  1.00  0.00    -0.014 A 
ATOM     82  C   UNL A   1      42.690  24.392  25.468  1.00  0.00     0.009 A 
ATOM     83  C   UNL A   1      44.943  25.205  25.384  1.00  0.00     0.009 A 
ATOM     84  C   UNL A   1      43.133  23.143  25.001  1.00  0.00     0.001 A 
ATOM     85  C   UNL A   1      45.387  23.957  24.918  1.00  0.00     0.001 A 
ATOM     86  C   UNL A   1      44.484  22.915  24.755  1.00  0.00     0.000 A 
ENDBRANCH  62  81
BRANCH  74  87
ATOM     87  C   UNL A   1      44.700  30.730  28.525  1.00  0.00    -0.014 A 
ATOM     88  C   UNL A   1      45.606  31.775  28.742  1.00  0.00     0.009 A 
ATOM     89  C   UNL A   1      43.802  30.859  27.449  1.00  0.00     0.009 A 
ATOM     90  C   UNL A   1      45.586  32.923  27.942  1.00  0.00     0.001 A 
ATOM     91  C   UNL A   1      43.790  31.996  26.634  1.00  0.00     0.001 A 
ATOM     92  C   UNL A   1      44.673  33.037  26.894  1.00  0.00     0.000 A 
ENDBRANCH  74  87
ENDBRANCH  48  49
ENDBRANCH  41  43
ENDBRANCH  40  41
ENDBRANCH  39  40
ENDBRANCH   1  39
TORSDOF 17
ENDMDL
MODEL 3
REMARK VINA RESULT:     -13.3      2.673      8.851
REMARK SMILES Cc1coc2cc3c(cc12)[C@@H](C)[C@H](CCC(=O)N[C@@H](Cc1c[nH]c2ccccc12)C(=O)OCCOC(=O)c1ccc(-c2c4nc(c(-c5ccccc5)c5ccc([nH]5)c(-c5ccccc5)c5nc(c(-c6ccccc6)c6ccc2[nH]6)C=C5)C=C4)cc1)C(=O)O3
REMARK SMILES IDX 33 1 32 2 30 3 31 4 19 5 18 6 16 7 17 8 15 10 14 11 13 12
REMARK SMILES IDX 1 13 2 14 3 15 10 16 4 17 5 18 9 19 6 20 8 21 7 22 11 23
REMARK SMILES IDX 88 24 12 25 86 26 87 27 20 28 21 29 22 30 29 31 23 32 24 33
REMARK SMILES IDX 28 34 25 36 27 37 26 38 34 39 35 40 36 41 37 42 38 43 39 44
REMARK SMILES IDX 85 45 40 46 84 47 41 48 42 49 43 50 78 51 44 52 83 53 77 54
REMARK SMILES IDX 79 55 45 56 82 57 76 58 75 59 46 61 68 62 53 63 67 64 54 65
REMARK SMILES IDX 57 66 66 67 80 68 55 69 56 70 65 72 81 73 58 74 47 75 48 76
REMARK SMILES IDX 52 77 49 78 51 79 50 80 69 81 70 82 74 83 71 84 73 85 72 86
REMARK SMILES IDX 59 87 60 88 64 89 61 90 63 91 62 92
REMARK H PARENT 18 9 23 35 79 60 57 71
REMARK Flexibility Score: inf
ROOT
ATOM      1  C   UNL A   1      36.683  20.751  25.459  1.00  0.00     0.274 C 
ENDROOT
BRANCH   1   2
ATOM      2  O   UNL A   1      35.395  21.308  25.128  1.00  0.00    -0.461 OA
BRANCH   2   3
ATOM      3  C   UNL A   1      34.579  21.558  26.184  1.00  0.00     0.329 C 
ATOM      4  O   UNL A   1      34.968  21.770  27.329  1.00  0.00    -0.250 OA
BRANCH   3   5
ATOM      5  C   UNL A   1      33.092  21.465  25.827  1.00  0.00     0.196 C 
BRANCH   5   6
ATOM      6  N   UNL A   1      32.230  22.411  26.556  1.00  0.00    -0.342 N 
ATOM      7  C   UNL A   1      32.174  23.762  26.725  1.00  0.00     0.220 C 
ATOM      8  O   UNL A   1      31.165  24.195  27.295  1.00  0.00    -0.275 OA
ATOM      9  H   UNL A   1      31.512  21.950  27.047  1.00  0.00     0.164 HD
BRANCH   7  10
ATOM     10  C   UNL A   1      33.232  24.801  26.286  1.00  0.00     0.101 C 
BRANCH  10  11
ATOM     11  C   UNL A   1      33.867  24.859  24.885  1.00  0.00     0.026 C 
BRANCH  11  12
ATOM     12  C   UNL A   1      32.889  25.026  23.738  1.00  0.00     0.107 C 
ATOM     13  C   UNL A   1      26.878  28.870  23.175  1.00  0.00     0.048 C 
ATOM     14  C   UNL A   1      28.228  29.063  22.608  1.00  0.00    -0.005 A 
ATOM     15  C   UNL A   1      28.635  30.059  21.743  1.00  0.00     0.199 A 
ATOM     16  C   UNL A   1      29.393  28.302  22.902  1.00  0.00     0.024 A 
ATOM     17  O   UNL A   1      29.979  30.038  21.580  1.00  0.00    -0.464 OA
ATOM     18  C   UNL A   1      30.442  29.017  22.339  1.00  0.00     0.137 A 
ATOM     19  C   UNL A   1      29.667  27.109  23.605  1.00  0.00     0.020 A 
ATOM     20  C   UNL A   1      31.773  28.742  22.554  1.00  0.00     0.095 A 
ATOM     21  C   UNL A   1      31.002  26.717  23.744  1.00  0.00    -0.001 A 
ATOM     22  C   UNL A   1      32.008  27.609  23.322  1.00  0.00     0.138 A 
ATOM     23  C   UNL A   1      31.417  25.309  24.158  1.00  0.00     0.034 C 
ATOM     24  O   UNL A   1      33.331  27.324  23.559  1.00  0.00    -0.426 OA
ATOM     25  C   UNL A   1      30.546  24.267  23.442  1.00  0.00     0.014 C 
ATOM     26  C   UNL A   1      33.357  26.169  22.860  1.00  0.00     0.314 C 
ATOM     27  O   UNL A   1      33.652  26.120  21.676  1.00  0.00    -0.251 OA
ENDBRANCH  11  12
ENDBRANCH  10  11
ENDBRANCH   7  10
ENDBRANCH   5   6
BRANCH   5  28
ATOM     28  C   UNL A   1      32.995  21.378  24.283  1.00  0.00     0.074 C 
BRANCH  28  29
ATOM     29  C   UNL A   1      32.725  20.075  23.627  1.00  0.00    -0.020 A 
ATOM     30  C   UNL A   1      32.172  19.883  22.378  1.00  0.00     0.087 A 
ATOM     31  C   UNL A   1      32.863  18.782  24.214  1.00  0.00     0.003 A 
ATOM     32  N   UNL A   1      32.184  18.544  22.113  1.00  0.00    -0.361 N 
ATOM     33  C   UNL A   1      32.685  17.857  23.191  1.00  0.00     0.046 A 
ATOM     34  C   UNL A   1      33.171  18.309  25.505  1.00  0.00     0.010 A 
ATOM     35  H   UNL A   1      31.878  18.131  21.272  1.00  0.00     0.166 HD
ATOM     36  C   UNL A   1      32.984  16.503  23.351  1.00  0.00     0.026 A 
ATOM     37  C   UNL A   1      33.481  16.962  25.685  1.00  0.00     0.001 A 
ATOM     38  C   UNL A   1      33.429  16.082  24.610  1.00  0.00     0.002 A 
ENDBRANCH  28  29
ENDBRANCH   5  28
ENDBRANCH   3   5
ENDBRANCH   2   3
ENDBRANCH   1   2
BRANCH   1  39
ATOM     39  C   UNL A   1      37.790  21.713  25.023  1.00  0.00     0.275 C 
BRANCH  39  40
ATOM     40  O   UNL A   1      38.155  22.542  26.146  1.00  0.00    -0.458 OA
BRANCH  40  41
ATOM     41  C   UNL A   1      39.367  22.308  26.698  1.00  0.00     0.338 C 
ATOM     42  O   UNL A   1      39.995  21.255  26.669  1.00  0.00    -0.246 OA
BRANCH  41  43
ATOM     43  C   UNL A   1      39.994  23.625  26.961  1.00  0.00     0.060 A 
ATOM     44  C   UNL A   1      41.106  23.833  27.779  1.00  0.00     0.016 A 
ATOM     45  C   UNL A   1      39.227  24.712  26.577  1.00  0.00     0.016 A 
ATOM     46  C   UNL A   1      41.319  25.098  28.368  1.00  0.00     0.010 A 
ATOM     47  C   UNL A   1      39.430  25.949  27.181  1.00  0.00     0.010 A 
ATOM     48  C   UNL A   1      40.404  26.135  28.166  1.00  0.00    -0.014 A 
BRANCH  48  49
ATOM     49  C   UNL A   1      40.517  27.473  28.788  1.00  0.00     0.031 A 
ATOM     50  C   UNL A   1      41.526  28.329  28.113  1.00  0.00     0.074 A 
ATOM     51  C   UNL A   1      39.770  28.058  29.759  1.00  0.00     0.049 A 
ATOM     52  N   UNL A   1      42.697  28.584  28.587  1.00  0.00    -0.248 NA
ATOM     53  C   UNL A   1      41.312  28.828  26.749  1.00  0.00     0.031 C 
ATOM     54  C   UNL A   1      38.611  27.569  30.494  1.00  0.00     0.029 A 
ATOM     55  N   UNL A   1      39.856  29.346  30.230  1.00  0.00    -0.354 N 
ATOM     56  C   UNL A   1      43.348  29.351  27.635  1.00  0.00     0.074 A 
ATOM     57  C   UNL A   1      42.517  29.320  26.460  1.00  0.00     0.031 C 
ATOM     58  C   UNL A   1      37.938  28.604  31.070  1.00  0.00     0.029 A 
ATOM     59  C   UNL A   1      38.748  29.807  30.956  1.00  0.00     0.049 A 
ATOM     60  H   UNL A   1      40.647  29.910  30.068  1.00  0.00     0.167 HD
ATOM     61  C   UNL A   1      44.449  30.085  27.947  1.00  0.00     0.031 A 
ATOM     62  C   UNL A   1      38.556  31.069  31.440  1.00  0.00     0.031 A 
ATOM     63  C   UNL A   1      44.898  29.807  29.290  1.00  0.00     0.049 A 
ATOM     64  C   UNL A   1      39.916  31.622  31.633  1.00  0.00     0.074 A 
ATOM     65  C   UNL A   1      45.381  28.679  29.926  1.00  0.00     0.029 A 
ATOM     66  N   UNL A   1      44.458  30.647  30.288  1.00  0.00    -0.354 N 
ATOM     67  N   UNL A   1      40.736  31.163  32.531  1.00  0.00    -0.248 NA
ATOM     68  C   UNL A   1      40.520  32.397  30.562  1.00  0.00     0.031 C 
ATOM     69  C   UNL A   1      44.757  28.689  31.206  1.00  0.00     0.029 A 
ATOM     70  C   UNL A   1      44.002  29.858  31.315  1.00  0.00     0.049 A 
ATOM     71  H   UNL A   1      44.469  31.632  30.269  1.00  0.00     0.167 HD
ATOM     72  C   UNL A   1      41.964  31.160  31.896  1.00  0.00     0.074 A 
ATOM     73  C   UNL A   1      41.799  32.050  30.744  1.00  0.00     0.031 C 
ATOM     74  C   UNL A   1      42.892  30.200  32.178  1.00  0.00     0.031 A 
BRANCH  61  75
ATOM     75  C   UNL A   1      44.962  31.256  27.162  1.00  0.00    -0.014 A 
ATOM     76  C   UNL A   1      44.141  32.171  26.481  1.00  0.00     0.009 A 
ATOM     77  C   UNL A   1      46.325  31.582  27.262  1.00  0.00     0.009 A 
ATOM     78  C   UNL A   1      44.648  33.349  25.926  1.00  0.00     0.001 A 
ATOM     79  C   UNL A   1      46.830  32.780  26.746  1.00  0.00     0.001 A 
ATOM     80  C   UNL A   1      45.990  33.663  26.078  1.00  0.00     0.000 A 
ENDBRANCH  61  75
BRANCH  62  81
ATOM     81  C   UNL A   1      37.376  31.939  31.709  1.00  0.00    -0.014 A 
ATOM     82  C   UNL A   1      36.308  32.012  30.802  1.00  0.00     0.009 A 
ATOM     83  C   UNL A   1      37.451  32.960  32.683  1.00  0.00     0.009 A 
ATOM     84  C   UNL A   1      35.422  33.103  30.803  1.00  0.00     0.001 A 
ATOM     85  C   UNL A   1      36.567  34.051  32.684  1.00  0.00     0.001 A 
ATOM     86  C   UNL A   1      35.569  34.138  31.722  1.00  0.00     0.000 A 
ENDBRANCH  62  81
BRANCH  74  87
ATOM     87  C   UNL A   1      42.586  29.208  33.288  1.00  0.00    -0.014 A 
ATOM     88  C   UNL A   1      43.154  29.412  34.551  1.00  0.00     0.009 A 
ATOM     89  C   UNL A   1      41.962  27.970  33.047  1.00  0.00     0.009 A 
ATOM     90  C   UNL A   1      43.136  28.402  35.520  1.00  0.00     0.001 A 
ATOM     91  C   UNL A   1      41.924  26.964  34.018  1.00  0.00     0.001 A 
ATOM     92  C   UNL A   1      42.529  27.176  35.251  1.00  0.00     0.000 A 
ENDBRANCH  74  87
ENDBRANCH  48  49
ENDBRANCH  41  43
ENDBRANCH  40  41
ENDBRANCH  39  40
ENDBRANCH   1  39
TORSDOF 17
ENDMDL
