MODEL 1
REMARK VINA RESULT:     -11.0      0.000      0.000
REMARK SMILES CCCCCNC(=O)Oc1cccc(-c2ccc([C@@H](C)C(=O)OCCOC(=O)c3ccc(-c4c5nc(c(-c6ccccc6)c6ccc([nH]6)c(-c6ccccc6)c6nc(c(-c7ccccc7)c7ccc4[nH]7)C=C6)C=C5)cc3)cc2F)c1
REMARK SMILES IDX 19 1 20 2 18 3 15 4 16 5 78 6 17 7 77 8 79 9 14 10 10 11
REMARK SMILES IDX 11 12 80 13 12 14 13 15 9 16 7 17 6 18 8 20 5 21 4 22 3 23
REMARK SMILES IDX 2 24 1 25 21 26 22 27 23 28 24 29 25 30 26 31 27 32 28 33
REMARK SMILES IDX 29 34 30 35 76 36 31 37 75 38 32 39 33 40 34 41 69 42 35 43
REMARK SMILES IDX 74 44 68 45 70 46 36 47 73 48 67 49 66 50 37 52 59 53 44 54
REMARK SMILES IDX 58 55 45 56 48 57 57 58 71 59 46 60 47 61 56 63 72 64 49 65
REMARK SMILES IDX 38 66 39 67 43 68 40 69 42 70 41 71 60 72 61 73 65 74 62 75
REMARK SMILES IDX 64 76 63 77 50 78 51 79 55 80 52 81 54 82 53 83
REMARK H PARENT 6 19 70 51 48 62
REMARK Flexibility Score: inf
ROOT
ATOM      1  C   UNL A   1      41.927  19.905  26.807  1.00  0.00     0.126 C 
ATOM      2  C   UNL A   1      41.708  18.882  27.919  1.00  0.00     0.025 C 
ENDROOT
BRANCH   1   3
ATOM      3  C   UNL A   1      40.628  20.514  26.301  1.00  0.00    -0.031 A 
ATOM      4  C   UNL A   1      38.165  21.597  25.360  1.00  0.00     0.018 A 
ATOM      5  C   UNL A   1      39.111  22.401  26.019  1.00  0.00     0.012 A 
ATOM      6  C   UNL A   1      38.482  20.245  25.186  1.00  0.00     0.131 A 
ATOM      7  C   UNL A   1      40.323  21.870  26.479  1.00  0.00     0.005 A 
ATOM      8  C   UNL A   1      39.689  19.709  25.639  1.00  0.00     0.044 A 
ATOM      9  F   UNL A   1      37.629  19.424  24.552  1.00  0.00    -0.206 F 
BRANCH   4  10
ATOM     10  C   UNL A   1      36.902  22.169  24.871  1.00  0.00    -0.012 A 
ATOM     11  C   UNL A   1      34.609  22.876  25.234  1.00  0.00     0.133 A 
ATOM     12  C   UNL A   1      34.490  23.274  23.904  1.00  0.00     0.047 A 
ATOM     13  C   UNL A   1      35.791  22.311  25.717  1.00  0.00     0.056 A 
ATOM     14  C   UNL A   1      35.582  23.136  23.052  1.00  0.00     0.004 A 
ATOM     15  C   UNL A   1      36.777  22.592  23.534  1.00  0.00     0.009 A 
BRANCH  11  16
ATOM     16  O   UNL A   1      33.458  22.967  26.031  1.00  0.00    -0.410 OA
BRANCH  16  17
ATOM     17  C   UNL A   1      33.186  21.903  26.878  1.00  0.00     0.412 C 
ATOM     18  N   UNL A   1      32.502  20.888  26.265  1.00  0.00    -0.321 N 
ATOM     19  H   UNL A   1      32.312  20.093  26.813  1.00  0.00     0.167 HD
ATOM     20  O   UNL A   1      33.484  21.827  28.063  1.00  0.00    -0.224 OA
BRANCH  18  21
ATOM     21  C   UNL A   1      32.028  20.859  24.897  1.00  0.00     0.119 C 
BRANCH  21  22
ATOM     22  C   UNL A   1      32.604  19.683  24.109  1.00  0.00     0.021 C 
BRANCH  22  23
ATOM     23  C   UNL A   1      33.991  19.211  24.566  1.00  0.00     0.002 C 
BRANCH  23  24
ATOM     24  C   UNL A   1      34.209  17.695  24.570  1.00  0.00    -0.003 C 
ATOM     25  C   UNL A   1      34.105  17.060  23.192  1.00  0.00     0.004 C 
ENDBRANCH  23  24
ENDBRANCH  22  23
ENDBRANCH  21  22
ENDBRANCH  18  21
ENDBRANCH  16  17
ENDBRANCH  11  16
ENDBRANCH   4  10
ENDBRANCH   1   3
BRANCH   1  26
ATOM     26  C   UNL A   1      42.844  19.322  25.737  1.00  0.00     0.313 C 
ATOM     27  O   UNL A   1      42.965  18.112  25.572  1.00  0.00    -0.252 OA
BRANCH  26  28
ATOM     28  O   UNL A   1      43.461  20.264  24.976  1.00  0.00    -0.462 OA
BRANCH  28  29
ATOM     29  C   UNL A   1      44.901  20.275  24.989  1.00  0.00     0.274 C 
BRANCH  29  30
ATOM     30  C   UNL A   1      45.448  21.625  25.460  1.00  0.00     0.275 C 
BRANCH  30  31
ATOM     31  O   UNL A   1      44.397  22.462  25.977  1.00  0.00    -0.458 OA
BRANCH  31  32
ATOM     32  C   UNL A   1      44.385  23.726  25.495  1.00  0.00     0.338 C 
ATOM     33  O   UNL A   1      44.760  24.109  24.402  1.00  0.00    -0.246 OA
BRANCH  32  34
ATOM     34  C   UNL A   1      43.711  24.608  26.457  1.00  0.00     0.060 A 
ATOM     35  C   UNL A   1      44.085  25.954  26.485  1.00  0.00     0.016 A 
ATOM     36  C   UNL A   1      42.791  24.106  27.377  1.00  0.00     0.016 A 
ATOM     37  C   UNL A   1      43.554  26.806  27.446  1.00  0.00     0.010 A 
ATOM     38  C   UNL A   1      42.249  24.966  28.338  1.00  0.00     0.010 A 
ATOM     39  C   UNL A   1      42.639  26.316  28.385  1.00  0.00    -0.014 A 
BRANCH  39  40
ATOM     40  C   UNL A   1      42.126  27.214  29.445  1.00  0.00     0.031 A 
ATOM     41  C   UNL A   1      42.867  27.339  30.744  1.00  0.00     0.074 A 
ATOM     42  C   UNL A   1      41.011  27.935  29.228  1.00  0.00     0.049 A 
ATOM     43  N   UNL A   1      42.549  28.025  31.813  1.00  0.00    -0.248 NA
ATOM     44  C   UNL A   1      44.131  26.596  30.856  1.00  0.00     0.031 C 
ATOM     45  C   UNL A   1      40.235  27.939  27.989  1.00  0.00     0.029 A 
ATOM     46  N   UNL A   1      40.343  28.807  30.048  1.00  0.00    -0.354 N 
ATOM     47  C   UNL A   1      43.561  27.779  32.731  1.00  0.00     0.074 A 
ATOM     48  C   UNL A   1      44.496  26.871  32.100  1.00  0.00     0.031 C 
ATOM     49  C   UNL A   1      39.197  28.782  28.128  1.00  0.00     0.029 A 
ATOM     50  C   UNL A   1      39.213  29.338  29.478  1.00  0.00     0.049 A 
ATOM     51  H   UNL A   1      40.644  29.031  30.959  1.00  0.00     0.167 HD
ATOM     52  C   UNL A   1      43.698  28.266  33.988  1.00  0.00     0.031 A 
ATOM     53  C   UNL A   1      38.283  30.162  29.992  1.00  0.00     0.031 A 
ATOM     54  C   UNL A   1      42.769  29.169  34.614  1.00  0.00     0.049 A 
ATOM     55  C   UNL A   1      38.422  30.634  31.412  1.00  0.00     0.074 A 
ATOM     56  C   UNL A   1      42.826  29.725  35.881  1.00  0.00     0.029 A 
ATOM     57  N   UNL A   1      41.611  29.645  34.020  1.00  0.00    -0.354 N 
ATOM     58  N   UNL A   1      39.379  30.389  32.274  1.00  0.00    -0.248 NA
ATOM     59  C   UNL A   1      37.348  31.493  31.930  1.00  0.00     0.031 C 
ATOM     60  C   UNL A   1      41.680  30.506  36.068  1.00  0.00     0.029 A 
ATOM     61  C   UNL A   1      40.933  30.470  34.901  1.00  0.00     0.049 A 
ATOM     62  H   UNL A   1      41.315  29.429  33.107  1.00  0.00     0.167 HD
ATOM     63  C   UNL A   1      39.032  31.075  33.430  1.00  0.00     0.074 A 
ATOM     64  C   UNL A   1      37.784  31.758  33.154  1.00  0.00     0.031 C 
ATOM     65  C   UNL A   1      39.689  31.134  34.613  1.00  0.00     0.031 A 
BRANCH  52  66
ATOM     66  C   UNL A   1      44.881  27.792  34.781  1.00  0.00    -0.014 A 
ATOM     67  C   UNL A   1      46.110  28.467  34.736  1.00  0.00     0.009 A 
ATOM     68  C   UNL A   1      44.756  26.657  35.599  1.00  0.00     0.009 A 
ATOM     69  C   UNL A   1      47.200  27.997  35.471  1.00  0.00     0.001 A 
ATOM     70  C   UNL A   1      45.841  26.203  36.350  1.00  0.00     0.001 A 
ATOM     71  C   UNL A   1      47.065  26.867  36.278  1.00  0.00     0.000 A 
ENDBRANCH  52  66
BRANCH  53  72
ATOM     72  C   UNL A   1      37.122  30.573  29.165  1.00  0.00    -0.014 A 
ATOM     73  C   UNL A   1      36.113  29.653  28.844  1.00  0.00     0.009 A 
ATOM     74  C   UNL A   1      37.014  31.893  28.698  1.00  0.00     0.009 A 
ATOM     75  C   UNL A   1      35.025  30.045  28.060  1.00  0.00     0.001 A 
ATOM     76  C   UNL A   1      35.913  32.286  27.935  1.00  0.00     0.001 A 
ATOM     77  C   UNL A   1      34.924  31.360  27.610  1.00  0.00     0.000 A 
ENDBRANCH  53  72
BRANCH  65  78
ATOM     78  C   UNL A   1      39.079  31.985  35.689  1.00  0.00    -0.014 A 
ATOM     79  C   UNL A   1      38.200  31.437  36.636  1.00  0.00     0.009 A 
ATOM     80  C   UNL A   1      39.415  33.345  35.775  1.00  0.00     0.009 A 
ATOM     81  C   UNL A   1      37.645  32.243  37.631  1.00  0.00     0.001 A 
ATOM     82  C   UNL A   1      38.877  34.142  36.787  1.00  0.00     0.001 A 
ATOM     83  C   UNL A   1      37.987  33.593  37.709  1.00  0.00     0.000 A 
ENDBRANCH  65  78
ENDBRANCH  39  40
ENDBRANCH  32  34
ENDBRANCH  31  32
ENDBRANCH  30  31
ENDBRANCH  29  30
ENDBRANCH  28  29
ENDBRANCH  26  28
ENDBRANCH   1  26
TORSDOF 19
ENDMDL
MODEL 2
REMARK VINA RESULT:     -10.6      1.843      2.978
REMARK SMILES CCCCCNC(=O)Oc1cccc(-c2ccc([C@@H](C)C(=O)OCCOC(=O)c3ccc(-c4c5nc(c(-c6ccccc6)c6ccc([nH]6)c(-c6ccccc6)c6nc(c(-c7ccccc7)c7ccc4[nH]7)C=C6)C=C5)cc3)cc2F)c1
REMARK SMILES IDX 19 1 20 2 18 3 15 4 16 5 78 6 17 7 77 8 79 9 14 10 10 11
REMARK SMILES IDX 11 12 80 13 12 14 13 15 9 16 7 17 6 18 8 20 5 21 4 22 3 23
REMARK SMILES IDX 2 24 1 25 21 26 22 27 23 28 24 29 25 30 26 31 27 32 28 33
REMARK SMILES IDX 29 34 30 35 76 36 31 37 75 38 32 39 33 40 34 41 69 42 35 43
REMARK SMILES IDX 74 44 68 45 70 46 36 47 73 48 67 49 66 50 37 52 59 53 44 54
REMARK SMILES IDX 58 55 45 56 48 57 57 58 71 59 46 60 47 61 56 63 72 64 49 65
REMARK SMILES IDX 38 66 39 67 43 68 40 69 42 70 41 71 60 72 61 73 65 74 62 75
REMARK SMILES IDX 64 76 63 77 50 78 51 79 55 80 52 81 54 82 53 83
REMARK H PARENT 6 19 70 51 48 62
REMARK Flexibility Score: inf
ROOT
ATOM      1  C   UNL A   1      41.542  21.976  26.805  1.00  0.00     0.126 C 
ATOM      2  C   UNL A   1      41.847  21.927  28.300  1.00  0.00     0.025 C 
ENDROOT
BRANCH   1   3
ATOM      3  C   UNL A   1      40.100  22.361  26.510  1.00  0.00    -0.031 A 
ATOM      4  C   UNL A   1      37.382  23.018  25.962  1.00  0.00     0.018 A 
ATOM      5  C   UNL A   1      38.251  23.948  26.557  1.00  0.00     0.012 A 
ATOM      6  C   UNL A   1      37.905  21.758  25.652  1.00  0.00     0.131 A 
ATOM      7  C   UNL A   1      39.588  23.627  26.823  1.00  0.00     0.005 A 
ATOM      8  C   UNL A   1      39.236  21.431  25.911  1.00  0.00     0.044 A 
ATOM      9  F   UNL A   1      37.132  20.827  25.068  1.00  0.00    -0.206 F 
BRANCH   4  10
ATOM     10  C   UNL A   1      35.983  23.372  25.676  1.00  0.00    -0.012 A 
ATOM     11  C   UNL A   1      34.295  24.383  24.255  1.00  0.00     0.133 A 
ATOM     12  C   UNL A   1      33.289  24.035  25.153  1.00  0.00     0.047 A 
ATOM     13  C   UNL A   1      35.633  24.077  24.513  1.00  0.00     0.056 A 
ATOM     14  C   UNL A   1      33.621  23.341  26.312  1.00  0.00     0.004 A 
ATOM     15  C   UNL A   1      34.956  23.010  26.568  1.00  0.00     0.009 A 
BRANCH  11  16
ATOM     16  O   UNL A   1      33.919  25.146  23.140  1.00  0.00    -0.410 OA
BRANCH  16  17
ATOM     17  C   UNL A   1      33.148  24.521  22.171  1.00  0.00     0.412 C 
ATOM     18  N   UNL A   1      31.871  25.008  22.103  1.00  0.00    -0.321 N 
ATOM     19  H   UNL A   1      31.290  24.622  21.408  1.00  0.00     0.167 HD
ATOM     20  O   UNL A   1      33.508  23.611  21.435  1.00  0.00    -0.224 OA
BRANCH  18  21
ATOM     21  C   UNL A   1      31.282  26.031  22.942  1.00  0.00     0.119 C 
BRANCH  21  22
ATOM     22  C   UNL A   1      31.493  27.436  22.379  1.00  0.00     0.021 C 
BRANCH  22  23
ATOM     23  C   UNL A   1      31.981  28.477  23.394  1.00  0.00     0.002 C 
BRANCH  23  24
ATOM     24  C   UNL A   1      33.457  28.381  23.790  1.00  0.00    -0.003 C 
ATOM     25  C   UNL A   1      33.674  28.065  25.262  1.00  0.00     0.004 C 
ENDBRANCH  23  24
ENDBRANCH  22  23
ENDBRANCH  21  22
ENDBRANCH  18  21
ENDBRANCH  16  17
ENDBRANCH  11  16
ENDBRANCH   4  10
ENDBRANCH   1   3
BRANCH   1  26
ATOM     26  C   UNL A   1      42.037  20.701  26.131  1.00  0.00     0.313 C 
ATOM     27  O   UNL A   1      41.651  19.589  26.477  1.00  0.00    -0.252 OA
BRANCH  26  28
ATOM     28  O   UNL A   1      42.894  20.927  25.101  1.00  0.00    -0.462 OA
BRANCH  28  29
ATOM     29  C   UNL A   1      44.147  21.562  25.420  1.00  0.00     0.274 C 
BRANCH  29  30
ATOM     30  C   UNL A   1      44.575  22.541  24.324  1.00  0.00     0.275 C 
BRANCH  30  31
ATOM     31  O   UNL A   1      43.947  23.825  24.498  1.00  0.00    -0.458 OA
BRANCH  31  32
ATOM     32  C   UNL A   1      44.751  24.790  24.999  1.00  0.00     0.338 C 
ATOM     33  O   UNL A   1      45.868  25.098  24.624  1.00  0.00    -0.246 OA
BRANCH  32  34
ATOM     34  C   UNL A   1      44.024  25.548  26.026  1.00  0.00     0.060 A 
ATOM     35  C   UNL A   1      44.365  26.888  26.217  1.00  0.00     0.016 A 
ATOM     36  C   UNL A   1      43.084  24.929  26.850  1.00  0.00     0.016 A 
ATOM     37  C   UNL A   1      43.781  27.618  27.245  1.00  0.00     0.010 A 
ATOM     38  C   UNL A   1      42.489  25.665  27.879  1.00  0.00     0.010 A 
ATOM     39  C   UNL A   1      42.845  27.009  28.090  1.00  0.00    -0.014 A 
BRANCH  39  40
ATOM     40  C   UNL A   1      42.274  27.774  29.222  1.00  0.00     0.031 A 
ATOM     41  C   UNL A   1      42.987  27.802  30.542  1.00  0.00     0.074 A 
ATOM     42  C   UNL A   1      41.130  28.462  29.055  1.00  0.00     0.049 A 
ATOM     43  N   UNL A   1      42.621  28.363  31.666  1.00  0.00    -0.248 NA
ATOM     44  C   UNL A   1      44.283  27.109  30.605  1.00  0.00     0.031 C 
ATOM     45  C   UNL A   1      40.374  28.554  27.806  1.00  0.00     0.029 A 
ATOM     46  N   UNL A   1      40.409  29.217  29.943  1.00  0.00    -0.354 N 
ATOM     47  C   UNL A   1      43.629  28.073  32.576  1.00  0.00     0.074 A 
ATOM     48  C   UNL A   1      44.614  27.276  31.878  1.00  0.00     0.031 C 
ATOM     49  C   UNL A   1      39.296  29.331  28.006  1.00  0.00     0.029 A 
ATOM     50  C   UNL A   1      39.265  29.752  29.404  1.00  0.00     0.049 A 
ATOM     51  H   UNL A   1      40.685  29.364  30.877  1.00  0.00     0.167 HD
ATOM     52  C   UNL A   1      43.723  28.439  33.878  1.00  0.00     0.031 A 
ATOM     53  C   UNL A   1      38.289  30.477  29.978  1.00  0.00     0.031 A 
ATOM     54  C   UNL A   1      42.743  29.232  34.571  1.00  0.00     0.049 A 
ATOM     55  C   UNL A   1      38.383  30.812  31.440  1.00  0.00     0.074 A 
ATOM     56  C   UNL A   1      42.754  29.662  35.887  1.00  0.00     0.029 A 
ATOM     57  N   UNL A   1      41.573  29.714  34.003  1.00  0.00    -0.354 N 
ATOM     58  N   UNL A   1      39.337  30.526  32.293  1.00  0.00    -0.248 NA
ATOM     59  C   UNL A   1      37.262  31.567  32.018  1.00  0.00     0.031 C 
ATOM     60  C   UNL A   1      41.570  30.369  36.126  1.00  0.00     0.029 A 
ATOM     61  C   UNL A   1      40.844  30.415  34.947  1.00  0.00     0.049 A 
ATOM     62  H   UNL A   1      41.303  29.576  33.067  1.00  0.00     0.167 HD
ATOM     63  C   UNL A   1      38.940  31.078  33.504  1.00  0.00     0.074 A 
ATOM     64  C   UNL A   1      37.667  31.728  33.271  1.00  0.00     0.031 C 
ATOM     65  C   UNL A   1      39.575  31.048  34.700  1.00  0.00     0.031 A 
BRANCH  52  66
ATOM     66  C   UNL A   1      44.914  27.942  34.644  1.00  0.00    -0.014 A 
ATOM     67  C   UNL A   1      46.113  28.669  34.684  1.00  0.00     0.009 A 
ATOM     68  C   UNL A   1      44.827  26.732  35.351  1.00  0.00     0.009 A 
ATOM     69  C   UNL A   1      47.212  28.177  35.391  1.00  0.00     0.001 A 
ATOM     70  C   UNL A   1      45.919  26.255  36.075  1.00  0.00     0.001 A 
ATOM     71  C   UNL A   1      47.114  26.973  36.087  1.00  0.00     0.000 A 
ENDBRANCH  52  66
BRANCH  53  72
ATOM     72  C   UNL A   1      37.123  30.916  29.172  1.00  0.00    -0.014 A 
ATOM     73  C   UNL A   1      37.006  32.249  28.753  1.00  0.00     0.009 A 
ATOM     74  C   UNL A   1      36.123  29.998  28.812  1.00  0.00     0.009 A 
ATOM     75  C   UNL A   1      35.903  32.657  27.999  1.00  0.00     0.001 A 
ATOM     76  C   UNL A   1      35.035  30.404  28.039  1.00  0.00     0.001 A 
ATOM     77  C   UNL A   1      34.922  31.735  27.639  1.00  0.00     0.000 A 
ENDBRANCH  53  72
BRANCH  65  78
ATOM     78  C   UNL A   1      38.909  31.760  35.842  1.00  0.00    -0.014 A 
ATOM     79  C   UNL A   1      39.110  33.133  36.055  1.00  0.00     0.009 A 
ATOM     80  C   UNL A   1      38.046  31.055  36.694  1.00  0.00     0.009 A 
ATOM     81  C   UNL A   1      38.479  33.779  37.120  1.00  0.00     0.001 A 
ATOM     82  C   UNL A   1      37.399  31.710  37.744  1.00  0.00     0.001 A 
ATOM     83  C   UNL A   1      37.622  33.069  37.960  1.00  0.00     0.000 A 
ENDBRANCH  65  78
ENDBRANCH  39  40
ENDBRANCH  32  34
ENDBRANCH  31  32
ENDBRANCH  30  31
ENDBRANCH  29  30
ENDBRANCH  28  29
ENDBRANCH  26  28
ENDBRANCH   1  26
TORSDOF 19
ENDMDL
MODEL 3
REMARK VINA RESULT:     -10.6      1.002      5.882
REMARK SMILES CCCCCNC(=O)Oc1cccc(-c2ccc([C@@H](C)C(=O)OCCOC(=O)c3ccc(-c4c5nc(c(-c6ccccc6)c6ccc([nH]6)c(-c6ccccc6)c6nc(c(-c7ccccc7)c7ccc4[nH]7)C=C6)C=C5)cc3)cc2F)c1
REMARK SMILES IDX 19 1 20 2 18 3 15 4 16 5 78 6 17 7 77 8 79 9 14 10 10 11
REMARK SMILES IDX 11 12 80 13 12 14 13 15 9 16 7 17 6 18 8 20 5 21 4 22 3 23
REMARK SMILES IDX 2 24 1 25 21 26 22 27 23 28 24 29 25 30 26 31 27 32 28 33
REMARK SMILES IDX 29 34 30 35 76 36 31 37 75 38 32 39 33 40 34 41 69 42 35 43
REMARK SMILES IDX 74 44 68 45 70 46 36 47 73 48 67 49 66 50 37 52 59 53 44 54
REMARK SMILES IDX 58 55 45 56 48 57 57 58 71 59 46 60 47 61 56 63 72 64 49 65
REMARK SMILES IDX 38 66 39 67 43 68 40 69 42 70 41 71 60 72 61 73 65 74 62 75
REMARK SMILES IDX 64 76 63 77 50 78 51 79 55 80 52 81 54 82 53 83
REMARK H PARENT 6 19 70 51 48 62
REMARK Flexibility Score: inf
ROOT
ATOM      1  C   UNL A   1      41.723  21.904  26.861  1.00  0.00     0.126 C 
ATOM      2  C   UNL A   1      41.923  21.704  28.361  1.00  0.00     0.025 C 
ENDROOT
BRANCH   1   3
ATOM      3  C   UNL A   1      40.294  22.285  26.501  1.00  0.00    -0.031 A 
ATOM      4  C   UNL A   1      37.602  22.935  25.831  1.00  0.00     0.018 A 
ATOM      5  C   UNL A   1      38.434  23.860  26.482  1.00  0.00     0.012 A 
ATOM      6  C   UNL A   1      38.148  21.682  25.527  1.00  0.00     0.131 A 
ATOM      7  C   UNL A   1      39.759  23.542  26.809  1.00  0.00     0.005 A 
ATOM      8  C   UNL A   1      39.467  21.360  25.847  1.00  0.00     0.044 A 
ATOM      9  F   UNL A   1      37.411  20.756  24.892  1.00  0.00    -0.206 F 
BRANCH   4  10
ATOM     10  C   UNL A   1      36.217  23.285  25.483  1.00  0.00    -0.012 A 
ATOM     11  C   UNL A   1      33.833  23.225  25.933  1.00  0.00     0.133 A 
ATOM     12  C   UNL A   1      33.568  23.975  24.789  1.00  0.00     0.047 A 
ATOM     13  C   UNL A   1      35.137  22.862  26.274  1.00  0.00     0.056 A 
ATOM     14  C   UNL A   1      34.628  24.397  23.992  1.00  0.00     0.004 A 
ATOM     15  C   UNL A   1      35.940  24.058  24.339  1.00  0.00     0.009 A 
BRANCH  11  16
ATOM     16  O   UNL A   1      32.727  22.761  26.660  1.00  0.00    -0.410 OA
BRANCH  16  17
ATOM     17  C   UNL A   1      31.662  22.245  25.938  1.00  0.00     0.412 C 
ATOM     18  N   UNL A   1      31.853  20.945  25.554  1.00  0.00    -0.321 N 
ATOM     19  H   UNL A   1      31.111  20.517  25.066  1.00  0.00     0.167 HD
ATOM     20  O   UNL A   1      30.638  22.842  25.629  1.00  0.00    -0.224 OA
BRANCH  18  21
ATOM     21  C   UNL A   1      33.027  20.131  25.787  1.00  0.00     0.119 C 
BRANCH  21  22
ATOM     22  C   UNL A   1      33.731  19.743  24.487  1.00  0.00     0.021 C 
BRANCH  22  23
ATOM     23  C   UNL A   1      34.110  18.260  24.369  1.00  0.00     0.002 C 
BRANCH  23  24
ATOM     24  C   UNL A   1      33.121  17.380  23.600  1.00  0.00    -0.003 C 
ATOM     25  C   UNL A   1      32.447  18.092  22.437  1.00  0.00     0.004 C 
ENDBRANCH  23  24
ENDBRANCH  22  23
ENDBRANCH  21  22
ENDBRANCH  18  21
ENDBRANCH  16  17
ENDBRANCH  11  16
ENDBRANCH   4  10
ENDBRANCH   1   3
BRANCH   1  26
ATOM     26  C   UNL A   1      42.303  20.719  26.096  1.00  0.00     0.313 C 
ATOM     27  O   UNL A   1      42.041  19.558  26.397  1.00  0.00    -0.252 OA
BRANCH  26  28
ATOM     28  O   UNL A   1      43.085  21.079  25.044  1.00  0.00    -0.462 OA
BRANCH  28  29
ATOM     29  C   UNL A   1      44.304  21.784  25.346  1.00  0.00     0.274 C 
BRANCH  29  30
ATOM     30  C   UNL A   1      44.566  22.907  24.340  1.00  0.00     0.275 C 
BRANCH  30  31
ATOM     31  O   UNL A   1      43.829  24.096  24.680  1.00  0.00    -0.458 OA
BRANCH  31  32
ATOM     32  C   UNL A   1      44.577  25.111  25.168  1.00  0.00     0.338 C 
ATOM     33  O   UNL A   1      45.644  25.519  24.748  1.00  0.00    -0.246 OA
BRANCH  32  34
ATOM     34  C   UNL A   1      43.845  25.781  26.252  1.00  0.00     0.060 A 
ATOM     35  C   UNL A   1      44.030  27.155  26.417  1.00  0.00     0.016 A 
ATOM     36  C   UNL A   1      43.059  25.056  27.148  1.00  0.00     0.016 A 
ATOM     37  C   UNL A   1      43.442  27.815  27.489  1.00  0.00     0.010 A 
ATOM     38  C   UNL A   1      42.460  25.721  28.222  1.00  0.00     0.010 A 
ATOM     39  C   UNL A   1      42.661  27.101  28.406  1.00  0.00    -0.014 A 
BRANCH  39  40
ATOM     40  C   UNL A   1      42.091  27.798  29.581  1.00  0.00     0.031 A 
ATOM     41  C   UNL A   1      40.784  28.526  29.460  1.00  0.00     0.074 A 
ATOM     42  C   UNL A   1      42.736  27.756  30.761  1.00  0.00     0.049 A 
ATOM     43  N   UNL A   1      40.153  29.243  30.354  1.00  0.00    -0.248 NA
ATOM     44  C   UNL A   1      40.097  28.434  28.163  1.00  0.00     0.031 C 
ATOM     45  C   UNL A   1      43.985  27.038  31.016  1.00  0.00     0.029 A 
ATOM     46  N   UNL A   1      42.423  28.328  31.966  1.00  0.00    -0.354 N 
ATOM     47  C   UNL A   1      39.006  29.705  29.722  1.00  0.00     0.074 A 
ATOM     48  C   UNL A   1      39.035  29.199  28.367  1.00  0.00     0.031 C 
ATOM     49  C   UNL A   1      44.328  27.207  32.304  1.00  0.00     0.029 A 
ATOM     50  C   UNL A   1      43.349  28.078  32.948  1.00  0.00     0.049 A 
ATOM     51  H   UNL A   1      41.611  28.866  32.115  1.00  0.00     0.167 HD
ATOM     52  C   UNL A   1      38.018  30.483  30.228  1.00  0.00     0.031 A 
ATOM     53  C   UNL A   1      43.416  28.522  34.216  1.00  0.00     0.031 A 
ATOM     54  C   UNL A   1      37.989  30.985  31.576  1.00  0.00     0.049 A 
ATOM     55  C   UNL A   1      42.342  29.439  34.732  1.00  0.00     0.074 A 
ATOM     56  C   UNL A   1      37.026  31.772  32.184  1.00  0.00     0.029 A 
ATOM     57  N   UNL A   1      38.972  30.750  32.526  1.00  0.00    -0.354 N 
ATOM     58  N   UNL A   1      41.267  29.875  34.124  1.00  0.00    -0.248 NA
ATOM     59  C   UNL A   1      42.497  29.926  36.110  1.00  0.00     0.031 C 
ATOM     60  C   UNL A   1      37.448  32.048  33.490  1.00  0.00     0.029 A 
ATOM     61  C   UNL A   1      38.651  31.395  33.707  1.00  0.00     0.049 A 
ATOM     62  H   UNL A   1      39.778  30.204  32.380  1.00  0.00     0.167 HD
ATOM     63  C   UNL A   1      40.608  30.676  35.048  1.00  0.00     0.074 A 
ATOM     64  C   UNL A   1      41.398  30.652  36.262  1.00  0.00     0.031 C 
ATOM     65  C   UNL A   1      39.452  31.368  34.902  1.00  0.00     0.031 A 
BRANCH  52  66
ATOM     66  C   UNL A   1      36.907  30.870  29.297  1.00  0.00    -0.014 A 
ATOM     67  C   UNL A   1      35.940  29.941  28.885  1.00  0.00     0.009 A 
ATOM     68  C   UNL A   1      36.819  32.194  28.836  1.00  0.00     0.009 A 
ATOM     69  C   UNL A   1      34.925  30.322  28.004  1.00  0.00     0.001 A 
ATOM     70  C   UNL A   1      35.790  32.577  27.975  1.00  0.00     0.001 A 
ATOM     71  C   UNL A   1      34.850  31.639  27.552  1.00  0.00     0.000 A 
ENDBRANCH  52  66
BRANCH  53  72
ATOM     72  C   UNL A   1      44.555  28.124  35.079  1.00  0.00    -0.014 A 
ATOM     73  C   UNL A   1      45.728  28.893  35.112  1.00  0.00     0.009 A 
ATOM     74  C   UNL A   1      44.471  26.974  35.880  1.00  0.00     0.009 A 
ATOM     75  C   UNL A   1      46.799  28.509  35.923  1.00  0.00     0.001 A 
ATOM     76  C   UNL A   1      45.535  26.608  36.707  1.00  0.00     0.001 A 
ATOM     77  C   UNL A   1      46.700  27.372  36.722  1.00  0.00     0.000 A 
ENDBRANCH  53  72
BRANCH  65  78
ATOM     78  C   UNL A   1      38.964  32.136  36.096  1.00  0.00    -0.014 A 
ATOM     79  C   UNL A   1      39.348  33.470  36.306  1.00  0.00     0.009 A 
ATOM     80  C   UNL A   1      38.083  31.527  37.003  1.00  0.00     0.009 A 
ATOM     81  C   UNL A   1      38.880  34.169  37.420  1.00  0.00     0.001 A 
ATOM     82  C   UNL A   1      37.599  32.238  38.102  1.00  0.00     0.001 A 
ATOM     83  C   UNL A   1      38.004  33.555  38.314  1.00  0.00     0.000 A 
ENDBRANCH  65  78
ENDBRANCH  39  40
ENDBRANCH  32  34
ENDBRANCH  31  32
ENDBRANCH  30  31
ENDBRANCH  29  30
ENDBRANCH  28  29
ENDBRANCH  26  28
ENDBRANCH   1  26
TORSDOF 19
ENDMDL
