MODEL 1
REMARK VINA RESULT:     -12.3      0.000      0.000
REMARK SMILES CC1=C(C#N)c2nc(N)c(C#N)c(C)c2/C1=C/c1ccc(-c2ccc(C(=O)OCCOC(=O)c3ccc(-c4c5nc(c(-c6ccccc6)c6ccc([nH]6)c(-c6ccccc6)c6nc(c(-c7ccccc7)c7ccc4[nH]7)C=C6)C=C5)cc3)cc2)o1
REMARK SMILES IDX 29 1 28 2 26 3 27 4 25 5 22 6 23 7 83 8 24 9 82 10 21 11
REMARK SMILES IDX 18 12 19 13 84 14 20 15 17 16 1 17 2 18 3 19 16 20 6 21
REMARK SMILES IDX 15 22 7 23 13 24 8 25 10 26 14 27 4 28 5 29 9 30 11 33 12 34
REMARK SMILES IDX 30 35 31 36 32 37 33 38 34 39 35 40 81 41 36 42 80 43 37 44
REMARK SMILES IDX 38 45 39 46 74 47 40 48 79 49 73 50 75 51 41 52 78 53 72 54
REMARK SMILES IDX 71 55 42 57 64 58 49 59 63 60 50 61 53 62 62 63 76 64 51 65
REMARK SMILES IDX 52 66 61 68 77 69 54 70 43 71 44 72 48 73 45 74 47 75 46 76
REMARK SMILES IDX 65 77 66 78 70 79 67 80 69 81 68 82 55 83 56 84 60 85 57 86
REMARK SMILES IDX 59 87 58 88
REMARK H PARENT 9 31 9 32 75 56 53 67
REMARK Flexibility Score: inf
ROOT
ATOM      1  C   UNL A   1      43.596  20.054  25.665  1.00  0.00     0.275 C 
ENDROOT
BRANCH   1   2
ATOM      2  O   UNL A   1      42.194  20.083  25.322  1.00  0.00    -0.458 OA
BRANCH   2   3
ATOM      3  C   UNL A   1      41.336  20.164  26.367  1.00  0.00     0.338 C 
ATOM      4  O   UNL A   1      41.607  19.985  27.545  1.00  0.00    -0.246 OA
BRANCH   3   5
ATOM      5  C   UNL A   1      39.986  20.575  25.921  1.00  0.00     0.060 A 
ATOM      6  C   UNL A   1      37.331  21.331  25.419  1.00  0.00     0.017 A 
ATOM      7  C   UNL A   1      38.223  22.251  25.962  1.00  0.00     0.013 A 
ATOM      8  C   UNL A   1      37.792  20.052  25.066  1.00  0.00     0.013 A 
ATOM      9  C   UNL A   1      39.526  21.859  26.245  1.00  0.00     0.016 A 
ATOM     10  C   UNL A   1      39.122  19.677  25.297  1.00  0.00     0.016 A 
BRANCH   6  11
ATOM     11  C   UNL A   1      35.919  21.654  25.378  1.00  0.00     0.134 A 
ATOM     12  C   UNL A   1      34.210  23.069  25.369  1.00  0.00     0.128 A 
ATOM     13  C   UNL A   1      33.700  21.775  25.401  1.00  0.00     0.051 A 
ATOM     14  O   UNL A   1      35.584  22.974  25.347  1.00  0.00    -0.457 OA
ATOM     15  C   UNL A   1      34.788  20.878  25.428  1.00  0.00     0.051 A 
BRANCH  12  16
ATOM     16  C   UNL A   1      33.519  24.298  25.227  1.00  0.00     0.056 C 
ATOM     17  C   UNL A   1      33.602  23.021  22.260  1.00  0.00     0.046 C 
ATOM     18  C   UNL A   1      33.273  24.417  22.680  1.00  0.00    -0.023 C 
ATOM     19  C   UNL A   1      32.887  25.407  21.843  1.00  0.00     0.082 C 
ATOM     20  C   UNL A   1      33.200  24.911  24.074  1.00  0.00    -0.008 C 
ATOM     21  C   UNL A   1      32.537  26.574  22.647  1.00  0.00     0.092 A 
ATOM     22  C   UNL A   1      32.694  26.311  24.010  1.00  0.00     0.014 A 
ATOM     23  N   UNL A   1      32.138  27.737  22.106  1.00  0.00    -0.228 NA
ATOM     24  C   UNL A   1      32.432  27.345  24.913  1.00  0.00    -0.019 A 
ATOM     25  C   UNL A   1      31.868  28.732  22.969  1.00  0.00     0.142 A 
ATOM     26  C   UNL A   1      32.009  28.586  24.363  1.00  0.00     0.098 A 
ATOM     27  C   UNL A   1      32.615  27.176  26.395  1.00  0.00     0.046 C 
BRANCH  19  28
ATOM     28  C   UNL A   1      32.789  25.343  20.435  1.00  0.00     0.102 C 
ATOM     29  N   UNL A   1      32.753  25.272  19.275  1.00  0.00    -0.192 NA
ENDBRANCH  19  28
BRANCH  25  30
ATOM     30  N   UNL A   1      31.539  29.930  22.369  1.00  0.00    -0.383 N 
ATOM     31  H   UNL A   1      32.179  30.677  22.376  1.00  0.00     0.158 HD
ATOM     32  H   UNL A   1      30.662  30.038  21.933  1.00  0.00     0.158 HD
ENDBRANCH  25  30
BRANCH  26  33
ATOM     33  C   UNL A   1      31.721  29.713  25.202  1.00  0.00     0.103 C 
ATOM     34  N   UNL A   1      31.481  30.636  25.864  1.00  0.00    -0.192 NA
ENDBRANCH  26  33
ENDBRANCH  12  16
ENDBRANCH   6  11
ENDBRANCH   3   5
ENDBRANCH   2   3
ENDBRANCH   1   2
BRANCH   1  35
ATOM     35  C   UNL A   1      44.359  21.187  24.975  1.00  0.00     0.275 C 
BRANCH  35  36
ATOM     36  O   UNL A   1      43.492  22.308  24.719  1.00  0.00    -0.458 OA
BRANCH  36  37
ATOM     37  C   UNL A   1      44.078  23.518  24.848  1.00  0.00     0.338 C 
ATOM     38  O   UNL A   1      45.078  23.926  24.282  1.00  0.00    -0.246 OA
BRANCH  37  39
ATOM     39  C   UNL A   1      43.284  24.379  25.731  1.00  0.00     0.060 A 
ATOM     40  C   UNL A   1      43.490  25.749  25.650  1.00  0.00     0.016 A 
ATOM     41  C   UNL A   1      42.542  23.847  26.780  1.00  0.00     0.016 A 
ATOM     42  C   UNL A   1      43.131  26.572  26.708  1.00  0.00     0.010 A 
ATOM     43  C   UNL A   1      42.024  24.707  27.757  1.00  0.00     0.010 A 
ATOM     44  C   UNL A   1      42.363  26.074  27.767  1.00  0.00    -0.014 A 
BRANCH  44  45
ATOM     45  C   UNL A   1      41.931  26.982  28.869  1.00  0.00     0.031 A 
ATOM     46  C   UNL A   1      42.749  27.106  30.129  1.00  0.00     0.074 A 
ATOM     47  C   UNL A   1      40.808  27.720  28.733  1.00  0.00     0.049 A 
ATOM     48  N   UNL A   1      42.458  27.727  31.246  1.00  0.00    -0.248 NA
ATOM     49  C   UNL A   1      44.060  26.437  30.146  1.00  0.00     0.031 C 
ATOM     50  C   UNL A   1      39.948  27.752  27.546  1.00  0.00     0.029 A 
ATOM     51  N   UNL A   1      40.203  28.601  29.595  1.00  0.00    -0.354 N 
ATOM     52  C   UNL A   1      43.518  27.478  32.109  1.00  0.00     0.074 A 
ATOM     53  C   UNL A   1      44.450  26.631  31.397  1.00  0.00     0.031 C 
ATOM     54  C   UNL A   1      38.972  28.650  27.729  1.00  0.00     0.029 A 
ATOM     55  C   UNL A   1      39.058  29.168  29.086  1.00  0.00     0.049 A 
ATOM     56  H   UNL A   1      40.555  28.807  30.491  1.00  0.00     0.167 HD
ATOM     57  C   UNL A   1      43.702  27.920  33.376  1.00  0.00     0.031 A 
ATOM     58  C   UNL A   1      38.144  29.978  29.651  1.00  0.00     0.031 A 
ATOM     59  C   UNL A   1      42.783  28.785  34.069  1.00  0.00     0.049 A 
ATOM     60  C   UNL A   1      38.321  30.381  31.084  1.00  0.00     0.074 A 
ATOM     61  C   UNL A   1      42.881  29.294  35.353  1.00  0.00     0.029 A 
ATOM     62  N   UNL A   1      41.600  29.275  33.535  1.00  0.00    -0.354 N 
ATOM     63  N   UNL A   1      39.309  30.106  31.900  1.00  0.00    -0.248 NA
ATOM     64  C   UNL A   1      37.253  31.195  31.678  1.00  0.00     0.031 C 
ATOM     65  C   UNL A   1      41.726  30.034  35.618  1.00  0.00     0.029 A 
ATOM     66  C   UNL A   1      40.943  30.053  34.475  1.00  0.00     0.049 A 
ATOM     67  H   UNL A   1      41.275  29.097  32.623  1.00  0.00     0.167 HD
ATOM     68  C   UNL A   1      38.993  30.727  33.100  1.00  0.00     0.074 A 
ATOM     69  C   UNL A   1      37.731  31.410  32.896  1.00  0.00     0.031 C 
ATOM     70  C   UNL A   1      39.686  30.724  34.264  1.00  0.00     0.031 A 
BRANCH  57  71
ATOM     71  C   UNL A   1      44.927  27.448  34.117  1.00  0.00    -0.014 A 
ATOM     72  C   UNL A   1      46.111  28.201  34.139  1.00  0.00     0.009 A 
ATOM     73  C   UNL A   1      44.877  26.248  34.845  1.00  0.00     0.009 A 
ATOM     74  C   UNL A   1      47.228  27.746  34.846  1.00  0.00     0.001 A 
ATOM     75  C   UNL A   1      45.982  25.812  35.580  1.00  0.00     0.001 A 
ATOM     76  C   UNL A   1      47.160  26.557  35.571  1.00  0.00     0.000 A 
ENDBRANCH  57  71
BRANCH  58  77
ATOM     77  C   UNL A   1      36.968  30.426  28.857  1.00  0.00    -0.014 A 
ATOM     78  C   UNL A   1      35.956  29.519  28.512  1.00  0.00     0.009 A 
ATOM     79  C   UNL A   1      36.822  31.774  28.489  1.00  0.00     0.009 A 
ATOM     80  C   UNL A   1      34.825  29.952  27.816  1.00  0.00     0.001 A 
ATOM     81  C   UNL A   1      35.674  32.211  27.825  1.00  0.00     0.001 A 
ATOM     82  C   UNL A   1      34.680  31.298  27.485  1.00  0.00     0.000 A 
ENDBRANCH  58  77
BRANCH  70  83
ATOM     83  C   UNL A   1      39.111  31.504  35.412  1.00  0.00    -0.014 A 
ATOM     84  C   UNL A   1      38.267  30.895  36.355  1.00  0.00     0.009 A 
ATOM     85  C   UNL A   1      39.479  32.847  35.595  1.00  0.00     0.009 A 
ATOM     86  C   UNL A   1      37.787  31.624  37.445  1.00  0.00     0.001 A 
ATOM     87  C   UNL A   1      39.025  33.561  36.705  1.00  0.00     0.001 A 
ATOM     88  C   UNL A   1      38.174  32.952  37.624  1.00  0.00     0.000 A 
ENDBRANCH  70  83
ENDBRANCH  44  45
ENDBRANCH  37  39
ENDBRANCH  36  37
ENDBRANCH  35  36
ENDBRANCH   1  35
TORSDOF 16
ENDMDL
MODEL 2
REMARK VINA RESULT:     -12.3      4.701      9.925
REMARK SMILES CC1=C(C#N)c2nc(N)c(C#N)c(C)c2/C1=C/c1ccc(-c2ccc(C(=O)OCCOC(=O)c3ccc(-c4c5nc(c(-c6ccccc6)c6ccc([nH]6)c(-c6ccccc6)c6nc(c(-c7ccccc7)c7ccc4[nH]7)C=C6)C=C5)cc3)cc2)o1
REMARK SMILES IDX 29 1 28 2 26 3 27 4 25 5 22 6 23 7 83 8 24 9 82 10 21 11
REMARK SMILES IDX 18 12 19 13 84 14 20 15 17 16 1 17 2 18 3 19 16 20 6 21
REMARK SMILES IDX 15 22 7 23 13 24 8 25 10 26 14 27 4 28 5 29 9 30 11 33 12 34
REMARK SMILES IDX 30 35 31 36 32 37 33 38 34 39 35 40 81 41 36 42 80 43 37 44
REMARK SMILES IDX 38 45 39 46 74 47 40 48 79 49 73 50 75 51 41 52 78 53 72 54
REMARK SMILES IDX 71 55 42 57 64 58 49 59 63 60 50 61 53 62 62 63 76 64 51 65
REMARK SMILES IDX 52 66 61 68 77 69 54 70 43 71 44 72 48 73 45 74 47 75 46 76
REMARK SMILES IDX 65 77 66 78 70 79 67 80 69 81 68 82 55 83 56 84 60 85 57 86
REMARK SMILES IDX 59 87 58 88
REMARK H PARENT 9 31 9 32 75 56 53 67
REMARK Flexibility Score: inf
ROOT
ATOM      1  C   UNL A   1      34.401  34.430  31.213  1.00  0.00     0.275 C 
ENDROOT
BRANCH   1   2
ATOM      2  O   UNL A   1      33.901  33.482  30.246  1.00  0.00    -0.458 OA
BRANCH   2   3
ATOM      3  C   UNL A   1      34.597  33.404  29.087  1.00  0.00     0.338 C 
ATOM      4  O   UNL A   1      35.485  34.160  28.720  1.00  0.00    -0.246 OA
BRANCH   3   5
ATOM      5  C   UNL A   1      34.200  32.213  28.302  1.00  0.00     0.060 A 
ATOM      6  C   UNL A   1      33.658  30.084  26.558  1.00  0.00     0.017 A 
ATOM      7  C   UNL A   1      34.860  30.118  27.258  1.00  0.00     0.013 A 
ATOM      8  C   UNL A   1      32.700  31.086  26.787  1.00  0.00     0.013 A 
ATOM      9  C   UNL A   1      35.139  31.196  28.091  1.00  0.00     0.016 A 
ATOM     10  C   UNL A   1      32.959  32.141  27.672  1.00  0.00     0.016 A 
BRANCH   6  11
ATOM     11  C   UNL A   1      33.485  29.113  25.496  1.00  0.00     0.134 A 
ATOM     12  C   UNL A   1      33.680  27.088  24.613  1.00  0.00     0.128 A 
ATOM     13  C   UNL A   1      33.154  27.934  23.642  1.00  0.00     0.051 A 
ATOM     14  O   UNL A   1      33.871  27.834  25.755  1.00  0.00    -0.457 OA
ATOM     15  C   UNL A   1      33.051  29.225  24.198  1.00  0.00     0.051 A 
BRANCH  12  16
ATOM     16  C   UNL A   1      33.869  25.683  24.567  1.00  0.00     0.056 C 
ATOM     17  C   UNL A   1      30.913  26.105  25.803  1.00  0.00     0.046 C 
ATOM     18  C   UNL A   1      31.766  24.879  25.790  1.00  0.00    -0.023 C 
ATOM     19  C   UNL A   1      31.395  23.672  26.274  1.00  0.00     0.082 C 
ATOM     20  C   UNL A   1      33.095  24.750  25.147  1.00  0.00    -0.008 C 
ATOM     21  C   UNL A   1      32.448  22.711  25.961  1.00  0.00     0.092 A 
ATOM     22  C   UNL A   1      33.492  23.319  25.260  1.00  0.00     0.014 A 
ATOM     23  N   UNL A   1      32.390  21.421  26.334  1.00  0.00    -0.228 NA
ATOM     24  C   UNL A   1      34.598  22.535  24.918  1.00  0.00    -0.019 A 
ATOM     25  C   UNL A   1      33.443  20.657  25.994  1.00  0.00     0.142 A 
ATOM     26  C   UNL A   1      34.559  21.168  25.303  1.00  0.00     0.098 A 
ATOM     27  C   UNL A   1      35.790  23.107  24.203  1.00  0.00     0.046 C 
BRANCH  19  28
ATOM     28  C   UNL A   1      30.188  23.354  26.936  1.00  0.00     0.102 C 
ATOM     29  N   UNL A   1      29.216  23.054  27.499  1.00  0.00    -0.192 NA
ENDBRANCH  19  28
BRANCH  25  30
ATOM     30  N   UNL A   1      33.379  19.361  26.465  1.00  0.00    -0.383 N 
ATOM     31  H   UNL A   1      34.010  19.056  27.156  1.00  0.00     0.158 HD
ATOM     32  H   UNL A   1      32.702  18.741  26.109  1.00  0.00     0.158 HD
ENDBRANCH  25  30
BRANCH  26  33
ATOM     33  C   UNL A   1      35.646  20.279  25.006  1.00  0.00     0.103 C 
ATOM     34  N   UNL A   1      36.512  19.550  24.753  1.00  0.00    -0.192 NA
ENDBRANCH  26  33
ENDBRANCH  12  16
ENDBRANCH   6  11
ENDBRANCH   3   5
ENDBRANCH   2   3
ENDBRANCH   1   2
BRANCH   1  35
ATOM     35  C   UNL A   1      34.401  33.837  32.624  1.00  0.00     0.275 C 
BRANCH  35  36
ATOM     36  O   UNL A   1      34.848  32.468  32.604  1.00  0.00    -0.458 OA
BRANCH  36  37
ATOM     37  C   UNL A   1      36.039  32.254  33.204  1.00  0.00     0.338 C 
ATOM     38  O   UNL A   1      36.360  32.534  34.346  1.00  0.00    -0.246 OA
BRANCH  37  39
ATOM     39  C   UNL A   1      36.939  31.521  32.306  1.00  0.00     0.060 A 
ATOM     40  C   UNL A   1      37.798  30.591  32.874  1.00  0.00     0.016 A 
ATOM     41  C   UNL A   1      37.112  31.911  30.983  1.00  0.00     0.016 A 
ATOM     42  C   UNL A   1      38.943  30.194  32.198  1.00  0.00     0.010 A 
ATOM     43  C   UNL A   1      38.169  31.368  30.242  1.00  0.00     0.010 A 
ATOM     44  C   UNL A   1      39.134  30.548  30.858  1.00  0.00    -0.014 A 
BRANCH  44  45
ATOM     45  C   UNL A   1      40.339  30.065  30.122  1.00  0.00     0.031 A 
ATOM     46  C   UNL A   1      41.555  30.944  29.974  1.00  0.00     0.074 A 
ATOM     47  C   UNL A   1      40.355  28.820  29.600  1.00  0.00     0.049 A 
ATOM     48  N   UNL A   1      42.629  30.754  29.249  1.00  0.00    -0.248 NA
ATOM     49  C   UNL A   1      41.563  32.209  30.728  1.00  0.00     0.031 C 
ATOM     50  C   UNL A   1      39.277  27.833  29.716  1.00  0.00     0.029 A 
ATOM     51  N   UNL A   1      41.320  28.161  28.878  1.00  0.00    -0.354 N 
ATOM     52  C   UNL A   1      43.410  31.891  29.417  1.00  0.00     0.074 A 
ATOM     53  C   UNL A   1      42.677  32.779  30.293  1.00  0.00     0.031 C 
ATOM     54  C   UNL A   1      39.664  26.683  29.150  1.00  0.00     0.029 A 
ATOM     55  C   UNL A   1      40.961  26.882  28.522  1.00  0.00     0.049 A 
ATOM     56  H   UNL A   1      42.186  28.565  28.639  1.00  0.00     0.167 HD
ATOM     57  C   UNL A   1      44.628  32.169  28.893  1.00  0.00     0.031 A 
ATOM     58  C   UNL A   1      41.575  25.977  27.738  1.00  0.00     0.031 A 
ATOM     59  C   UNL A   1      45.364  31.269  28.042  1.00  0.00     0.049 A 
ATOM     60  C   UNL A   1      42.880  26.339  27.096  1.00  0.00     0.074 A 
ATOM     61  C   UNL A   1      46.608  31.454  27.466  1.00  0.00     0.029 A 
ATOM     62  N   UNL A   1      44.926  30.013  27.651  1.00  0.00    -0.354 N 
ATOM     63  N   UNL A   1      43.587  27.434  27.233  1.00  0.00    -0.248 NA
ATOM     64  C   UNL A   1      43.465  25.350  26.183  1.00  0.00     0.031 C 
ATOM     65  C   UNL A   1      46.891  30.340  26.672  1.00  0.00     0.029 A 
ATOM     66  C   UNL A   1      45.861  29.425  26.814  1.00  0.00     0.049 A 
ATOM     67  H   UNL A   1      44.076  29.598  27.928  1.00  0.00     0.167 HD
ATOM     68  C   UNL A   1      44.711  27.260  26.437  1.00  0.00     0.074 A 
ATOM     69  C   UNL A   1      44.600  25.945  25.840  1.00  0.00     0.031 C 
ATOM     70  C   UNL A   1      45.738  28.118  26.222  1.00  0.00     0.031 A 
BRANCH  57  71
ATOM     71  C   UNL A   1      45.234  33.516  29.193  1.00  0.00    -0.014 A 
ATOM     72  C   UNL A   1      46.102  33.710  30.278  1.00  0.00     0.009 A 
ATOM     73  C   UNL A   1      44.966  34.601  28.341  1.00  0.00     0.009 A 
ATOM     74  C   UNL A   1      46.661  34.967  30.524  1.00  0.00     0.001 A 
ATOM     75  C   UNL A   1      45.553  35.848  28.568  1.00  0.00     0.001 A 
ATOM     76  C   UNL A   1      46.391  36.033  29.665  1.00  0.00     0.000 A 
ENDBRANCH  57  71
BRANCH  58  77
ATOM     77  C   UNL A   1      40.933  24.655  27.501  1.00  0.00    -0.014 A 
ATOM     78  C   UNL A   1      39.852  24.539  26.616  1.00  0.00     0.009 A 
ATOM     79  C   UNL A   1      41.434  23.494  28.114  1.00  0.00     0.009 A 
ATOM     80  C   UNL A   1      39.287  23.289  26.350  1.00  0.00     0.001 A 
ATOM     81  C   UNL A   1      40.891  22.242  27.819  1.00  0.00     0.001 A 
ATOM     82  C   UNL A   1      39.814  22.142  26.941  1.00  0.00     0.000 A 
ENDBRANCH  58  77
BRANCH  70  83
ATOM     83  C   UNL A   1      46.844  27.657  25.315  1.00  0.00    -0.014 A 
ATOM     84  C   UNL A   1      46.803  27.902  23.933  1.00  0.00     0.009 A 
ATOM     85  C   UNL A   1      47.977  27.034  25.863  1.00  0.00     0.009 A 
ATOM     86  C   UNL A   1      47.867  27.513  23.117  1.00  0.00     0.001 A 
ATOM     87  C   UNL A   1      49.054  26.679  25.048  1.00  0.00     0.001 A 
ATOM     88  C   UNL A   1      48.994  26.912  23.676  1.00  0.00     0.000 A 
ENDBRANCH  70  83
ENDBRANCH  44  45
ENDBRANCH  37  39
ENDBRANCH  36  37
ENDBRANCH  35  36
ENDBRANCH   1  35
TORSDOF 16
ENDMDL
MODEL 3
REMARK VINA RESULT:     -12.1      4.727     10.198
REMARK SMILES CC1=C(C#N)c2nc(N)c(C#N)c(C)c2/C1=C/c1ccc(-c2ccc(C(=O)OCCOC(=O)c3ccc(-c4c5nc(c(-c6ccccc6)c6ccc([nH]6)c(-c6ccccc6)c6nc(c(-c7ccccc7)c7ccc4[nH]7)C=C6)C=C5)cc3)cc2)o1
REMARK SMILES IDX 29 1 28 2 26 3 27 4 25 5 22 6 23 7 83 8 24 9 82 10 21 11
REMARK SMILES IDX 18 12 19 13 84 14 20 15 17 16 1 17 2 18 3 19 16 20 6 21
REMARK SMILES IDX 15 22 7 23 13 24 8 25 10 26 14 27 4 28 5 29 9 30 11 33 12 34
REMARK SMILES IDX 30 35 31 36 32 37 33 38 34 39 35 40 81 41 36 42 80 43 37 44
REMARK SMILES IDX 38 45 39 46 74 47 40 48 79 49 73 50 75 51 41 52 78 53 72 54
REMARK SMILES IDX 71 55 42 57 64 58 49 59 63 60 50 61 53 62 62 63 76 64 51 65
REMARK SMILES IDX 52 66 61 68 77 69 54 70 43 71 44 72 48 73 45 74 47 75 46 76
REMARK SMILES IDX 65 77 66 78 70 79 67 80 69 81 68 82 55 83 56 84 60 85 57 86
REMARK SMILES IDX 59 87 58 88
REMARK H PARENT 9 31 9 32 75 56 53 67
REMARK Flexibility Score: inf
ROOT
ATOM      1  C   UNL A   1      34.835  34.080  31.778  1.00  0.00     0.275 C 
ENDROOT
BRANCH   1   2
ATOM      2  O   UNL A   1      34.244  33.218  30.782  1.00  0.00    -0.458 OA
BRANCH   2   3
ATOM      3  C   UNL A   1      34.803  33.276  29.550  1.00  0.00     0.338 C 
ATOM      4  O   UNL A   1      35.610  34.105  29.156  1.00  0.00    -0.246 OA
BRANCH   3   5
ATOM      5  C   UNL A   1      34.364  32.139  28.709  1.00  0.00     0.060 A 
ATOM      6  C   UNL A   1      33.774  30.098  26.877  1.00  0.00     0.017 A 
ATOM      7  C   UNL A   1      34.921  30.015  27.661  1.00  0.00     0.013 A 
ATOM      8  C   UNL A   1      32.889  31.173  27.063  1.00  0.00     0.013 A 
ATOM      9  C   UNL A   1      35.229  31.049  28.538  1.00  0.00     0.016 A 
ATOM     10  C   UNL A   1      33.170  32.184  27.991  1.00  0.00     0.016 A 
BRANCH   6  11
ATOM     11  C   UNL A   1      33.598  29.166  25.782  1.00  0.00     0.134 A 
ATOM     12  C   UNL A   1      33.787  27.172  24.827  1.00  0.00     0.128 A 
ATOM     13  C   UNL A   1      33.263  28.054  23.887  1.00  0.00     0.051 A 
ATOM     14  O   UNL A   1      33.980  27.876  25.995  1.00  0.00    -0.457 OA
ATOM     15  C   UNL A   1      33.163  29.325  24.489  1.00  0.00     0.051 A 
BRANCH  12  16
ATOM     16  C   UNL A   1      33.972  25.770  24.731  1.00  0.00     0.056 C 
ATOM     17  C   UNL A   1      30.991  26.157  25.916  1.00  0.00     0.046 C 
ATOM     18  C   UNL A   1      31.840  24.928  25.875  1.00  0.00    -0.023 C 
ATOM     19  C   UNL A   1      31.453  23.705  26.304  1.00  0.00     0.082 C 
ATOM     20  C   UNL A   1      33.182  24.819  25.257  1.00  0.00    -0.008 C 
ATOM     21  C   UNL A   1      32.510  22.752  25.977  1.00  0.00     0.092 A 
ATOM     22  C   UNL A   1      33.571  23.382  25.323  1.00  0.00     0.014 A 
ATOM     23  N   UNL A   1      32.439  21.449  26.299  1.00  0.00    -0.228 NA
ATOM     24  C   UNL A   1      34.682  22.608  24.975  1.00  0.00    -0.019 A 
ATOM     25  C   UNL A   1      33.497  20.694  25.953  1.00  0.00     0.142 A 
ATOM     26  C   UNL A   1      34.630  21.226  25.306  1.00  0.00     0.098 A 
ATOM     27  C   UNL A   1      35.891  23.201  24.310  1.00  0.00     0.046 C 
BRANCH  19  28
ATOM     28  C   UNL A   1      30.231  23.367  26.926  1.00  0.00     0.102 C 
ATOM     29  N   UNL A   1      29.223  23.133  27.457  1.00  0.00    -0.192 NA
ENDBRANCH  19  28
BRANCH  25  30
ATOM     30  N   UNL A   1      33.418  19.381  26.371  1.00  0.00    -0.383 N 
ATOM     31  H   UNL A   1      33.253  19.176  27.320  1.00  0.00     0.158 HD
ATOM     32  H   UNL A   1      33.526  18.650  25.721  1.00  0.00     0.158 HD
ENDBRANCH  25  30
BRANCH  26  33
ATOM     33  C   UNL A   1      35.720  20.345  24.999  1.00  0.00     0.103 C 
ATOM     34  N   UNL A   1      36.595  19.620  24.767  1.00  0.00    -0.192 NA
ENDBRANCH  26  33
ENDBRANCH  12  16
ENDBRANCH   6  11
ENDBRANCH   3   5
ENDBRANCH   2   3
ENDBRANCH   1   2
BRANCH   1  35
ATOM     35  C   UNL A   1      34.826  33.421  33.159  1.00  0.00     0.275 C 
BRANCH  35  36
ATOM     36  O   UNL A   1      35.363  32.086  33.093  1.00  0.00    -0.458 OA
BRANCH  36  37
ATOM     37  C   UNL A   1      36.624  31.960  33.559  1.00  0.00     0.338 C 
ATOM     38  O   UNL A   1      37.052  32.297  34.650  1.00  0.00    -0.246 OA
BRANCH  37  39
ATOM     39  C   UNL A   1      37.461  31.246  32.588  1.00  0.00     0.060 A 
ATOM     40  C   UNL A   1      38.542  30.527  33.075  1.00  0.00     0.016 A 
ATOM     41  C   UNL A   1      37.337  31.480  31.222  1.00  0.00     0.016 A 
ATOM     42  C   UNL A   1      39.601  30.206  32.237  1.00  0.00     0.010 A 
ATOM     43  C   UNL A   1      38.323  30.995  30.354  1.00  0.00     0.010 A 
ATOM     44  C   UNL A   1      39.498  30.404  30.855  1.00  0.00    -0.014 A 
BRANCH  44  45
ATOM     45  C   UNL A   1      40.619  30.000  29.958  1.00  0.00     0.031 A 
ATOM     46  C   UNL A   1      40.608  28.658  29.269  1.00  0.00     0.074 A 
ATOM     47  C   UNL A   1      41.647  30.847  29.740  1.00  0.00     0.049 A 
ATOM     48  N   UNL A   1      41.556  28.077  28.576  1.00  0.00    -0.248 NA
ATOM     49  C   UNL A   1      39.377  27.858  29.381  1.00  0.00     0.031 C 
ATOM     50  C   UNL A   1      41.766  32.202  30.288  1.00  0.00     0.029 A 
ATOM     51  N   UNL A   1      42.785  30.703  28.983  1.00  0.00    -0.354 N 
ATOM     52  C   UNL A   1      41.058  26.830  28.219  1.00  0.00     0.074 A 
ATOM     53  C   UNL A   1      39.733  26.726  28.790  1.00  0.00     0.031 C 
ATOM     54  C   UNL A   1      42.869  32.783  29.801  1.00  0.00     0.029 A 
ATOM     55  C   UNL A   1      43.603  31.809  29.008  1.00  0.00     0.049 A 
ATOM     56  H   UNL A   1      42.994  29.889  28.472  1.00  0.00     0.167 HD
ATOM     57  C   UNL A   1      41.648  25.861  27.477  1.00  0.00     0.031 A 
ATOM     58  C   UNL A   1      44.831  32.012  28.496  1.00  0.00     0.031 A 
ATOM     59  C   UNL A   1      42.957  25.982  26.889  1.00  0.00     0.049 A 
ATOM     60  C   UNL A   1      45.502  30.895  27.755  1.00  0.00     0.074 A 
ATOM     61  C   UNL A   1      43.641  25.061  26.116  1.00  0.00     0.029 A 
ATOM     62  N   UNL A   1      43.777  27.094  27.003  1.00  0.00    -0.354 N 
ATOM     63  N   UNL A   1      45.034  29.707  27.459  1.00  0.00    -0.248 NA
ATOM     64  C   UNL A   1      46.873  31.140  27.291  1.00  0.00     0.031 C 
ATOM     65  C   UNL A   1      44.901  25.588  25.820  1.00  0.00     0.029 A 
ATOM     66  C   UNL A   1      44.974  26.869  26.342  1.00  0.00     0.049 A 
ATOM     67  H   UNL A   1      43.544  27.923  27.482  1.00  0.00     0.167 HD
ATOM     68  C   UNL A   1      46.045  29.067  26.758  1.00  0.00     0.074 A 
ATOM     69  C   UNL A   1      47.142  30.008  26.654  1.00  0.00     0.031 C 
ATOM     70  C   UNL A   1      46.061  27.811  26.250  1.00  0.00     0.031 A 
BRANCH  57  71
ATOM     71  C   UNL A   1      40.901  24.566  27.287  1.00  0.00    -0.014 A 
ATOM     72  C   UNL A   1      39.755  24.487  26.481  1.00  0.00     0.009 A 
ATOM     73  C   UNL A   1      41.385  23.393  27.889  1.00  0.00     0.009 A 
ATOM     74  C   UNL A   1      39.090  23.269  26.311  1.00  0.00     0.001 A 
ATOM     75  C   UNL A   1      40.740  22.170  27.689  1.00  0.00     0.001 A 
ATOM     76  C   UNL A   1      39.587  22.111  26.909  1.00  0.00     0.000 A 
ENDBRANCH  57  71
BRANCH  58  77
ATOM     77  C   UNL A   1      45.503  33.324  28.701  1.00  0.00    -0.014 A 
ATOM     78  C   UNL A   1      45.371  34.347  27.751  1.00  0.00     0.009 A 
ATOM     79  C   UNL A   1      46.233  33.580  29.874  1.00  0.00     0.009 A 
ATOM     80  C   UNL A   1      45.955  35.597  27.971  1.00  0.00     0.001 A 
ATOM     81  C   UNL A   1      46.785  34.842  30.108  1.00  0.00     0.001 A 
ATOM     82  C   UNL A   1      46.650  35.846  29.154  1.00  0.00     0.000 A 
ENDBRANCH  58  77
BRANCH  70  83
ATOM     83  C   UNL A   1      47.297  27.379  25.512  1.00  0.00    -0.014 A 
ATOM     84  C   UNL A   1      48.337  26.703  26.168  1.00  0.00     0.009 A 
ATOM     85  C   UNL A   1      47.386  27.585  24.126  1.00  0.00     0.009 A 
ATOM     86  C   UNL A   1      49.453  26.262  25.453  1.00  0.00     0.001 A 
ATOM     87  C   UNL A   1      48.487  27.112  23.409  1.00  0.00     0.001 A 
ATOM     88  C   UNL A   1      49.521  26.458  24.074  1.00  0.00     0.000 A 
ENDBRANCH  70  83
ENDBRANCH  44  45
ENDBRANCH  37  39
ENDBRANCH  36  37
ENDBRANCH  35  36
ENDBRANCH   1  35
TORSDOF 16
ENDMDL
