MODEL 1
REMARK VINA RESULT:     -11.9      0.000      0.000
REMARK SMILES O=C(OCCOC(=O)[C@H]1CC=CC[C@@H]1C(=O)N[C@@H]1CCCN(c2ccccc2F)C1=O)c1ccc(-c2c3nc(c(-c4ccccc4)c4ccc([nH]4)c(-c4ccccc4)c4nc(c(-c5ccccc5)c5ccc2[nH]5)C=C4)C=C3)cc1
REMARK SMILES IDX 5 1 4 2 3 3 2 4 1 5 32 6 33 7 79 8 34 9 78 10 35 11 36 12
REMARK SMILES IDX 37 13 72 14 38 15 77 16 71 17 73 18 39 19 76 20 70 21 69 22
REMARK SMILES IDX 40 24 62 25 47 26 61 27 48 28 51 29 60 30 74 31 49 32 50 33
REMARK SMILES IDX 59 35 75 36 52 37 41 38 42 39 46 40 43 41 45 42 44 43 63 44
REMARK SMILES IDX 64 45 68 46 65 47 67 48 66 49 53 50 54 51 58 52 55 53 57 54
REMARK SMILES IDX 56 55 6 56 7 57 8 58 9 59 10 60 14 61 11 62 13 63 12 64
REMARK SMILES IDX 15 65 16 66 17 67 18 69 19 70 30 71 20 72 22 73 31 74 21 75
REMARK SMILES IDX 23 76 24 77 28 78 25 79 27 80 29 81 26 82
REMARK H PARENT 73 23 51 34 17 68
REMARK Flexibility Score: inf
ROOT
ATOM      1  C   UNL A   1      38.191  19.900  24.707  1.00  0.00     0.274 C 
ENDROOT
BRANCH   1   2
ATOM      2  C   UNL A   1      39.012  19.384  25.883  1.00  0.00     0.275 C 
BRANCH   2   3
ATOM      3  O   UNL A   1      40.330  18.911  25.532  1.00  0.00    -0.458 OA
BRANCH   3   4
ATOM      4  C   UNL A   1      41.564  19.257  25.969  1.00  0.00     0.338 C 
ATOM      5  O   UNL A   1      42.444  18.396  25.976  1.00  0.00    -0.246 OA
BRANCH   4   6
ATOM      6  C   UNL A   1      41.927  20.602  26.528  1.00  0.00     0.060 A 
ATOM      7  C   UNL A   1      41.895  20.964  27.875  1.00  0.00     0.016 A 
ATOM      8  C   UNL A   1      42.326  21.587  25.599  1.00  0.00     0.016 A 
ATOM      9  C   UNL A   1      42.330  22.230  28.297  1.00  0.00     0.010 A 
ATOM     10  C   UNL A   1      42.775  22.850  26.014  1.00  0.00     0.010 A 
ATOM     11  C   UNL A   1      42.786  23.178  27.375  1.00  0.00    -0.014 A 
BRANCH  11  12
ATOM     12  C   UNL A   1      43.105  24.553  27.836  1.00  0.00     0.031 A 
ATOM     13  C   UNL A   1      44.552  24.939  27.917  1.00  0.00     0.074 A 
ATOM     14  C   UNL A   1      42.155  25.479  28.077  1.00  0.00     0.049 A 
ATOM     15  N   UNL A   1      45.066  26.126  28.101  1.00  0.00    -0.248 NA
ATOM     16  C   UNL A   1      45.541  23.873  27.685  1.00  0.00     0.031 C 
ATOM     17  C   UNL A   1      40.722  25.293  27.890  1.00  0.00     0.029 A 
ATOM     18  N   UNL A   1      42.245  26.773  28.528  1.00  0.00    -0.354 N 
ATOM     19  C   UNL A   1      46.428  25.967  27.898  1.00  0.00     0.074 A 
ATOM     20  C   UNL A   1      46.674  24.558  27.688  1.00  0.00     0.031 C 
ATOM     21  C   UNL A   1      40.057  26.377  28.321  1.00  0.00     0.029 A 
ATOM     22  C   UNL A   1      41.024  27.368  28.756  1.00  0.00     0.049 A 
ATOM     23  H   UNL A   1      43.103  27.233  28.673  1.00  0.00     0.167 HD
ATOM     24  C   UNL A   1      47.379  26.925  27.827  1.00  0.00     0.031 A 
ATOM     25  C   UNL A   1      40.721  28.587  29.233  1.00  0.00     0.031 A 
ATOM     26  C   UNL A   1      47.144  28.310  28.126  1.00  0.00     0.049 A 
ATOM     27  C   UNL A   1      41.830  29.575  29.402  1.00  0.00     0.074 A 
ATOM     28  C   UNL A   1      48.046  29.357  28.138  1.00  0.00     0.029 A 
ATOM     29  N   UNL A   1      45.915  28.833  28.502  1.00  0.00    -0.354 N 
ATOM     30  N   UNL A   1      43.110  29.416  29.176  1.00  0.00    -0.248 NA
ATOM     31  C   UNL A   1      41.440  30.928  29.812  1.00  0.00     0.031 C 
ATOM     32  C   UNL A   1      47.376  30.501  28.587  1.00  0.00     0.029 A 
ATOM     33  C   UNL A   1      46.044  30.181  28.789  1.00  0.00     0.049 A 
ATOM     34  H   UNL A   1      45.075  28.321  28.556  1.00  0.00     0.167 HD
ATOM     35  C   UNL A   1      43.677  30.665  29.362  1.00  0.00     0.074 A 
ATOM     36  C   UNL A   1      42.599  31.564  29.731  1.00  0.00     0.031 C 
ATOM     37  C   UNL A   1      44.968  31.043  29.208  1.00  0.00     0.031 A 
BRANCH  24  38
ATOM     38  C   UNL A   1      48.750  26.473  27.422  1.00  0.00    -0.014 A 
ATOM     39  C   UNL A   1      49.128  26.460  26.067  1.00  0.00     0.009 A 
ATOM     40  C   UNL A   1      49.660  26.028  28.389  1.00  0.00     0.009 A 
ATOM     41  C   UNL A   1      50.380  25.976  25.688  1.00  0.00     0.001 A 
ATOM     42  C   UNL A   1      50.921  25.567  28.007  1.00  0.00     0.001 A 
ATOM     43  C   UNL A   1      51.276  25.531  26.659  1.00  0.00     0.000 A 
ENDBRANCH  24  38
BRANCH  25  44
ATOM     44  C   UNL A   1      39.331  28.977  29.578  1.00  0.00    -0.014 A 
ATOM     45  C   UNL A   1      38.775  28.719  30.838  1.00  0.00     0.009 A 
ATOM     46  C   UNL A   1      38.515  29.523  28.578  1.00  0.00     0.009 A 
ATOM     47  C   UNL A   1      37.427  29.001  31.085  1.00  0.00     0.001 A 
ATOM     48  C   UNL A   1      37.172  29.820  28.831  1.00  0.00     0.001 A 
ATOM     49  C   UNL A   1      36.628  29.557  30.085  1.00  0.00     0.000 A 
ENDBRANCH  25  44
BRANCH  37  50
ATOM     50  C   UNL A   1      45.261  32.495  29.430  1.00  0.00    -0.014 A 
ATOM     51  C   UNL A   1      45.536  32.995  30.713  1.00  0.00     0.009 A 
ATOM     52  C   UNL A   1      45.240  33.378  28.340  1.00  0.00     0.009 A 
ATOM     53  C   UNL A   1      45.732  34.362  30.905  1.00  0.00     0.001 A 
ATOM     54  C   UNL A   1      45.474  34.738  28.531  1.00  0.00     0.001 A 
ATOM     55  C   UNL A   1      45.704  35.231  29.814  1.00  0.00     0.000 A 
ENDBRANCH  37  50
ENDBRANCH  11  12
ENDBRANCH   4   6
ENDBRANCH   3   4
ENDBRANCH   2   3
ENDBRANCH   1   2
BRANCH   1  56
ATOM     56  O   UNL A   1      36.934  20.409  25.148  1.00  0.00    -0.462 OA
BRANCH  56  57
ATOM     57  C   UNL A   1      36.724  21.755  25.058  1.00  0.00     0.310 C 
ATOM     58  O   UNL A   1      37.501  22.607  25.472  1.00  0.00    -0.252 OA
BRANCH  57  59
ATOM     59  C   UNL A   1      35.419  22.041  24.322  1.00  0.00     0.115 C 
ATOM     60  C   UNL A   1      34.268  21.258  24.949  1.00  0.00     0.043 C 
ATOM     61  C   UNL A   1      35.066  23.533  24.305  1.00  0.00     0.097 C 
ATOM     62  C   UNL A   1      33.904  21.782  26.308  1.00  0.00    -0.030 C 
ATOM     63  C   UNL A   1      34.828  24.038  25.734  1.00  0.00     0.041 C 
ATOM     64  C   UNL A   1      34.193  23.039  26.668  1.00  0.00    -0.030 C 
BRANCH  61  65
ATOM     65  C   UNL A   1      34.069  23.800  23.149  1.00  0.00     0.224 C 
ATOM     66  O   UNL A   1      34.364  23.388  22.017  1.00  0.00    -0.275 OA
ATOM     67  N   UNL A   1      32.818  24.324  23.256  1.00  0.00    -0.344 N 
ATOM     68  H   UNL A   1      32.277  24.272  22.434  1.00  0.00     0.164 HD
BRANCH  67  69
ATOM     69  C   UNL A   1      32.152  24.946  24.383  1.00  0.00     0.172 C 
ATOM     70  C   UNL A   1      30.753  24.435  24.672  1.00  0.00     0.037 C 
ATOM     71  C   UNL A   1      32.055  26.464  24.220  1.00  0.00     0.249 C 
ATOM     72  C   UNL A   1      30.334  25.007  26.023  1.00  0.00     0.025 C 
ATOM     73  N   UNL A   1      31.688  27.073  25.429  1.00  0.00    -0.308 N 
ATOM     74  O   UNL A   1      32.424  27.010  23.187  1.00  0.00    -0.272 OA
ATOM     75  C   UNL A   1      30.570  26.514  26.186  1.00  0.00     0.126 C 
BRANCH  73  76
ATOM     76  C   UNL A   1      32.313  28.290  25.861  1.00  0.00     0.080 A 
ATOM     77  C   UNL A   1      31.575  29.487  25.824  1.00  0.00     0.029 A 
ATOM     78  C   UNL A   1      33.573  28.332  26.479  1.00  0.00     0.146 A 
ATOM     79  C   UNL A   1      32.054  30.651  26.442  1.00  0.00     0.002 A 
ATOM     80  C   UNL A   1      34.049  29.486  27.097  1.00  0.00     0.041 A 
ATOM     81  F   UNL A   1      34.412  27.290  26.429  1.00  0.00    -0.205 F 
ATOM     82  C   UNL A   1      33.284  30.646  27.093  1.00  0.00     0.003 A 
ENDBRANCH  73  76
ENDBRANCH  67  69
ENDBRANCH  61  65
ENDBRANCH  57  59
ENDBRANCH  56  57
ENDBRANCH   1  56
TORSDOF 14
ENDMDL
MODEL 2
REMARK VINA RESULT:     -11.8      4.408      9.852
REMARK SMILES O=C(OCCOC(=O)[C@H]1CC=CC[C@@H]1C(=O)N[C@@H]1CCCN(c2ccccc2F)C1=O)c1ccc(-c2c3nc(c(-c4ccccc4)c4ccc([nH]4)c(-c4ccccc4)c4nc(c(-c5ccccc5)c5ccc2[nH]5)C=C4)C=C3)cc1
REMARK SMILES IDX 5 1 4 2 3 3 2 4 1 5 32 6 33 7 79 8 34 9 78 10 35 11 36 12
REMARK SMILES IDX 37 13 72 14 38 15 77 16 71 17 73 18 39 19 76 20 70 21 69 22
REMARK SMILES IDX 40 24 62 25 47 26 61 27 48 28 51 29 60 30 74 31 49 32 50 33
REMARK SMILES IDX 59 35 75 36 52 37 41 38 42 39 46 40 43 41 45 42 44 43 63 44
REMARK SMILES IDX 64 45 68 46 65 47 67 48 66 49 53 50 54 51 58 52 55 53 57 54
REMARK SMILES IDX 56 55 6 56 7 57 8 58 9 59 10 60 14 61 11 62 13 63 12 64
REMARK SMILES IDX 15 65 16 66 17 67 18 69 19 70 30 71 20 72 22 73 31 74 21 75
REMARK SMILES IDX 23 76 24 77 28 78 25 79 27 80 29 81 26 82
REMARK H PARENT 73 23 51 34 17 68
REMARK Flexibility Score: inf
ROOT
ATOM      1  C   UNL A   1      31.395  31.880  26.861  1.00  0.00     0.274 C 
ENDROOT
BRANCH   1   2
ATOM      2  C   UNL A   1      32.349  33.066  26.784  1.00  0.00     0.275 C 
BRANCH   2   3
ATOM      3  O   UNL A   1      32.167  34.050  27.824  1.00  0.00    -0.458 OA
BRANCH   3   4
ATOM      4  C   UNL A   1      33.037  34.637  28.679  1.00  0.00     0.338 C 
ATOM      5  O   UNL A   1      32.796  35.782  29.064  1.00  0.00    -0.246 OA
BRANCH   4   6
ATOM      6  C   UNL A   1      34.330  34.027  29.137  1.00  0.00     0.060 A 
ATOM      7  C   UNL A   1      35.595  34.304  28.617  1.00  0.00     0.016 A 
ATOM      8  C   UNL A   1      34.248  33.081  30.181  1.00  0.00     0.016 A 
ATOM      9  C   UNL A   1      36.749  33.730  29.174  1.00  0.00     0.010 A 
ATOM     10  C   UNL A   1      35.398  32.514  30.751  1.00  0.00     0.010 A 
ATOM     11  C   UNL A   1      36.664  32.844  30.252  1.00  0.00    -0.014 A 
BRANCH  11  12
ATOM     12  C   UNL A   1      37.887  32.147  30.725  1.00  0.00     0.031 A 
ATOM     13  C   UNL A   1      38.482  32.597  32.026  1.00  0.00     0.074 A 
ATOM     14  C   UNL A   1      38.407  31.077  30.091  1.00  0.00     0.049 A 
ATOM     15  N   UNL A   1      39.419  32.022  32.732  1.00  0.00    -0.248 NA
ATOM     16  C   UNL A   1      37.896  33.796  32.648  1.00  0.00     0.031 C 
ATOM     17  C   UNL A   1      37.847  30.436  28.908  1.00  0.00     0.029 A 
ATOM     18  N   UNL A   1      39.526  30.325  30.351  1.00  0.00    -0.354 N 
ATOM     19  C   UNL A   1      39.458  32.725  33.925  1.00  0.00     0.074 A 
ATOM     20  C   UNL A   1      38.535  33.832  33.807  1.00  0.00     0.031 C 
ATOM     21  C   UNL A   1      38.668  29.466  28.476  1.00  0.00     0.029 A 
ATOM     22  C   UNL A   1      39.788  29.369  29.395  1.00  0.00     0.049 A 
ATOM     23  H   UNL A   1      40.089  30.457  31.148  1.00  0.00     0.167 HD
ATOM     24  C   UNL A   1      40.157  32.433  35.045  1.00  0.00     0.031 A 
ATOM     25  C   UNL A   1      40.802  28.493  29.289  1.00  0.00     0.031 A 
ATOM     26  C   UNL A   1      41.138  31.388  35.125  1.00  0.00     0.049 A 
ATOM     27  C   UNL A   1      41.740  28.356  30.445  1.00  0.00     0.074 A 
ATOM     28  C   UNL A   1      41.943  31.037  36.193  1.00  0.00     0.029 A 
ATOM     29  N   UNL A   1      41.474  30.545  34.075  1.00  0.00    -0.354 N 
ATOM     30  N   UNL A   1      41.743  29.009  31.579  1.00  0.00    -0.248 NA
ATOM     31  C   UNL A   1      42.759  27.306  30.335  1.00  0.00     0.031 C 
ATOM     32  C   UNL A   1      42.812  30.027  35.768  1.00  0.00     0.029 A 
ATOM     33  C   UNL A   1      42.503  29.703  34.457  1.00  0.00     0.049 A 
ATOM     34  H   UNL A   1      41.043  30.546  33.190  1.00  0.00     0.167 HD
ATOM     35  C   UNL A   1      42.729  28.414  32.347  1.00  0.00     0.074 A 
ATOM     36  C   UNL A   1      43.307  27.356  31.539  1.00  0.00     0.031 C 
ATOM     37  C   UNL A   1      43.100  28.695  33.618  1.00  0.00     0.031 A 
BRANCH  24  38
ATOM     38  C   UNL A   1      39.869  33.279  36.249  1.00  0.00    -0.014 A 
ATOM     39  C   UNL A   1      38.861  32.911  37.158  1.00  0.00     0.009 A 
ATOM     40  C   UNL A   1      40.583  34.464  36.464  1.00  0.00     0.009 A 
ATOM     41  C   UNL A   1      38.550  33.735  38.240  1.00  0.00     0.001 A 
ATOM     42  C   UNL A   1      40.285  35.274  37.562  1.00  0.00     0.001 A 
ATOM     43  C   UNL A   1      39.264  34.915  38.442  1.00  0.00     0.000 A 
ENDBRANCH  24  38
BRANCH  25  44
ATOM     44  C   UNL A   1      41.002  27.659  28.077  1.00  0.00    -0.014 A 
ATOM     45  C   UNL A   1      41.677  28.137  26.947  1.00  0.00     0.009 A 
ATOM     46  C   UNL A   1      40.402  26.393  28.022  1.00  0.00     0.009 A 
ATOM     47  C   UNL A   1      41.746  27.359  25.785  1.00  0.00     0.001 A 
ATOM     48  C   UNL A   1      40.486  25.611  26.866  1.00  0.00     0.001 A 
ATOM     49  C   UNL A   1      41.156  26.095  25.748  1.00  0.00     0.000 A 
ENDBRANCH  25  44
BRANCH  37  50
ATOM     50  C   UNL A   1      44.174  27.826  34.199  1.00  0.00    -0.014 A 
ATOM     51  C   UNL A   1      43.864  26.624  34.856  1.00  0.00     0.009 A 
ATOM     52  C   UNL A   1      45.514  28.231  34.104  1.00  0.00     0.009 A 
ATOM     53  C   UNL A   1      44.875  25.871  35.452  1.00  0.00     0.001 A 
ATOM     54  C   UNL A   1      46.525  27.456  34.670  1.00  0.00     0.001 A 
ATOM     55  C   UNL A   1      46.203  26.285  35.355  1.00  0.00     0.000 A 
ENDBRANCH  37  50
ENDBRANCH  11  12
ENDBRANCH   4   6
ENDBRANCH   3   4
ENDBRANCH   2   3
ENDBRANCH   1   2
BRANCH   1  56
ATOM     56  O   UNL A   1      31.726  30.895  25.884  1.00  0.00    -0.462 OA
BRANCH  56  57
ATOM     57  C   UNL A   1      32.345  29.757  26.311  1.00  0.00     0.310 C 
ATOM     58  O   UNL A   1      33.352  29.734  27.009  1.00  0.00    -0.252 OA
BRANCH  57  59
ATOM     59  C   UNL A   1      31.575  28.525  25.842  1.00  0.00     0.115 C 
ATOM     60  C   UNL A   1      31.230  28.642  24.360  1.00  0.00     0.043 C 
ATOM     61  C   UNL A   1      32.345  27.221  26.082  1.00  0.00     0.097 C 
ATOM     62  C   UNL A   1      32.446  28.519  23.487  1.00  0.00    -0.030 C 
ATOM     63  C   UNL A   1      33.639  27.210  25.258  1.00  0.00     0.041 C 
ATOM     64  C   UNL A   1      33.550  27.894  23.917  1.00  0.00    -0.030 C 
BRANCH  61  65
ATOM     65  C   UNL A   1      31.343  26.039  26.078  1.00  0.00     0.224 C 
ATOM     66  O   UNL A   1      30.333  26.127  26.792  1.00  0.00    -0.275 OA
ATOM     67  N   UNL A   1      31.370  24.951  25.262  1.00  0.00    -0.344 N 
ATOM     68  H   UNL A   1      30.564  24.386  25.301  1.00  0.00     0.164 HD
BRANCH  67  69
ATOM     69  C   UNL A   1      32.392  24.487  24.345  1.00  0.00     0.172 C 
ATOM     70  C   UNL A   1      31.899  24.108  22.962  1.00  0.00     0.037 C 
ATOM     71  C   UNL A   1      33.153  23.282  24.902  1.00  0.00     0.249 C 
ATOM     72  C   UNL A   1      33.130  23.906  22.083  1.00  0.00     0.025 C 
ATOM     73  N   UNL A   1      34.315  23.037  24.156  1.00  0.00    -0.308 N 
ATOM     74  O   UNL A   1      32.815  22.758  25.957  1.00  0.00    -0.272 OA
ATOM     75  C   UNL A   1      34.223  23.022  22.697  1.00  0.00     0.126 C 
BRANCH  73  76
ATOM     76  C   UNL A   1      35.547  22.689  24.803  1.00  0.00     0.080 A 
ATOM     77  C   UNL A   1      36.070  21.395  24.625  1.00  0.00     0.029 A 
ATOM     78  C   UNL A   1      36.354  23.620  25.475  1.00  0.00     0.146 A 
ATOM     79  C   UNL A   1      37.370  21.077  25.042  1.00  0.00     0.002 A 
ATOM     80  C   UNL A   1      37.648  23.308  25.887  1.00  0.00     0.041 A 
ATOM     81  F   UNL A   1      35.888  24.824  25.829  1.00  0.00    -0.205 F 
ATOM     82  C   UNL A   1      38.165  22.038  25.658  1.00  0.00     0.003 A 
ENDBRANCH  73  76
ENDBRANCH  67  69
ENDBRANCH  61  65
ENDBRANCH  57  59
ENDBRANCH  56  57
ENDBRANCH   1  56
TORSDOF 14
ENDMDL
MODEL 3
REMARK VINA RESULT:     -11.8      2.311      3.722
REMARK SMILES O=C(OCCOC(=O)[C@H]1CC=CC[C@@H]1C(=O)N[C@@H]1CCCN(c2ccccc2F)C1=O)c1ccc(-c2c3nc(c(-c4ccccc4)c4ccc([nH]4)c(-c4ccccc4)c4nc(c(-c5ccccc5)c5ccc2[nH]5)C=C4)C=C3)cc1
REMARK SMILES IDX 5 1 4 2 3 3 2 4 1 5 32 6 33 7 79 8 34 9 78 10 35 11 36 12
REMARK SMILES IDX 37 13 72 14 38 15 77 16 71 17 73 18 39 19 76 20 70 21 69 22
REMARK SMILES IDX 40 24 62 25 47 26 61 27 48 28 51 29 60 30 74 31 49 32 50 33
REMARK SMILES IDX 59 35 75 36 52 37 41 38 42 39 46 40 43 41 45 42 44 43 63 44
REMARK SMILES IDX 64 45 68 46 65 47 67 48 66 49 53 50 54 51 58 52 55 53 57 54
REMARK SMILES IDX 56 55 6 56 7 57 8 58 9 59 10 60 14 61 11 62 13 63 12 64
REMARK SMILES IDX 15 65 16 66 17 67 18 69 19 70 30 71 20 72 22 73 31 74 21 75
REMARK SMILES IDX 23 76 24 77 28 78 25 79 27 80 29 81 26 82
REMARK H PARENT 73 23 51 34 17 68
REMARK Flexibility Score: inf
ROOT
ATOM      1  C   UNL A   1      36.372  20.271  25.020  1.00  0.00     0.274 C 
ENDROOT
BRANCH   1   2
ATOM      2  C   UNL A   1      37.409  21.284  24.549  1.00  0.00     0.275 C 
BRANCH   2   3
ATOM      3  O   UNL A   1      37.804  22.247  25.549  1.00  0.00    -0.458 OA
BRANCH   3   4
ATOM      4  C   UNL A   1      39.003  22.532  26.111  1.00  0.00     0.338 C 
ATOM      5  O   UNL A   1      39.817  21.618  26.243  1.00  0.00    -0.246 OA
BRANCH   4   6
ATOM      6  C   UNL A   1      39.390  23.871  26.666  1.00  0.00     0.060 A 
ATOM      7  C   UNL A   1      40.148  24.842  26.009  1.00  0.00     0.016 A 
ATOM      8  C   UNL A   1      38.954  24.163  27.977  1.00  0.00     0.016 A 
ATOM      9  C   UNL A   1      40.387  26.094  26.596  1.00  0.00     0.010 A 
ATOM     10  C   UNL A   1      39.178  25.417  28.564  1.00  0.00     0.010 A 
ATOM     11  C   UNL A   1      39.895  26.400  27.869  1.00  0.00    -0.014 A 
BRANCH  11  12
ATOM     12  C   UNL A   1      40.284  27.677  28.518  1.00  0.00     0.031 A 
ATOM     13  C   UNL A   1      41.699  27.809  28.996  1.00  0.00     0.074 A 
ATOM     14  C   UNL A   1      39.453  28.736  28.596  1.00  0.00     0.049 A 
ATOM     15  N   UNL A   1      42.318  28.882  29.411  1.00  0.00    -0.248 NA
ATOM     16  C   UNL A   1      42.543  26.605  28.923  1.00  0.00     0.031 C 
ATOM     17  C   UNL A   1      38.108  28.803  28.039  1.00  0.00     0.029 A 
ATOM     18  N   UNL A   1      39.613  29.972  29.172  1.00  0.00    -0.354 N 
ATOM     19  C   UNL A   1      43.645  28.507  29.543  1.00  0.00     0.074 A 
ATOM     20  C   UNL A   1      43.725  27.089  29.274  1.00  0.00     0.031 C 
ATOM     21  C   UNL A   1      37.523  29.961  28.386  1.00  0.00     0.029 A 
ATOM     22  C   UNL A   1      38.479  30.752  29.140  1.00  0.00     0.049 A 
ATOM     23  H   UNL A   1      40.462  30.274  29.570  1.00  0.00     0.167 HD
ATOM     24  C   UNL A   1      44.714  29.293  29.802  1.00  0.00     0.031 A 
ATOM     25  C   UNL A   1      38.247  31.980  29.634  1.00  0.00     0.031 A 
ATOM     26  C   UNL A   1      44.618  30.681  30.158  1.00  0.00     0.049 A 
ATOM     27  C   UNL A   1      39.407  32.757  30.167  1.00  0.00     0.074 A 
ATOM     28  C   UNL A   1      45.631  31.560  30.492  1.00  0.00     0.029 A 
ATOM     29  N   UNL A   1      43.426  31.385  30.259  1.00  0.00    -0.354 N 
ATOM     30  N   UNL A   1      40.663  32.397  30.256  1.00  0.00    -0.248 NA
ATOM     31  C   UNL A   1      39.130  34.135  30.587  1.00  0.00     0.031 C 
ATOM     32  C   UNL A   1      45.046  32.776  30.861  1.00  0.00     0.029 A 
ATOM     33  C   UNL A   1      43.675  32.675  30.691  1.00  0.00     0.049 A 
ATOM     34  H   UNL A   1      42.535  31.019  30.052  1.00  0.00     0.167 HD
ATOM     35  C   UNL A   1      41.341  33.522  30.692  1.00  0.00     0.074 A 
ATOM     36  C   UNL A   1      40.351  34.570  30.859  1.00  0.00     0.031 C 
ATOM     37  C   UNL A   1      42.669  33.684  30.903  1.00  0.00     0.031 A 
BRANCH  24  38
ATOM     38  C   UNL A   1      46.060  28.638  29.715  1.00  0.00    -0.014 A 
ATOM     39  C   UNL A   1      46.852  28.780  28.562  1.00  0.00     0.009 A 
ATOM     40  C   UNL A   1      46.529  27.849  30.772  1.00  0.00     0.009 A 
ATOM     41  C   UNL A   1      48.073  28.114  28.457  1.00  0.00     0.001 A 
ATOM     42  C   UNL A   1      47.763  27.204  30.673  1.00  0.00     0.001 A 
ATOM     43  C   UNL A   1      48.528  27.328  29.514  1.00  0.00     0.000 A 
ENDBRANCH  24  38
BRANCH  25  44
ATOM     44  C   UNL A   1      36.889  32.580  29.653  1.00  0.00    -0.014 A 
ATOM     45  C   UNL A   1      36.477  33.524  28.704  1.00  0.00     0.009 A 
ATOM     46  C   UNL A   1      36.030  32.272  30.717  1.00  0.00     0.009 A 
ATOM     47  C   UNL A   1      35.230  34.147  28.824  1.00  0.00     0.001 A 
ATOM     48  C   UNL A   1      34.777  32.883  30.827  1.00  0.00     0.001 A 
ATOM     49  C   UNL A   1      34.379  33.822  29.880  1.00  0.00     0.000 A 
ENDBRANCH  25  44
BRANCH  37  50
ATOM     50  C   UNL A   1      43.107  35.054  31.324  1.00  0.00    -0.014 A 
ATOM     51  C   UNL A   1      43.504  36.015  30.381  1.00  0.00     0.009 A 
ATOM     52  C   UNL A   1      43.142  35.376  32.690  1.00  0.00     0.009 A 
ATOM     53  C   UNL A   1      43.978  37.256  30.803  1.00  0.00     0.001 A 
ATOM     54  C   UNL A   1      43.581  36.632  33.105  1.00  0.00     0.001 A 
ATOM     55  C   UNL A   1      44.013  37.565  32.163  1.00  0.00     0.000 A 
ENDBRANCH  37  50
ENDBRANCH  11  12
ENDBRANCH   4   6
ENDBRANCH   3   4
ENDBRANCH   2   3
ENDBRANCH   1   2
BRANCH   1  56
ATOM     56  O   UNL A   1      35.355  20.905  25.793  1.00  0.00    -0.462 OA
BRANCH  56  57
ATOM     57  C   UNL A   1      34.065  20.794  25.362  1.00  0.00     0.310 C 
ATOM     58  O   UNL A   1      33.256  19.981  25.795  1.00  0.00    -0.252 OA
BRANCH  57  59
ATOM     59  C   UNL A   1      33.763  21.858  24.311  1.00  0.00     0.115 C 
ATOM     60  C   UNL A   1      32.262  21.928  24.037  1.00  0.00     0.043 C 
ATOM     61  C   UNL A   1      34.269  23.247  24.715  1.00  0.00     0.097 C 
ATOM     62  C   UNL A   1      31.504  22.505  25.198  1.00  0.00    -0.030 C 
ATOM     63  C   UNL A   1      33.546  23.729  25.979  1.00  0.00     0.041 C 
ATOM     64  C   UNL A   1      32.105  23.298  26.095  1.00  0.00    -0.030 C 
BRANCH  61  65
ATOM     65  C   UNL A   1      34.400  24.123  23.443  1.00  0.00     0.224 C 
ATOM     66  O   UNL A   1      35.241  23.794  22.592  1.00  0.00    -0.275 OA
ATOM     67  N   UNL A   1      33.591  25.153  23.077  1.00  0.00    -0.344 N 
ATOM     68  H   UNL A   1      33.737  25.487  22.161  1.00  0.00     0.164 HD
BRANCH  67  69
ATOM     69  C   UNL A   1      32.550  25.840  23.814  1.00  0.00     0.172 C 
ATOM     70  C   UNL A   1      31.164  25.767  23.200  1.00  0.00     0.037 C 
ATOM     71  C   UNL A   1      32.878  27.320  24.019  1.00  0.00     0.249 C 
ATOM     72  C   UNL A   1      30.183  26.308  24.235  1.00  0.00     0.025 C 
ATOM     73  N   UNL A   1      32.026  27.893  24.974  1.00  0.00    -0.308 N 
ATOM     74  O   UNL A   1      33.870  27.821  23.503  1.00  0.00    -0.272 OA
ATOM     75  C   UNL A   1      30.589  27.642  24.874  1.00  0.00     0.126 C 
BRANCH  73  76
ATOM     76  C   UNL A   1      32.530  28.805  25.959  1.00  0.00     0.080 A 
ATOM     77  C   UNL A   1      33.577  28.390  26.802  1.00  0.00     0.029 A 
ATOM     78  C   UNL A   1      32.150  30.155  26.025  1.00  0.00     0.146 A 
ATOM     79  C   UNL A   1      34.255  29.307  27.619  1.00  0.00     0.002 A 
ATOM     80  C   UNL A   1      32.824  31.069  26.833  1.00  0.00     0.041 A 
ATOM     81  F   UNL A   1      31.069  30.611  25.381  1.00  0.00    -0.205 F 
ATOM     82  C   UNL A   1      33.889  30.650  27.622  1.00  0.00     0.003 A 
ENDBRANCH  73  76
ENDBRANCH  67  69
ENDBRANCH  61  65
ENDBRANCH  57  59
ENDBRANCH  56  57
ENDBRANCH   1  56
TORSDOF 14
ENDMDL
