MODEL 1
REMARK VINA RESULT:     -11.6      0.000      0.000
REMARK SMILES CC(=O)Nc1cccc(-c2ccc(F)c(C(=O)OCCOC(=O)c3ccc(-c4c5nc(c(-c6ccccc6)c6ccc([nH]6)c(-c6ccccc6)c6nc(c(-c7ccccc7)c7ccc4[nH]7)C=C6)C=C5)cc3)c2)c1
REMARK SMILES IDX 19 1 18 2 16 3 17 4 15 5 10 6 11 7 72 8 12 9 13 10 14 11
REMARK SMILES IDX 9 12 5 13 6 14 73 15 7 16 8 17 4 18 1 19 2 20 3 21 20 23
REMARK SMILES IDX 21 24 22 25 23 26 24 27 25 28 71 29 26 30 70 31 27 32 28 33
REMARK SMILES IDX 29 34 64 35 30 36 69 37 63 38 65 39 31 40 68 41 62 42 61 43
REMARK SMILES IDX 32 45 54 46 39 47 53 48 40 49 43 50 52 51 66 52 41 53 42 54
REMARK SMILES IDX 51 56 67 57 44 58 33 59 34 60 38 61 35 62 37 63 36 64 55 65
REMARK SMILES IDX 56 66 60 67 57 68 59 69 58 70 45 71 46 72 50 73 47 74 49 75
REMARK SMILES IDX 48 76
REMARK H PARENT 4 22 65 44 43 55
REMARK Flexibility Score: inf
ROOT
ATOM      1  C   UNL A   1      32.814  34.883  28.921  1.00  0.00     0.275 C 
ENDROOT
BRANCH   1   2
ATOM      2  O   UNL A   1      33.751  33.795  29.048  1.00  0.00    -0.458 OA
BRANCH   2   3
ATOM      3  C   UNL A   1      34.587  33.575  28.000  1.00  0.00     0.341 C 
ATOM      4  O   UNL A   1      35.143  34.427  27.328  1.00  0.00    -0.246 OA
BRANCH   3   5
ATOM      5  C   UNL A   1      34.796  32.118  27.839  1.00  0.00     0.096 A 
ATOM      6  C   UNL A   1      33.947  29.908  27.266  1.00  0.00    -0.017 A 
ATOM      7  C   UNL A   1      35.206  29.360  27.548  1.00  0.00     0.012 A 
ATOM      8  C   UNL A   1      33.738  31.283  27.476  1.00  0.00     0.027 A 
ATOM      9  C   UNL A   1      36.265  30.189  27.913  1.00  0.00     0.041 A 
ATOM     10  C   UNL A   1      36.066  31.564  28.002  1.00  0.00     0.137 A 
ATOM     11  F   UNL A   1      37.137  32.329  28.251  1.00  0.00    -0.206 F 
BRANCH   6  12
ATOM     12  C   UNL A   1      32.922  29.120  26.578  1.00  0.00    -0.016 A 
ATOM     13  C   UNL A   1      31.667  28.779  24.506  1.00  0.00     0.041 A 
ATOM     14  C   UNL A   1      30.983  27.726  25.114  1.00  0.00     0.026 A 
ATOM     15  C   UNL A   1      32.605  29.480  25.255  1.00  0.00     0.034 A 
ATOM     16  C   UNL A   1      31.297  27.339  26.423  1.00  0.00     0.003 A 
ATOM     17  C   UNL A   1      32.273  28.026  27.150  1.00  0.00     0.009 A 
BRANCH  13  18
ATOM     18  N   UNL A   1      31.332  29.129  23.189  1.00  0.00    -0.326 N 
ATOM     19  C   UNL A   1      29.245  30.451  23.573  1.00  0.00     0.114 C 
ATOM     20  C   UNL A   1      30.211  29.723  22.674  1.00  0.00     0.221 C 
ATOM     21  O   UNL A   1      30.038  29.710  21.453  1.00  0.00    -0.275 OA
ATOM     22  H   UNL A   1      32.021  28.911  22.521  1.00  0.00     0.169 HD
ENDBRANCH  13  18
ENDBRANCH   6  12
ENDBRANCH   3   5
ENDBRANCH   2   3
ENDBRANCH   1   2
BRANCH   1  23
ATOM     23  C   UNL A   1      33.039  35.905  30.035  1.00  0.00     0.275 C 
BRANCH  23  24
ATOM     24  O   UNL A   1      32.255  35.544  31.184  1.00  0.00    -0.458 OA
BRANCH  24  25
ATOM     25  C   UNL A   1      32.698  36.010  32.375  1.00  0.00     0.338 C 
ATOM     26  O   UNL A   1      32.231  36.906  33.055  1.00  0.00    -0.246 OA
BRANCH  25  27
ATOM     27  C   UNL A   1      33.823  35.171  32.813  1.00  0.00     0.060 A 
ATOM     28  C   UNL A   1      35.103  35.696  32.693  1.00  0.00     0.016 A 
ATOM     29  C   UNL A   1      33.640  33.862  33.242  1.00  0.00     0.016 A 
ATOM     30  C   UNL A   1      36.222  34.908  32.936  1.00  0.00     0.010 A 
ATOM     31  C   UNL A   1      34.764  33.093  33.576  1.00  0.00     0.010 A 
ATOM     32  C   UNL A   1      36.068  33.602  33.411  1.00  0.00    -0.014 A 
BRANCH  32  33
ATOM     33  C   UNL A   1      37.266  32.776  33.723  1.00  0.00     0.031 A 
ATOM     34  C   UNL A   1      37.991  32.960  35.029  1.00  0.00     0.074 A 
ATOM     35  C   UNL A   1      37.703  31.850  32.847  1.00  0.00     0.049 A 
ATOM     36  N   UNL A   1      39.142  32.468  35.412  1.00  0.00    -0.248 NA
ATOM     37  C   UNL A   1      37.338  33.815  36.032  1.00  0.00     0.031 C 
ATOM     38  C   UNL A   1      37.057  31.504  31.578  1.00  0.00     0.029 A 
ATOM     39  N   UNL A   1      38.797  31.021  32.894  1.00  0.00    -0.354 N 
ATOM     40  C   UNL A   1      39.379  33.001  36.673  1.00  0.00     0.074 A 
ATOM     41  C   UNL A   1      38.253  33.851  36.992  1.00  0.00     0.031 C 
ATOM     42  C   UNL A   1      37.741  30.513  30.990  1.00  0.00     0.029 A 
ATOM     43  C   UNL A   1      38.927  30.219  31.785  1.00  0.00     0.049 A 
ATOM     44  H   UNL A   1      39.428  31.003  33.650  1.00  0.00     0.167 HD
ATOM     45  C   UNL A   1      40.447  32.807  37.486  1.00  0.00     0.031 A 
ATOM     46  C   UNL A   1      39.913  29.378  31.419  1.00  0.00     0.031 A 
ATOM     47  C   UNL A   1      41.551  31.936  37.179  1.00  0.00     0.049 A 
ATOM     48  C   UNL A   1      41.125  29.249  32.295  1.00  0.00     0.074 A 
ATOM     49  C   UNL A   1      42.667  31.655  37.948  1.00  0.00     0.029 A 
ATOM     50  N   UNL A   1      41.676  31.202  36.010  1.00  0.00    -0.354 N 
ATOM     51  N   UNL A   1      41.361  29.790  33.464  1.00  0.00    -0.248 NA
ATOM     52  C   UNL A   1      42.220  28.409  31.786  1.00  0.00     0.031 C 
ATOM     53  C   UNL A   1      43.496  30.796  37.219  1.00  0.00     0.029 A 
ATOM     54  C   UNL A   1      42.868  30.496  36.022  1.00  0.00     0.049 A 
ATOM     55  H   UNL A   1      41.016  31.185  35.280  1.00  0.00     0.167 HD
ATOM     56  C   UNL A   1      42.622  29.347  33.840  1.00  0.00     0.074 A 
ATOM     57  C   UNL A   1      43.093  28.477  32.782  1.00  0.00     0.031 C 
ATOM     58  C   UNL A   1      43.327  29.638  34.960  1.00  0.00     0.031 A 
BRANCH  45  59
ATOM     59  C   UNL A   1      40.500  33.603  38.761  1.00  0.00    -0.014 A 
ATOM     60  C   UNL A   1      41.103  34.869  38.822  1.00  0.00     0.009 A 
ATOM     61  C   UNL A   1      39.909  33.076  39.922  1.00  0.00     0.009 A 
ATOM     62  C   UNL A   1      41.146  35.572  40.029  1.00  0.00     0.001 A 
ATOM     63  C   UNL A   1      39.927  33.793  41.118  1.00  0.00     0.001 A 
ATOM     64  C   UNL A   1      40.555  35.037  41.174  1.00  0.00     0.000 A 
ENDBRANCH  45  59
BRANCH  46  65
ATOM     65  C   UNL A   1      39.821  28.637  30.134  1.00  0.00    -0.014 A 
ATOM     66  C   UNL A   1      40.211  29.244  28.931  1.00  0.00     0.009 A 
ATOM     67  C   UNL A   1      39.342  27.316  30.101  1.00  0.00     0.009 A 
ATOM     68  C   UNL A   1      40.114  28.549  27.723  1.00  0.00     0.001 A 
ATOM     69  C   UNL A   1      39.276  26.613  28.897  1.00  0.00     0.001 A 
ATOM     70  C   UNL A   1      39.654  27.233  27.708  1.00  0.00     0.000 A 
ENDBRANCH  46  65
BRANCH  58  71
ATOM     71  C   UNL A   1      44.670  28.983  35.112  1.00  0.00    -0.014 A 
ATOM     72  C   UNL A   1      44.800  27.721  35.709  1.00  0.00     0.009 A 
ATOM     73  C   UNL A   1      45.815  29.624  34.614  1.00  0.00     0.009 A 
ATOM     74  C   UNL A   1      46.056  27.125  35.831  1.00  0.00     0.001 A 
ATOM     75  C   UNL A   1      47.066  29.015  34.712  1.00  0.00     0.001 A 
ATOM     76  C   UNL A   1      47.187  27.770  35.328  1.00  0.00     0.000 A 
ENDBRANCH  58  71
ENDBRANCH  32  33
ENDBRANCH  25  27
ENDBRANCH  24  25
ENDBRANCH  23  24
ENDBRANCH   1  23
TORSDOF 13
ENDMDL
MODEL 2
REMARK VINA RESULT:     -11.4      3.756      6.646
REMARK SMILES CC(=O)Nc1cccc(-c2ccc(F)c(C(=O)OCCOC(=O)c3ccc(-c4c5nc(c(-c6ccccc6)c6ccc([nH]6)c(-c6ccccc6)c6nc(c(-c7ccccc7)c7ccc4[nH]7)C=C6)C=C5)cc3)c2)c1
REMARK SMILES IDX 19 1 18 2 16 3 17 4 15 5 10 6 11 7 72 8 12 9 13 10 14 11
REMARK SMILES IDX 9 12 5 13 6 14 73 15 7 16 8 17 4 18 1 19 2 20 3 21 20 23
REMARK SMILES IDX 21 24 22 25 23 26 24 27 25 28 71 29 26 30 70 31 27 32 28 33
REMARK SMILES IDX 29 34 64 35 30 36 69 37 63 38 65 39 31 40 68 41 62 42 61 43
REMARK SMILES IDX 32 45 54 46 39 47 53 48 40 49 43 50 52 51 66 52 41 53 42 54
REMARK SMILES IDX 51 56 67 57 44 58 33 59 34 60 38 61 35 62 37 63 36 64 55 65
REMARK SMILES IDX 56 66 60 67 57 68 59 69 58 70 45 71 46 72 50 73 47 74 49 75
REMARK SMILES IDX 48 76
REMARK H PARENT 4 22 65 44 43 55
REMARK Flexibility Score: inf
ROOT
ATOM      1  C   UNL A   1      33.731  35.605  31.667  1.00  0.00     0.275 C 
ENDROOT
BRANCH   1   2
ATOM      2  O   UNL A   1      34.631  34.491  31.838  1.00  0.00    -0.458 OA
BRANCH   2   3
ATOM      3  C   UNL A   1      34.334  33.603  32.821  1.00  0.00     0.341 C 
ATOM      4  O   UNL A   1      33.229  33.166  33.090  1.00  0.00    -0.246 OA
BRANCH   3   5
ATOM      5  C   UNL A   1      35.586  33.168  33.482  1.00  0.00     0.096 A 
ATOM      6  C   UNL A   1      37.333  31.505  33.822  1.00  0.00    -0.017 A 
ATOM      7  C   UNL A   1      37.951  32.355  34.749  1.00  0.00     0.012 A 
ATOM      8  C   UNL A   1      36.113  31.898  33.240  1.00  0.00     0.027 A 
ATOM      9  C   UNL A   1      37.426  33.622  34.995  1.00  0.00     0.041 A 
ATOM     10  C   UNL A   1      36.282  34.038  34.321  1.00  0.00     0.137 A 
ATOM     11  F   UNL A   1      35.877  35.301  34.511  1.00  0.00    -0.206 F 
BRANCH   6  12
ATOM     12  C   UNL A   1      38.027  30.322  33.308  1.00  0.00    -0.016 A 
ATOM     13  C   UNL A   1      40.161  29.145  33.096  1.00  0.00     0.041 A 
ATOM     14  C   UNL A   1      39.513  28.133  32.387  1.00  0.00     0.026 A 
ATOM     15  C   UNL A   1      39.416  30.239  33.520  1.00  0.00     0.034 A 
ATOM     16  C   UNL A   1      38.129  28.187  32.182  1.00  0.00     0.003 A 
ATOM     17  C   UNL A   1      37.384  29.272  32.651  1.00  0.00     0.009 A 
BRANCH  13  18
ATOM     18  N   UNL A   1      41.548  29.050  33.291  1.00  0.00    -0.326 N 
ATOM     19  C   UNL A   1      41.633  28.311  35.679  1.00  0.00     0.114 C 
ATOM     20  C   UNL A   1      42.283  28.845  34.427  1.00  0.00     0.221 C 
ATOM     21  O   UNL A   1      43.500  29.041  34.392  1.00  0.00    -0.275 OA
ATOM     22  H   UNL A   1      42.083  29.146  32.471  1.00  0.00     0.169 HD
ENDBRANCH  13  18
ENDBRANCH   6  12
ENDBRANCH   3   5
ENDBRANCH   2   3
ENDBRANCH   1   2
BRANCH   1  23
ATOM     23  C   UNL A   1      32.648  35.254  30.647  1.00  0.00     0.275 C 
BRANCH  23  24
ATOM     24  O   UNL A   1      33.162  35.440  29.317  1.00  0.00    -0.458 OA
BRANCH  24  25
ATOM     25  C   UNL A   1      33.282  34.321  28.566  1.00  0.00     0.338 C 
ATOM     26  O   UNL A   1      32.500  33.877  27.745  1.00  0.00    -0.246 OA
BRANCH  25  27
ATOM     27  C   UNL A   1      34.608  33.737  28.810  1.00  0.00     0.060 A 
ATOM     28  C   UNL A   1      34.661  32.479  29.396  1.00  0.00     0.016 A 
ATOM     29  C   UNL A   1      35.780  34.443  28.563  1.00  0.00     0.016 A 
ATOM     30  C   UNL A   1      35.872  31.932  29.802  1.00  0.00     0.010 A 
ATOM     31  C   UNL A   1      37.010  33.855  28.887  1.00  0.00     0.010 A 
ATOM     32  C   UNL A   1      37.069  32.599  29.526  1.00  0.00    -0.014 A 
BRANCH  32  33
ATOM     33  C   UNL A   1      38.370  31.988  29.912  1.00  0.00     0.031 A 
ATOM     34  C   UNL A   1      39.299  32.713  30.846  1.00  0.00     0.074 A 
ATOM     35  C   UNL A   1      38.721  30.776  29.438  1.00  0.00     0.049 A 
ATOM     36  N   UNL A   1      40.538  32.434  31.163  1.00  0.00    -0.248 NA
ATOM     37  C   UNL A   1      38.766  33.916  31.505  1.00  0.00     0.031 C 
ATOM     38  C   UNL A   1      37.889  29.918  28.588  1.00  0.00     0.029 A 
ATOM     39  N   UNL A   1      39.873  30.048  29.610  1.00  0.00    -0.354 N 
ATOM     40  C   UNL A   1      40.951  33.457  32.009  1.00  0.00     0.074 A 
ATOM     41  C   UNL A   1      39.831  34.361  32.158  1.00  0.00     0.031 C 
ATOM     42  C   UNL A   1      38.540  28.771  28.348  1.00  0.00     0.029 A 
ATOM     43  C   UNL A   1      39.870  28.848  28.939  1.00  0.00     0.049 A 
ATOM     44  H   UNL A   1      40.628  30.355  30.161  1.00  0.00     0.167 HD
ATOM     45  C   UNL A   1      42.159  33.631  32.598  1.00  0.00     0.031 A 
ATOM     46  C   UNL A   1      40.842  27.932  28.772  1.00  0.00     0.031 A 
ATOM     47  C   UNL A   1      43.261  32.713  32.472  1.00  0.00     0.049 A 
ATOM     48  C   UNL A   1      42.198  28.191  29.362  1.00  0.00     0.074 A 
ATOM     49  C   UNL A   1      44.517  32.790  33.049  1.00  0.00     0.029 A 
ATOM     50  N   UNL A   1      43.238  31.549  31.721  1.00  0.00    -0.354 N 
ATOM     51  N   UNL A   1      42.593  29.182  30.122  1.00  0.00    -0.248 NA
ATOM     52  C   UNL A   1      43.252  27.215  29.045  1.00  0.00     0.031 C 
ATOM     53  C   UNL A   1      45.273  31.702  32.599  1.00  0.00     0.029 A 
ATOM     54  C   UNL A   1      44.468  30.917  31.791  1.00  0.00     0.049 A 
ATOM     55  H   UNL A   1      42.461  31.220  31.213  1.00  0.00     0.167 HD
ATOM     56  C   UNL A   1      43.934  28.943  30.390  1.00  0.00     0.074 A 
ATOM     57  C   UNL A   1      44.281  27.704  29.725  1.00  0.00     0.031 C 
ATOM     58  C   UNL A   1      44.801  29.687  31.119  1.00  0.00     0.031 A 
BRANCH  45  59
ATOM     59  C   UNL A   1      42.372  34.897  33.381  1.00  0.00    -0.014 A 
ATOM     60  C   UNL A   1      43.010  36.016  32.826  1.00  0.00     0.009 A 
ATOM     61  C   UNL A   1      41.898  34.971  34.702  1.00  0.00     0.009 A 
ATOM     62  C   UNL A   1      43.203  37.170  33.590  1.00  0.00     0.001 A 
ATOM     63  C   UNL A   1      42.065  36.135  35.454  1.00  0.00     0.001 A 
ATOM     64  C   UNL A   1      42.727  37.230  34.901  1.00  0.00     0.000 A 
ENDBRANCH  45  59
BRANCH  46  65
ATOM     65  C   UNL A   1      40.585  26.711  27.964  1.00  0.00    -0.014 A 
ATOM     66  C   UNL A   1      40.997  26.642  26.625  1.00  0.00     0.009 A 
ATOM     67  C   UNL A   1      39.925  25.605  28.526  1.00  0.00     0.009 A 
ATOM     68  C   UNL A   1      40.745  25.498  25.865  1.00  0.00     0.001 A 
ATOM     69  C   UNL A   1      39.703  24.451  27.774  1.00  0.00     0.001 A 
ATOM     70  C   UNL A   1      40.106  24.401  26.441  1.00  0.00     0.000 A 
ENDBRANCH  46  65
BRANCH  58  71
ATOM     71  C   UNL A   1      46.201  29.161  31.261  1.00  0.00    -0.014 A 
ATOM     72  C   UNL A   1      47.223  29.571  30.393  1.00  0.00     0.009 A 
ATOM     73  C   UNL A   1      46.506  28.272  32.304  1.00  0.00     0.009 A 
ATOM     74  C   UNL A   1      48.520  29.078  30.550  1.00  0.00     0.001 A 
ATOM     75  C   UNL A   1      47.807  27.802  32.475  1.00  0.00     0.001 A 
ATOM     76  C   UNL A   1      48.812  28.198  31.593  1.00  0.00     0.000 A 
ENDBRANCH  58  71
ENDBRANCH  32  33
ENDBRANCH  25  27
ENDBRANCH  24  25
ENDBRANCH  23  24
ENDBRANCH   1  23
TORSDOF 13
ENDMDL
MODEL 3
REMARK VINA RESULT:     -11.1      8.127     12.871
REMARK SMILES CC(=O)Nc1cccc(-c2ccc(F)c(C(=O)OCCOC(=O)c3ccc(-c4c5nc(c(-c6ccccc6)c6ccc([nH]6)c(-c6ccccc6)c6nc(c(-c7ccccc7)c7ccc4[nH]7)C=C6)C=C5)cc3)c2)c1
REMARK SMILES IDX 19 1 18 2 16 3 17 4 15 5 10 6 11 7 72 8 12 9 13 10 14 11
REMARK SMILES IDX 9 12 5 13 6 14 73 15 7 16 8 17 4 18 1 19 2 20 3 21 20 23
REMARK SMILES IDX 21 24 22 25 23 26 24 27 25 28 71 29 26 30 70 31 27 32 28 33
REMARK SMILES IDX 29 34 64 35 30 36 69 37 63 38 65 39 31 40 68 41 62 42 61 43
REMARK SMILES IDX 32 45 54 46 39 47 53 48 40 49 43 50 52 51 66 52 41 53 42 54
REMARK SMILES IDX 51 56 67 57 44 58 33 59 34 60 38 61 35 62 37 63 36 64 55 65
REMARK SMILES IDX 56 66 60 67 57 68 59 69 58 70 45 71 46 72 50 73 47 74 49 75
REMARK SMILES IDX 48 76
REMARK H PARENT 4 22 65 44 43 55
REMARK Flexibility Score: inf
ROOT
ATOM      1  C   UNL A   1      42.601  19.326  26.779  1.00  0.00     0.275 C 
ENDROOT
BRANCH   1   2
ATOM      2  O   UNL A   1      41.768  20.295  26.110  1.00  0.00    -0.458 OA
BRANCH   2   3
ATOM      3  C   UNL A   1      40.468  19.955  25.908  1.00  0.00     0.341 C 
ATOM      4  O   UNL A   1      40.031  18.828  25.754  1.00  0.00    -0.246 OA
BRANCH   3   5
ATOM      5  C   UNL A   1      39.627  21.172  25.985  1.00  0.00     0.096 A 
ATOM      6  C   UNL A   1      37.552  22.346  25.489  1.00  0.00    -0.017 A 
ATOM      7  C   UNL A   1      38.052  23.487  26.131  1.00  0.00     0.012 A 
ATOM      8  C   UNL A   1      38.376  21.212  25.368  1.00  0.00     0.027 A 
ATOM      9  C   UNL A   1      39.302  23.452  26.745  1.00  0.00     0.041 A 
ATOM     10  C   UNL A   1      40.055  22.281  26.714  1.00  0.00     0.137 A 
ATOM     11  F   UNL A   1      41.200  22.264  27.409  1.00  0.00    -0.206 F 
BRANCH   6  12
ATOM     12  C   UNL A   1      36.136  22.249  25.126  1.00  0.00    -0.016 A 
ATOM     13  C   UNL A   1      34.059  20.977  25.350  1.00  0.00     0.041 A 
ATOM     14  C   UNL A   1      33.422  21.904  24.525  1.00  0.00     0.026 A 
ATOM     15  C   UNL A   1      35.413  21.145  25.615  1.00  0.00     0.034 A 
ATOM     16  C   UNL A   1      34.118  23.019  24.044  1.00  0.00     0.003 A 
ATOM     17  C   UNL A   1      35.469  23.200  24.353  1.00  0.00     0.009 A 
BRANCH  13  18
ATOM     18  N   UNL A   1      33.324  19.878  25.822  1.00  0.00    -0.326 N 
ATOM     19  C   UNL A   1      33.746  18.216  24.002  1.00  0.00     0.114 C 
ATOM     20  C   UNL A   1      33.003  18.688  25.227  1.00  0.00     0.221 C 
ATOM     21  O   UNL A   1      32.142  17.975  25.747  1.00  0.00    -0.275 OA
ATOM     22  H   UNL A   1      32.981  19.980  26.739  1.00  0.00     0.169 HD
ENDBRANCH  13  18
ENDBRANCH   6  12
ENDBRANCH   3   5
ENDBRANCH   2   3
ENDBRANCH   1   2
BRANCH   1  23
ATOM     23  C   UNL A   1      43.313  18.447  25.751  1.00  0.00     0.275 C 
BRANCH  23  24
ATOM     24  O   UNL A   1      43.556  19.206  24.554  1.00  0.00    -0.458 OA
BRANCH  24  25
ATOM     25  C   UNL A   1      44.845  19.542  24.317  1.00  0.00     0.338 C 
ATOM     26  O   UNL A   1      45.731  18.849  23.850  1.00  0.00    -0.246 OA
BRANCH  25  27
ATOM     27  C   UNL A   1      45.016  20.970  24.616  1.00  0.00     0.060 A 
ATOM     28  C   UNL A   1      45.603  21.310  25.828  1.00  0.00     0.016 A 
ATOM     29  C   UNL A   1      44.525  21.962  23.775  1.00  0.00     0.016 A 
ATOM     30  C   UNL A   1      45.654  22.632  26.250  1.00  0.00     0.010 A 
ATOM     31  C   UNL A   1      44.658  23.305  24.156  1.00  0.00     0.010 A 
ATOM     32  C   UNL A   1      45.208  23.654  25.406  1.00  0.00    -0.014 A 
BRANCH  32  33
ATOM     33  C   UNL A   1      45.313  25.075  25.835  1.00  0.00     0.031 A 
ATOM     34  C   UNL A   1      46.629  25.798  25.742  1.00  0.00     0.074 A 
ATOM     35  C   UNL A   1      44.229  25.729  26.299  1.00  0.00     0.049 A 
ATOM     36  N   UNL A   1      46.966  26.969  26.221  1.00  0.00    -0.248 NA
ATOM     37  C   UNL A   1      47.711  25.109  25.021  1.00  0.00     0.031 C 
ATOM     38  C   UNL A   1      42.871  25.184  26.371  1.00  0.00     0.029 A 
ATOM     39  N   UNL A   1      44.098  27.004  26.792  1.00  0.00    -0.354 N 
ATOM     40  C   UNL A   1      48.311  27.131  25.913  1.00  0.00     0.074 A 
ATOM     41  C   UNL A   1      48.728  25.940  25.204  1.00  0.00     0.031 C 
ATOM     42  C   UNL A   1      42.041  26.127  26.841  1.00  0.00     0.029 A 
ATOM     43  C   UNL A   1      42.819  27.308  27.196  1.00  0.00     0.049 A 
ATOM     44  H   UNL A   1      44.847  27.639  26.852  1.00  0.00     0.167 HD
ATOM     45  C   UNL A   1      49.126  28.174  26.205  1.00  0.00     0.031 A 
ATOM     46  C   UNL A   1      42.331  28.392  27.827  1.00  0.00     0.031 A 
ATOM     47  C   UNL A   1      48.699  29.369  26.884  1.00  0.00     0.049 A 
ATOM     48  C   UNL A   1      43.272  29.494  28.218  1.00  0.00     0.074 A 
ATOM     49  C   UNL A   1      49.445  30.491  27.204  1.00  0.00     0.029 A 
ATOM     50  N   UNL A   1      47.412  29.602  27.341  1.00  0.00    -0.354 N 
ATOM     51  N   UNL A   1      44.551  29.619  27.962  1.00  0.00    -0.248 NA
ATOM     52  C   UNL A   1      42.704  30.595  29.011  1.00  0.00     0.031 C 
ATOM     53  C   UNL A   1      48.621  31.377  27.908  1.00  0.00     0.029 A 
ATOM     54  C   UNL A   1      47.350  30.832  27.972  1.00  0.00     0.049 A 
ATOM     55  H   UNL A   1      46.654  28.983  27.233  1.00  0.00     0.167 HD
ATOM     56  C   UNL A   1      44.939  30.817  28.546  1.00  0.00     0.074 A 
ATOM     57  C   UNL A   1      43.756  31.391  29.155  1.00  0.00     0.031 C 
ATOM     58  C   UNL A   1      46.167  31.388  28.578  1.00  0.00     0.031 A 
BRANCH  45  59
ATOM     59  C   UNL A   1      50.581  28.037  25.848  1.00  0.00    -0.014 A 
ATOM     60  C   UNL A   1      51.084  28.458  24.608  1.00  0.00     0.009 A 
ATOM     61  C   UNL A   1      51.468  27.494  26.793  1.00  0.00     0.009 A 
ATOM     62  C   UNL A   1      52.440  28.302  24.308  1.00  0.00     0.001 A 
ATOM     63  C   UNL A   1      52.827  27.367  26.501  1.00  0.00     0.001 A 
ATOM     64  C   UNL A   1      53.310  27.760  25.255  1.00  0.00     0.000 A 
ENDBRANCH  45  59
BRANCH  46  65
ATOM     65  C   UNL A   1      40.889  28.461  28.181  1.00  0.00    -0.014 A 
ATOM     66  C   UNL A   1      39.975  29.098  27.328  1.00  0.00     0.009 A 
ATOM     67  C   UNL A   1      40.415  27.891  29.374  1.00  0.00     0.009 A 
ATOM     68  C   UNL A   1      38.622  29.172  27.667  1.00  0.00     0.001 A 
ATOM     69  C   UNL A   1      39.058  27.937  29.695  1.00  0.00     0.001 A 
ATOM     70  C   UNL A   1      38.163  28.585  28.846  1.00  0.00     0.000 A 
ENDBRANCH  46  65
BRANCH  58  71
ATOM     71  C   UNL A   1      46.285  32.718  29.267  1.00  0.00    -0.014 A 
ATOM     72  C   UNL A   1      46.633  32.806  30.623  1.00  0.00     0.009 A 
ATOM     73  C   UNL A   1      46.080  33.899  28.537  1.00  0.00     0.009 A 
ATOM     74  C   UNL A   1      46.747  34.052  31.241  1.00  0.00     0.001 A 
ATOM     75  C   UNL A   1      46.221  35.143  29.150  1.00  0.00     0.001 A 
ATOM     76  C   UNL A   1      46.546  35.219  30.503  1.00  0.00     0.000 A 
ENDBRANCH  58  71
ENDBRANCH  32  33
ENDBRANCH  25  27
ENDBRANCH  24  25
ENDBRANCH  23  24
ENDBRANCH   1  23
TORSDOF 13
ENDMDL
