MODEL 1
REMARK VINA RESULT:     -11.1      0.000      0.000
REMARK SMILES COC(=O)C1=C(C)NC(C)=C(C(=O)OC)C1c1ccc(C(=O)OCCOC(=O)c2ccc(-c3c4nc(c(-c5ccccc5)c5ccc([nH]5)c(-c5ccccc5)c5nc(c(-c6ccccc6)c6ccc3[nH]6)C=C5)C=C4)cc2)cc1
REMARK SMILES IDX 24 1 23 2 21 3 22 4 20 5 17 6 18 7 78 8 19 9 77 10 16 11
REMARK SMILES IDX 5 12 6 13 7 14 8 15 11 16 9 17 10 19 3 20 4 21 2 22 1 23
REMARK SMILES IDX 12 24 13 25 14 26 15 27 25 28 26 29 27 30 28 31 29 32 30 33
REMARK SMILES IDX 76 34 31 35 75 36 32 37 33 38 34 39 69 40 35 41 74 42 68 43
REMARK SMILES IDX 70 44 36 45 73 46 67 47 66 48 37 50 59 51 44 52 58 53 45 54
REMARK SMILES IDX 48 55 57 56 71 57 46 58 47 59 56 61 72 62 49 63 38 64 39 65
REMARK SMILES IDX 43 66 40 67 42 68 41 69 60 70 61 71 65 72 62 73 64 74 63 75
REMARK SMILES IDX 50 76 51 77 55 78 52 79 54 80 53 81
REMARK H PARENT 8 18 70 49 48 60
REMARK Flexibility Score: inf
ROOT
ATOM      1  C   UNL A   1      34.816  20.851  25.553  1.00  0.00     0.275 C 
ENDROOT
BRANCH   1   2
ATOM      2  O   UNL A   1      34.984  21.871  26.554  1.00  0.00    -0.458 OA
BRANCH   2   3
ATOM      3  C   UNL A   1      33.838  22.473  26.963  1.00  0.00     0.338 C 
ATOM      4  O   UNL A   1      33.037  22.019  27.765  1.00  0.00    -0.246 OA
BRANCH   3   5
ATOM      5  C   UNL A   1      33.685  23.819  26.351  1.00  0.00     0.060 A 
ATOM      6  C   UNL A   1      33.276  26.395  25.287  1.00  0.00    -0.035 A 
ATOM      7  C   UNL A   1      32.275  25.777  26.049  1.00  0.00     0.005 A 
ATOM      8  C   UNL A   1      34.486  25.710  25.070  1.00  0.00     0.005 A 
ATOM      9  C   UNL A   1      32.480  24.501  26.575  1.00  0.00     0.016 A 
ATOM     10  C   UNL A   1      34.691  24.432  25.599  1.00  0.00     0.016 A 
BRANCH   6  11
ATOM     11  C   UNL A   1      33.043  27.755  24.626  1.00  0.00     0.098 C 
ATOM     12  C   UNL A   1      31.934  27.681  23.582  1.00  0.00     0.068 C 
ATOM     13  C   UNL A   1      31.009  28.656  23.449  1.00  0.00     0.023 C 
ATOM     14  C   UNL A   1      29.890  28.646  22.439  1.00  0.00     0.065 C 
ATOM     15  N   UNL A   1      31.047  29.746  24.302  1.00  0.00    -0.362 N 
ATOM     16  C   UNL A   1      32.828  28.902  25.621  1.00  0.00     0.068 C 
ATOM     17  C   UNL A   1      31.878  29.844  25.407  1.00  0.00     0.023 C 
ATOM     18  H   UNL A   1      30.443  30.499  24.111  1.00  0.00     0.166 HD
ATOM     19  C   UNL A   1      31.626  31.039  26.295  1.00  0.00     0.065 C 
BRANCH  12  20
ATOM     20  C   UNL A   1      31.827  26.469  22.754  1.00  0.00     0.336 C 
ATOM     21  O   UNL A   1      30.968  25.616  22.911  1.00  0.00    -0.246 OA
BRANCH  20  22
ATOM     22  O   UNL A   1      32.768  26.506  21.781  1.00  0.00    -0.466 OA
ATOM     23  C   UNL A   1      32.527  25.604  20.697  1.00  0.00     0.282 C 
ENDBRANCH  20  22
ENDBRANCH  12  20
BRANCH  16  24
ATOM     24  C   UNL A   1      33.622  28.913  26.871  1.00  0.00     0.336 C 
ATOM     25  O   UNL A   1      33.176  28.599  27.965  1.00  0.00    -0.246 OA
BRANCH  24  26
ATOM     26  O   UNL A   1      34.901  29.282  26.614  1.00  0.00    -0.466 OA
ATOM     27  C   UNL A   1      35.501  30.032  27.674  1.00  0.00     0.282 C 
ENDBRANCH  24  26
ENDBRANCH  16  24
ENDBRANCH   6  11
ENDBRANCH   3   5
ENDBRANCH   2   3
ENDBRANCH   1   2
BRANCH   1  28
ATOM     28  C   UNL A   1      36.167  20.383  25.008  1.00  0.00     0.275 C 
BRANCH  28  29
ATOM     29  O   UNL A   1      37.138  21.446  25.026  1.00  0.00    -0.458 OA
BRANCH  29  30
ATOM     30  C   UNL A   1      38.343  21.113  25.544  1.00  0.00     0.338 C 
ATOM     31  O   UNL A   1      38.924  20.044  25.457  1.00  0.00    -0.246 OA
BRANCH  30  32
ATOM     32  C   UNL A   1      38.940  22.271  26.224  1.00  0.00     0.060 A 
ATOM     33  C   UNL A   1      38.341  23.521  26.054  1.00  0.00     0.016 A 
ATOM     34  C   UNL A   1      40.174  22.157  26.864  1.00  0.00     0.016 A 
ATOM     35  C   UNL A   1      38.993  24.673  26.490  1.00  0.00     0.010 A 
ATOM     36  C   UNL A   1      40.823  23.313  27.314  1.00  0.00     0.010 A 
ATOM     37  C   UNL A   1      40.255  24.582  27.094  1.00  0.00    -0.014 A 
BRANCH  37  38
ATOM     38  C   UNL A   1      41.032  25.820  27.365  1.00  0.00     0.031 A 
ATOM     39  C   UNL A   1      40.500  26.831  28.348  1.00  0.00     0.074 A 
ATOM     40  C   UNL A   1      42.230  26.027  26.788  1.00  0.00     0.049 A 
ATOM     41  N   UNL A   1      40.978  28.008  28.665  1.00  0.00    -0.248 NA
ATOM     42  C   UNL A   1      39.266  26.470  29.062  1.00  0.00     0.031 C 
ATOM     43  C   UNL A   1      42.896  25.114  25.859  1.00  0.00     0.029 A 
ATOM     44  N   UNL A   1      43.110  27.072  26.920  1.00  0.00    -0.354 N 
ATOM     45  C   UNL A   1      40.077  28.548  29.573  1.00  0.00     0.074 A 
ATOM     46  C   UNL A   1      39.028  27.569  29.764  1.00  0.00     0.031 C 
ATOM     47  C   UNL A   1      44.096  25.621  25.536  1.00  0.00     0.029 A 
ATOM     48  C   UNL A   1      44.266  26.912  26.199  1.00  0.00     0.049 A 
ATOM     49  H   UNL A   1      42.929  27.862  27.480  1.00  0.00     0.167 HD
ATOM     50  C   UNL A   1      40.110  29.755  30.190  1.00  0.00     0.031 A 
ATOM     51  C   UNL A   1      45.340  27.716  26.081  1.00  0.00     0.031 A 
ATOM     52  C   UNL A   1      41.165  30.718  30.045  1.00  0.00     0.049 A 
ATOM     53  C   UNL A   1      45.373  29.033  26.803  1.00  0.00     0.074 A 
ATOM     54  C   UNL A   1      41.268  31.981  30.604  1.00  0.00     0.029 A 
ATOM     55  N   UNL A   1      42.319  30.513  29.307  1.00  0.00    -0.354 N 
ATOM     56  N   UNL A   1      44.474  29.564  27.595  1.00  0.00    -0.248 NA
ATOM     57  C   UNL A   1      46.571  29.864  26.608  1.00  0.00     0.031 C 
ATOM     58  C   UNL A   1      42.484  32.543  30.199  1.00  0.00     0.029 A 
ATOM     59  C   UNL A   1      43.146  31.619  29.408  1.00  0.00     0.049 A 
ATOM     60  H   UNL A   1      42.522  29.701  28.788  1.00  0.00     0.167 HD
ATOM     61  C   UNL A   1      44.998  30.786  27.995  1.00  0.00     0.074 A 
ATOM     62  C   UNL A   1      46.301  30.910  27.378  1.00  0.00     0.031 C 
ATOM     63  C   UNL A   1      44.441  31.726  28.795  1.00  0.00     0.031 A 
BRANCH  50  64
ATOM     64  C   UNL A   1      38.937  30.112  31.053  1.00  0.00    -0.014 A 
ATOM     65  C   UNL A   1      37.789  30.709  30.512  1.00  0.00     0.009 A 
ATOM     66  C   UNL A   1      38.979  29.827  32.427  1.00  0.00     0.009 A 
ATOM     67  C   UNL A   1      36.713  31.038  31.340  1.00  0.00     0.001 A 
ATOM     68  C   UNL A   1      37.895  30.139  33.247  1.00  0.00     0.001 A 
ATOM     69  C   UNL A   1      36.766  30.752  32.705  1.00  0.00     0.000 A 
ENDBRANCH  50  64
BRANCH  51  70
ATOM     70  C   UNL A   1      46.485  27.300  25.234  1.00  0.00    -0.014 A 
ATOM     71  C   UNL A   1      47.372  26.309  25.680  1.00  0.00     0.009 A 
ATOM     72  C   UNL A   1      46.700  27.900  23.985  1.00  0.00     0.009 A 
ATOM     73  C   UNL A   1      48.466  25.938  24.895  1.00  0.00     0.001 A 
ATOM     74  C   UNL A   1      47.784  27.514  23.194  1.00  0.00     0.001 A 
ATOM     75  C   UNL A   1      48.669  26.538  23.652  1.00  0.00     0.000 A 
ENDBRANCH  51  70
BRANCH  63  76
ATOM     76  C   UNL A   1      45.250  32.960  29.063  1.00  0.00    -0.014 A 
ATOM     77  C   UNL A   1      45.137  34.089  28.239  1.00  0.00     0.009 A 
ATOM     78  C   UNL A   1      46.113  33.002  30.170  1.00  0.00     0.009 A 
ATOM     79  C   UNL A   1      45.896  35.231  28.503  1.00  0.00     0.001 A 
ATOM     80  C   UNL A   1      46.857  34.151  30.439  1.00  0.00     0.001 A 
ATOM     81  C   UNL A   1      46.754  35.261  29.602  1.00  0.00     0.000 A 
ENDBRANCH  63  76
ENDBRANCH  37  38
ENDBRANCH  30  32
ENDBRANCH  29  30
ENDBRANCH  28  29
ENDBRANCH   1  28
TORSDOF 16
ENDMDL
MODEL 2
REMARK VINA RESULT:     -11.0      0.497      5.780
REMARK SMILES COC(=O)C1=C(C)NC(C)=C(C(=O)OC)C1c1ccc(C(=O)OCCOC(=O)c2ccc(-c3c4nc(c(-c5ccccc5)c5ccc([nH]5)c(-c5ccccc5)c5nc(c(-c6ccccc6)c6ccc3[nH]6)C=C5)C=C4)cc2)cc1
REMARK SMILES IDX 24 1 23 2 21 3 22 4 20 5 17 6 18 7 78 8 19 9 77 10 16 11
REMARK SMILES IDX 5 12 6 13 7 14 8 15 11 16 9 17 10 19 3 20 4 21 2 22 1 23
REMARK SMILES IDX 12 24 13 25 14 26 15 27 25 28 26 29 27 30 28 31 29 32 30 33
REMARK SMILES IDX 76 34 31 35 75 36 32 37 33 38 34 39 69 40 35 41 74 42 68 43
REMARK SMILES IDX 70 44 36 45 73 46 67 47 66 48 37 50 59 51 44 52 58 53 45 54
REMARK SMILES IDX 48 55 57 56 71 57 46 58 47 59 56 61 72 62 49 63 38 64 39 65
REMARK SMILES IDX 43 66 40 67 42 68 41 69 60 70 61 71 65 72 62 73 64 74 63 75
REMARK SMILES IDX 50 76 51 77 55 78 52 79 54 80 53 81
REMARK H PARENT 8 18 70 49 48 60
REMARK Flexibility Score: inf
ROOT
ATOM      1  C   UNL A   1      35.046  21.001  25.377  1.00  0.00     0.275 C 
ENDROOT
BRANCH   1   2
ATOM      2  O   UNL A   1      35.097  22.089  26.317  1.00  0.00    -0.458 OA
BRANCH   2   3
ATOM      3  C   UNL A   1      33.891  22.596  26.680  1.00  0.00     0.338 C 
ATOM      4  O   UNL A   1      33.070  22.048  27.397  1.00  0.00    -0.246 OA
BRANCH   3   5
ATOM      5  C   UNL A   1      33.693  23.966  26.137  1.00  0.00     0.060 A 
ATOM      6  C   UNL A   1      33.206  26.580  25.209  1.00  0.00    -0.035 A 
ATOM      7  C   UNL A   1      32.252  25.918  25.994  1.00  0.00     0.005 A 
ATOM      8  C   UNL A   1      34.409  25.920  24.899  1.00  0.00     0.005 A 
ATOM      9  C   UNL A   1      32.496  24.623  26.452  1.00  0.00     0.016 A 
ATOM     10  C   UNL A   1      34.654  24.622  25.361  1.00  0.00     0.016 A 
BRANCH   6  11
ATOM     11  C   UNL A   1      32.926  27.965  24.621  1.00  0.00     0.098 C 
ATOM     12  C   UNL A   1      31.768  27.922  23.630  1.00  0.00     0.068 C 
ATOM     13  C   UNL A   1      30.827  28.890  23.584  1.00  0.00     0.023 C 
ATOM     14  C   UNL A   1      29.660  28.910  22.631  1.00  0.00     0.065 C 
ATOM     15  N   UNL A   1      30.894  29.942  24.482  1.00  0.00    -0.362 N 
ATOM     16  C   UNL A   1      32.747  29.064  25.675  1.00  0.00     0.068 C 
ATOM     17  C   UNL A   1      31.778  30.002  25.549  1.00  0.00     0.023 C 
ATOM     18  H   UNL A   1      30.274  30.695  24.354  1.00  0.00     0.166 HD
ATOM     19  C   UNL A   1      31.556  31.154  26.501  1.00  0.00     0.065 C 
BRANCH  12  20
ATOM     20  C   UNL A   1      31.635  26.747  22.755  1.00  0.00     0.336 C 
ATOM     21  O   UNL A   1      30.769  25.896  22.891  1.00  0.00    -0.246 OA
BRANCH  20  22
ATOM     22  O   UNL A   1      32.559  26.814  21.768  1.00  0.00    -0.466 OA
ATOM     23  C   UNL A   1      32.769  25.580  21.075  1.00  0.00     0.282 C 
ENDBRANCH  20  22
ENDBRANCH  12  20
BRANCH  16  24
ATOM     24  C   UNL A   1      33.601  29.031  26.885  1.00  0.00     0.336 C 
ATOM     25  O   UNL A   1      33.241  28.579  27.962  1.00  0.00    -0.246 OA
BRANCH  24  26
ATOM     26  O   UNL A   1      34.829  29.534  26.609  1.00  0.00    -0.466 OA
ATOM     27  C   UNL A   1      35.328  30.408  27.626  1.00  0.00     0.282 C 
ENDBRANCH  24  26
ENDBRANCH  16  24
ENDBRANCH   6  11
ENDBRANCH   3   5
ENDBRANCH   2   3
ENDBRANCH   1   2
BRANCH   1  28
ATOM     28  C   UNL A   1      36.451  20.524  25.008  1.00  0.00     0.275 C 
BRANCH  28  29
ATOM     29  O   UNL A   1      37.403  21.603  25.054  1.00  0.00    -0.458 OA
BRANCH  29  30
ATOM     30  C   UNL A   1      38.543  21.334  25.732  1.00  0.00     0.338 C 
ATOM     31  O   UNL A   1      39.169  20.287  25.757  1.00  0.00    -0.246 OA
BRANCH  30  32
ATOM     32  C   UNL A   1      39.005  22.535  26.442  1.00  0.00     0.060 A 
ATOM     33  C   UNL A   1      38.386  23.753  26.157  1.00  0.00     0.016 A 
ATOM     34  C   UNL A   1      40.152  22.490  27.235  1.00  0.00     0.016 A 
ATOM     35  C   UNL A   1      38.935  24.943  26.633  1.00  0.00     0.010 A 
ATOM     36  C   UNL A   1      40.695  23.684  27.725  1.00  0.00     0.010 A 
ATOM     37  C   UNL A   1      40.113  24.921  27.394  1.00  0.00    -0.014 A 
BRANCH  37  38
ATOM     38  C   UNL A   1      40.802  26.198  27.718  1.00  0.00     0.031 A 
ATOM     39  C   UNL A   1      42.145  26.493  27.103  1.00  0.00     0.074 A 
ATOM     40  C   UNL A   1      40.221  27.118  28.508  1.00  0.00     0.049 A 
ATOM     41  N   UNL A   1      42.949  27.505  27.315  1.00  0.00    -0.248 NA
ATOM     42  C   UNL A   1      42.652  25.518  26.124  1.00  0.00     0.031 C 
ATOM     43  C   UNL A   1      38.903  26.995  29.130  1.00  0.00     0.029 A 
ATOM     44  N   UNL A   1      40.665  28.355  28.905  1.00  0.00    -0.354 N 
ATOM     45  C   UNL A   1      44.075  27.261  26.540  1.00  0.00     0.074 A 
ATOM     46  C   UNL A   1      43.850  26.012  25.845  1.00  0.00     0.031 C 
ATOM     47  C   UNL A   1      38.630  28.128  29.798  1.00  0.00     0.029 A 
ATOM     48  C   UNL A   1      39.768  29.037  29.687  1.00  0.00     0.049 A 
ATOM     49  H   UNL A   1      41.545  28.719  28.652  1.00  0.00     0.167 HD
ATOM     50  C   UNL A   1      45.203  28.004  26.420  1.00  0.00     0.031 A 
ATOM     51  C   UNL A   1      39.854  30.255  30.255  1.00  0.00     0.031 A 
ATOM     52  C   UNL A   1      45.423  29.267  27.068  1.00  0.00     0.049 A 
ATOM     53  C   UNL A   1      41.098  31.078  30.079  1.00  0.00     0.074 A 
ATOM     54  C   UNL A   1      46.548  30.074  27.032  1.00  0.00     0.029 A 
ATOM     55  N   UNL A   1      44.485  29.922  27.849  1.00  0.00    -0.354 N 
ATOM     56  N   UNL A   1      42.187  30.796  29.407  1.00  0.00    -0.248 NA
ATOM     57  C   UNL A   1      41.124  32.389  30.747  1.00  0.00     0.031 C 
ATOM     58  C   UNL A   1      46.292  31.217  27.797  1.00  0.00     0.029 A 
ATOM     59  C   UNL A   1      45.000  31.130  28.288  1.00  0.00     0.049 A 
ATOM     60  H   UNL A   1      43.587  29.580  28.061  1.00  0.00     0.167 HD
ATOM     61  C   UNL A   1      43.024  31.893  29.567  1.00  0.00     0.074 A 
ATOM     62  C   UNL A   1      42.311  32.854  30.381  1.00  0.00     0.031 C 
ATOM     63  C   UNL A   1      44.278  32.079  29.091  1.00  0.00     0.031 A 
BRANCH  50  64
ATOM     64  C   UNL A   1      46.306  27.438  25.577  1.00  0.00    -0.014 A 
ATOM     65  C   UNL A   1      46.506  27.863  24.255  1.00  0.00     0.009 A 
ATOM     66  C   UNL A   1      47.169  26.477  26.125  1.00  0.00     0.009 A 
ATOM     67  C   UNL A   1      47.537  27.314  23.490  1.00  0.00     0.001 A 
ATOM     68  C   UNL A   1      48.210  25.946  25.364  1.00  0.00     0.001 A 
ATOM     69  C   UNL A   1      48.389  26.358  24.045  1.00  0.00     0.000 A 
ENDBRANCH  50  64
BRANCH  51  70
ATOM     70  C   UNL A   1      38.721  30.778  31.058  1.00  0.00    -0.014 A 
ATOM     71  C   UNL A   1      38.657  30.530  32.437  1.00  0.00     0.009 A 
ATOM     72  C   UNL A   1      37.695  31.514  30.446  1.00  0.00     0.009 A 
ATOM     73  C   UNL A   1      37.575  30.996  33.187  1.00  0.00     0.001 A 
ATOM     74  C   UNL A   1      36.625  31.996  31.203  1.00  0.00     0.001 A 
ATOM     75  C   UNL A   1      36.563  31.731  32.570  1.00  0.00     0.000 A 
ENDBRANCH  51  70
BRANCH  63  76
ATOM     76  C   UNL A   1      44.947  33.380  29.420  1.00  0.00    -0.014 A 
ATOM     77  C   UNL A   1      45.713  33.521  30.586  1.00  0.00     0.009 A 
ATOM     78  C   UNL A   1      44.832  34.466  28.539  1.00  0.00     0.009 A 
ATOM     79  C   UNL A   1      46.332  34.738  30.878  1.00  0.00     0.001 A 
ATOM     80  C   UNL A   1      45.465  35.676  28.827  1.00  0.00     0.001 A 
ATOM     81  C   UNL A   1      46.208  35.814  29.999  1.00  0.00     0.000 A 
ENDBRANCH  63  76
ENDBRANCH  37  38
ENDBRANCH  30  32
ENDBRANCH  29  30
ENDBRANCH  28  29
ENDBRANCH   1  28
TORSDOF 16
ENDMDL
MODEL 3
REMARK VINA RESULT:     -10.4      0.852      2.599
REMARK SMILES COC(=O)C1=C(C)NC(C)=C(C(=O)OC)C1c1ccc(C(=O)OCCOC(=O)c2ccc(-c3c4nc(c(-c5ccccc5)c5ccc([nH]5)c(-c5ccccc5)c5nc(c(-c6ccccc6)c6ccc3[nH]6)C=C5)C=C4)cc2)cc1
REMARK SMILES IDX 24 1 23 2 21 3 22 4 20 5 17 6 18 7 78 8 19 9 77 10 16 11
REMARK SMILES IDX 5 12 6 13 7 14 8 15 11 16 9 17 10 19 3 20 4 21 2 22 1 23
REMARK SMILES IDX 12 24 13 25 14 26 15 27 25 28 26 29 27 30 28 31 29 32 30 33
REMARK SMILES IDX 76 34 31 35 75 36 32 37 33 38 34 39 69 40 35 41 74 42 68 43
REMARK SMILES IDX 70 44 36 45 73 46 67 47 66 48 37 50 59 51 44 52 58 53 45 54
REMARK SMILES IDX 48 55 57 56 71 57 46 58 47 59 56 61 72 62 49 63 38 64 39 65
REMARK SMILES IDX 43 66 40 67 42 68 41 69 60 70 61 71 65 72 62 73 64 74 63 75
REMARK SMILES IDX 50 76 51 77 55 78 52 79 54 80 53 81
REMARK H PARENT 8 18 70 49 48 60
REMARK Flexibility Score: inf
ROOT
ATOM      1  C   UNL A   1      35.177  21.368  25.117  1.00  0.00     0.275 C 
ENDROOT
BRANCH   1   2
ATOM      2  O   UNL A   1      35.415  22.758  25.401  1.00  0.00    -0.458 OA
BRANCH   2   3
ATOM      3  C   UNL A   1      35.257  23.598  24.347  1.00  0.00     0.338 C 
ATOM      4  O   UNL A   1      35.838  23.523  23.276  1.00  0.00    -0.246 OA
BRANCH   3   5
ATOM      5  C   UNL A   1      34.218  24.626  24.624  1.00  0.00     0.060 A 
ATOM      6  C   UNL A   1      32.292  26.643  25.019  1.00  0.00    -0.035 A 
ATOM      7  C   UNL A   1      33.339  26.833  24.107  1.00  0.00     0.005 A 
ATOM      8  C   UNL A   1      32.218  25.428  25.726  1.00  0.00     0.005 A 
ATOM      9  C   UNL A   1      34.293  25.832  23.913  1.00  0.00     0.016 A 
ATOM     10  C   UNL A   1      33.172  24.425  25.530  1.00  0.00     0.016 A 
BRANCH   6  11
ATOM     11  C   UNL A   1      31.286  27.757  25.315  1.00  0.00     0.098 C 
ATOM     12  C   UNL A   1      31.947  28.919  26.048  1.00  0.00     0.068 C 
ATOM     13  C   UNL A   1      31.665  30.206  25.752  1.00  0.00     0.023 C 
ATOM     14  C   UNL A   1      32.280  31.400  26.437  1.00  0.00     0.065 C 
ATOM     15  N   UNL A   1      30.771  30.486  24.732  1.00  0.00    -0.362 N 
ATOM     16  C   UNL A   1      30.493  28.221  24.088  1.00  0.00     0.068 C 
ATOM     17  C   UNL A   1      30.250  29.535  23.868  1.00  0.00     0.023 C 
ATOM     18  H   UNL A   1      30.488  31.421  24.614  1.00  0.00     0.166 HD
ATOM     19  C   UNL A   1      29.434  30.088  22.723  1.00  0.00     0.065 C 
BRANCH  12  20
ATOM     20  C   UNL A   1      32.981  28.621  27.052  1.00  0.00     0.336 C 
ATOM     21  O   UNL A   1      32.748  28.095  28.128  1.00  0.00    -0.246 OA
BRANCH  20  22
ATOM     22  O   UNL A   1      34.196  28.954  26.557  1.00  0.00    -0.466 OA
ATOM     23  C   UNL A   1      35.159  29.309  27.553  1.00  0.00     0.282 C 
ENDBRANCH  20  22
ENDBRANCH  12  20
BRANCH  16  24
ATOM     24  C   UNL A   1      30.068  27.208  23.094  1.00  0.00     0.336 C 
ATOM     25  O   UNL A   1      29.215  26.359  23.307  1.00  0.00    -0.246 OA
BRANCH  24  26
ATOM     26  O   UNL A   1      30.731  27.387  21.925  1.00  0.00    -0.466 OA
ATOM     27  C   UNL A   1      31.418  26.216  21.474  1.00  0.00     0.282 C 
ENDBRANCH  24  26
ENDBRANCH  16  24
ENDBRANCH   6  11
ENDBRANCH   3   5
ENDBRANCH   2   3
ENDBRANCH   1   2
BRANCH   1  28
ATOM     28  C   UNL A   1      36.473  20.559  25.186  1.00  0.00     0.275 C 
BRANCH  28  29
ATOM     29  O   UNL A   1      37.624  21.387  24.934  1.00  0.00    -0.458 OA
BRANCH  29  30
ATOM     30  C   UNL A   1      38.722  21.078  25.660  1.00  0.00     0.338 C 
ATOM     31  O   UNL A   1      39.275  19.995  25.757  1.00  0.00    -0.246 OA
BRANCH  30  32
ATOM     32  C   UNL A   1      39.245  22.280  26.325  1.00  0.00     0.060 A 
ATOM     33  C   UNL A   1      38.644  23.509  26.041  1.00  0.00     0.016 A 
ATOM     34  C   UNL A   1      40.424  22.222  27.068  1.00  0.00     0.016 A 
ATOM     35  C   UNL A   1      39.243  24.693  26.468  1.00  0.00     0.010 A 
ATOM     36  C   UNL A   1      41.018  23.411  27.509  1.00  0.00     0.010 A 
ATOM     37  C   UNL A   1      40.452  24.656  27.177  1.00  0.00    -0.014 A 
BRANCH  37  38
ATOM     38  C   UNL A   1      41.187  25.921  27.445  1.00  0.00     0.031 A 
ATOM     39  C   UNL A   1      40.603  26.931  28.398  1.00  0.00     0.074 A 
ATOM     40  C   UNL A   1      42.391  26.153  26.892  1.00  0.00     0.049 A 
ATOM     41  N   UNL A   1      41.039  28.126  28.707  1.00  0.00    -0.248 NA
ATOM     42  C   UNL A   1      39.363  26.546  29.090  1.00  0.00     0.031 C 
ATOM     43  C   UNL A   1      43.104  25.245  25.994  1.00  0.00     0.029 A 
ATOM     44  N   UNL A   1      43.237  27.225  27.027  1.00  0.00    -0.354 N 
ATOM     45  C   UNL A   1      40.102  28.655  29.585  1.00  0.00     0.074 A 
ATOM     46  C   UNL A   1      39.078  27.649  29.768  1.00  0.00     0.031 C 
ATOM     47  C   UNL A   1      44.297  25.782  25.690  1.00  0.00     0.029 A 
ATOM     48  C   UNL A   1      44.414  27.087  26.336  1.00  0.00     0.049 A 
ATOM     49  H   UNL A   1      43.020  28.019  27.569  1.00  0.00     0.167 HD
ATOM     50  C   UNL A   1      40.086  29.871  30.182  1.00  0.00     0.031 A 
ATOM     51  C   UNL A   1      45.467  27.920  26.229  1.00  0.00     0.031 A 
ATOM     52  C   UNL A   1      41.116  30.863  30.045  1.00  0.00     0.049 A 
ATOM     53  C   UNL A   1      45.445  29.249  26.929  1.00  0.00     0.074 A 
ATOM     54  C   UNL A   1      41.169  32.137  30.586  1.00  0.00     0.029 A 
ATOM     55  N   UNL A   1      42.293  30.679  29.338  1.00  0.00    -0.354 N 
ATOM     56  N   UNL A   1      44.513  29.766  27.692  1.00  0.00    -0.248 NA
ATOM     57  C   UNL A   1      46.623  30.111  26.748  1.00  0.00     0.031 C 
ATOM     58  C   UNL A   1      42.377  32.727  30.199  1.00  0.00     0.029 A 
ATOM     59  C   UNL A   1      43.084  31.810  29.440  1.00  0.00     0.049 A 
ATOM     60  H   UNL A   1      42.530  29.866  28.836  1.00  0.00     0.167 HD
ATOM     61  C   UNL A   1      44.992  31.009  28.083  1.00  0.00     0.074 A 
ATOM     62  C   UNL A   1      46.305  31.161  27.494  1.00  0.00     0.031 C 
ATOM     63  C   UNL A   1      44.390  31.946  28.854  1.00  0.00     0.031 A 
BRANCH  50  64
ATOM     64  C   UNL A   1      38.883  30.208  31.012  1.00  0.00    -0.014 A 
ATOM     65  C   UNL A   1      37.731  30.763  30.435  1.00  0.00     0.009 A 
ATOM     66  C   UNL A   1      38.902  29.947  32.391  1.00  0.00     0.009 A 
ATOM     67  C   UNL A   1      36.627  31.073  31.233  1.00  0.00     0.001 A 
ATOM     68  C   UNL A   1      37.790  30.240  33.181  1.00  0.00     0.001 A 
ATOM     69  C   UNL A   1      36.657  30.810  32.603  1.00  0.00     0.000 A 
ENDBRANCH  50  64
BRANCH  51  70
ATOM     70  C   UNL A   1      46.642  27.524  25.415  1.00  0.00    -0.014 A 
ATOM     71  C   UNL A   1      46.747  27.932  24.077  1.00  0.00     0.009 A 
ATOM     72  C   UNL A   1      47.657  26.730  25.970  1.00  0.00     0.009 A 
ATOM     73  C   UNL A   1      47.839  27.534  23.303  1.00  0.00     0.001 A 
ATOM     74  C   UNL A   1      48.757  26.350  25.198  1.00  0.00     0.001 A 
ATOM     75  C   UNL A   1      48.844  26.747  23.865  1.00  0.00     0.000 A 
ENDBRANCH  51  70
BRANCH  63  76
ATOM     76  C   UNL A   1      45.157  33.207  29.120  1.00  0.00    -0.014 A 
ATOM     77  C   UNL A   1      45.032  34.318  28.274  1.00  0.00     0.009 A 
ATOM     78  C   UNL A   1      45.990  33.292  30.247  1.00  0.00     0.009 A 
ATOM     79  C   UNL A   1      45.751  35.486  28.536  1.00  0.00     0.001 A 
ATOM     80  C   UNL A   1      46.695  34.466  30.514  1.00  0.00     0.001 A 
ATOM     81  C   UNL A   1      46.581  35.559  29.655  1.00  0.00     0.000 A 
ENDBRANCH  63  76
ENDBRANCH  37  38
ENDBRANCH  30  32
ENDBRANCH  29  30
ENDBRANCH  28  29
ENDBRANCH   1  28
TORSDOF 16
ENDMDL
