MODEL 1
REMARK VINA RESULT:     -11.5      0.000      0.000
REMARK SMILES Cc1cc(=O)n2cc(-c3ccccc3)nc2n1[C@H](C)C(=O)OCCOC(=O)c1ccc(-c2c3nc(c(-c4ccccc4)c4ccc([nH]4)c(-c4ccccc4)c4nc(c(-c5ccccc5)c5ccc2[nH]5)C=C4)C=C3)cc1
REMARK SMILES IDX 23 1 22 2 20 3 21 4 18 5 19 6 17 7 1 8 2 9 3 10 4 11 16 12
REMARK SMILES IDX 5 13 6 14 15 15 7 16 8 17 9 18 10 19 14 20 11 21 13 22 12 23
REMARK SMILES IDX 24 24 25 25 26 26 27 27 28 28 29 29 75 30 30 31 74 32 31 33
REMARK SMILES IDX 32 34 33 35 68 36 34 37 73 38 67 39 69 40 35 41 72 42 66 43
REMARK SMILES IDX 65 44 36 46 58 47 43 48 57 49 44 50 47 51 56 52 70 53 45 54
REMARK SMILES IDX 46 55 55 57 71 58 48 59 37 60 38 61 42 62 39 63 41 64 40 65
REMARK SMILES IDX 59 66 60 67 64 68 61 69 63 70 62 71 49 72 50 73 54 74 51 75
REMARK SMILES IDX 53 76 52 77
REMARK H PARENT 69 45 47 56
REMARK Flexibility Score: inf
ROOT
ATOM      1  C   UNL A   1      32.682  30.551  26.819  1.00  0.00     0.274 C 
ENDROOT
BRANCH   1   2
ATOM      2  O   UNL A   1      32.785  29.180  27.239  1.00  0.00    -0.461 OA
BRANCH   2   3
ATOM      3  C   UNL A   1      33.394  28.342  26.357  1.00  0.00     0.329 C 
ATOM      4  O   UNL A   1      34.403  28.637  25.717  1.00  0.00    -0.250 OA
BRANCH   3   5
ATOM      5  C   UNL A   1      32.676  27.000  26.183  1.00  0.00     0.197 C 
ATOM      6  C   UNL A   1      31.270  26.910  26.785  1.00  0.00     0.044 C 
BRANCH   5   7
ATOM      7  N   UNL A   1      32.783  26.579  24.756  1.00  0.00    -0.301 N 
ATOM      8  C   UNL A   1      31.025  28.265  24.048  1.00  0.00     0.065 C 
ATOM      9  C   UNL A   1      31.962  27.118  23.741  1.00  0.00     0.024 A 
ATOM     10  C   UNL A   1      31.988  26.636  22.484  1.00  0.00     0.093 A 
ATOM     11  C   UNL A   1      32.905  25.538  22.126  1.00  0.00     0.259 A 
ATOM     12  C   UNL A   1      33.616  25.528  24.470  1.00  0.00     0.218 A 
ATOM     13  O   UNL A   1      33.002  25.060  21.003  1.00  0.00    -0.269 OA
ATOM     14  N   UNL A   1      33.689  25.067  23.171  1.00  0.00    -0.251 N 
ATOM     15  N   UNL A   1      34.430  24.852  25.251  1.00  0.00    -0.212 NA
ATOM     16  C   UNL A   1      34.676  24.110  23.134  1.00  0.00     0.127 A 
ATOM     17  C   UNL A   1      35.140  24.023  24.425  1.00  0.00     0.091 A 
BRANCH  17  18
ATOM     18  C   UNL A   1      36.245  23.203  24.869  1.00  0.00     0.002 A 
ATOM     19  C   UNL A   1      37.277  23.761  25.635  1.00  0.00     0.010 A 
ATOM     20  C   UNL A   1      36.277  21.837  24.567  1.00  0.00     0.010 A 
ATOM     21  C   UNL A   1      38.337  22.968  26.077  1.00  0.00     0.001 A 
ATOM     22  C   UNL A   1      37.346  21.047  24.997  1.00  0.00     0.001 A 
ATOM     23  C   UNL A   1      38.375  21.613  25.750  1.00  0.00     0.000 A 
ENDBRANCH  17  18
ENDBRANCH   5   7
ENDBRANCH   3   5
ENDBRANCH   2   3
ENDBRANCH   1   2
BRANCH   1  24
ATOM     24  C   UNL A   1      33.577  31.466  27.647  1.00  0.00     0.275 C 
BRANCH  24  25
ATOM     25  O   UNL A   1      34.611  30.752  28.330  1.00  0.00    -0.458 OA
BRANCH  25  26
ATOM     26  C   UNL A   1      35.657  31.515  28.714  1.00  0.00     0.338 C 
ATOM     27  O   UNL A   1      35.639  32.696  29.015  1.00  0.00    -0.246 OA
BRANCH  26  28
ATOM     28  C   UNL A   1      36.913  30.794  28.535  1.00  0.00     0.060 A 
ATOM     29  C   UNL A   1      36.844  29.472  28.080  1.00  0.00     0.016 A 
ATOM     30  C   UNL A   1      38.077  31.326  29.101  1.00  0.00     0.016 A 
ATOM     31  C   UNL A   1      37.911  28.634  28.331  1.00  0.00     0.010 A 
ATOM     32  C   UNL A   1      39.135  30.486  29.358  1.00  0.00     0.010 A 
ATOM     33  C   UNL A   1      39.013  29.137  29.033  1.00  0.00    -0.014 A 
BRANCH  33  34
ATOM     34  C   UNL A   1      40.096  28.227  29.345  1.00  0.00     0.031 A 
ATOM     35  C   UNL A   1      40.445  28.181  30.782  1.00  0.00     0.074 A 
ATOM     36  C   UNL A   1      40.645  27.400  28.435  1.00  0.00     0.049 A 
ATOM     37  N   UNL A   1      41.571  28.495  31.330  1.00  0.00    -0.248 NA
ATOM     38  C   UNL A   1      39.373  27.859  31.736  1.00  0.00     0.031 C 
ATOM     39  C   UNL A   1      40.208  27.133  27.062  1.00  0.00     0.029 A 
ATOM     40  N   UNL A   1      41.665  26.520  28.611  1.00  0.00    -0.354 N 
ATOM     41  C   UNL A   1      41.407  28.262  32.691  1.00  0.00     0.074 A 
ATOM     42  C   UNL A   1      40.005  28.000  32.900  1.00  0.00     0.031 C 
ATOM     43  C   UNL A   1      40.801  25.999  26.622  1.00  0.00     0.029 A 
ATOM     44  C   UNL A   1      41.758  25.552  27.622  1.00  0.00     0.049 A 
ATOM     45  H   UNL A   1      42.284  26.565  29.375  1.00  0.00     0.167 HD
ATOM     46  C   UNL A   1      42.470  28.094  33.521  1.00  0.00     0.031 A 
ATOM     47  C   UNL A   1      42.522  24.435  27.669  1.00  0.00     0.031 A 
ATOM     48  C   UNL A   1      43.693  28.575  32.937  1.00  0.00     0.049 A 
ATOM     49  C   UNL A   1      43.574  24.657  28.688  1.00  0.00     0.074 A 
ATOM     50  C   UNL A   1      44.147  29.807  32.513  1.00  0.00     0.029 A 
ATOM     51  N   UNL A   1      44.527  27.645  32.365  1.00  0.00    -0.354 N 
ATOM     52  N   UNL A   1      44.538  25.520  28.550  1.00  0.00    -0.248 NA
ATOM     53  C   UNL A   1      43.316  24.221  30.052  1.00  0.00     0.031 C 
ATOM     54  C   UNL A   1      44.916  29.533  31.345  1.00  0.00     0.029 A 
ATOM     55  C   UNL A   1      44.932  28.149  31.156  1.00  0.00     0.049 A 
ATOM     56  H   UNL A   1      44.786  26.778  32.752  1.00  0.00     0.167 HD
ATOM     57  C   UNL A   1      44.709  26.063  29.814  1.00  0.00     0.074 A 
ATOM     58  C   UNL A   1      44.009  25.150  30.716  1.00  0.00     0.031 C 
ATOM     59  C   UNL A   1      45.155  27.343  29.976  1.00  0.00     0.031 A 
BRANCH  46  60
ATOM     60  C   UNL A   1      42.453  27.146  34.688  1.00  0.00    -0.014 A 
ATOM     61  C   UNL A   1      42.638  25.773  34.452  1.00  0.00     0.009 A 
ATOM     62  C   UNL A   1      41.986  27.515  35.965  1.00  0.00     0.009 A 
ATOM     63  C   UNL A   1      42.313  24.819  35.422  1.00  0.00     0.001 A 
ATOM     64  C   UNL A   1      41.701  26.568  36.950  1.00  0.00     0.001 A 
ATOM     65  C   UNL A   1      41.839  25.217  36.669  1.00  0.00     0.000 A 
ENDBRANCH  46  60
BRANCH  47  66
ATOM     66  C   UNL A   1      42.228  23.087  27.137  1.00  0.00    -0.014 A 
ATOM     67  C   UNL A   1      42.942  22.586  26.037  1.00  0.00     0.009 A 
ATOM     68  C   UNL A   1      41.457  22.180  27.886  1.00  0.00     0.009 A 
ATOM     69  C   UNL A   1      42.928  21.218  25.731  1.00  0.00     0.001 A 
ATOM     70  C   UNL A   1      41.441  20.816  27.579  1.00  0.00     0.001 A 
ATOM     71  C   UNL A   1      42.191  20.332  26.512  1.00  0.00     0.000 A 
ENDBRANCH  47  66
BRANCH  59  72
ATOM     72  C   UNL A   1      45.674  28.071  28.758  1.00  0.00    -0.014 A 
ATOM     73  C   UNL A   1      44.837  28.781  27.877  1.00  0.00     0.009 A 
ATOM     74  C   UNL A   1      47.061  28.182  28.590  1.00  0.00     0.009 A 
ATOM     75  C   UNL A   1      45.376  29.560  26.847  1.00  0.00     0.001 A 
ATOM     76  C   UNL A   1      47.600  28.977  27.575  1.00  0.00     0.001 A 
ATOM     77  C   UNL A   1      46.758  29.663  26.702  1.00  0.00     0.000 A 
ENDBRANCH  59  72
ENDBRANCH  33  34
ENDBRANCH  26  28
ENDBRANCH  25  26
ENDBRANCH  24  25
ENDBRANCH   1  24
TORSDOF 13
ENDMDL
MODEL 2
REMARK VINA RESULT:     -11.5      1.239      3.776
REMARK SMILES Cc1cc(=O)n2cc(-c3ccccc3)nc2n1[C@H](C)C(=O)OCCOC(=O)c1ccc(-c2c3nc(c(-c4ccccc4)c4ccc([nH]4)c(-c4ccccc4)c4nc(c(-c5ccccc5)c5ccc2[nH]5)C=C4)C=C3)cc1
REMARK SMILES IDX 23 1 22 2 20 3 21 4 18 5 19 6 17 7 1 8 2 9 3 10 4 11 16 12
REMARK SMILES IDX 5 13 6 14 15 15 7 16 8 17 9 18 10 19 14 20 11 21 13 22 12 23
REMARK SMILES IDX 24 24 25 25 26 26 27 27 28 28 29 29 75 30 30 31 74 32 31 33
REMARK SMILES IDX 32 34 33 35 68 36 34 37 73 38 67 39 69 40 35 41 72 42 66 43
REMARK SMILES IDX 65 44 36 46 58 47 43 48 57 49 44 50 47 51 56 52 70 53 45 54
REMARK SMILES IDX 46 55 55 57 71 58 48 59 37 60 38 61 42 62 39 63 41 64 40 65
REMARK SMILES IDX 59 66 60 67 64 68 61 69 63 70 62 71 49 72 50 73 54 74 51 75
REMARK SMILES IDX 53 76 52 77
REMARK H PARENT 69 45 47 56
REMARK Flexibility Score: inf
ROOT
ATOM      1  C   UNL A   1      32.879  30.755  26.908  1.00  0.00     0.274 C 
ENDROOT
BRANCH   1   2
ATOM      2  O   UNL A   1      32.763  29.403  27.382  1.00  0.00    -0.461 OA
BRANCH   2   3
ATOM      3  C   UNL A   1      33.473  28.475  26.683  1.00  0.00     0.329 C 
ATOM      4  O   UNL A   1      34.584  28.686  26.198  1.00  0.00    -0.250 OA
BRANCH   3   5
ATOM      5  C   UNL A   1      32.737  27.143  26.500  1.00  0.00     0.197 C 
ATOM      6  C   UNL A   1      31.331  27.067  27.102  1.00  0.00     0.044 C 
BRANCH   5   7
ATOM      7  N   UNL A   1      32.840  26.730  25.070  1.00  0.00    -0.301 N 
ATOM      8  C   UNL A   1      34.491  24.891  25.644  1.00  0.00     0.065 C 
ATOM      9  C   UNL A   1      33.716  25.710  24.636  1.00  0.00     0.024 A 
ATOM     10  C   UNL A   1      33.886  25.438  23.329  1.00  0.00     0.093 A 
ATOM     11  C   UNL A   1      33.132  26.188  22.307  1.00  0.00     0.259 A 
ATOM     12  C   UNL A   1      32.156  27.477  24.148  1.00  0.00     0.218 A 
ATOM     13  O   UNL A   1      33.216  25.986  21.103  1.00  0.00    -0.269 OA
ATOM     14  N   UNL A   1      32.282  27.165  22.809  1.00  0.00    -0.251 N 
ATOM     15  N   UNL A   1      31.328  28.485  24.315  1.00  0.00    -0.212 NA
ATOM     16  C   UNL A   1      31.407  27.972  22.119  1.00  0.00     0.127 A 
ATOM     17  C   UNL A   1      30.807  28.752  23.078  1.00  0.00     0.091 A 
BRANCH  17  18
ATOM     18  C   UNL A   1      29.745  29.706  22.844  1.00  0.00     0.002 A 
ATOM     19  C   UNL A   1      29.419  30.655  23.822  1.00  0.00     0.010 A 
ATOM     20  C   UNL A   1      29.056  29.711  21.627  1.00  0.00     0.010 A 
ATOM     21  C   UNL A   1      28.404  31.585  23.592  1.00  0.00     0.001 A 
ATOM     22  C   UNL A   1      28.030  30.633  21.404  1.00  0.00     0.001 A 
ATOM     23  C   UNL A   1      27.704  31.568  22.386  1.00  0.00     0.000 A 
ENDBRANCH  17  18
ENDBRANCH   5   7
ENDBRANCH   3   5
ENDBRANCH   2   3
ENDBRANCH   1   2
BRANCH   1  24
ATOM     24  C   UNL A   1      33.663  31.630  27.879  1.00  0.00     0.275 C 
BRANCH  24  25
ATOM     25  O   UNL A   1      35.073  31.590  27.640  1.00  0.00    -0.458 OA
BRANCH  25  26
ATOM     26  C   UNL A   1      35.830  31.650  28.756  1.00  0.00     0.338 C 
ATOM     27  O   UNL A   1      35.634  32.333  29.747  1.00  0.00    -0.246 OA
BRANCH  26  28
ATOM     28  C   UNL A   1      37.080  30.920  28.568  1.00  0.00     0.060 A 
ATOM     29  C   UNL A   1      37.001  29.608  28.090  1.00  0.00     0.016 A 
ATOM     30  C   UNL A   1      38.247  31.432  29.146  1.00  0.00     0.016 A 
ATOM     31  C   UNL A   1      38.059  28.756  28.328  1.00  0.00     0.010 A 
ATOM     32  C   UNL A   1      39.297  30.578  29.391  1.00  0.00     0.010 A 
ATOM     33  C   UNL A   1      39.164  29.236  29.042  1.00  0.00    -0.014 A 
BRANCH  33  34
ATOM     34  C   UNL A   1      40.238  28.311  29.340  1.00  0.00     0.031 A 
ATOM     35  C   UNL A   1      40.553  28.204  30.783  1.00  0.00     0.074 A 
ATOM     36  C   UNL A   1      40.807  27.522  28.410  1.00  0.00     0.049 A 
ATOM     37  N   UNL A   1      41.666  28.492  31.370  1.00  0.00    -0.248 NA
ATOM     38  C   UNL A   1      39.458  27.845  31.696  1.00  0.00     0.031 C 
ATOM     39  C   UNL A   1      40.403  27.314  27.017  1.00  0.00     0.029 A 
ATOM     40  N   UNL A   1      41.822  26.633  28.572  1.00  0.00    -0.354 N 
ATOM     41  C   UNL A   1      41.470  28.203  32.715  1.00  0.00     0.074 A 
ATOM     42  C   UNL A   1      40.063  27.935  32.880  1.00  0.00     0.031 C 
ATOM     43  C   UNL A   1      41.004  26.198  26.544  1.00  0.00     0.029 A 
ATOM     44  C   UNL A   1      41.936  25.708  27.546  1.00  0.00     0.049 A 
ATOM     45  H   UNL A   1      42.422  26.644  29.352  1.00  0.00     0.167 HD
ATOM     46  C   UNL A   1      42.512  27.997  33.562  1.00  0.00     0.031 A 
ATOM     47  C   UNL A   1      42.698  24.587  27.564  1.00  0.00     0.031 A 
ATOM     48  C   UNL A   1      43.749  28.499  33.028  1.00  0.00     0.049 A 
ATOM     49  C   UNL A   1      43.726  24.764  28.616  1.00  0.00     0.074 A 
ATOM     50  C   UNL A   1      44.215  29.747  32.667  1.00  0.00     0.029 A 
ATOM     51  N   UNL A   1      44.596  27.592  32.437  1.00  0.00    -0.354 N 
ATOM     52  N   UNL A   1      44.694  25.630  28.537  1.00  0.00    -0.248 NA
ATOM     53  C   UNL A   1      43.435  24.271  29.953  1.00  0.00     0.031 C 
ATOM     54  C   UNL A   1      45.011  29.520  31.507  1.00  0.00     0.029 A 
ATOM     55  C   UNL A   1      45.030  28.145  31.260  1.00  0.00     0.049 A 
ATOM     56  H   UNL A   1      44.845  26.709  32.793  1.00  0.00     0.167 HD
ATOM     57  C   UNL A   1      44.835  26.119  29.827  1.00  0.00     0.074 A 
ATOM     58  C   UNL A   1      44.113  25.170  30.672  1.00  0.00     0.031 C 
ATOM     59  C   UNL A   1      45.280  27.389  30.053  1.00  0.00     0.031 A 
BRANCH  46  60
ATOM     60  C   UNL A   1      42.467  27.001  34.688  1.00  0.00    -0.014 A 
ATOM     61  C   UNL A   1      42.690  25.642  34.403  1.00  0.00     0.009 A 
ATOM     62  C   UNL A   1      41.940  27.306  35.958  1.00  0.00     0.009 A 
ATOM     63  C   UNL A   1      42.344  24.643  35.318  1.00  0.00     0.001 A 
ATOM     64  C   UNL A   1      41.633  26.314  36.890  1.00  0.00     0.001 A 
ATOM     65  C   UNL A   1      41.811  24.979  36.559  1.00  0.00     0.000 A 
ENDBRANCH  46  60
BRANCH  47  66
ATOM     66  C   UNL A   1      42.414  23.264  26.968  1.00  0.00    -0.014 A 
ATOM     67  C   UNL A   1      43.331  22.669  26.087  1.00  0.00     0.009 A 
ATOM     68  C   UNL A   1      41.389  22.455  27.491  1.00  0.00     0.009 A 
ATOM     69  C   UNL A   1      43.257  21.303  25.783  1.00  0.00     0.001 A 
ATOM     70  C   UNL A   1      41.313  21.092  27.184  1.00  0.00     0.001 A 
ATOM     71  C   UNL A   1      42.258  20.512  26.345  1.00  0.00     0.000 A 
ENDBRANCH  47  66
BRANCH  59  72
ATOM     72  C   UNL A   1      45.828  28.166  28.879  1.00  0.00    -0.014 A 
ATOM     73  C   UNL A   1      45.009  28.878  27.983  1.00  0.00     0.009 A 
ATOM     74  C   UNL A   1      47.218  28.321  28.774  1.00  0.00     0.009 A 
ATOM     75  C   UNL A   1      45.568  29.702  26.999  1.00  0.00     0.001 A 
ATOM     76  C   UNL A   1      47.776  29.160  27.806  1.00  0.00     0.001 A 
ATOM     77  C   UNL A   1      46.951  29.847  26.917  1.00  0.00     0.000 A 
ENDBRANCH  59  72
ENDBRANCH  33  34
ENDBRANCH  26  28
ENDBRANCH  25  26
ENDBRANCH  24  25
ENDBRANCH   1  24
TORSDOF 13
ENDMDL
MODEL 3
REMARK VINA RESULT:     -11.5      2.957      8.046
REMARK SMILES Cc1cc(=O)n2cc(-c3ccccc3)nc2n1[C@H](C)C(=O)OCCOC(=O)c1ccc(-c2c3nc(c(-c4ccccc4)c4ccc([nH]4)c(-c4ccccc4)c4nc(c(-c5ccccc5)c5ccc2[nH]5)C=C4)C=C3)cc1
REMARK SMILES IDX 23 1 22 2 20 3 21 4 18 5 19 6 17 7 1 8 2 9 3 10 4 11 16 12
REMARK SMILES IDX 5 13 6 14 15 15 7 16 8 17 9 18 10 19 14 20 11 21 13 22 12 23
REMARK SMILES IDX 24 24 25 25 26 26 27 27 28 28 29 29 75 30 30 31 74 32 31 33
REMARK SMILES IDX 32 34 33 35 68 36 34 37 73 38 67 39 69 40 35 41 72 42 66 43
REMARK SMILES IDX 65 44 36 46 58 47 43 48 57 49 44 50 47 51 56 52 70 53 45 54
REMARK SMILES IDX 46 55 55 57 71 58 48 59 37 60 38 61 42 62 39 63 41 64 40 65
REMARK SMILES IDX 59 66 60 67 64 68 61 69 63 70 62 71 49 72 50 73 54 74 51 75
REMARK SMILES IDX 53 76 52 77
REMARK H PARENT 69 45 47 56
REMARK Flexibility Score: inf
ROOT
ATOM      1  C   UNL A   1      37.268  21.360  25.098  1.00  0.00     0.274 C 
ENDROOT
BRANCH   1   2
ATOM      2  O   UNL A   1      36.872  22.591  24.470  1.00  0.00    -0.461 OA
BRANCH   2   3
ATOM      3  C   UNL A   1      35.972  23.339  25.165  1.00  0.00     0.329 C 
ATOM      4  O   UNL A   1      36.083  23.608  26.361  1.00  0.00    -0.250 OA
BRANCH   3   5
ATOM      5  C   UNL A   1      34.761  23.778  24.335  1.00  0.00     0.197 C 
ATOM      6  C   UNL A   1      34.640  23.150  22.943  1.00  0.00     0.044 C 
BRANCH   5   7
ATOM      7  N   UNL A   1      33.537  23.685  25.182  1.00  0.00    -0.301 N 
ATOM      8  C   UNL A   1      33.396  21.177  24.831  1.00  0.00     0.065 C 
ATOM      9  C   UNL A   1      32.837  22.473  25.374  1.00  0.00     0.024 A 
ATOM     10  C   UNL A   1      31.667  22.434  26.038  1.00  0.00     0.093 A 
ATOM     11  C   UNL A   1      31.094  23.665  26.613  1.00  0.00     0.259 A 
ATOM     12  C   UNL A   1      33.013  24.856  25.663  1.00  0.00     0.218 A 
ATOM     13  O   UNL A   1      30.048  23.708  27.246  1.00  0.00    -0.269 OA
ATOM     14  N   UNL A   1      31.843  24.815  26.395  1.00  0.00    -0.251 N 
ATOM     15  N   UNL A   1      33.463  26.089  25.573  1.00  0.00    -0.212 NA
ATOM     16  C   UNL A   1      31.609  26.088  26.860  1.00  0.00     0.127 A 
ATOM     17  C   UNL A   1      32.643  26.846  26.366  1.00  0.00     0.091 A 
BRANCH  17  18
ATOM     18  C   UNL A   1      32.876  28.244  26.656  1.00  0.00     0.002 A 
ATOM     19  C   UNL A   1      34.163  28.695  26.978  1.00  0.00     0.010 A 
ATOM     20  C   UNL A   1      31.824  29.164  26.585  1.00  0.00     0.010 A 
ATOM     21  C   UNL A   1      34.392  30.046  27.244  1.00  0.00     0.001 A 
ATOM     22  C   UNL A   1      32.052  30.514  26.866  1.00  0.00     0.001 A 
ATOM     23  C   UNL A   1      33.334  30.953  27.196  1.00  0.00     0.000 A 
ENDBRANCH  17  18
ENDBRANCH   5   7
ENDBRANCH   3   5
ENDBRANCH   2   3
ENDBRANCH   1   2
BRANCH   1  24
ATOM     24  C   UNL A   1      38.720  21.402  25.560  1.00  0.00     0.275 C 
BRANCH  24  25
ATOM     25  O   UNL A   1      38.932  22.334  26.623  1.00  0.00    -0.458 OA
BRANCH  25  26
ATOM     26  C   UNL A   1      40.228  22.506  26.964  1.00  0.00     0.338 C 
ATOM     27  O   UNL A   1      41.033  21.644  27.270  1.00  0.00    -0.246 OA
BRANCH  26  28
ATOM     28  C   UNL A   1      40.532  23.925  27.126  1.00  0.00     0.060 A 
ATOM     29  C   UNL A   1      41.636  24.266  27.915  1.00  0.00     0.016 A 
ATOM     30  C   UNL A   1      39.563  24.864  26.755  1.00  0.00     0.016 A 
ATOM     31  C   UNL A   1      41.687  25.533  28.459  1.00  0.00     0.010 A 
ATOM     32  C   UNL A   1      39.612  26.122  27.307  1.00  0.00     0.010 A 
ATOM     33  C   UNL A   1      40.634  26.420  28.206  1.00  0.00    -0.014 A 
BRANCH  33  34
ATOM     34  C   UNL A   1      40.672  27.723  28.837  1.00  0.00     0.031 A 
ATOM     35  C   UNL A   1      41.671  28.644  28.252  1.00  0.00     0.074 A 
ATOM     36  C   UNL A   1      39.790  28.108  29.779  1.00  0.00     0.049 A 
ATOM     37  N   UNL A   1      42.690  29.178  28.838  1.00  0.00    -0.248 NA
ATOM     38  C   UNL A   1      41.593  28.908  26.807  1.00  0.00     0.031 C 
ATOM     39  C   UNL A   1      38.584  27.414  30.240  1.00  0.00     0.029 A 
ATOM     40  N   UNL A   1      39.737  29.292  30.443  1.00  0.00    -0.354 N 
ATOM     41  C   UNL A   1      43.302  29.977  27.879  1.00  0.00     0.074 A 
ATOM     42  C   UNL A   1      42.668  29.673  26.621  1.00  0.00     0.031 C 
ATOM     43  C   UNL A   1      37.805  28.287  30.919  1.00  0.00     0.029 A 
ATOM     44  C   UNL A   1      38.522  29.544  31.061  1.00  0.00     0.049 A 
ATOM     45  H   UNL A   1      40.497  29.917  30.482  1.00  0.00     0.167 HD
ATOM     46  C   UNL A   1      44.145  30.986  28.222  1.00  0.00     0.031 A 
ATOM     47  C   UNL A   1      38.124  30.728  31.586  1.00  0.00     0.031 A 
ATOM     48  C   UNL A   1      44.620  30.858  29.573  1.00  0.00     0.049 A 
ATOM     49  C   UNL A   1      39.340  31.540  31.826  1.00  0.00     0.074 A 
ATOM     50  C   UNL A   1      45.373  29.923  30.253  1.00  0.00     0.029 A 
ATOM     51  N   UNL A   1      43.997  31.616  30.535  1.00  0.00    -0.354 N 
ATOM     52  N   UNL A   1      40.236  31.244  32.723  1.00  0.00    -0.248 NA
ATOM     53  C   UNL A   1      39.779  32.450  30.780  1.00  0.00     0.031 C 
ATOM     54  C   UNL A   1      44.794  29.860  31.554  1.00  0.00     0.029 A 
ATOM     55  C   UNL A   1      43.760  30.798  31.609  1.00  0.00     0.049 A 
ATOM     56  H   UNL A   1      43.764  32.570  30.466  1.00  0.00     0.167 HD
ATOM     57  C   UNL A   1      41.448  31.562  32.129  1.00  0.00     0.074 A 
ATOM     58  C   UNL A   1      41.099  32.400  30.983  1.00  0.00     0.031 C 
ATOM     59  C   UNL A   1      42.589  30.888  32.454  1.00  0.00     0.031 A 
BRANCH  46  60
ATOM     60  C   UNL A   1      44.223  32.281  27.460  1.00  0.00    -0.014 A 
ATOM     61  C   UNL A   1      43.639  33.432  28.016  1.00  0.00     0.009 A 
ATOM     62  C   UNL A   1      44.596  32.348  26.103  1.00  0.00     0.009 A 
ATOM     63  C   UNL A   1      43.388  34.567  27.237  1.00  0.00     0.001 A 
ATOM     64  C   UNL A   1      44.385  33.492  25.334  1.00  0.00     0.001 A 
ATOM     65  C   UNL A   1      43.756  34.594  25.895  1.00  0.00     0.000 A 
ENDBRANCH  46  60
BRANCH  47  66
ATOM     66  C   UNL A   1      36.773  31.328  31.602  1.00  0.00    -0.014 A 
ATOM     67  C   UNL A   1      36.257  31.888  32.781  1.00  0.00     0.009 A 
ATOM     68  C   UNL A   1      36.111  31.617  30.395  1.00  0.00     0.009 A 
ATOM     69  C   UNL A   1      35.152  32.749  32.748  1.00  0.00     0.001 A 
ATOM     70  C   UNL A   1      35.005  32.473  30.362  1.00  0.00     0.001 A 
ATOM     71  C   UNL A   1      34.537  33.054  31.536  1.00  0.00     0.000 A 
ENDBRANCH  47  66
BRANCH  59  72
ATOM     72  C   UNL A   1      42.544  29.948  33.636  1.00  0.00    -0.014 A 
ATOM     73  C   UNL A   1      42.848  30.354  34.948  1.00  0.00     0.009 A 
ATOM     74  C   UNL A   1      42.016  28.663  33.443  1.00  0.00     0.009 A 
ATOM     75  C   UNL A   1      42.651  29.488  36.030  1.00  0.00     0.001 A 
ATOM     76  C   UNL A   1      41.798  27.807  34.526  1.00  0.00     0.001 A 
ATOM     77  C   UNL A   1      42.119  28.219  35.818  1.00  0.00     0.000 A 
ENDBRANCH  59  72
ENDBRANCH  33  34
ENDBRANCH  26  28
ENDBRANCH  25  26
ENDBRANCH  24  25
ENDBRANCH   1  24
TORSDOF 13
ENDMDL
