MODEL 1
REMARK VINA RESULT:     -11.5      0.000      0.000
REMARK SMILES Cc1cccc(O[C@H](C)C(=O)N2CCC[C@@H](C(=O)OCCOC(=O)c3ccc(-c4c5nc(c(-c6ccccc6)c6ccc([nH]6)c(-c6ccccc6)c6nc(c(-c7ccccc7)c7ccc4[nH]7)C=C6)C=C5)cc3)C2)c1
REMARK SMILES IDX 20 1 19 2 17 3 18 4 16 5 12 6 13 7 73 8 14 9 15 10 10 11
REMARK SMILES IDX 11 12 8 13 9 14 7 15 6 16 1 17 2 18 3 19 74 20 4 21 5 22
REMARK SMILES IDX 21 23 22 24 23 25 24 26 25 27 26 28 72 29 27 30 71 31 28 32
REMARK SMILES IDX 29 33 30 34 65 35 31 36 70 37 64 38 66 39 32 40 69 41 63 42
REMARK SMILES IDX 62 43 33 45 55 46 40 47 54 48 41 49 44 50 53 51 67 52 42 53
REMARK SMILES IDX 43 54 52 56 68 57 45 58 34 59 35 60 39 61 36 62 38 63 37 64
REMARK SMILES IDX 56 65 57 66 61 67 58 68 60 69 59 70 46 71 47 72 51 73 48 74
REMARK SMILES IDX 50 75 49 76
REMARK H PARENT 66 44 44 55
REMARK Flexibility Score: inf
ROOT
ATOM      1  C   UNL A   1      37.352  21.119  24.667  1.00  0.00     0.274 C 
ENDROOT
BRANCH   1   2
ATOM      2  O   UNL A   1      36.165  21.904  24.639  1.00  0.00    -0.462 OA
BRANCH   2   3
ATOM      3  C   UNL A   1      36.030  22.873  23.685  1.00  0.00     0.310 C 
ATOM      4  O   UNL A   1      36.633  22.920  22.620  1.00  0.00    -0.252 OA
BRANCH   3   5
ATOM      5  C   UNL A   1      35.080  23.908  24.231  1.00  0.00     0.119 C 
ATOM      6  N   UNL A   1      33.271  25.251  23.333  1.00  0.00    -0.339 N 
ATOM      7  C   UNL A   1      32.449  25.111  24.536  1.00  0.00     0.119 C 
ATOM      8  C   UNL A   1      34.134  24.139  23.079  1.00  0.00     0.134 C 
ATOM      9  C   UNL A   1      33.300  24.763  25.767  1.00  0.00     0.022 C 
ATOM     10  C   UNL A   1      34.290  23.610  25.502  1.00  0.00     0.019 C 
BRANCH   6  11
ATOM     11  C   UNL A   1      33.247  26.382  22.537  1.00  0.00     0.263 C 
ATOM     12  O   UNL A   1      33.447  26.286  21.320  1.00  0.00    -0.271 OA
BRANCH  11  13
ATOM     13  C   UNL A   1      32.897  27.803  23.153  1.00  0.00     0.259 C 
ATOM     14  C   UNL A   1      34.036  28.370  24.013  1.00  0.00     0.064 C 
BRANCH  13  15
ATOM     15  O   UNL A   1      32.069  28.780  22.505  1.00  0.00    -0.481 OA
BRANCH  15  16
ATOM     16  C   UNL A   1      30.712  28.847  22.613  1.00  0.00     0.120 A 
ATOM     17  C   UNL A   1      27.949  30.989  21.048  1.00  0.00     0.044 C 
ATOM     18  C   UNL A   1      28.665  29.978  21.892  1.00  0.00    -0.047 A 
ATOM     19  C   UNL A   1      27.903  29.085  22.641  1.00  0.00     0.003 A 
ATOM     20  C   UNL A   1      30.068  29.864  21.899  1.00  0.00     0.049 A 
ATOM     21  C   UNL A   1      28.529  28.026  23.282  1.00  0.00     0.004 A 
ATOM     22  C   UNL A   1      29.923  27.885  23.241  1.00  0.00     0.046 A 
ENDBRANCH  15  16
ENDBRANCH  13  15
ENDBRANCH  11  13
ENDBRANCH   6  11
ENDBRANCH   3   5
ENDBRANCH   2   3
ENDBRANCH   1   2
BRANCH   1  23
ATOM     23  C   UNL A   1      38.328  21.696  25.706  1.00  0.00     0.275 C 
BRANCH  23  24
ATOM     24  O   UNL A   1      39.494  20.899  26.105  1.00  0.00    -0.458 OA
BRANCH  24  25
ATOM     25  C   UNL A   1      40.795  21.272  26.224  1.00  0.00     0.338 C 
ATOM     26  O   UNL A   1      41.710  20.660  25.693  1.00  0.00    -0.246 OA
BRANCH  25  27
ATOM     27  C   UNL A   1      41.054  22.500  26.984  1.00  0.00     0.060 A 
ATOM     28  C   UNL A   1      41.545  22.410  28.298  1.00  0.00     0.016 A 
ATOM     29  C   UNL A   1      40.978  23.713  26.314  1.00  0.00     0.016 A 
ATOM     30  C   UNL A   1      42.066  23.542  28.906  1.00  0.00     0.010 A 
ATOM     31  C   UNL A   1      41.680  24.770  26.821  1.00  0.00     0.010 A 
ATOM     32  C   UNL A   1      42.150  24.702  28.140  1.00  0.00    -0.014 A 
BRANCH  32  33
ATOM     33  C   UNL A   1      42.323  26.015  28.728  1.00  0.00     0.031 A 
ATOM     34  C   UNL A   1      41.170  26.908  28.890  1.00  0.00     0.074 A 
ATOM     35  C   UNL A   1      43.614  26.182  29.099  1.00  0.00     0.049 A 
ATOM     36  N   UNL A   1      41.180  28.174  28.649  1.00  0.00    -0.248 NA
ATOM     37  C   UNL A   1      39.835  26.416  29.247  1.00  0.00     0.031 C 
ATOM     38  C   UNL A   1      44.306  27.158  29.909  1.00  0.00     0.029 A 
ATOM     39  N   UNL A   1      44.660  25.389  28.597  1.00  0.00    -0.354 N 
ATOM     40  C   UNL A   1      40.042  28.670  29.256  1.00  0.00     0.074 A 
ATOM     41  C   UNL A   1      39.139  27.554  29.362  1.00  0.00     0.031 C 
ATOM     42  C   UNL A   1      45.621  27.110  29.593  1.00  0.00     0.029 A 
ATOM     43  C   UNL A   1      45.789  26.172  28.480  1.00  0.00     0.049 A 
ATOM     44  H   UNL A   1      44.596  24.434  28.366  1.00  0.00     0.167 HD
ATOM     45  C   UNL A   1      40.117  29.846  29.943  1.00  0.00     0.031 A 
ATOM     46  C   UNL A   1      46.183  26.476  27.206  1.00  0.00     0.031 A 
ATOM     47  C   UNL A   1      41.490  30.342  29.908  1.00  0.00     0.049 A 
ATOM     48  C   UNL A   1      45.931  27.938  26.957  1.00  0.00     0.074 A 
ATOM     49  C   UNL A   1      42.524  30.184  30.817  1.00  0.00     0.029 A 
ATOM     50  N   UNL A   1      42.073  30.689  28.696  1.00  0.00    -0.354 N 
ATOM     51  N   UNL A   1      44.895  28.594  27.405  1.00  0.00    -0.248 NA
ATOM     52  C   UNL A   1      46.891  28.773  26.250  1.00  0.00     0.031 C 
ATOM     53  C   UNL A   1      43.744  30.360  30.120  1.00  0.00     0.029 A 
ATOM     54  C   UNL A   1      43.450  30.608  28.790  1.00  0.00     0.049 A 
ATOM     55  H   UNL A   1      41.578  30.954  27.888  1.00  0.00     0.167 HD
ATOM     56  C   UNL A   1      45.094  29.927  27.166  1.00  0.00     0.074 A 
ATOM     57  C   UNL A   1      46.334  29.984  26.406  1.00  0.00     0.031 C 
ATOM     58  C   UNL A   1      44.283  30.913  27.643  1.00  0.00     0.031 A 
BRANCH  45  59
ATOM     59  C   UNL A   1      39.114  30.298  30.982  1.00  0.00    -0.014 A 
ATOM     60  C   UNL A   1      39.135  29.700  32.258  1.00  0.00     0.009 A 
ATOM     61  C   UNL A   1      38.130  31.280  30.779  1.00  0.00     0.009 A 
ATOM     62  C   UNL A   1      38.192  30.001  33.247  1.00  0.00     0.001 A 
ATOM     63  C   UNL A   1      37.169  31.576  31.761  1.00  0.00     0.001 A 
ATOM     64  C   UNL A   1      37.196  30.931  32.993  1.00  0.00     0.000 A 
ENDBRANCH  45  59
BRANCH  46  65
ATOM     65  C   UNL A   1      45.970  25.401  26.167  1.00  0.00    -0.014 A 
ATOM     66  C   UNL A   1      46.799  24.253  26.176  1.00  0.00     0.009 A 
ATOM     67  C   UNL A   1      44.856  25.381  25.314  1.00  0.00     0.009 A 
ATOM     68  C   UNL A   1      46.479  23.107  25.436  1.00  0.00     0.001 A 
ATOM     69  C   UNL A   1      44.552  24.239  24.550  1.00  0.00     0.001 A 
ATOM     70  C   UNL A   1      45.347  23.095  24.630  1.00  0.00     0.000 A 
ENDBRANCH  46  65
BRANCH  58  71
ATOM     71  C   UNL A   1      44.288  32.326  27.139  1.00  0.00    -0.014 A 
ATOM     72  C   UNL A   1      43.993  32.666  25.815  1.00  0.00     0.009 A 
ATOM     73  C   UNL A   1      44.433  33.385  28.060  1.00  0.00     0.009 A 
ATOM     74  C   UNL A   1      43.927  34.002  25.411  1.00  0.00     0.001 A 
ATOM     75  C   UNL A   1      44.301  34.717  27.677  1.00  0.00     0.001 A 
ATOM     76  C   UNL A   1      44.071  35.025  26.343  1.00  0.00     0.000 A 
ENDBRANCH  58  71
ENDBRANCH  32  33
ENDBRANCH  25  27
ENDBRANCH  24  25
ENDBRANCH  23  24
ENDBRANCH   1  23
TORSDOF 15
ENDMDL
MODEL 2
REMARK VINA RESULT:     -11.4      3.541      9.581
REMARK SMILES Cc1cccc(O[C@H](C)C(=O)N2CCC[C@@H](C(=O)OCCOC(=O)c3ccc(-c4c5nc(c(-c6ccccc6)c6ccc([nH]6)c(-c6ccccc6)c6nc(c(-c7ccccc7)c7ccc4[nH]7)C=C6)C=C5)cc3)C2)c1
REMARK SMILES IDX 20 1 19 2 17 3 18 4 16 5 12 6 13 7 73 8 14 9 15 10 10 11
REMARK SMILES IDX 11 12 8 13 9 14 7 15 6 16 1 17 2 18 3 19 74 20 4 21 5 22
REMARK SMILES IDX 21 23 22 24 23 25 24 26 25 27 26 28 72 29 27 30 71 31 28 32
REMARK SMILES IDX 29 33 30 34 65 35 31 36 70 37 64 38 66 39 32 40 69 41 63 42
REMARK SMILES IDX 62 43 33 45 55 46 40 47 54 48 41 49 44 50 53 51 67 52 42 53
REMARK SMILES IDX 43 54 52 56 68 57 45 58 34 59 35 60 39 61 36 62 38 63 37 64
REMARK SMILES IDX 56 65 57 66 61 67 58 68 60 69 59 70 46 71 47 72 51 73 48 74
REMARK SMILES IDX 50 75 49 76
REMARK H PARENT 66 44 44 55
REMARK Flexibility Score: inf
ROOT
ATOM      1  C   UNL A   1      32.105  29.531  25.939  1.00  0.00     0.274 C 
ENDROOT
BRANCH   1   2
ATOM      2  O   UNL A   1      32.510  28.216  25.575  1.00  0.00    -0.462 OA
BRANCH   2   3
ATOM      3  C   UNL A   1      31.878  27.144  26.141  1.00  0.00     0.310 C 
ATOM      4  O   UNL A   1      31.442  27.091  27.284  1.00  0.00    -0.252 OA
BRANCH   3   5
ATOM      5  C   UNL A   1      31.908  26.025  25.132  1.00  0.00     0.119 C 
ATOM      6  N   UNL A   1      30.789  23.889  24.875  1.00  0.00    -0.339 N 
ATOM      7  C   UNL A   1      30.644  24.036  23.426  1.00  0.00     0.119 C 
ATOM      8  C   UNL A   1      30.788  25.125  25.594  1.00  0.00     0.134 C 
ATOM      9  C   UNL A   1      31.671  25.024  22.851  1.00  0.00     0.022 C 
ATOM     10  C   UNL A   1      31.741  26.343  23.649  1.00  0.00     0.019 C 
BRANCH   6  11
ATOM     11  C   UNL A   1      30.956  22.661  25.490  1.00  0.00     0.263 C 
ATOM     12  O   UNL A   1      30.134  22.272  26.329  1.00  0.00    -0.271 OA
BRANCH  11  13
ATOM     13  C   UNL A   1      32.157  21.705  25.084  1.00  0.00     0.259 C 
ATOM     14  C   UNL A   1      33.509  22.433  25.061  1.00  0.00     0.064 C 
BRANCH  13  15
ATOM     15  O   UNL A   1      32.215  20.306  25.401  1.00  0.00    -0.481 OA
BRANCH  15  16
ATOM     16  C   UNL A   1      32.617  19.328  24.541  1.00  0.00     0.120 A 
ATOM     17  C   UNL A   1      34.738  16.150  24.815  1.00  0.00     0.044 C 
ATOM     18  C   UNL A   1      33.902  17.265  24.261  1.00  0.00    -0.047 A 
ATOM     19  C   UNL A   1      33.479  17.177  22.936  1.00  0.00     0.003 A 
ATOM     20  C   UNL A   1      33.482  18.352  25.049  1.00  0.00     0.049 A 
ATOM     21  C   UNL A   1      32.557  18.093  22.454  1.00  0.00     0.004 A 
ATOM     22  C   UNL A   1      32.099  19.144  23.260  1.00  0.00     0.046 A 
ENDBRANCH  15  16
ENDBRANCH  13  15
ENDBRANCH  11  13
ENDBRANCH   6  11
ENDBRANCH   3   5
ENDBRANCH   2   3
ENDBRANCH   1   2
BRANCH   1  23
ATOM     23  C   UNL A   1      33.260  30.245  26.662  1.00  0.00     0.275 C 
BRANCH  23  24
ATOM     24  O   UNL A   1      32.952  31.369  27.554  1.00  0.00    -0.458 OA
BRANCH  24  25
ATOM     25  C   UNL A   1      33.747  32.398  27.952  1.00  0.00     0.338 C 
ATOM     26  O   UNL A   1      33.326  33.534  28.113  1.00  0.00    -0.246 OA
BRANCH  25  27
ATOM     27  C   UNL A   1      35.146  32.066  28.242  1.00  0.00     0.060 A 
ATOM     28  C   UNL A   1      36.132  33.060  28.121  1.00  0.00     0.016 A 
ATOM     29  C   UNL A   1      35.422  30.827  28.803  1.00  0.00     0.016 A 
ATOM     30  C   UNL A   1      37.387  32.841  28.670  1.00  0.00     0.010 A 
ATOM     31  C   UNL A   1      36.574  30.694  29.527  1.00  0.00     0.010 A 
ATOM     32  C   UNL A   1      37.575  31.665  29.393  1.00  0.00    -0.014 A 
BRANCH  32  33
ATOM     33  C   UNL A   1      38.891  31.142  29.702  1.00  0.00     0.031 A 
ATOM     34  C   UNL A   1      39.361  29.907  29.064  1.00  0.00     0.074 A 
ATOM     35  C   UNL A   1      39.526  31.977  30.556  1.00  0.00     0.049 A 
ATOM     36  N   UNL A   1      40.002  28.965  29.667  1.00  0.00    -0.248 NA
ATOM     37  C   UNL A   1      39.046  29.568  27.671  1.00  0.00     0.031 C 
ATOM     38  C   UNL A   1      40.888  32.090  31.022  1.00  0.00     0.029 A 
ATOM     39  N   UNL A   1      38.847  32.937  31.328  1.00  0.00    -0.354 N 
ATOM     40  C   UNL A   1      40.548  28.193  28.660  1.00  0.00     0.074 A 
ATOM     41  C   UNL A   1      39.729  28.430  27.499  1.00  0.00     0.031 C 
ATOM     42  C   UNL A   1      40.881  32.795  32.177  1.00  0.00     0.029 A 
ATOM     43  C   UNL A   1      39.486  33.056  32.544  1.00  0.00     0.049 A 
ATOM     44  H   UNL A   1      38.048  33.439  31.048  1.00  0.00     0.167 HD
ATOM     45  C   UNL A   1      41.829  27.741  28.791  1.00  0.00     0.031 A 
ATOM     46  C   UNL A   1      38.820  32.557  33.628  1.00  0.00     0.031 A 
ATOM     47  C   UNL A   1      42.391  28.236  30.044  1.00  0.00     0.049 A 
ATOM     48  C   UNL A   1      39.529  31.320  34.108  1.00  0.00     0.074 A 
ATOM     49  C   UNL A   1      43.163  29.359  30.299  1.00  0.00     0.029 A 
ATOM     50  N   UNL A   1      41.834  27.851  31.256  1.00  0.00    -0.354 N 
ATOM     51  N   UNL A   1      40.081  30.435  33.321  1.00  0.00    -0.248 NA
ATOM     52  C   UNL A   1      39.734  31.052  35.524  1.00  0.00     0.031 C 
ATOM     53  C   UNL A   1      43.000  29.694  31.665  1.00  0.00     0.029 A 
ATOM     54  C   UNL A   1      42.120  28.788  32.231  1.00  0.00     0.049 A 
ATOM     55  H   UNL A   1      41.311  27.029  31.401  1.00  0.00     0.167 HD
ATOM     56  C   UNL A   1      40.803  29.566  34.093  1.00  0.00     0.074 A 
ATOM     57  C   UNL A   1      40.521  29.967  35.463  1.00  0.00     0.031 C 
ATOM     58  C   UNL A   1      41.633  28.611  33.586  1.00  0.00     0.031 A 
BRANCH  45  59
ATOM     59  C   UNL A   1      42.691  27.263  27.643  1.00  0.00    -0.014 A 
ATOM     60  C   UNL A   1      42.851  25.877  27.439  1.00  0.00     0.009 A 
ATOM     61  C   UNL A   1      43.372  28.100  26.744  1.00  0.00     0.009 A 
ATOM     62  C   UNL A   1      43.694  25.353  26.454  1.00  0.00     0.001 A 
ATOM     63  C   UNL A   1      44.235  27.582  25.762  1.00  0.00     0.001 A 
ATOM     64  C   UNL A   1      44.401  26.208  25.621  1.00  0.00     0.000 A 
ENDBRANCH  45  59
BRANCH  46  65
ATOM     65  C   UNL A   1      37.317  32.707  33.614  1.00  0.00    -0.014 A 
ATOM     66  C   UNL A   1      36.723  33.811  34.272  1.00  0.00     0.009 A 
ATOM     67  C   UNL A   1      36.483  31.919  32.806  1.00  0.00     0.009 A 
ATOM     68  C   UNL A   1      35.383  34.163  34.060  1.00  0.00     0.001 A 
ATOM     69  C   UNL A   1      35.131  32.257  32.616  1.00  0.00     0.001 A 
ATOM     70  C   UNL A   1      34.588  33.391  33.222  1.00  0.00     0.000 A 
ENDBRANCH  46  65
BRANCH  58  71
ATOM     71  C   UNL A   1      42.173  27.457  34.377  1.00  0.00    -0.014 A 
ATOM     72  C   UNL A   1      41.363  26.451  34.913  1.00  0.00     0.009 A 
ATOM     73  C   UNL A   1      43.570  27.271  34.458  1.00  0.00     0.009 A 
ATOM     74  C   UNL A   1      41.919  25.351  35.571  1.00  0.00     0.001 A 
ATOM     75  C   UNL A   1      44.129  26.143  35.053  1.00  0.00     0.001 A 
ATOM     76  C   UNL A   1      43.300  25.193  35.631  1.00  0.00     0.000 A 
ENDBRANCH  58  71
ENDBRANCH  32  33
ENDBRANCH  25  27
ENDBRANCH  24  25
ENDBRANCH  23  24
ENDBRANCH   1  23
TORSDOF 15
ENDMDL
MODEL 3
REMARK VINA RESULT:     -11.4      2.381      4.119
REMARK SMILES Cc1cccc(O[C@H](C)C(=O)N2CCC[C@@H](C(=O)OCCOC(=O)c3ccc(-c4c5nc(c(-c6ccccc6)c6ccc([nH]6)c(-c6ccccc6)c6nc(c(-c7ccccc7)c7ccc4[nH]7)C=C6)C=C5)cc3)C2)c1
REMARK SMILES IDX 20 1 19 2 17 3 18 4 16 5 12 6 13 7 73 8 14 9 15 10 10 11
REMARK SMILES IDX 11 12 8 13 9 14 7 15 6 16 1 17 2 18 3 19 74 20 4 21 5 22
REMARK SMILES IDX 21 23 22 24 23 25 24 26 25 27 26 28 72 29 27 30 71 31 28 32
REMARK SMILES IDX 29 33 30 34 65 35 31 36 70 37 64 38 66 39 32 40 69 41 63 42
REMARK SMILES IDX 62 43 33 45 55 46 40 47 54 48 41 49 44 50 53 51 67 52 42 53
REMARK SMILES IDX 43 54 52 56 68 57 45 58 34 59 35 60 39 61 36 62 38 63 37 64
REMARK SMILES IDX 56 65 57 66 61 67 58 68 60 69 59 70 46 71 47 72 51 73 48 74
REMARK SMILES IDX 50 75 49 76
REMARK H PARENT 66 44 44 55
REMARK Flexibility Score: inf
ROOT
ATOM      1  C   UNL A   1      37.675  22.271  25.380  1.00  0.00     0.274 C 
ENDROOT
BRANCH   1   2
ATOM      2  O   UNL A   1      36.413  21.991  24.784  1.00  0.00    -0.462 OA
BRANCH   2   3
ATOM      3  C   UNL A   1      36.021  22.706  23.687  1.00  0.00     0.310 C 
ATOM      4  O   UNL A   1      36.721  22.975  22.719  1.00  0.00    -0.252 OA
BRANCH   3   5
ATOM      5  C   UNL A   1      34.610  23.172  23.939  1.00  0.00     0.119 C 
ATOM      6  N   UNL A   1      32.856  24.193  22.613  1.00  0.00    -0.339 N 
ATOM      7  C   UNL A   1      31.794  23.412  23.248  1.00  0.00     0.119 C 
ATOM      8  C   UNL A   1      34.121  23.530  22.558  1.00  0.00     0.134 C 
ATOM      9  C   UNL A   1      32.222  22.893  24.631  1.00  0.00     0.022 C 
ATOM     10  C   UNL A   1      33.615  22.232  24.615  1.00  0.00     0.019 C 
BRANCH   6  11
ATOM     11  C   UNL A   1      32.660  25.481  22.147  1.00  0.00     0.263 C 
ATOM     12  O   UNL A   1      32.608  25.698  20.930  1.00  0.00    -0.271 OA
BRANCH  11  13
ATOM     13  C   UNL A   1      32.430  26.685  23.156  1.00  0.00     0.259 C 
ATOM     14  C   UNL A   1      33.524  26.771  24.231  1.00  0.00     0.064 C 
BRANCH  13  15
ATOM     15  O   UNL A   1      31.821  27.934  22.795  1.00  0.00    -0.481 OA
BRANCH  15  16
ATOM     16  C   UNL A   1      30.486  28.200  22.869  1.00  0.00     0.120 A 
ATOM     17  C   UNL A   1      28.110  30.723  21.239  1.00  0.00     0.044 C 
ATOM     18  C   UNL A   1      28.648  29.620  22.099  1.00  0.00    -0.047 A 
ATOM     19  C   UNL A   1      27.744  28.851  22.828  1.00  0.00     0.003 A 
ATOM     20  C   UNL A   1      30.018  29.300  22.141  1.00  0.00     0.049 A 
ATOM     21  C   UNL A   1      28.190  27.713  23.482  1.00  0.00     0.004 A 
ATOM     22  C   UNL A   1      29.549  27.367  23.476  1.00  0.00     0.046 A 
ENDBRANCH  15  16
ENDBRANCH  13  15
ENDBRANCH  11  13
ENDBRANCH   6  11
ENDBRANCH   3   5
ENDBRANCH   2   3
ENDBRANCH   1   2
BRANCH   1  23
ATOM     23  C   UNL A   1      37.594  23.590  26.166  1.00  0.00     0.275 C 
BRANCH  23  24
ATOM     24  O   UNL A   1      38.791  24.433  26.267  1.00  0.00    -0.458 OA
BRANCH  24  25
ATOM     25  C   UNL A   1      39.582  24.684  27.343  1.00  0.00     0.338 C 
ATOM     26  O   UNL A   1      40.422  23.893  27.746  1.00  0.00    -0.246 OA
BRANCH  25  27
ATOM     27  C   UNL A   1      39.420  25.997  27.978  1.00  0.00     0.060 A 
ATOM     28  C   UNL A   1      38.893  26.077  29.278  1.00  0.00     0.016 A 
ATOM     29  C   UNL A   1      39.965  27.103  27.341  1.00  0.00     0.016 A 
ATOM     30  C   UNL A   1      39.012  27.263  29.987  1.00  0.00     0.010 A 
ATOM     31  C   UNL A   1      40.276  28.193  28.104  1.00  0.00     0.010 A 
ATOM     32  C   UNL A   1      39.733  28.297  29.392  1.00  0.00    -0.014 A 
BRANCH  32  33
ATOM     33  C   UNL A   1      39.633  29.673  29.836  1.00  0.00     0.031 A 
ATOM     34  C   UNL A   1      38.579  30.544  29.305  1.00  0.00     0.074 A 
ATOM     35  C   UNL A   1      40.577  29.919  30.774  1.00  0.00     0.049 A 
ATOM     36  N   UNL A   1      38.746  31.774  28.959  1.00  0.00    -0.248 NA
ATOM     37  C   UNL A   1      37.227  30.057  29.010  1.00  0.00     0.031 C 
ATOM     38  C   UNL A   1      40.810  31.000  31.703  1.00  0.00     0.029 A 
ATOM     39  N   UNL A   1      41.710  29.104  30.947  1.00  0.00    -0.354 N 
ATOM     40  C   UNL A   1      37.473  32.303  28.865  1.00  0.00     0.074 A 
ATOM     41  C   UNL A   1      36.601  31.180  28.637  1.00  0.00     0.031 C 
ATOM     42  C   UNL A   1      42.107  30.954  32.085  1.00  0.00     0.029 A 
ATOM     43  C   UNL A   1      42.773  29.901  31.315  1.00  0.00     0.049 A 
ATOM     44  H   UNL A   1      41.739  28.127  30.825  1.00  0.00     0.167 HD
ATOM     45  C   UNL A   1      37.236  33.552  29.360  1.00  0.00     0.031 A 
ATOM     46  C   UNL A   1      43.753  30.069  30.377  1.00  0.00     0.031 A 
ATOM     47  C   UNL A   1      38.462  34.080  29.951  1.00  0.00     0.049 A 
ATOM     48  C   UNL A   1      43.703  31.486  29.872  1.00  0.00     0.074 A 
ATOM     49  C   UNL A   1      38.906  34.056  31.264  1.00  0.00     0.029 A 
ATOM     50  N   UNL A   1      39.577  34.303  29.155  1.00  0.00    -0.354 N 
ATOM     51  N   UNL A   1      42.602  32.158  29.672  1.00  0.00    -0.248 NA
ATOM     52  C   UNL A   1      44.912  32.263  29.642  1.00  0.00     0.031 C 
ATOM     53  C   UNL A   1      40.316  34.188  31.244  1.00  0.00     0.029 A 
ATOM     54  C   UNL A   1      40.725  34.273  29.925  1.00  0.00     0.049 A 
ATOM     55  H   UNL A   1      39.554  34.460  28.183  1.00  0.00     0.167 HD
ATOM     56  C   UNL A   1      42.934  33.460  29.413  1.00  0.00     0.074 A 
ATOM     57  C   UNL A   1      44.388  33.466  29.363  1.00  0.00     0.031 C 
ATOM     58  C   UNL A   1      42.025  34.470  29.312  1.00  0.00     0.031 A 
BRANCH  45  59
ATOM     59  C   UNL A   1      35.865  34.089  29.709  1.00  0.00    -0.014 A 
ATOM     60  C   UNL A   1      35.053  34.612  28.683  1.00  0.00     0.009 A 
ATOM     61  C   UNL A   1      35.318  34.122  31.003  1.00  0.00     0.009 A 
ATOM     62  C   UNL A   1      33.809  35.202  28.932  1.00  0.00     0.001 A 
ATOM     63  C   UNL A   1      34.076  34.727  31.265  1.00  0.00     0.001 A 
ATOM     64  C   UNL A   1      33.325  35.274  30.229  1.00  0.00     0.000 A 
ENDBRANCH  45  59
BRANCH  46  65
ATOM     65  C   UNL A   1      44.048  28.878  29.498  1.00  0.00    -0.014 A 
ATOM     66  C   UNL A   1      44.331  27.626  30.096  1.00  0.00     0.009 A 
ATOM     67  C   UNL A   1      43.854  28.893  28.108  1.00  0.00     0.009 A 
ATOM     68  C   UNL A   1      44.330  26.437  29.355  1.00  0.00     0.001 A 
ATOM     69  C   UNL A   1      43.881  27.701  27.360  1.00  0.00     0.001 A 
ATOM     70  C   UNL A   1      44.094  26.473  27.986  1.00  0.00     0.000 A 
ENDBRANCH  46  65
BRANCH  58  71
ATOM     71  C   UNL A   1      42.322  35.816  28.720  1.00  0.00    -0.014 A 
ATOM     72  C   UNL A   1      41.859  36.217  27.463  1.00  0.00     0.009 A 
ATOM     73  C   UNL A   1      42.955  36.794  29.516  1.00  0.00     0.009 A 
ATOM     74  C   UNL A   1      42.089  37.510  26.988  1.00  0.00     0.001 A 
ATOM     75  C   UNL A   1      43.128  38.103  29.074  1.00  0.00     0.001 A 
ATOM     76  C   UNL A   1      42.713  38.454  27.797  1.00  0.00     0.000 A 
ENDBRANCH  58  71
ENDBRANCH  32  33
ENDBRANCH  25  27
ENDBRANCH  24  25
ENDBRANCH  23  24
ENDBRANCH   1  23
TORSDOF 15
ENDMDL
