MODEL 1
REMARK VINA RESULT:     -11.4      0.000      0.000
REMARK SMILES CCc1cc(C(=O)c2[nH]c3cc(Cl)ccc3c2CC(=O)OCCOC(=O)c2ccc(-c3c4nc(c(-c5ccccc5)c5ccc([nH]5)c(-c5ccccc5)c5nc(c(-c6ccccc6)c6ccc3[nH]6)C=C5)C=C4)cc2)ncc1Cl
REMARK SMILES IDX 22 1 21 2 19 3 20 4 18 5 17 6 8 7 9 8 10 9 16 11 11 12 15 13
REMARK SMILES IDX 12 14 14 15 13 16 6 17 7 18 5 19 3 20 4 21 77 22 76 23 78 24
REMARK SMILES IDX 75 25 2 26 1 27 23 28 24 29 25 30 26 31 27 32 28 33 74 34
REMARK SMILES IDX 29 35 73 36 30 37 31 38 32 39 67 40 33 41 72 42 66 43 68 44
REMARK SMILES IDX 34 45 71 46 65 47 64 48 35 50 57 51 42 52 56 53 43 54 46 55
REMARK SMILES IDX 55 56 69 57 44 58 45 59 54 61 70 62 47 63 36 64 37 65 41 66
REMARK SMILES IDX 38 67 40 68 39 69 58 70 59 71 63 72 60 73 62 74 61 75 48 76
REMARK SMILES IDX 49 77 53 78 50 79 52 80 51 81
REMARK H PARENT 9 10 68 49 46 60
REMARK Flexibility Score: inf
ROOT
ATOM      1  C   UNL A   1      38.720  20.940  25.714  1.00  0.00     0.274 C 
ENDROOT
BRANCH   1   2
ATOM      2  O   UNL A   1      37.690  21.187  24.733  1.00  0.00    -0.462 OA
BRANCH   2   3
ATOM      3  C   UNL A   1      36.571  21.810  25.177  1.00  0.00     0.310 C 
ATOM      4  O   UNL A   1      36.553  22.627  26.095  1.00  0.00    -0.252 OA
BRANCH   3   5
ATOM      5  C   UNL A   1      35.338  21.559  24.332  1.00  0.00     0.161 C 
BRANCH   5   6
ATOM      6  C   UNL A   1      34.222  20.768  24.938  1.00  0.00     0.000 A 
ATOM      7  C   UNL A   1      33.221  21.206  25.803  1.00  0.00     0.093 A 
ATOM      8  N   UNL A   1      32.413  20.125  26.063  1.00  0.00    -0.351 N 
ATOM      9  C   UNL A   1      32.969  18.972  25.577  1.00  0.00     0.048 A 
ATOM     10  H   UNL A   1      31.550  20.174  26.533  1.00  0.00     0.167 HD
ATOM     11  C   UNL A   1      34.062  19.345  24.801  1.00  0.00     0.004 A 
ATOM     12  C   UNL A   1      32.573  17.643  25.758  1.00  0.00     0.047 A 
ATOM     13  C   UNL A   1      34.773  18.333  24.119  1.00  0.00     0.012 A 
ATOM     14  C   UNL A   1      33.317  16.662  25.101  1.00  0.00     0.043 A 
ATOM     15  C   UNL A   1      34.390  16.995  24.280  1.00  0.00     0.021 A 
ATOM     16  Cl  UNL A   1      32.892  15.007  25.318  1.00  0.00    -0.084 Cl
BRANCH   7  17
ATOM     17  C   UNL A   1      32.887  22.495  26.390  1.00  0.00     0.227 C 
ATOM     18  O   UNL A   1      33.141  22.731  27.570  1.00  0.00    -0.285 OA
BRANCH  17  19
ATOM     19  C   UNL A   1      32.553  23.653  25.483  1.00  0.00     0.113 A 
ATOM     20  C   UNL A   1      32.902  25.994  24.939  1.00  0.00    -0.026 A 
ATOM     21  C   UNL A   1      33.380  24.781  25.470  1.00  0.00     0.037 A 
ATOM     22  C   UNL A   1      31.611  25.993  24.386  1.00  0.00     0.062 A 
ATOM     23  C   UNL A   1      30.880  24.812  24.388  1.00  0.00     0.132 A 
ATOM     24  Cl  UNL A   1      30.879  27.419  23.751  1.00  0.00    -0.082 Cl
ATOM     25  N   UNL A   1      31.313  23.652  24.929  1.00  0.00    -0.251 NA
BRANCH  20  26
ATOM     26  C   UNL A   1      33.688  27.287  25.038  1.00  0.00     0.034 C 
ATOM     27  C   UNL A   1      33.831  27.912  26.420  1.00  0.00     0.009 C 
ENDBRANCH  20  26
ENDBRANCH  17  19
ENDBRANCH   7  17
ENDBRANCH   5   6
ENDBRANCH   3   5
ENDBRANCH   2   3
ENDBRANCH   1   2
BRANCH   1  28
ATOM     28  C   UNL A   1      39.473  19.640  25.405  1.00  0.00     0.275 C 
BRANCH  28  29
ATOM     29  O   UNL A   1      40.516  19.383  26.370  1.00  0.00    -0.458 OA
BRANCH  29  30
ATOM     30  C   UNL A   1      41.733  19.796  25.970  1.00  0.00     0.338 C 
ATOM     31  O   UNL A   1      42.458  19.254  25.141  1.00  0.00    -0.246 OA
BRANCH  30  32
ATOM     32  C   UNL A   1      42.118  21.069  26.565  1.00  0.00     0.060 A 
ATOM     33  C   UNL A   1      41.981  21.238  27.944  1.00  0.00     0.016 A 
ATOM     34  C   UNL A   1      42.407  22.150  25.733  1.00  0.00     0.016 A 
ATOM     35  C   UNL A   1      42.102  22.507  28.496  1.00  0.00     0.010 A 
ATOM     36  C   UNL A   1      42.600  23.411  26.297  1.00  0.00     0.010 A 
ATOM     37  C   UNL A   1      42.443  23.597  27.681  1.00  0.00    -0.014 A 
BRANCH  37  38
ATOM     38  C   UNL A   1      42.746  24.910  28.289  1.00  0.00     0.031 A 
ATOM     39  C   UNL A   1      41.680  25.942  28.494  1.00  0.00     0.074 A 
ATOM     40  C   UNL A   1      44.024  25.176  28.614  1.00  0.00     0.049 A 
ATOM     41  N   UNL A   1      41.804  27.195  28.848  1.00  0.00    -0.248 NA
ATOM     42  C   UNL A   1      40.292  25.511  28.272  1.00  0.00     0.031 C 
ATOM     43  C   UNL A   1      45.141  24.235  28.489  1.00  0.00     0.029 A 
ATOM     44  N   UNL A   1      44.603  26.319  29.099  1.00  0.00    -0.354 N 
ATOM     45  C   UNL A   1      40.516  27.712  28.868  1.00  0.00     0.074 A 
ATOM     46  C   UNL A   1      39.624  26.637  28.486  1.00  0.00     0.031 C 
ATOM     47  C   UNL A   1      46.268  24.837  28.889  1.00  0.00     0.029 A 
ATOM     48  C   UNL A   1      45.965  26.222  29.224  1.00  0.00     0.049 A 
ATOM     49  H   UNL A   1      44.092  27.127  29.334  1.00  0.00     0.167 HD
ATOM     50  C   UNL A   1      40.119  28.970  29.172  1.00  0.00     0.031 A 
ATOM     51  C   UNL A   1      46.882  27.160  29.518  1.00  0.00     0.031 A 
ATOM     52  C   UNL A   1      41.017  30.031  29.546  1.00  0.00     0.049 A 
ATOM     53  C   UNL A   1      46.430  28.567  29.754  1.00  0.00     0.074 A 
ATOM     54  C   UNL A   1      40.719  31.335  29.898  1.00  0.00     0.029 A 
ATOM     55  N   UNL A   1      42.397  29.905  29.606  1.00  0.00    -0.354 N 
ATOM     56  N   UNL A   1      45.211  29.048  29.756  1.00  0.00    -0.248 NA
ATOM     57  C   UNL A   1      47.479  29.562  30.002  1.00  0.00     0.031 C 
ATOM     58  C   UNL A   1      41.922  32.011  30.129  1.00  0.00     0.029 A 
ATOM     59  C   UNL A   1      42.967  31.117  29.956  1.00  0.00     0.049 A 
ATOM     60  H   UNL A   1      42.898  29.077  29.426  1.00  0.00     0.167 HD
ATOM     61  C   UNL A   1      45.344  30.405  30.003  1.00  0.00     0.074 A 
ATOM     62  C   UNL A   1      46.761  30.666  30.165  1.00  0.00     0.031 C 
ATOM     63  C   UNL A   1      44.379  31.353  30.087  1.00  0.00     0.031 A 
BRANCH  50  64
ATOM     64  C   UNL A   1      38.653  29.282  29.076  1.00  0.00    -0.014 A 
ATOM     65  C   UNL A   1      37.811  29.179  30.193  1.00  0.00     0.009 A 
ATOM     66  C   UNL A   1      38.118  29.735  27.860  1.00  0.00     0.009 A 
ATOM     67  C   UNL A   1      36.455  29.504  30.088  1.00  0.00     0.001 A 
ATOM     68  C   UNL A   1      36.767  30.075  27.762  1.00  0.00     0.001 A 
ATOM     69  C   UNL A   1      35.936  29.955  28.875  1.00  0.00     0.000 A 
ENDBRANCH  50  64
BRANCH  51  70
ATOM     70  C   UNL A   1      48.317  26.791  29.528  1.00  0.00    -0.014 A 
ATOM     71  C   UNL A   1      48.912  26.278  30.687  1.00  0.00     0.009 A 
ATOM     72  C   UNL A   1      49.083  26.897  28.355  1.00  0.00     0.009 A 
ATOM     73  C   UNL A   1      50.250  25.879  30.673  1.00  0.00     0.001 A 
ATOM     74  C   UNL A   1      50.412  26.475  28.337  1.00  0.00     0.001 A 
ATOM     75  C   UNL A   1      50.996  25.970  29.497  1.00  0.00     0.000 A 
ENDBRANCH  51  70
BRANCH  63  76
ATOM     76  C   UNL A   1      44.837  32.753  30.361  1.00  0.00    -0.014 A 
ATOM     77  C   UNL A   1      45.099  33.639  29.306  1.00  0.00     0.009 A 
ATOM     78  C   UNL A   1      44.992  33.192  31.685  1.00  0.00     0.009 A 
ATOM     79  C   UNL A   1      45.531  34.939  29.573  1.00  0.00     0.001 A 
ATOM     80  C   UNL A   1      45.405  34.498  31.947  1.00  0.00     0.001 A 
ATOM     81  C   UNL A   1      45.681  35.368  30.893  1.00  0.00     0.000 A 
ENDBRANCH  63  76
ENDBRANCH  37  38
ENDBRANCH  30  32
ENDBRANCH  29  30
ENDBRANCH  28  29
ENDBRANCH   1  28
TORSDOF 15
ENDMDL
MODEL 2
REMARK VINA RESULT:     -11.4      4.498      8.836
REMARK SMILES CCc1cc(C(=O)c2[nH]c3cc(Cl)ccc3c2CC(=O)OCCOC(=O)c2ccc(-c3c4nc(c(-c5ccccc5)c5ccc([nH]5)c(-c5ccccc5)c5nc(c(-c6ccccc6)c6ccc3[nH]6)C=C5)C=C4)cc2)ncc1Cl
REMARK SMILES IDX 22 1 21 2 19 3 20 4 18 5 17 6 8 7 9 8 10 9 16 11 11 12 15 13
REMARK SMILES IDX 12 14 14 15 13 16 6 17 7 18 5 19 3 20 4 21 77 22 76 23 78 24
REMARK SMILES IDX 75 25 2 26 1 27 23 28 24 29 25 30 26 31 27 32 28 33 74 34
REMARK SMILES IDX 29 35 73 36 30 37 31 38 32 39 67 40 33 41 72 42 66 43 68 44
REMARK SMILES IDX 34 45 71 46 65 47 64 48 35 50 57 51 42 52 56 53 43 54 46 55
REMARK SMILES IDX 55 56 69 57 44 58 45 59 54 61 70 62 47 63 36 64 37 65 41 66
REMARK SMILES IDX 38 67 40 68 39 69 58 70 59 71 63 72 60 73 62 74 61 75 48 76
REMARK SMILES IDX 49 77 53 78 50 79 52 80 51 81
REMARK H PARENT 9 10 68 49 46 60
REMARK Flexibility Score: inf
ROOT
ATOM      1  C   UNL A   1      31.958  30.563  26.785  1.00  0.00     0.274 C 
ENDROOT
BRANCH   1   2
ATOM      2  O   UNL A   1      32.410  29.379  27.478  1.00  0.00    -0.462 OA
BRANCH   2   3
ATOM      3  C   UNL A   1      32.378  28.220  26.776  1.00  0.00     0.310 C 
ATOM      4  O   UNL A   1      31.364  27.546  26.602  1.00  0.00    -0.252 OA
BRANCH   3   5
ATOM      5  C   UNL A   1      33.668  27.891  26.052  1.00  0.00     0.161 C 
BRANCH   5   6
ATOM      6  C   UNL A   1      33.610  26.899  24.934  1.00  0.00     0.000 A 
ATOM      7  C   UNL A   1      33.021  27.043  23.678  1.00  0.00     0.093 A 
ATOM      8  N   UNL A   1      33.252  25.876  22.990  1.00  0.00    -0.351 N 
ATOM      9  C   UNL A   1      33.771  24.916  23.816  1.00  0.00     0.048 A 
ATOM     10  H   UNL A   1      33.068  25.748  22.032  1.00  0.00     0.167 HD
ATOM     11  C   UNL A   1      34.080  25.542  25.020  1.00  0.00     0.004 A 
ATOM     12  C   UNL A   1      34.000  23.558  23.576  1.00  0.00     0.047 A 
ATOM     13  C   UNL A   1      34.706  24.778  26.029  1.00  0.00     0.012 A 
ATOM     14  C   UNL A   1      34.586  22.819  24.605  1.00  0.00     0.043 A 
ATOM     15  C   UNL A   1      34.951  23.416  25.808  1.00  0.00     0.021 A 
ATOM     16  Cl  UNL A   1      34.856  21.134  24.374  1.00  0.00    -0.084 Cl
BRANCH   7  17
ATOM     17  C   UNL A   1      32.312  28.127  23.015  1.00  0.00     0.227 C 
ATOM     18  O   UNL A   1      32.923  28.956  22.343  1.00  0.00    -0.285 OA
BRANCH  17  19
ATOM     19  C   UNL A   1      30.814  28.043  22.863  1.00  0.00     0.113 A 
ATOM     20  C   UNL A   1      28.709  29.235  22.648  1.00  0.00    -0.026 A 
ATOM     21  C   UNL A   1      30.100  29.168  22.439  1.00  0.00     0.037 A 
ATOM     22  C   UNL A   1      28.089  28.119  23.233  1.00  0.00     0.062 A 
ATOM     23  C   UNL A   1      28.867  27.019  23.571  1.00  0.00     0.132 A 
ATOM     24  Cl  UNL A   1      26.404  28.084  23.597  1.00  0.00    -0.082 Cl
ATOM     25  N   UNL A   1      30.207  26.959  23.410  1.00  0.00    -0.251 NA
BRANCH  20  26
ATOM     26  C   UNL A   1      27.905  30.487  22.355  1.00  0.00     0.034 C 
ATOM     27  C   UNL A   1      27.588  31.403  23.531  1.00  0.00     0.009 C 
ENDBRANCH  20  26
ENDBRANCH  17  19
ENDBRANCH   7  17
ENDBRANCH   5   6
ENDBRANCH   3   5
ENDBRANCH   2   3
ENDBRANCH   1   2
BRANCH   1  28
ATOM     28  C   UNL A   1      32.913  31.738  27.026  1.00  0.00     0.275 C 
BRANCH  28  29
ATOM     29  O   UNL A   1      32.200  32.947  27.365  1.00  0.00    -0.458 OA
BRANCH  29  30
ATOM     30  C   UNL A   1      32.923  33.809  28.105  1.00  0.00     0.338 C 
ATOM     31  O   UNL A   1      32.571  34.917  28.497  1.00  0.00    -0.246 OA
BRANCH  30  32
ATOM     32  C   UNL A   1      34.208  33.257  28.513  1.00  0.00     0.060 A 
ATOM     33  C   UNL A   1      34.256  32.397  29.612  1.00  0.00     0.016 A 
ATOM     34  C   UNL A   1      35.377  33.759  27.941  1.00  0.00     0.016 A 
ATOM     35  C   UNL A   1      35.484  32.061  30.168  1.00  0.00     0.010 A 
ATOM     36  C   UNL A   1      36.611  33.363  28.455  1.00  0.00     0.010 A 
ATOM     37  C   UNL A   1      36.671  32.516  29.575  1.00  0.00    -0.014 A 
BRANCH  37  38
ATOM     38  C   UNL A   1      37.978  32.017  30.054  1.00  0.00     0.031 A 
ATOM     39  C   UNL A   1      38.588  30.767  29.501  1.00  0.00     0.074 A 
ATOM     40  C   UNL A   1      38.589  32.695  31.043  1.00  0.00     0.049 A 
ATOM     41  N   UNL A   1      39.631  30.101  29.926  1.00  0.00    -0.248 NA
ATOM     42  C   UNL A   1      37.944  30.185  28.314  1.00  0.00     0.031 C 
ATOM     43  C   UNL A   1      38.103  33.944  31.636  1.00  0.00     0.029 A 
ATOM     44  N   UNL A   1      39.740  32.422  31.733  1.00  0.00    -0.354 N 
ATOM     45  C   UNL A   1      39.756  29.010  29.077  1.00  0.00     0.074 A 
ATOM     46  C   UNL A   1      38.679  29.100  28.114  1.00  0.00     0.031 C 
ATOM     47  C   UNL A   1      38.950  34.330  32.599  1.00  0.00     0.029 A 
ATOM     48  C   UNL A   1      39.990  33.320  32.739  1.00  0.00     0.049 A 
ATOM     49  H   UNL A   1      40.326  31.659  31.528  1.00  0.00     0.167 HD
ATOM     50  C   UNL A   1      40.683  28.023  29.106  1.00  0.00     0.031 A 
ATOM     51  C   UNL A   1      40.921  33.304  33.709  1.00  0.00     0.031 A 
ATOM     52  C   UNL A   1      41.746  27.944  30.072  1.00  0.00     0.049 A 
ATOM     53  C   UNL A   1      41.873  32.152  33.782  1.00  0.00     0.074 A 
ATOM     54  C   UNL A   1      42.753  27.001  30.177  1.00  0.00     0.029 A 
ATOM     55  N   UNL A   1      41.932  28.845  31.110  1.00  0.00    -0.354 N 
ATOM     56  N   UNL A   1      41.973  31.118  32.983  1.00  0.00    -0.248 NA
ATOM     57  C   UNL A   1      42.822  32.153  34.901  1.00  0.00     0.031 C 
ATOM     58  C   UNL A   1      43.522  27.307  31.306  1.00  0.00     0.029 A 
ATOM     59  C   UNL A   1      43.015  28.462  31.881  1.00  0.00     0.049 A 
ATOM     60  H   UNL A   1      41.374  29.640  31.276  1.00  0.00     0.167 HD
ATOM     61  C   UNL A   1      42.996  30.340  33.503  1.00  0.00     0.074 A 
ATOM     62  C   UNL A   1      43.496  31.033  34.675  1.00  0.00     0.031 C 
ATOM     63  C   UNL A   1      43.476  29.156  33.053  1.00  0.00     0.031 A 
BRANCH  50  64
ATOM     64  C   UNL A   1      40.566  26.926  28.087  1.00  0.00    -0.014 A 
ATOM     65  C   UNL A   1      41.183  27.030  26.831  1.00  0.00     0.009 A 
ATOM     66  C   UNL A   1      39.872  25.750  28.409  1.00  0.00     0.009 A 
ATOM     67  C   UNL A   1      41.088  25.984  25.909  1.00  0.00     0.001 A 
ATOM     68  C   UNL A   1      39.792  24.700  27.492  1.00  0.00     0.001 A 
ATOM     69  C   UNL A   1      40.396  24.819  26.241  1.00  0.00     0.000 A 
ENDBRANCH  50  64
BRANCH  51  70
ATOM     70  C   UNL A   1      40.930  34.388  34.720  1.00  0.00    -0.014 A 
ATOM     71  C   UNL A   1      41.636  35.574  34.485  1.00  0.00     0.009 A 
ATOM     72  C   UNL A   1      40.181  34.259  35.901  1.00  0.00     0.009 A 
ATOM     73  C   UNL A   1      41.594  36.613  35.417  1.00  0.00     0.001 A 
ATOM     74  C   UNL A   1      40.121  35.308  36.819  1.00  0.00     0.001 A 
ATOM     75  C   UNL A   1      40.831  36.482  36.578  1.00  0.00     0.000 A 
ENDBRANCH  51  70
BRANCH  63  76
ATOM     76  C   UNL A   1      44.595  28.544  33.840  1.00  0.00    -0.014 A 
ATOM     77  C   UNL A   1      45.929  28.879  33.565  1.00  0.00     0.009 A 
ATOM     78  C   UNL A   1      44.310  27.640  34.874  1.00  0.00     0.009 A 
ATOM     79  C   UNL A   1      46.963  28.299  34.300  1.00  0.00     0.001 A 
ATOM     80  C   UNL A   1      45.347  27.077  35.618  1.00  0.00     0.001 A 
ATOM     81  C   UNL A   1      46.671  27.401  35.327  1.00  0.00     0.000 A 
ENDBRANCH  63  76
ENDBRANCH  37  38
ENDBRANCH  30  32
ENDBRANCH  29  30
ENDBRANCH  28  29
ENDBRANCH   1  28
TORSDOF 15
ENDMDL
MODEL 3
REMARK VINA RESULT:     -11.4      4.397      9.204
REMARK SMILES CCc1cc(C(=O)c2[nH]c3cc(Cl)ccc3c2CC(=O)OCCOC(=O)c2ccc(-c3c4nc(c(-c5ccccc5)c5ccc([nH]5)c(-c5ccccc5)c5nc(c(-c6ccccc6)c6ccc3[nH]6)C=C5)C=C4)cc2)ncc1Cl
REMARK SMILES IDX 22 1 21 2 19 3 20 4 18 5 17 6 8 7 9 8 10 9 16 11 11 12 15 13
REMARK SMILES IDX 12 14 14 15 13 16 6 17 7 18 5 19 3 20 4 21 77 22 76 23 78 24
REMARK SMILES IDX 75 25 2 26 1 27 23 28 24 29 25 30 26 31 27 32 28 33 74 34
REMARK SMILES IDX 29 35 73 36 30 37 31 38 32 39 67 40 33 41 72 42 66 43 68 44
REMARK SMILES IDX 34 45 71 46 65 47 64 48 35 50 57 51 42 52 56 53 43 54 46 55
REMARK SMILES IDX 55 56 69 57 44 58 45 59 54 61 70 62 47 63 36 64 37 65 41 66
REMARK SMILES IDX 38 67 40 68 39 69 58 70 59 71 63 72 60 73 62 74 61 75 48 76
REMARK SMILES IDX 49 77 53 78 50 79 52 80 51 81
REMARK H PARENT 9 10 68 49 46 60
REMARK Flexibility Score: inf
ROOT
ATOM      1  C   UNL A   1      31.926  28.301  26.756  1.00  0.00     0.274 C 
ENDROOT
BRANCH   1   2
ATOM      2  O   UNL A   1      30.694  27.562  26.611  1.00  0.00    -0.462 OA
BRANCH   2   3
ATOM      3  C   UNL A   1      30.800  26.298  26.134  1.00  0.00     0.310 C 
ATOM      4  O   UNL A   1      31.140  25.330  26.811  1.00  0.00    -0.252 OA
BRANCH   3   5
ATOM      5  C   UNL A   1      30.291  26.119  24.717  1.00  0.00     0.161 C 
BRANCH   5   6
ATOM      6  C   UNL A   1      30.625  27.178  23.714  1.00  0.00     0.000 A 
ATOM      7  C   UNL A   1      31.878  27.537  23.220  1.00  0.00     0.093 A 
ATOM      8  N   UNL A   1      31.675  28.539  22.301  1.00  0.00    -0.351 N 
ATOM      9  C   UNL A   1      30.380  28.982  22.340  1.00  0.00     0.048 A 
ATOM     10  H   UNL A   1      32.367  28.889  21.696  1.00  0.00     0.167 HD
ATOM     11  C   UNL A   1      29.676  28.103  23.157  1.00  0.00     0.004 A 
ATOM     12  C   UNL A   1      29.791  30.078  21.702  1.00  0.00     0.047 A 
ATOM     13  C   UNL A   1      28.285  28.298  23.305  1.00  0.00     0.012 A 
ATOM     14  C   UNL A   1      28.422  30.267  21.897  1.00  0.00     0.043 A 
ATOM     15  C   UNL A   1      27.672  29.387  22.670  1.00  0.00     0.021 A 
ATOM     16  Cl  UNL A   1      27.653  31.623  21.162  1.00  0.00    -0.084 Cl
BRANCH   7  17
ATOM     17  C   UNL A   1      33.231  27.053  23.451  1.00  0.00     0.227 C 
ATOM     18  O   UNL A   1      34.163  27.843  23.588  1.00  0.00    -0.285 OA
BRANCH  17  19
ATOM     19  C   UNL A   1      33.439  25.618  23.865  1.00  0.00     0.113 A 
ATOM     20  C   UNL A   1      34.778  24.023  25.115  1.00  0.00    -0.026 A 
ATOM     21  C   UNL A   1      34.275  25.328  24.949  1.00  0.00     0.037 A 
ATOM     22  C   UNL A   1      34.360  23.047  24.196  1.00  0.00     0.062 A 
ATOM     23  C   UNL A   1      33.481  23.411  23.183  1.00  0.00     0.132 A 
ATOM     24  Cl  UNL A   1      34.938  21.424  24.247  1.00  0.00    -0.082 Cl
ATOM     25  N   UNL A   1      33.022  24.667  22.991  1.00  0.00    -0.251 NA
BRANCH  20  26
ATOM     26  C   UNL A   1      35.808  23.681  26.174  1.00  0.00     0.034 C 
ATOM     27  C   UNL A   1      37.273  23.703  25.754  1.00  0.00     0.009 C 
ENDBRANCH  20  26
ENDBRANCH  17  19
ENDBRANCH   7  17
ENDBRANCH   5   6
ENDBRANCH   3   5
ENDBRANCH   2   3
ENDBRANCH   1   2
BRANCH   1  28
ATOM     28  C   UNL A   1      31.800  29.705  26.152  1.00  0.00     0.275 C 
BRANCH  28  29
ATOM     29  O   UNL A   1      33.085  30.352  26.028  1.00  0.00    -0.458 OA
BRANCH  29  30
ATOM     30  C   UNL A   1      33.313  31.280  26.976  1.00  0.00     0.338 C 
ATOM     31  O   UNL A   1      32.603  32.243  27.250  1.00  0.00    -0.246 OA
BRANCH  30  32
ATOM     32  C   UNL A   1      34.500  30.992  27.770  1.00  0.00     0.060 A 
ATOM     33  C   UNL A   1      35.469  31.985  27.921  1.00  0.00     0.016 A 
ATOM     34  C   UNL A   1      34.744  29.680  28.178  1.00  0.00     0.016 A 
ATOM     35  C   UNL A   1      36.710  31.659  28.455  1.00  0.00     0.010 A 
ATOM     36  C   UNL A   1      35.963  29.370  28.780  1.00  0.00     0.010 A 
ATOM     37  C   UNL A   1      36.954  30.357  28.917  1.00  0.00    -0.014 A 
BRANCH  37  38
ATOM     38  C   UNL A   1      38.204  30.052  29.646  1.00  0.00     0.031 A 
ATOM     39  C   UNL A   1      39.271  29.192  29.042  1.00  0.00     0.074 A 
ATOM     40  C   UNL A   1      38.340  30.531  30.895  1.00  0.00     0.049 A 
ATOM     41  N   UNL A   1      40.339  28.688  29.605  1.00  0.00    -0.248 NA
ATOM     42  C   UNL A   1      39.120  28.852  27.620  1.00  0.00     0.031 C 
ATOM     43  C   UNL A   1      37.380  31.407  31.573  1.00  0.00     0.029 A 
ATOM     44  N   UNL A   1      39.330  30.339  31.822  1.00  0.00    -0.354 N 
ATOM     45  C   UNL A   1      40.976  27.951  28.615  1.00  0.00     0.074 A 
ATOM     46  C   UNL A   1      40.173  28.070  27.417  1.00  0.00     0.031 C 
ATOM     47  C   UNL A   1      37.828  31.677  32.806  1.00  0.00     0.029 A 
ATOM     48  C   UNL A   1      39.063  30.936  33.028  1.00  0.00     0.049 A 
ATOM     49  H   UNL A   1      40.149  29.824  31.642  1.00  0.00     0.167 HD
ATOM     50  C   UNL A   1      42.124  27.238  28.705  1.00  0.00     0.031 A 
ATOM     51  C   UNL A   1      39.707  30.850  34.204  1.00  0.00     0.031 A 
ATOM     52  C   UNL A   1      42.911  27.124  29.905  1.00  0.00     0.049 A 
ATOM     53  C   UNL A   1      40.917  29.976  34.306  1.00  0.00     0.074 A 
ATOM     54  C   UNL A   1      44.102  26.448  30.098  1.00  0.00     0.029 A 
ATOM     55  N   UNL A   1      42.575  27.700  31.121  1.00  0.00    -0.354 N 
ATOM     56  N   UNL A   1      41.503  29.272  33.369  1.00  0.00    -0.248 NA
ATOM     57  C   UNL A   1      41.539  29.866  35.631  1.00  0.00     0.031 C 
ATOM     58  C   UNL A   1      44.464  26.577  31.444  1.00  0.00     0.029 A 
ATOM     59  C   UNL A   1      43.517  27.366  32.078  1.00  0.00     0.049 A 
ATOM     60  H   UNL A   1      41.782  28.262  31.280  1.00  0.00     0.167 HD
ATOM     61  C   UNL A   1      42.564  28.631  33.989  1.00  0.00     0.074 A 
ATOM     62  C   UNL A   1      42.551  29.046  35.378  1.00  0.00     0.031 C 
ATOM     63  C   UNL A   1      43.467  27.772  33.457  1.00  0.00     0.031 A 
BRANCH  50  64
ATOM     64  C   UNL A   1      42.578  26.490  27.484  1.00  0.00    -0.014 A 
ATOM     65  C   UNL A   1      42.149  25.179  27.231  1.00  0.00     0.009 A 
ATOM     66  C   UNL A   1      43.408  27.128  26.549  1.00  0.00     0.009 A 
ATOM     67  C   UNL A   1      42.560  24.513  26.072  1.00  0.00     0.001 A 
ATOM     68  C   UNL A   1      43.803  26.466  25.385  1.00  0.00     0.001 A 
ATOM     69  C   UNL A   1      43.383  25.158  25.149  1.00  0.00     0.000 A 
ENDBRANCH  50  64
BRANCH  51  70
ATOM     70  C   UNL A   1      39.159  31.562  35.383  1.00  0.00    -0.014 A 
ATOM     71  C   UNL A   1      38.247  30.929  36.236  1.00  0.00     0.009 A 
ATOM     72  C   UNL A   1      39.595  32.862  35.690  1.00  0.00     0.009 A 
ATOM     73  C   UNL A   1      37.778  31.586  37.376  1.00  0.00     0.001 A 
ATOM     74  C   UNL A   1      39.145  33.506  36.842  1.00  0.00     0.001 A 
ATOM     75  C   UNL A   1      38.234  32.869  37.682  1.00  0.00     0.000 A 
ENDBRANCH  51  70
BRANCH  63  76
ATOM     76  C   UNL A   1      44.506  27.230  34.389  1.00  0.00    -0.014 A 
ATOM     77  C   UNL A   1      45.712  27.916  34.593  1.00  0.00     0.009 A 
ATOM     78  C   UNL A   1      44.269  26.033  35.081  1.00  0.00     0.009 A 
ATOM     79  C   UNL A   1      46.675  27.399  35.460  1.00  0.00     0.001 A 
ATOM     80  C   UNL A   1      45.227  25.529  35.960  1.00  0.00     0.001 A 
ATOM     81  C   UNL A   1      46.431  26.207  36.144  1.00  0.00     0.000 A 
ENDBRANCH  63  76
ENDBRANCH  37  38
ENDBRANCH  30  32
ENDBRANCH  29  30
ENDBRANCH  28  29
ENDBRANCH   1  28
TORSDOF 15
ENDMDL
