MODEL 1
REMARK VINA RESULT:     -10.1      0.000      0.000
REMARK SMILES C[C@@H](C(=O)OCCOC(=O)c1ccc(-c2c3nc(c(-c4ccccc4)c4ccc([nH]4)c(-c4ccccc4)c4nc(c(-c5ccccc5)c5ccc2[nH]5)C=C4)C=C3)cc1)c1ccc(-c2ccc3[nH]ccc3c2)cc1
REMARK SMILES IDX 6 1 5 2 3 3 4 4 2 5 1 6 59 7 60 8 73 9 61 10 72 11 62 12
REMARK SMILES IDX 63 13 64 14 71 15 65 16 70 17 66 18 69 19 67 20 68 21 7 23
REMARK SMILES IDX 8 24 9 25 10 26 11 27 12 28 58 29 13 30 57 31 14 32 15 33
REMARK SMILES IDX 16 34 51 35 17 36 56 37 50 38 52 39 18 40 55 41 49 42 48 43
REMARK SMILES IDX 19 45 41 46 26 47 40 48 27 49 30 50 39 51 53 52 28 53 29 54
REMARK SMILES IDX 38 56 54 57 31 58 20 59 21 60 25 61 22 62 24 63 23 64 42 65
REMARK SMILES IDX 43 66 47 67 44 68 46 69 45 70 32 71 33 72 37 73 34 74 36 75
REMARK SMILES IDX 35 76
REMARK H PARENT 67 22 52 44 30 55
REMARK Flexibility Score: inf
ROOT
ATOM      1  C   UNL A   1      33.642  37.299  29.203  1.00  0.00     0.274 C 
ENDROOT
BRANCH   1   2
ATOM      2  O   UNL A   1      32.632  37.051  30.203  1.00  0.00    -0.462 OA
BRANCH   2   3
ATOM      3  C   UNL A   1      33.047  36.945  31.497  1.00  0.00     0.313 C 
ATOM      4  O   UNL A   1      33.718  37.801  32.062  1.00  0.00    -0.252 OA
BRANCH   3   5
ATOM      5  C   UNL A   1      32.648  35.596  32.134  1.00  0.00     0.126 C 
ATOM      6  C   UNL A   1      31.369  35.722  32.975  1.00  0.00     0.025 C 
BRANCH   5   7
ATOM      7  C   UNL A   1      33.809  34.912  32.875  1.00  0.00    -0.034 A 
ATOM      8  C   UNL A   1      34.382  35.434  34.047  1.00  0.00     0.005 A 
ATOM      9  C   UNL A   1      34.345  33.709  32.382  1.00  0.00     0.005 A 
ATOM     10  C   UNL A   1      35.454  34.792  34.683  1.00  0.00     0.009 A 
ATOM     11  C   UNL A   1      35.426  33.074  33.012  1.00  0.00     0.009 A 
ATOM     12  C   UNL A   1      36.000  33.608  34.172  1.00  0.00    -0.018 A 
BRANCH  12  13
ATOM     13  C   UNL A   1      37.153  32.970  34.822  1.00  0.00    -0.018 A 
ATOM     14  C   UNL A   1      37.686  33.481  36.014  1.00  0.00     0.011 A 
ATOM     15  C   UNL A   1      37.756  31.836  34.247  1.00  0.00     0.019 A 
ATOM     16  C   UNL A   1      38.791  32.894  36.650  1.00  0.00     0.027 A 
ATOM     17  C   UNL A   1      38.863  31.225  34.866  1.00  0.00    -0.000 A 
ATOM     18  C   UNL A   1      39.353  31.762  36.054  1.00  0.00     0.045 A 
ATOM     19  C   UNL A   1      39.677  30.110  34.551  1.00  0.00     0.028 A 
ATOM     20  N   UNL A   1      40.416  30.977  36.443  1.00  0.00    -0.361 N 
ATOM     21  C   UNL A   1      40.620  29.973  35.538  1.00  0.00     0.083 A 
ATOM     22  H   UNL A   1      40.952  31.119  37.258  1.00  0.00     0.166 HD
ENDBRANCH  12  13
ENDBRANCH   5   7
ENDBRANCH   3   5
ENDBRANCH   2   3
ENDBRANCH   1   2
BRANCH   1  23
ATOM     23  C   UNL A   1      33.892  36.046  28.365  1.00  0.00     0.275 C 
BRANCH  23  24
ATOM     24  O   UNL A   1      32.941  35.024  28.711  1.00  0.00    -0.458 OA
BRANCH  24  25
ATOM     25  C   UNL A   1      33.053  33.860  28.033  1.00  0.00     0.338 C 
ATOM     26  O   UNL A   1      32.289  33.393  27.209  1.00  0.00    -0.246 OA
BRANCH  25  27
ATOM     27  C   UNL A   1      34.342  33.245  28.375  1.00  0.00     0.060 A 
ATOM     28  C   UNL A   1      34.326  32.129  29.204  1.00  0.00     0.016 A 
ATOM     29  C   UNL A   1      35.553  33.811  27.979  1.00  0.00     0.016 A 
ATOM     30  C   UNL A   1      35.517  31.601  29.686  1.00  0.00     0.010 A 
ATOM     31  C   UNL A   1      36.756  33.248  28.428  1.00  0.00     0.010 A 
ATOM     32  C   UNL A   1      36.749  32.152  29.310  1.00  0.00    -0.014 A 
BRANCH  32  33
ATOM     33  C   UNL A   1      37.996  31.631  29.938  1.00  0.00     0.031 A 
ATOM     34  C   UNL A   1      38.590  30.333  29.453  1.00  0.00     0.074 A 
ATOM     35  C   UNL A   1      38.690  32.385  30.816  1.00  0.00     0.049 A 
ATOM     36  N   UNL A   1      39.630  29.678  29.907  1.00  0.00    -0.248 NA
ATOM     37  C   UNL A   1      37.948  29.702  28.290  1.00  0.00     0.031 C 
ATOM     38  C   UNL A   1      38.308  33.725  31.266  1.00  0.00     0.029 A 
ATOM     39  N   UNL A   1      39.900  32.163  31.428  1.00  0.00    -0.354 N 
ATOM     40  C   UNL A   1      39.769  28.566  29.087  1.00  0.00     0.074 A 
ATOM     41  C   UNL A   1      38.672  28.601  28.143  1.00  0.00     0.031 C 
ATOM     42  C   UNL A   1      39.307  34.241  32.000  1.00  0.00     0.029 A 
ATOM     43  C   UNL A   1      40.359  33.240  32.149  1.00  0.00     0.049 A 
ATOM     44  H   UNL A   1      40.393  31.313  31.357  1.00  0.00     0.167 HD
ATOM     45  C   UNL A   1      40.745  27.628  29.082  1.00  0.00     0.031 A 
ATOM     46  C   UNL A   1      41.493  33.404  32.858  1.00  0.00     0.031 A 
ATOM     47  C   UNL A   1      41.904  27.637  29.938  1.00  0.00     0.049 A 
ATOM     48  C   UNL A   1      42.472  32.266  32.960  1.00  0.00     0.074 A 
ATOM     49  C   UNL A   1      42.935  26.716  29.996  1.00  0.00     0.029 A 
ATOM     50  N   UNL A   1      42.209  28.635  30.848  1.00  0.00    -0.354 N 
ATOM     51  N   UNL A   1      42.473  31.113  32.339  1.00  0.00    -0.248 NA
ATOM     52  C   UNL A   1      43.598  32.447  33.890  1.00  0.00     0.031 C 
ATOM     53  C   UNL A   1      43.861  27.151  30.950  1.00  0.00     0.029 A 
ATOM     54  C   UNL A   1      43.426  28.365  31.453  1.00  0.00     0.049 A 
ATOM     55  H   UNL A   1      41.645  29.419  31.037  1.00  0.00     0.167 HD
ATOM     56  C   UNL A   1      43.610  30.447  32.775  1.00  0.00     0.074 A 
ATOM     57  C   UNL A   1      44.277  31.322  33.716  1.00  0.00     0.031 C 
ATOM     58  C   UNL A   1      44.064  29.222  32.417  1.00  0.00     0.031 A 
BRANCH  45  59
ATOM     59  C   UNL A   1      40.604  26.492  28.110  1.00  0.00    -0.014 A 
ATOM     60  C   UNL A   1      39.857  25.347  28.422  1.00  0.00     0.009 A 
ATOM     61  C   UNL A   1      41.193  26.599  26.841  1.00  0.00     0.009 A 
ATOM     62  C   UNL A   1      39.729  24.316  27.489  1.00  0.00     0.001 A 
ATOM     63  C   UNL A   1      41.043  25.578  25.903  1.00  0.00     0.001 A 
ATOM     64  C   UNL A   1      40.318  24.433  26.230  1.00  0.00     0.000 A 
ENDBRANCH  45  59
BRANCH  46  65
ATOM     65  C   UNL A   1      41.762  34.686  33.567  1.00  0.00    -0.014 A 
ATOM     66  C   UNL A   1      41.091  34.996  34.760  1.00  0.00     0.009 A 
ATOM     67  C   UNL A   1      42.661  35.623  33.034  1.00  0.00     0.009 A 
ATOM     68  C   UNL A   1      41.297  36.228  35.389  1.00  0.00     0.001 A 
ATOM     69  C   UNL A   1      42.891  36.837  33.683  1.00  0.00     0.001 A 
ATOM     70  C   UNL A   1      42.199  37.145  34.853  1.00  0.00     0.000 A 
ENDBRANCH  46  65
BRANCH  58  71
ATOM     71  C   UNL A   1      45.349  28.758  33.041  1.00  0.00    -0.014 A 
ATOM     72  C   UNL A   1      46.586  29.057  32.451  1.00  0.00     0.009 A 
ATOM     73  C   UNL A   1      45.326  28.043  34.249  1.00  0.00     0.009 A 
ATOM     74  C   UNL A   1      47.774  28.624  33.044  1.00  0.00     0.001 A 
ATOM     75  C   UNL A   1      46.517  27.634  34.853  1.00  0.00     0.001 A 
ATOM     76  C   UNL A   1      47.739  27.918  34.246  1.00  0.00     0.000 A 
ENDBRANCH  58  71
ENDBRANCH  32  33
ENDBRANCH  25  27
ENDBRANCH  24  25
ENDBRANCH  23  24
ENDBRANCH   1  23
TORSDOF 13
ENDMDL
MODEL 2
REMARK VINA RESULT:      -9.9      5.624     10.004
REMARK SMILES C[C@@H](C(=O)OCCOC(=O)c1ccc(-c2c3nc(c(-c4ccccc4)c4ccc([nH]4)c(-c4ccccc4)c4nc(c(-c5ccccc5)c5ccc2[nH]5)C=C4)C=C3)cc1)c1ccc(-c2ccc3[nH]ccc3c2)cc1
REMARK SMILES IDX 6 1 5 2 3 3 4 4 2 5 1 6 59 7 60 8 73 9 61 10 72 11 62 12
REMARK SMILES IDX 63 13 64 14 71 15 65 16 70 17 66 18 69 19 67 20 68 21 7 23
REMARK SMILES IDX 8 24 9 25 10 26 11 27 12 28 58 29 13 30 57 31 14 32 15 33
REMARK SMILES IDX 16 34 51 35 17 36 56 37 50 38 52 39 18 40 55 41 49 42 48 43
REMARK SMILES IDX 19 45 41 46 26 47 40 48 27 49 30 50 39 51 53 52 28 53 29 54
REMARK SMILES IDX 38 56 54 57 31 58 20 59 21 60 25 61 22 62 24 63 23 64 42 65
REMARK SMILES IDX 43 66 47 67 44 68 46 69 45 70 32 71 33 72 37 73 34 74 36 75
REMARK SMILES IDX 35 76
REMARK H PARENT 67 22 52 44 30 55
REMARK Flexibility Score: inf
ROOT
ATOM      1  C   UNL A   1      35.623  21.079  25.509  1.00  0.00     0.274 C 
ENDROOT
BRANCH   1   2
ATOM      2  O   UNL A   1      34.632  21.081  24.460  1.00  0.00    -0.462 OA
BRANCH   2   3
ATOM      3  C   UNL A   1      33.381  20.645  24.782  1.00  0.00     0.313 C 
ATOM      4  O   UNL A   1      33.166  19.602  25.388  1.00  0.00    -0.252 OA
BRANCH   3   5
ATOM      5  C   UNL A   1      32.275  21.569  24.227  1.00  0.00     0.126 C 
ATOM      6  C   UNL A   1      32.162  21.463  22.698  1.00  0.00     0.025 C 
BRANCH   5   7
ATOM      7  C   UNL A   1      32.384  23.015  24.739  1.00  0.00    -0.034 A 
ATOM      8  C   UNL A   1      32.979  24.047  23.995  1.00  0.00     0.005 A 
ATOM      9  C   UNL A   1      31.875  23.351  26.006  1.00  0.00     0.005 A 
ATOM     10  C   UNL A   1      33.079  25.350  24.504  1.00  0.00     0.009 A 
ATOM     11  C   UNL A   1      31.986  24.652  26.520  1.00  0.00     0.009 A 
ATOM     12  C   UNL A   1      32.593  25.671  25.778  1.00  0.00    -0.018 A 
BRANCH  12  13
ATOM     13  C   UNL A   1      32.745  27.030  26.319  1.00  0.00    -0.018 A 
ATOM     14  C   UNL A   1      31.627  27.791  26.688  1.00  0.00     0.011 A 
ATOM     15  C   UNL A   1      34.023  27.599  26.461  1.00  0.00     0.019 A 
ATOM     16  C   UNL A   1      31.745  29.092  27.200  1.00  0.00     0.027 A 
ATOM     17  C   UNL A   1      34.171  28.901  26.976  1.00  0.00    -0.000 A 
ATOM     18  C   UNL A   1      33.033  29.617  27.338  1.00  0.00     0.045 A 
ATOM     19  C   UNL A   1      35.284  29.740  27.230  1.00  0.00     0.028 A 
ATOM     20  N   UNL A   1      33.458  30.838  27.813  1.00  0.00    -0.361 N 
ATOM     21  C   UNL A   1      34.821  30.922  27.751  1.00  0.00     0.083 A 
ATOM     22  H   UNL A   1      32.865  31.550  28.148  1.00  0.00     0.166 HD
ENDBRANCH  12  13
ENDBRANCH   5   7
ENDBRANCH   3   5
ENDBRANCH   2   3
ENDBRANCH   1   2
BRANCH   1  23
ATOM     23  C   UNL A   1      36.912  20.411  25.035  1.00  0.00     0.275 C 
BRANCH  23  24
ATOM     24  O   UNL A   1      38.002  21.347  25.091  1.00  0.00    -0.458 OA
BRANCH  24  25
ATOM     25  C   UNL A   1      39.048  20.988  25.868  1.00  0.00     0.338 C 
ATOM     26  O   UNL A   1      39.558  19.889  25.983  1.00  0.00    -0.246 OA
BRANCH  25  27
ATOM     27  C   UNL A   1      39.578  22.192  26.522  1.00  0.00     0.060 A 
ATOM     28  C   UNL A   1      39.015  23.416  26.177  1.00  0.00     0.016 A 
ATOM     29  C   UNL A   1      40.677  22.139  27.377  1.00  0.00     0.016 A 
ATOM     30  C   UNL A   1      39.577  24.597  26.642  1.00  0.00     0.010 A 
ATOM     31  C   UNL A   1      41.214  23.331  27.885  1.00  0.00     0.010 A 
ATOM     32  C   UNL A   1      40.684  24.576  27.499  1.00  0.00    -0.014 A 
BRANCH  32  33
ATOM     33  C   UNL A   1      41.328  25.865  27.883  1.00  0.00     0.031 A 
ATOM     34  C   UNL A   1      42.647  26.253  27.266  1.00  0.00     0.074 A 
ATOM     35  C   UNL A   1      40.668  26.763  28.643  1.00  0.00     0.049 A 
ATOM     36  N   UNL A   1      43.400  27.297  27.511  1.00  0.00    -0.248 NA
ATOM     37  C   UNL A   1      43.176  25.367  26.218  1.00  0.00     0.031 C 
ATOM     38  C   UNL A   1      39.321  26.580  29.191  1.00  0.00     0.029 A 
ATOM     39  N   UNL A   1      41.009  28.037  29.026  1.00  0.00    -0.354 N 
ATOM     40  C   UNL A   1      44.485  27.195  26.650  1.00  0.00     0.074 A 
ATOM     41  C   UNL A   1      44.325  25.958  25.916  1.00  0.00     0.031 C 
ATOM     42  C   UNL A   1      38.916  27.732  29.750  1.00  0.00     0.029 A 
ATOM     43  C   UNL A   1      40.002  28.704  29.683  1.00  0.00     0.049 A 
ATOM     44  H   UNL A   1      41.892  28.436  28.847  1.00  0.00     0.167 HD
ATOM     45  C   UNL A   1      45.496  28.073  26.447  1.00  0.00     0.031 A 
ATOM     46  C   UNL A   1      39.958  29.954  30.184  1.00  0.00     0.031 A 
ATOM     47  C   UNL A   1      45.614  29.359  27.084  1.00  0.00     0.049 A 
ATOM     48  C   UNL A   1      41.173  30.835  30.081  1.00  0.00     0.074 A 
ATOM     49  C   UNL A   1      46.616  30.303  26.935  1.00  0.00     0.029 A 
ATOM     50  N   UNL A   1      44.682  29.902  27.953  1.00  0.00    -0.354 N 
ATOM     51  N   UNL A   1      42.296  30.630  29.440  1.00  0.00    -0.248 NA
ATOM     52  C   UNL A   1      41.121  32.117  30.803  1.00  0.00     0.031 C 
ATOM     53  C   UNL A   1      46.294  31.414  27.722  1.00  0.00     0.029 A 
ATOM     54  C   UNL A   1      45.072  31.177  28.326  1.00  0.00     0.049 A 
ATOM     55  H   UNL A   1      43.865  29.448  28.260  1.00  0.00     0.167 HD
ATOM     56  C   UNL A   1      43.068  31.765  29.650  1.00  0.00     0.074 A 
ATOM     57  C   UNL A   1      42.288  32.658  30.481  1.00  0.00     0.031 C 
ATOM     58  C   UNL A   1      44.309  32.045  29.185  1.00  0.00     0.031 A 
BRANCH  45  59
ATOM     59  C   UNL A   1      46.576  27.668  25.486  1.00  0.00    -0.014 A 
ATOM     60  C   UNL A   1      46.555  28.073  24.144  1.00  0.00     0.009 A 
ATOM     61  C   UNL A   1      47.658  26.905  25.952  1.00  0.00     0.009 A 
ATOM     62  C   UNL A   1      47.584  27.695  23.279  1.00  0.00     0.001 A 
ATOM     63  C   UNL A   1      48.697  26.550  25.092  1.00  0.00     0.001 A 
ATOM     64  C   UNL A   1      48.656  26.939  23.754  1.00  0.00     0.000 A 
ENDBRANCH  45  59
BRANCH  46  65
ATOM     65  C   UNL A   1      38.732  30.451  30.869  1.00  0.00    -0.014 A 
ATOM     66  C   UNL A   1      38.437  30.052  32.183  1.00  0.00     0.009 A 
ATOM     67  C   UNL A   1      37.830  31.293  30.200  1.00  0.00     0.009 A 
ATOM     68  C   UNL A   1      37.253  30.467  32.799  1.00  0.00     0.001 A 
ATOM     69  C   UNL A   1      36.666  31.734  30.831  1.00  0.00     0.001 A 
ATOM     70  C   UNL A   1      36.372  31.311  32.126  1.00  0.00     0.000 A 
ENDBRANCH  46  65
BRANCH  58  71
ATOM     71  C   UNL A   1      44.898  33.375  29.559  1.00  0.00    -0.014 A 
ATOM     72  C   UNL A   1      44.622  34.524  28.803  1.00  0.00     0.009 A 
ATOM     73  C   UNL A   1      45.712  33.487  30.698  1.00  0.00     0.009 A 
ATOM     74  C   UNL A   1      45.171  35.756  29.165  1.00  0.00     0.001 A 
ATOM     75  C   UNL A   1      46.240  34.725  31.071  1.00  0.00     0.001 A 
ATOM     76  C   UNL A   1      45.975  35.855  30.301  1.00  0.00     0.000 A 
ENDBRANCH  58  71
ENDBRANCH  32  33
ENDBRANCH  25  27
ENDBRANCH  24  25
ENDBRANCH  23  24
ENDBRANCH   1  23
TORSDOF 13
ENDMDL
MODEL 3
REMARK VINA RESULT:      -9.8      4.819     11.159
REMARK SMILES C[C@@H](C(=O)OCCOC(=O)c1ccc(-c2c3nc(c(-c4ccccc4)c4ccc([nH]4)c(-c4ccccc4)c4nc(c(-c5ccccc5)c5ccc2[nH]5)C=C4)C=C3)cc1)c1ccc(-c2ccc3[nH]ccc3c2)cc1
REMARK SMILES IDX 6 1 5 2 3 3 4 4 2 5 1 6 59 7 60 8 73 9 61 10 72 11 62 12
REMARK SMILES IDX 63 13 64 14 71 15 65 16 70 17 66 18 69 19 67 20 68 21 7 23
REMARK SMILES IDX 8 24 9 25 10 26 11 27 12 28 58 29 13 30 57 31 14 32 15 33
REMARK SMILES IDX 16 34 51 35 17 36 56 37 50 38 52 39 18 40 55 41 49 42 48 43
REMARK SMILES IDX 19 45 41 46 26 47 40 48 27 49 30 50 39 51 53 52 28 53 29 54
REMARK SMILES IDX 38 56 54 57 31 58 20 59 21 60 25 61 22 62 24 63 23 64 42 65
REMARK SMILES IDX 43 66 47 67 44 68 46 69 45 70 32 71 33 72 37 73 34 74 36 75
REMARK SMILES IDX 35 76
REMARK H PARENT 67 22 52 44 30 55
REMARK Flexibility Score: inf
ROOT
ATOM      1  C   UNL A   1      44.131  21.870  25.487  1.00  0.00     0.274 C 
ENDROOT
BRANCH   1   2
ATOM      2  O   UNL A   1      42.962  21.053  25.267  1.00  0.00    -0.462 OA
BRANCH   2   3
ATOM      3  C   UNL A   1      42.194  20.757  26.354  1.00  0.00     0.313 C 
ATOM      4  O   UNL A   1      41.936  19.611  26.705  1.00  0.00    -0.252 OA
BRANCH   3   5
ATOM      5  C   UNL A   1      41.626  22.021  27.035  1.00  0.00     0.126 C 
ATOM      6  C   UNL A   1      41.744  21.943  28.565  1.00  0.00     0.025 C 
BRANCH   5   7
ATOM      7  C   UNL A   1      40.216  22.390  26.543  1.00  0.00    -0.034 A 
ATOM      8  C   UNL A   1      39.377  21.482  25.878  1.00  0.00     0.005 A 
ATOM      9  C   UNL A   1      39.718  23.688  26.753  1.00  0.00     0.005 A 
ATOM     10  C   UNL A   1      38.105  21.862  25.425  1.00  0.00     0.009 A 
ATOM     11  C   UNL A   1      38.450  24.071  26.288  1.00  0.00     0.009 A 
ATOM     12  C   UNL A   1      37.625  23.163  25.614  1.00  0.00    -0.018 A 
BRANCH  12  13
ATOM     13  C   UNL A   1      36.309  23.562  25.094  1.00  0.00    -0.018 A 
ATOM     14  C   UNL A   1      35.910  23.220  23.794  1.00  0.00     0.011 A 
ATOM     15  C   UNL A   1      35.427  24.312  25.893  1.00  0.00     0.019 A 
ATOM     16  C   UNL A   1      34.662  23.595  23.273  1.00  0.00     0.027 A 
ATOM     17  C   UNL A   1      34.167  24.698  25.397  1.00  0.00    -0.000 A 
ATOM     18  C   UNL A   1      33.810  24.328  24.103  1.00  0.00     0.045 A 
ATOM     19  C   UNL A   1      33.083  25.439  25.928  1.00  0.00     0.028 A 
ATOM     20  N   UNL A   1      32.542  24.819  23.878  1.00  0.00    -0.361 N 
ATOM     21  C   UNL A   1      32.093  25.494  24.979  1.00  0.00     0.083 A 
ATOM     22  H   UNL A   1      32.032  24.700  23.044  1.00  0.00     0.166 HD
ENDBRANCH  12  13
ENDBRANCH   5   7
ENDBRANCH   3   5
ENDBRANCH   2   3
ENDBRANCH   1   2
BRANCH   1  23
ATOM     23  C   UNL A   1      44.373  22.799  24.299  1.00  0.00     0.275 C 
BRANCH  23  24
ATOM     24  O   UNL A   1      43.753  24.075  24.538  1.00  0.00    -0.458 OA
BRANCH  24  25
ATOM     25  C   UNL A   1      44.555  25.033  25.053  1.00  0.00     0.338 C 
ATOM     26  O   UNL A   1      45.688  25.327  24.716  1.00  0.00    -0.246 OA
BRANCH  25  27
ATOM     27  C   UNL A   1      43.799  25.777  26.069  1.00  0.00     0.060 A 
ATOM     28  C   UNL A   1      43.967  27.157  26.118  1.00  0.00     0.016 A 
ATOM     29  C   UNL A   1      43.022  25.127  27.027  1.00  0.00     0.016 A 
ATOM     30  C   UNL A   1      43.402  27.891  27.152  1.00  0.00     0.010 A 
ATOM     31  C   UNL A   1      42.412  25.877  28.043  1.00  0.00     0.010 A 
ATOM     32  C   UNL A   1      42.620  27.266  28.132  1.00  0.00    -0.014 A 
BRANCH  32  33
ATOM     33  C   UNL A   1      42.129  28.069  29.287  1.00  0.00     0.031 A 
ATOM     34  C   UNL A   1      40.814  28.798  29.184  1.00  0.00     0.074 A 
ATOM     35  C   UNL A   1      42.760  28.017  30.479  1.00  0.00     0.049 A 
ATOM     36  N   UNL A   1      40.241  29.600  30.048  1.00  0.00    -0.248 NA
ATOM     37  C   UNL A   1      40.027  28.578  27.960  1.00  0.00     0.031 C 
ATOM     38  C   UNL A   1      43.965  27.234  30.764  1.00  0.00     0.029 A 
ATOM     39  N   UNL A   1      42.433  28.574  31.691  1.00  0.00    -0.354 N 
ATOM     40  C   UNL A   1      39.031  29.974  29.477  1.00  0.00     0.074 A 
ATOM     41  C   UNL A   1      38.976  29.361  28.167  1.00  0.00     0.031 C 
ATOM     42  C   UNL A   1      44.216  27.283  32.082  1.00  0.00     0.029 A 
ATOM     43  C   UNL A   1      43.249  28.169  32.722  1.00  0.00     0.049 A 
ATOM     44  H   UNL A   1      41.686  29.204  31.812  1.00  0.00     0.167 HD
ATOM     45  C   UNL A   1      38.032  30.716  30.011  1.00  0.00     0.031 A 
ATOM     46  C   UNL A   1      43.229  28.481  34.032  1.00  0.00     0.031 A 
ATOM     47  C   UNL A   1      38.018  31.240  31.352  1.00  0.00     0.049 A 
ATOM     48  C   UNL A   1      42.197  29.447  34.546  1.00  0.00     0.074 A 
ATOM     49  C   UNL A   1      37.042  32.009  31.964  1.00  0.00     0.029 A 
ATOM     50  N   UNL A   1      39.000  31.014  32.302  1.00  0.00    -0.354 N 
ATOM     51  N   UNL A   1      41.172  29.976  33.926  1.00  0.00    -0.248 NA
ATOM     52  C   UNL A   1      42.340  29.882  35.945  1.00  0.00     0.031 C 
ATOM     53  C   UNL A   1      37.438  32.256  33.282  1.00  0.00     0.029 A 
ATOM     54  C   UNL A   1      38.640  31.605  33.502  1.00  0.00     0.049 A 
ATOM     55  H   UNL A   1      39.830  30.509  32.147  1.00  0.00     0.167 HD
ATOM     56  C   UNL A   1      40.531  30.775  34.863  1.00  0.00     0.074 A 
ATOM     57  C   UNL A   1      41.282  30.666  36.096  1.00  0.00     0.031 C 
ATOM     58  C   UNL A   1      39.412  31.524  34.714  1.00  0.00     0.031 A 
BRANCH  45  59
ATOM     59  C   UNL A   1      36.852  31.015  29.132  1.00  0.00    -0.014 A 
ATOM     60  C   UNL A   1      35.949  30.013  28.748  1.00  0.00     0.009 A 
ATOM     61  C   UNL A   1      36.620  32.337  28.723  1.00  0.00     0.009 A 
ATOM     62  C   UNL A   1      34.851  30.326  27.944  1.00  0.00     0.001 A 
ATOM     63  C   UNL A   1      35.508  32.651  27.941  1.00  0.00     0.001 A 
ATOM     64  C   UNL A   1      34.629  31.644  27.545  1.00  0.00     0.000 A 
ENDBRANCH  45  59
BRANCH  46  65
ATOM     65  C   UNL A   1      44.242  27.907  34.961  1.00  0.00    -0.014 A 
ATOM     66  C   UNL A   1      45.478  28.546  35.153  1.00  0.00     0.009 A 
ATOM     67  C   UNL A   1      43.996  26.697  35.628  1.00  0.00     0.009 A 
ATOM     68  C   UNL A   1      46.452  27.971  35.975  1.00  0.00     0.001 A 
ATOM     69  C   UNL A   1      44.957  26.144  36.475  1.00  0.00     0.001 A 
ATOM     70  C   UNL A   1      46.190  26.774  36.639  1.00  0.00     0.000 A 
ENDBRANCH  46  65
BRANCH  58  71
ATOM     71  C   UNL A   1      38.928  32.280  35.919  1.00  0.00    -0.014 A 
ATOM     72  C   UNL A   1      39.241  33.637  36.091  1.00  0.00     0.009 A 
ATOM     73  C   UNL A   1      38.125  31.639  36.875  1.00  0.00     0.009 A 
ATOM     74  C   UNL A   1      38.780  34.330  37.213  1.00  0.00     0.001 A 
ATOM     75  C   UNL A   1      37.645  32.341  37.982  1.00  0.00     0.001 A 
ATOM     76  C   UNL A   1      37.979  33.683  38.154  1.00  0.00     0.000 A 
ENDBRANCH  58  71
ENDBRANCH  32  33
ENDBRANCH  25  27
ENDBRANCH  24  25
ENDBRANCH  23  24
ENDBRANCH   1  23
TORSDOF 13
ENDMDL
