MODEL 1
REMARK VINA RESULT:      -9.0      0.000      0.000
REMARK SMILES C[NH2+]CCCC(=O)NC[C@@H]1CC[C@H](C(=O)OCCOC(=O)c2ccc(-c3c4nc(c(-c5ccccc5)c5ccc([nH]5)c(-c5ccccc5)c5nc(c(-c6ccccc6)c6ccc3[nH]6)C=C5)C=C4)cc2)O1
REMARK SMILES IDX 14 1 15 2 13 3 10 4 11 5 70 6 12 7 9 8 8 9 6 10 7 11 5 13
REMARK SMILES IDX 4 14 3 15 2 16 1 17 16 20 17 21 18 22 19 23 20 24 21 25
REMARK SMILES IDX 22 26 23 27 69 28 24 29 68 30 25 31 26 32 27 33 62 34 28 35
REMARK SMILES IDX 67 36 61 37 63 38 29 39 66 40 60 41 59 42 30 44 52 45 37 46
REMARK SMILES IDX 51 47 38 48 41 49 50 50 64 51 39 52 40 53 49 55 65 56 42 57
REMARK SMILES IDX 31 58 32 59 36 60 33 61 35 62 34 63 53 64 54 65 58 66 55 67
REMARK SMILES IDX 57 68 56 69 43 70 44 71 48 72 45 73 47 74 46 75
REMARK H PARENT 8 12 2 18 2 19 63 43 41 54
REMARK Flexibility Score: inf
ROOT
ATOM      1  C   UNL A   1      32.353  29.930  25.942  1.00  0.00     0.335 C 
ATOM      2  O   UNL A   1      31.340  30.117  25.277  1.00  0.00    -0.249 OA
ENDROOT
BRANCH   1   3
ATOM      3  C   UNL A   1      33.571  29.145  25.418  1.00  0.00     0.228 C 
ATOM      4  C   UNL A   1      33.236  27.593  23.712  1.00  0.00     0.138 C 
ATOM      5  C   UNL A   1      32.958  26.911  25.044  1.00  0.00     0.037 C 
ATOM      6  O   UNL A   1      33.514  28.976  24.000  1.00  0.00    -0.361 OA
ATOM      7  C   UNL A   1      33.750  27.758  26.008  1.00  0.00     0.047 C 
BRANCH   4   8
ATOM      8  C   UNL A   1      32.093  27.533  22.689  1.00  0.00     0.147 C 
BRANCH   8   9
ATOM      9  N   UNL A   1      32.513  26.829  21.487  1.00  0.00    -0.353 N 
ATOM     10  C   UNL A   1      32.696  25.502  21.264  1.00  0.00     0.220 C 
ATOM     11  O   UNL A   1      33.174  25.146  20.186  1.00  0.00    -0.275 OA
ATOM     12  H   UNL A   1      32.694  27.408  20.711  1.00  0.00     0.163 HD
BRANCH  10  13
ATOM     13  C   UNL A   1      32.307  24.487  22.317  1.00  0.00     0.106 C 
BRANCH  13  14
ATOM     14  C   UNL A   1      33.042  23.151  22.169  1.00  0.00     0.071 C 
BRANCH  14  15
ATOM     15  C   UNL A   1      33.434  22.466  23.480  1.00  0.00     0.260 C 
BRANCH  15  16
ATOM     16  N   UNL A   1      32.364  21.657  24.072  1.00  0.00    -0.349 N 
ATOM     17  C   UNL A   1      32.603  20.228  23.927  1.00  0.00     0.330 C 
ATOM     18  H   UNL A   1      32.296  21.880  25.064  1.00  0.00     0.346 HD
ATOM     19  H   UNL A   1      31.499  21.878  23.578  1.00  0.00     0.346 HD
ENDBRANCH  15  16
ENDBRANCH  14  15
ENDBRANCH  13  14
ENDBRANCH  10  13
ENDBRANCH   8   9
ENDBRANCH   4   8
ENDBRANCH   1   3
BRANCH   1  20
ATOM     20  O   UNL A   1      32.539  30.385  27.212  1.00  0.00    -0.460 OA
BRANCH  20  21
ATOM     21  C   UNL A   1      33.340  31.570  27.373  1.00  0.00     0.274 C 
BRANCH  21  22
ATOM     22  C   UNL A   1      32.438  32.794  27.520  1.00  0.00     0.275 C 
BRANCH  22  23
ATOM     23  O   UNL A   1      33.241  33.972  27.721  1.00  0.00    -0.458 OA
BRANCH  23  24
ATOM     24  C   UNL A   1      33.382  34.372  29.005  1.00  0.00     0.338 C 
ATOM     25  O   UNL A   1      32.598  35.006  29.688  1.00  0.00    -0.246 OA
BRANCH  24  26
ATOM     26  C   UNL A   1      34.626  33.804  29.539  1.00  0.00     0.060 A 
ATOM     27  C   UNL A   1      35.806  34.034  28.834  1.00  0.00     0.016 A 
ATOM     28  C   UNL A   1      34.620  32.973  30.656  1.00  0.00     0.016 A 
ATOM     29  C   UNL A   1      36.994  33.431  29.229  1.00  0.00     0.010 A 
ATOM     30  C   UNL A   1      35.818  32.386  31.072  1.00  0.00     0.010 A 
ATOM     31  C   UNL A   1      37.010  32.600  30.353  1.00  0.00    -0.014 A 
BRANCH  31  32
ATOM     32  C   UNL A   1      38.261  31.908  30.739  1.00  0.00     0.031 A 
ATOM     33  C   UNL A   1      39.160  32.517  31.774  1.00  0.00     0.074 A 
ATOM     34  C   UNL A   1      38.585  30.729  30.174  1.00  0.00     0.049 A 
ATOM     35  N   UNL A   1      40.364  32.158  32.139  1.00  0.00    -0.248 NA
ATOM     36  C   UNL A   1      38.637  33.693  32.488  1.00  0.00     0.031 C 
ATOM     37  C   UNL A   1      37.768  30.001  29.203  1.00  0.00     0.029 A 
ATOM     38  N   UNL A   1      39.697  29.942  30.336  1.00  0.00    -0.354 N 
ATOM     39  C   UNL A   1      40.763  33.091  33.086  1.00  0.00     0.074 A 
ATOM     40  C   UNL A   1      39.671  34.028  33.246  1.00  0.00     0.031 C 
ATOM     41  C   UNL A   1      38.406  28.871  28.857  1.00  0.00     0.029 A 
ATOM     42  C   UNL A   1      39.699  28.830  29.533  1.00  0.00     0.049 A 
ATOM     43  H   UNL A   1      40.422  30.155  30.967  1.00  0.00     0.167 HD
ATOM     44  C   UNL A   1      41.939  33.166  33.753  1.00  0.00     0.031 A 
ATOM     45  C   UNL A   1      40.653  27.903  29.328  1.00  0.00     0.031 A 
ATOM     46  C   UNL A   1      43.011  32.218  33.612  1.00  0.00     0.049 A 
ATOM     47  C   UNL A   1      41.963  28.023  30.052  1.00  0.00     0.074 A 
ATOM     48  C   UNL A   1      44.236  32.197  34.256  1.00  0.00     0.029 A 
ATOM     49  N   UNL A   1      42.980  31.116  32.771  1.00  0.00    -0.354 N 
ATOM     50  N   UNL A   1      42.345  28.932  30.916  1.00  0.00    -0.248 NA
ATOM     51  C   UNL A   1      42.977  27.001  29.759  1.00  0.00     0.031 C 
ATOM     52  C   UNL A   1      44.962  31.101  33.776  1.00  0.00     0.029 A 
ATOM     53  C   UNL A   1      44.173  30.418  32.863  1.00  0.00     0.049 A 
ATOM     54  H   UNL A   1      42.223  30.867  32.194  1.00  0.00     0.167 HD
ATOM     55  C   UNL A   1      43.642  28.589  31.276  1.00  0.00     0.074 A 
ATOM     56  C   UNL A   1      43.973  27.379  30.550  1.00  0.00     0.031 C 
ATOM     57  C   UNL A   1      44.484  29.223  32.126  1.00  0.00     0.031 A 
BRANCH  44  58
ATOM     58  C   UNL A   1      42.142  34.349  34.653  1.00  0.00    -0.014 A 
ATOM     59  C   UNL A   1      41.901  34.274  36.033  1.00  0.00     0.009 A 
ATOM     60  C   UNL A   1      42.589  35.561  34.104  1.00  0.00     0.009 A 
ATOM     61  C   UNL A   1      42.073  35.401  36.840  1.00  0.00     0.001 A 
ATOM     62  C   UNL A   1      42.781  36.679  34.916  1.00  0.00     0.001 A 
ATOM     63  C   UNL A   1      42.514  36.601  36.282  1.00  0.00     0.000 A 
ENDBRANCH  44  58
BRANCH  45  64
ATOM     64  C   UNL A   1      40.417  26.813  28.347  1.00  0.00    -0.014 A 
ATOM     65  C   UNL A   1      39.716  25.657  28.716  1.00  0.00     0.009 A 
ATOM     66  C   UNL A   1      40.874  26.942  27.025  1.00  0.00     0.009 A 
ATOM     67  C   UNL A   1      39.483  24.647  27.780  1.00  0.00     0.001 A 
ATOM     68  C   UNL A   1      40.618  25.942  26.086  1.00  0.00     0.001 A 
ATOM     69  C   UNL A   1      39.927  24.792  26.465  1.00  0.00     0.000 A 
ENDBRANCH  45  64
BRANCH  57  70
ATOM     70  C   UNL A   1      45.839  28.610  32.324  1.00  0.00    -0.014 A 
ATOM     71  C   UNL A   1      46.928  28.996  31.527  1.00  0.00     0.009 A 
ATOM     72  C   UNL A   1      46.035  27.667  33.343  1.00  0.00     0.009 A 
ATOM     73  C   UNL A   1      48.186  28.428  31.734  1.00  0.00     0.001 A 
ATOM     74  C   UNL A   1      47.298  27.115  33.560  1.00  0.00     0.001 A 
ATOM     75  C   UNL A   1      48.371  27.491  32.752  1.00  0.00     0.000 A 
ENDBRANCH  57  70
ENDBRANCH  31  32
ENDBRANCH  24  26
ENDBRANCH  23  24
ENDBRANCH  22  23
ENDBRANCH  21  22
ENDBRANCH  20  21
ENDBRANCH   1  20
TORSDOF 17
ENDMDL
MODEL 2
REMARK VINA RESULT:      -8.9      3.548      8.826
REMARK SMILES C[NH2+]CCCC(=O)NC[C@@H]1CC[C@H](C(=O)OCCOC(=O)c2ccc(-c3c4nc(c(-c5ccccc5)c5ccc([nH]5)c(-c5ccccc5)c5nc(c(-c6ccccc6)c6ccc3[nH]6)C=C5)C=C4)cc2)O1
REMARK SMILES IDX 14 1 15 2 13 3 10 4 11 5 70 6 12 7 9 8 8 9 6 10 7 11 5 13
REMARK SMILES IDX 4 14 3 15 2 16 1 17 16 20 17 21 18 22 19 23 20 24 21 25
REMARK SMILES IDX 22 26 23 27 69 28 24 29 68 30 25 31 26 32 27 33 62 34 28 35
REMARK SMILES IDX 67 36 61 37 63 38 29 39 66 40 60 41 59 42 30 44 52 45 37 46
REMARK SMILES IDX 51 47 38 48 41 49 50 50 64 51 39 52 40 53 49 55 65 56 42 57
REMARK SMILES IDX 31 58 32 59 36 60 33 61 35 62 34 63 53 64 54 65 58 66 55 67
REMARK SMILES IDX 57 68 56 69 43 70 44 71 48 72 45 73 47 74 46 75
REMARK H PARENT 8 12 2 18 2 19 63 43 41 54
REMARK Flexibility Score: inf
ROOT
ATOM      1  C   UNL A   1      36.199  22.043  25.710  1.00  0.00     0.335 C 
ATOM      2  O   UNL A   1      36.524  23.156  26.107  1.00  0.00    -0.249 OA
ENDROOT
BRANCH   1   3
ATOM      3  C   UNL A   1      34.738  21.555  25.672  1.00  0.00     0.228 C 
ATOM      4  C   UNL A   1      33.038  23.148  25.756  1.00  0.00     0.138 C 
ATOM      5  C   UNL A   1      33.456  22.815  27.181  1.00  0.00     0.037 C 
ATOM      6  O   UNL A   1      33.919  22.418  24.880  1.00  0.00    -0.361 OA
ATOM      7  C   UNL A   1      34.058  21.441  27.025  1.00  0.00     0.047 C 
BRANCH   4   8
ATOM      8  C   UNL A   1      33.106  24.634  25.379  1.00  0.00     0.147 C 
BRANCH   8   9
ATOM      9  N   UNL A   1      32.369  25.443  26.339  1.00  0.00    -0.353 N 
ATOM     10  C   UNL A   1      31.452  26.425  26.140  1.00  0.00     0.220 C 
ATOM     11  O   UNL A   1      31.043  27.056  27.115  1.00  0.00    -0.275 OA
ATOM     12  H   UNL A   1      32.568  25.247  27.284  1.00  0.00     0.163 HD
BRANCH  10  13
ATOM     13  C   UNL A   1      30.937  26.722  24.748  1.00  0.00     0.106 C 
BRANCH  13  14
ATOM     14  C   UNL A   1      31.073  28.197  24.356  1.00  0.00     0.071 C 
BRANCH  14  15
ATOM     15  C   UNL A   1      31.144  28.476  22.853  1.00  0.00     0.260 C 
BRANCH  15  16
ATOM     16  N   UNL A   1      32.337  29.221  22.441  1.00  0.00    -0.349 N 
ATOM     17  C   UNL A   1      33.536  28.394  22.437  1.00  0.00     0.330 C 
ATOM     18  H   UNL A   1      32.187  29.585  21.501  1.00  0.00     0.346 HD
ATOM     19  H   UNL A   1      32.481  29.972  23.116  1.00  0.00     0.346 HD
ENDBRANCH  15  16
ENDBRANCH  14  15
ENDBRANCH  13  14
ENDBRANCH  10  13
ENDBRANCH   8   9
ENDBRANCH   4   8
ENDBRANCH   1   3
BRANCH   1  20
ATOM     20  O   UNL A   1      37.070  21.102  25.251  1.00  0.00    -0.460 OA
BRANCH  20  21
ATOM     21  C   UNL A   1      38.448  21.233  25.646  1.00  0.00     0.274 C 
BRANCH  21  22
ATOM     22  C   UNL A   1      39.220  19.970  25.273  1.00  0.00     0.275 C 
BRANCH  22  23
ATOM     23  O   UNL A   1      40.167  19.651  26.311  1.00  0.00    -0.458 OA
BRANCH  23  24
ATOM     24  C   UNL A   1      41.469  19.817  25.986  1.00  0.00     0.338 C 
ATOM     25  O   UNL A   1      42.173  19.096  25.302  1.00  0.00    -0.246 OA
BRANCH  24  26
ATOM     26  C   UNL A   1      41.917  21.119  26.495  1.00  0.00     0.060 A 
ATOM     27  C   UNL A   1      41.760  21.379  27.855  1.00  0.00     0.016 A 
ATOM     28  C   UNL A   1      42.388  22.107  25.634  1.00  0.00     0.016 A 
ATOM     29  C   UNL A   1      42.063  22.632  28.374  1.00  0.00     0.010 A 
ATOM     30  C   UNL A   1      42.719  23.360  26.157  1.00  0.00     0.010 A 
ATOM     31  C   UNL A   1      42.545  23.635  27.528  1.00  0.00    -0.014 A 
BRANCH  31  32
ATOM     32  C   UNL A   1      42.810  24.989  28.068  1.00  0.00     0.031 A 
ATOM     33  C   UNL A   1      44.199  25.361  28.497  1.00  0.00     0.074 A 
ATOM     34  C   UNL A   1      41.812  25.888  28.161  1.00  0.00     0.049 A 
ATOM     35  N   UNL A   1      44.610  26.427  29.133  1.00  0.00    -0.248 NA
ATOM     36  C   UNL A   1      45.266  24.400  28.173  1.00  0.00     0.031 C 
ATOM     37  C   UNL A   1      40.433  25.673  27.721  1.00  0.00     0.029 A 
ATOM     38  N   UNL A   1      41.810  27.164  28.665  1.00  0.00    -0.354 N 
ATOM     39  C   UNL A   1      45.972  26.244  29.332  1.00  0.00     0.074 A 
ATOM     40  C   UNL A   1      46.319  24.968  28.742  1.00  0.00     0.031 C 
ATOM     41  C   UNL A   1      39.718  26.781  27.972  1.00  0.00     0.029 A 
ATOM     42  C   UNL A   1      40.572  27.755  28.645  1.00  0.00     0.049 A 
ATOM     43  H   UNL A   1      42.618  27.611  29.007  1.00  0.00     0.167 HD
ATOM     44  C   UNL A   1      46.850  27.060  29.960  1.00  0.00     0.031 A 
ATOM     45  C   UNL A   1      40.158  28.931  29.153  1.00  0.00     0.031 A 
ATOM     46  C   UNL A   1      46.508  28.339  30.522  1.00  0.00     0.049 A 
ATOM     47  C   UNL A   1      41.141  29.806  29.876  1.00  0.00     0.074 A 
ATOM     48  C   UNL A   1      47.329  29.248  31.164  1.00  0.00     0.029 A 
ATOM     49  N   UNL A   1      45.236  28.892  30.499  1.00  0.00    -0.354 N 
ATOM     50  N   UNL A   1      42.418  29.605  30.093  1.00  0.00    -0.248 NA
ATOM     51  C   UNL A   1      40.621  31.060  30.439  1.00  0.00     0.031 C 
ATOM     52  C   UNL A   1      46.545  30.337  31.564  1.00  0.00     0.029 A 
ATOM     53  C   UNL A   1      45.245  30.122  31.134  1.00  0.00     0.049 A 
ATOM     54  H   UNL A   1      44.445  28.472  30.091  1.00  0.00     0.167 HD
ATOM     55  C   UNL A   1      42.857  30.709  30.812  1.00  0.00     0.074 A 
ATOM     56  C   UNL A   1      41.714  31.585  30.978  1.00  0.00     0.031 C 
ATOM     57  C   UNL A   1      44.095  30.971  31.296  1.00  0.00     0.031 A 
BRANCH  44  58
ATOM     58  C   UNL A   1      48.256  26.561  30.120  1.00  0.00    -0.014 A 
ATOM     59  C   UNL A   1      48.642  25.789  31.226  1.00  0.00     0.009 A 
ATOM     60  C   UNL A   1      49.209  26.868  29.136  1.00  0.00     0.009 A 
ATOM     61  C   UNL A   1      49.966  25.363  31.360  1.00  0.00     0.001 A 
ATOM     62  C   UNL A   1      50.526  26.422  29.261  1.00  0.00     0.001 A 
ATOM     63  C   UNL A   1      50.905  25.678  30.377  1.00  0.00     0.000 A 
ENDBRANCH  44  58
BRANCH  45  64
ATOM     64  C   UNL A   1      38.728  29.314  29.042  1.00  0.00    -0.014 A 
ATOM     65  C   UNL A   1      38.226  29.869  27.857  1.00  0.00     0.009 A 
ATOM     66  C   UNL A   1      37.853  29.099  30.119  1.00  0.00     0.009 A 
ATOM     67  C   UNL A   1      36.874  30.209  27.757  1.00  0.00     0.001 A 
ATOM     68  C   UNL A   1      36.499  29.417  30.007  1.00  0.00     0.001 A 
ATOM     69  C   UNL A   1      36.011  29.976  28.827  1.00  0.00     0.000 A 
ENDBRANCH  45  64
BRANCH  57  70
ATOM     70  C   UNL A   1      44.276  32.262  32.039  1.00  0.00    -0.014 A 
ATOM     71  C   UNL A   1      44.531  33.458  31.351  1.00  0.00     0.009 A 
ATOM     72  C   UNL A   1      44.151  32.287  33.435  1.00  0.00     0.009 A 
ATOM     73  C   UNL A   1      44.682  34.654  32.054  1.00  0.00     0.001 A 
ATOM     74  C   UNL A   1      44.283  33.487  34.134  1.00  0.00     0.001 A 
ATOM     75  C   UNL A   1      44.554  34.668  33.444  1.00  0.00     0.000 A 
ENDBRANCH  57  70
ENDBRANCH  31  32
ENDBRANCH  24  26
ENDBRANCH  23  24
ENDBRANCH  22  23
ENDBRANCH  21  22
ENDBRANCH  20  21
ENDBRANCH   1  20
TORSDOF 17
ENDMDL
MODEL 3
REMARK VINA RESULT:      -8.8      3.663      8.792
REMARK SMILES C[NH2+]CCCC(=O)NC[C@@H]1CC[C@H](C(=O)OCCOC(=O)c2ccc(-c3c4nc(c(-c5ccccc5)c5ccc([nH]5)c(-c5ccccc5)c5nc(c(-c6ccccc6)c6ccc3[nH]6)C=C5)C=C4)cc2)O1
REMARK SMILES IDX 14 1 15 2 13 3 10 4 11 5 70 6 12 7 9 8 8 9 6 10 7 11 5 13
REMARK SMILES IDX 4 14 3 15 2 16 1 17 16 20 17 21 18 22 19 23 20 24 21 25
REMARK SMILES IDX 22 26 23 27 69 28 24 29 68 30 25 31 26 32 27 33 62 34 28 35
REMARK SMILES IDX 67 36 61 37 63 38 29 39 66 40 60 41 59 42 30 44 52 45 37 46
REMARK SMILES IDX 51 47 38 48 41 49 50 50 64 51 39 52 40 53 49 55 65 56 42 57
REMARK SMILES IDX 31 58 32 59 36 60 33 61 35 62 34 63 53 64 54 65 58 66 55 67
REMARK SMILES IDX 57 68 56 69 43 70 44 71 48 72 45 73 47 74 46 75
REMARK H PARENT 8 12 2 18 2 19 63 43 41 54
REMARK Flexibility Score: inf
ROOT
ATOM      1  C   UNL A   1      35.691  21.898  25.042  1.00  0.00     0.335 C 
ATOM      2  O   UNL A   1      35.842  22.957  25.641  1.00  0.00    -0.249 OA
ENDROOT
BRANCH   1   3
ATOM      3  C   UNL A   1      34.397  21.532  24.291  1.00  0.00     0.228 C 
ATOM      4  C   UNL A   1      32.355  21.981  25.322  1.00  0.00     0.138 C 
ATOM      5  C   UNL A   1      32.848  20.624  25.802  1.00  0.00     0.037 C 
ATOM      6  O   UNL A   1      33.386  22.526  24.477  1.00  0.00    -0.361 OA
ATOM      7  C   UNL A   1      33.771  20.206  24.685  1.00  0.00     0.047 C 
BRANCH   4   8
ATOM      8  C   UNL A   1      32.051  23.000  26.429  1.00  0.00     0.147 C 
BRANCH   8   9
ATOM      9  N   UNL A   1      32.870  24.193  26.272  1.00  0.00    -0.353 N 
ATOM     10  C   UNL A   1      32.518  25.467  25.962  1.00  0.00     0.220 C 
ATOM     11  O   UNL A   1      33.409  26.295  25.768  1.00  0.00    -0.275 OA
ATOM     12  H   UNL A   1      33.835  24.053  26.413  1.00  0.00     0.163 HD
BRANCH  10  13
ATOM     13  C   UNL A   1      31.058  25.859  25.872  1.00  0.00     0.106 C 
BRANCH  13  14
ATOM     14  C   UNL A   1      30.350  25.270  24.649  1.00  0.00     0.071 C 
BRANCH  14  15
ATOM     15  C   UNL A   1      30.937  25.666  23.292  1.00  0.00     0.260 C 
BRANCH  15  16
ATOM     16  N   UNL A   1      31.664  24.586  22.619  1.00  0.00    -0.349 N 
ATOM     17  C   UNL A   1      33.008  24.982  22.222  1.00  0.00     0.330 C 
ATOM     18  H   UNL A   1      31.730  23.791  23.254  1.00  0.00     0.346 HD
ATOM     19  H   UNL A   1      31.149  24.347  21.772  1.00  0.00     0.346 HD
ENDBRANCH  15  16
ENDBRANCH  14  15
ENDBRANCH  13  14
ENDBRANCH  10  13
ENDBRANCH   8   9
ENDBRANCH   4   8
ENDBRANCH   1   3
BRANCH   1  20
ATOM     20  O   UNL A   1      36.632  20.917  24.957  1.00  0.00    -0.460 OA
BRANCH  20  21
ATOM     21  C   UNL A   1      37.984  21.273  25.300  1.00  0.00     0.274 C 
BRANCH  21  22
ATOM     22  C   UNL A   1      38.904  20.069  25.108  1.00  0.00     0.275 C 
BRANCH  22  23
ATOM     23  O   UNL A   1      39.699  19.868  26.292  1.00  0.00    -0.458 OA
BRANCH  23  24
ATOM     24  C   UNL A   1      41.039  19.853  26.102  1.00  0.00     0.338 C 
ATOM     25  O   UNL A   1      41.708  19.018  25.522  1.00  0.00    -0.246 OA
BRANCH  24  26
ATOM     26  C   UNL A   1      41.598  21.112  26.610  1.00  0.00     0.060 A 
ATOM     27  C   UNL A   1      41.636  21.300  27.991  1.00  0.00     0.016 A 
ATOM     28  C   UNL A   1      41.984  22.132  25.745  1.00  0.00     0.016 A 
ATOM     29  C   UNL A   1      42.052  22.513  28.527  1.00  0.00     0.010 A 
ATOM     30  C   UNL A   1      42.427  23.344  26.281  1.00  0.00     0.010 A 
ATOM     31  C   UNL A   1      42.451  23.548  27.675  1.00  0.00    -0.014 A 
BRANCH  31  32
ATOM     32  C   UNL A   1      42.835  24.861  28.241  1.00  0.00     0.031 A 
ATOM     33  C   UNL A   1      41.781  25.894  28.507  1.00  0.00     0.074 A 
ATOM     34  C   UNL A   1      44.124  25.122  28.530  1.00  0.00     0.049 A 
ATOM     35  N   UNL A   1      41.920  27.149  28.851  1.00  0.00    -0.248 NA
ATOM     36  C   UNL A   1      40.383  25.459  28.360  1.00  0.00     0.031 C 
ATOM     37  C   UNL A   1      45.236  24.183  28.378  1.00  0.00     0.029 A 
ATOM     38  N   UNL A   1      44.713  26.266  29.007  1.00  0.00    -0.354 N 
ATOM     39  C   UNL A   1      40.634  27.667  28.910  1.00  0.00     0.074 A 
ATOM     40  C   UNL A   1      39.726  26.590  28.575  1.00  0.00     0.031 C 
ATOM     41  C   UNL A   1      46.373  24.787  28.757  1.00  0.00     0.029 A 
ATOM     42  C   UNL A   1      46.078  26.170  29.118  1.00  0.00     0.049 A 
ATOM     43  H   UNL A   1      44.206  27.075  29.248  1.00  0.00     0.167 HD
ATOM     44  C   UNL A   1      40.246  28.930  29.204  1.00  0.00     0.031 A 
ATOM     45  C   UNL A   1      46.995  27.104  29.430  1.00  0.00     0.031 A 
ATOM     46  C   UNL A   1      41.148  29.991  29.563  1.00  0.00     0.049 A 
ATOM     47  C   UNL A   1      46.547  28.507  29.720  1.00  0.00     0.074 A 
ATOM     48  C   UNL A   1      40.853  31.301  29.895  1.00  0.00     0.029 A 
ATOM     49  N   UNL A   1      42.526  29.857  29.642  1.00  0.00    -0.354 N 
ATOM     50  N   UNL A   1      45.331  28.996  29.735  1.00  0.00    -0.248 NA
ATOM     51  C   UNL A   1      47.599  29.490  30.020  1.00  0.00     0.031 C 
ATOM     52  C   UNL A   1      42.057  31.971  30.140  1.00  0.00     0.029 A 
ATOM     53  C   UNL A   1      43.098  31.067  29.999  1.00  0.00     0.049 A 
ATOM     54  H   UNL A   1      43.024  29.026  29.470  1.00  0.00     0.167 HD
ATOM     55  C   UNL A   1      45.468  30.342  30.051  1.00  0.00     0.074 A 
ATOM     56  C   UNL A   1      46.885  30.587  30.238  1.00  0.00     0.031 C 
ATOM     57  C   UNL A   1      44.509  31.290  30.169  1.00  0.00     0.031 A 
BRANCH  44  58
ATOM     58  C   UNL A   1      38.782  29.241  29.095  1.00  0.00    -0.014 A 
ATOM     59  C   UNL A   1      37.918  29.111  30.191  1.00  0.00     0.009 A 
ATOM     60  C   UNL A   1      38.264  29.678  27.865  1.00  0.00     0.009 A 
ATOM     61  C   UNL A   1      36.555  29.381  30.049  1.00  0.00     0.001 A 
ATOM     62  C   UNL A   1      36.906  29.969  27.732  1.00  0.00     0.001 A 
ATOM     63  C   UNL A   1      36.051  29.812  28.821  1.00  0.00     0.000 A 
ENDBRANCH  44  58
BRANCH  45  64
ATOM     64  C   UNL A   1      48.436  26.746  29.424  1.00  0.00    -0.014 A 
ATOM     65  C   UNL A   1      49.044  26.203  30.564  1.00  0.00     0.009 A 
ATOM     66  C   UNL A   1      49.203  26.925  28.261  1.00  0.00     0.009 A 
ATOM     67  C   UNL A   1      50.396  25.852  30.541  1.00  0.00     0.001 A 
ATOM     68  C   UNL A   1      50.548  26.550  28.234  1.00  0.00     0.001 A 
ATOM     69  C   UNL A   1      51.144  26.018  29.375  1.00  0.00     0.000 A 
ENDBRANCH  45  64
BRANCH  57  70
ATOM     70  C   UNL A   1      44.961  32.674  30.530  1.00  0.00    -0.014 A 
ATOM     71  C   UNL A   1      45.251  33.619  29.533  1.00  0.00     0.009 A 
ATOM     72  C   UNL A   1      45.060  33.047  31.878  1.00  0.00     0.009 A 
ATOM     73  C   UNL A   1      45.657  34.908  29.884  1.00  0.00     0.001 A 
ATOM     74  C   UNL A   1      45.446  34.342  32.225  1.00  0.00     0.001 A 
ATOM     75  C   UNL A   1      45.750  35.269  31.229  1.00  0.00     0.000 A 
ENDBRANCH  57  70
ENDBRANCH  31  32
ENDBRANCH  24  26
ENDBRANCH  23  24
ENDBRANCH  22  23
ENDBRANCH  21  22
ENDBRANCH  20  21
ENDBRANCH   1  20
TORSDOF 17
ENDMDL
