MODEL 1
REMARK VINA RESULT:     -10.7      0.000      0.000
REMARK SMILES COc1cc(C(=O)OCCOC(=O)c2ccc(-c3c4nc(c(-c5ccccc5)c5ccc([nH]5)c(-c5ccccc5)c5nc(c(-c6ccccc6)c6ccc3[nH]6)C=C5)C=C4)cc2)ccc1OCC(=O)N[C@H]1CCCC[C@H]1C
REMARK SMILES IDX 9 1 8 2 6 3 7 4 5 5 3 6 4 7 64 8 63 9 62 10 2 11 1 12 65 13
REMARK SMILES IDX 66 14 67 15 68 16 69 17 70 19 71 20 75 21 72 22 74 23 76 24
REMARK SMILES IDX 73 25 10 26 11 27 12 28 13 29 14 30 15 31 61 32 16 33 60 34
REMARK SMILES IDX 17 35 18 36 19 37 54 38 20 39 59 40 53 41 55 42 21 43 58 44
REMARK SMILES IDX 52 45 51 46 22 48 44 49 29 50 43 51 30 52 33 53 42 54 56 55
REMARK SMILES IDX 31 56 32 57 41 59 57 60 34 61 23 62 24 63 28 64 25 65 27 66
REMARK SMILES IDX 26 67 45 68 46 69 50 70 47 71 49 72 48 73 35 74 36 75 40 76
REMARK SMILES IDX 37 77 39 78 38 79
REMARK H PARENT 69 18 55 47 33 58
REMARK Flexibility Score: inf
ROOT
ATOM      1  C   UNL A   1      41.847  19.890  26.780  1.00  0.00     0.275 C 
ENDROOT
BRANCH   1   2
ATOM      2  O   UNL A   1      40.572  20.561  26.761  1.00  0.00    -0.458 OA
BRANCH   2   3
ATOM      3  C   UNL A   1      39.648  20.095  25.882  1.00  0.00     0.338 C 
ATOM      4  O   UNL A   1      39.560  18.969  25.438  1.00  0.00    -0.246 OA
BRANCH   3   5
ATOM      5  C   UNL A   1      38.639  21.154  25.633  1.00  0.00     0.064 A 
ATOM      6  C   UNL A   1      36.462  21.779  24.733  1.00  0.00     0.161 A 
ATOM      7  C   UNL A   1      37.471  20.829  24.923  1.00  0.00     0.066 A 
ATOM      8  C   UNL A   1      36.689  23.097  25.138  1.00  0.00     0.161 A 
ATOM      9  C   UNL A   1      37.850  23.409  25.866  1.00  0.00     0.051 A 
ATOM     10  C   UNL A   1      38.822  22.444  26.121  1.00  0.00     0.020 A 
BRANCH   6  11
ATOM     11  O   UNL A   1      35.216  21.473  24.267  1.00  0.00    -0.493 OA
ATOM     12  C   UNL A   1      34.445  20.524  24.995  1.00  0.00     0.278 C 
ENDBRANCH   6  11
BRANCH   8  13
ATOM     13  O   UNL A   1      35.900  24.186  24.880  1.00  0.00    -0.480 OA
BRANCH  13  14
ATOM     14  C   UNL A   1      34.958  24.625  25.845  1.00  0.00     0.329 C 
BRANCH  14  15
ATOM     15  C   UNL A   1      33.533  24.054  26.034  1.00  0.00     0.258 C 
ATOM     16  O   UNL A   1      33.250  23.345  27.008  1.00  0.00    -0.271 OA
ATOM     17  N   UNL A   1      32.508  24.342  25.189  1.00  0.00    -0.350 N 
ATOM     18  H   UNL A   1      31.788  23.671  25.171  1.00  0.00     0.163 HD
BRANCH  17  19
ATOM     19  C   UNL A   1      32.299  25.483  24.304  1.00  0.00     0.085 C 
ATOM     20  C   UNL A   1      31.809  25.116  22.902  1.00  0.00     0.025 C 
ATOM     21  C   UNL A   1      31.328  26.492  24.975  1.00  0.00     0.008 C 
ATOM     22  C   UNL A   1      31.596  26.344  22.024  1.00  0.00     0.002 C 
ATOM     23  C   UNL A   1      31.159  27.730  24.082  1.00  0.00     0.005 C 
ATOM     24  C   UNL A   1      29.962  25.879  25.345  1.00  0.00     0.010 C 
ATOM     25  C   UNL A   1      30.687  27.375  22.675  1.00  0.00     0.000 C 
ENDBRANCH  17  19
ENDBRANCH  14  15
ENDBRANCH  13  14
ENDBRANCH   8  13
ENDBRANCH   3   5
ENDBRANCH   2   3
ENDBRANCH   1   2
BRANCH   1  26
ATOM     26  C   UNL A   1      42.808  20.585  25.818  1.00  0.00     0.275 C 
BRANCH  26  27
ATOM     27  O   UNL A   1      43.217  21.839  26.394  1.00  0.00    -0.458 OA
BRANCH  27  28
ATOM     28  C   UNL A   1      43.038  22.938  25.630  1.00  0.00     0.338 C 
ATOM     29  O   UNL A   1      43.216  23.052  24.429  1.00  0.00    -0.246 OA
BRANCH  28  30
ATOM     30  C   UNL A   1      42.543  24.036  26.478  1.00  0.00     0.060 A 
ATOM     31  C   UNL A   1      43.032  25.323  26.283  1.00  0.00     0.016 A 
ATOM     32  C   UNL A   1      41.681  23.776  27.539  1.00  0.00     0.016 A 
ATOM     33  C   UNL A   1      42.762  26.325  27.211  1.00  0.00     0.010 A 
ATOM     34  C   UNL A   1      41.312  24.817  28.401  1.00  0.00     0.010 A 
ATOM     35  C   UNL A   1      41.883  26.099  28.277  1.00  0.00    -0.014 A 
BRANCH  35  36
ATOM     36  C   UNL A   1      41.580  27.176  29.267  1.00  0.00     0.031 A 
ATOM     37  C   UNL A   1      42.419  27.317  30.516  1.00  0.00     0.074 A 
ATOM     38  C   UNL A   1      40.552  28.030  29.074  1.00  0.00     0.049 A 
ATOM     39  N   UNL A   1      42.164  27.989  31.611  1.00  0.00    -0.248 NA
ATOM     40  C   UNL A   1      43.699  26.591  30.546  1.00  0.00     0.031 C 
ATOM     41  C   UNL A   1      39.679  28.071  27.897  1.00  0.00     0.029 A 
ATOM     42  N   UNL A   1      40.061  29.033  29.877  1.00  0.00    -0.354 N 
ATOM     43  C   UNL A   1      43.205  27.699  32.485  1.00  0.00     0.074 A 
ATOM     44  C   UNL A   1      44.103  26.802  31.790  1.00  0.00     0.031 C 
ATOM     45  C   UNL A   1      38.792  29.066  28.038  1.00  0.00     0.029 A 
ATOM     46  C   UNL A   1      38.950  29.656  29.359  1.00  0.00     0.049 A 
ATOM     47  H   UNL A   1      40.466  29.281  30.739  1.00  0.00     0.167 HD
ATOM     48  C   UNL A   1      43.389  28.132  33.757  1.00  0.00     0.031 A 
ATOM     49  C   UNL A   1      38.104  30.552  29.902  1.00  0.00     0.031 A 
ATOM     50  C   UNL A   1      42.537  29.082  34.423  1.00  0.00     0.049 A 
ATOM     51  C   UNL A   1      38.313  30.997  31.319  1.00  0.00     0.074 A 
ATOM     52  C   UNL A   1      42.661  29.602  35.700  1.00  0.00     0.029 A 
ATOM     53  N   UNL A   1      41.420  29.672  33.856  1.00  0.00    -0.354 N 
ATOM     54  N   UNL A   1      39.261  30.661  32.157  1.00  0.00    -0.248 NA
ATOM     55  C   UNL A   1      37.319  31.930  31.872  1.00  0.00     0.031 C 
ATOM     56  C   UNL A   1      41.595  30.480  35.920  1.00  0.00     0.029 A 
ATOM     57  C   UNL A   1      40.836  30.540  34.763  1.00  0.00     0.049 A 
ATOM     58  H   UNL A   1      41.090  29.500  32.945  1.00  0.00     0.167 HD
ATOM     59  C   UNL A   1      38.988  31.350  33.331  1.00  0.00     0.074 A 
ATOM     60  C   UNL A   1      37.797  32.138  33.091  1.00  0.00     0.031 C 
ATOM     61  C   UNL A   1      39.659  31.325  34.506  1.00  0.00     0.031 A 
BRANCH  48  62
ATOM     62  C   UNL A   1      44.532  27.551  34.540  1.00  0.00    -0.014 A 
ATOM     63  C   UNL A   1      44.404  26.360  35.269  1.00  0.00     0.009 A 
ATOM     64  C   UNL A   1      45.788  28.181  34.483  1.00  0.00     0.009 A 
ATOM     65  C   UNL A   1      45.503  25.825  35.944  1.00  0.00     0.001 A 
ATOM     66  C   UNL A   1      46.890  27.630  35.138  1.00  0.00     0.001 A 
ATOM     67  C   UNL A   1      46.747  26.455  35.874  1.00  0.00     0.000 A 
ENDBRANCH  48  62
BRANCH  49  68
ATOM     68  C   UNL A   1      36.923  31.020  29.127  1.00  0.00    -0.014 A 
ATOM     69  C   UNL A   1      35.860  30.150  28.845  1.00  0.00     0.009 A 
ATOM     70  C   UNL A   1      36.860  32.342  28.658  1.00  0.00     0.009 A 
ATOM     71  C   UNL A   1      34.768  30.590  28.094  1.00  0.00     0.001 A 
ATOM     72  C   UNL A   1      35.752  32.790  27.938  1.00  0.00     0.001 A 
ATOM     73  C   UNL A   1      34.712  31.910  27.646  1.00  0.00     0.000 A 
ENDBRANCH  49  68
BRANCH  61  74
ATOM     74  C   UNL A   1      39.148  32.207  35.606  1.00  0.00    -0.014 A 
ATOM     75  C   UNL A   1      38.225  31.731  36.549  1.00  0.00     0.009 A 
ATOM     76  C   UNL A   1      39.628  33.522  35.720  1.00  0.00     0.009 A 
ATOM     77  C   UNL A   1      37.773  32.565  37.573  1.00  0.00     0.001 A 
ATOM     78  C   UNL A   1      39.193  34.345  36.758  1.00  0.00     0.001 A 
ATOM     79  C   UNL A   1      38.260  33.869  37.679  1.00  0.00     0.000 A 
ENDBRANCH  61  74
ENDBRANCH  35  36
ENDBRANCH  28  30
ENDBRANCH  27  28
ENDBRANCH  26  27
ENDBRANCH   1  26
TORSDOF 16
ENDMDL
MODEL 2
REMARK VINA RESULT:     -10.5      3.762      7.364
REMARK SMILES COc1cc(C(=O)OCCOC(=O)c2ccc(-c3c4nc(c(-c5ccccc5)c5ccc([nH]5)c(-c5ccccc5)c5nc(c(-c6ccccc6)c6ccc3[nH]6)C=C5)C=C4)cc2)ccc1OCC(=O)N[C@H]1CCCC[C@H]1C
REMARK SMILES IDX 9 1 8 2 6 3 7 4 5 5 3 6 4 7 64 8 63 9 62 10 2 11 1 12 65 13
REMARK SMILES IDX 66 14 67 15 68 16 69 17 70 19 71 20 75 21 72 22 74 23 76 24
REMARK SMILES IDX 73 25 10 26 11 27 12 28 13 29 14 30 15 31 61 32 16 33 60 34
REMARK SMILES IDX 17 35 18 36 19 37 54 38 20 39 59 40 53 41 55 42 21 43 58 44
REMARK SMILES IDX 52 45 51 46 22 48 44 49 29 50 43 51 30 52 33 53 42 54 56 55
REMARK SMILES IDX 31 56 32 57 41 59 57 60 34 61 23 62 24 63 28 64 25 65 27 66
REMARK SMILES IDX 26 67 45 68 46 69 50 70 47 71 49 72 48 73 35 74 36 75 40 76
REMARK SMILES IDX 37 77 39 78 38 79
REMARK H PARENT 69 18 55 47 33 58
REMARK Flexibility Score: inf
ROOT
ATOM      1  C   UNL A   1      35.345  20.472  25.022  1.00  0.00     0.275 C 
ENDROOT
BRANCH   1   2
ATOM      2  O   UNL A   1      34.847  21.792  24.728  1.00  0.00    -0.458 OA
BRANCH   2   3
ATOM      3  C   UNL A   1      33.521  21.898  24.453  1.00  0.00     0.338 C 
ATOM      4  O   UNL A   1      32.838  21.121  23.819  1.00  0.00    -0.246 OA
BRANCH   3   5
ATOM      5  C   UNL A   1      32.969  23.071  25.176  1.00  0.00     0.064 A 
ATOM      6  C   UNL A   1      31.118  24.070  26.408  1.00  0.00     0.161 A 
ATOM      7  C   UNL A   1      31.650  23.017  25.656  1.00  0.00     0.066 A 
ATOM      8  C   UNL A   1      31.869  25.238  26.560  1.00  0.00     0.161 A 
ATOM      9  C   UNL A   1      33.196  25.276  26.096  1.00  0.00     0.051 A 
ATOM     10  C   UNL A   1      33.751  24.198  25.412  1.00  0.00     0.020 A 
BRANCH   6  11
ATOM     11  O   UNL A   1      29.943  23.986  27.097  1.00  0.00    -0.493 OA
ATOM     12  C   UNL A   1      29.383  22.695  27.307  1.00  0.00     0.278 C 
ENDBRANCH   6  11
BRANCH   8  13
ATOM     13  O   UNL A   1      31.450  26.422  27.105  1.00  0.00    -0.480 OA
BRANCH  13  14
ATOM     14  C   UNL A   1      32.197  27.608  26.890  1.00  0.00     0.329 C 
BRANCH  14  15
ATOM     15  C   UNL A   1      31.822  28.741  25.907  1.00  0.00     0.258 C 
ATOM     16  O   UNL A   1      31.868  29.928  26.249  1.00  0.00    -0.271 OA
ATOM     17  N   UNL A   1      31.484  28.507  24.611  1.00  0.00    -0.350 N 
ATOM     18  H   UNL A   1      30.924  29.205  24.199  1.00  0.00     0.163 HD
BRANCH  17  19
ATOM     19  C   UNL A   1      31.813  27.392  23.730  1.00  0.00     0.085 C 
ATOM     20  C   UNL A   1      30.925  27.280  22.490  1.00  0.00     0.025 C 
ATOM     21  C   UNL A   1      33.310  27.474  23.324  1.00  0.00     0.008 C 
ATOM     22  C   UNL A   1      31.320  26.107  21.599  1.00  0.00     0.002 C 
ATOM     23  C   UNL A   1      33.684  26.264  22.455  1.00  0.00     0.005 C 
ATOM     24  C   UNL A   1      33.688  28.799  22.630  1.00  0.00     0.010 C 
ATOM     25  C   UNL A   1      32.794  26.132  21.223  1.00  0.00     0.000 C 
ENDBRANCH  17  19
ENDBRANCH  14  15
ENDBRANCH  13  14
ENDBRANCH   8  13
ENDBRANCH   3   5
ENDBRANCH   2   3
ENDBRANCH   1   2
BRANCH   1  26
ATOM     26  C   UNL A   1      36.853  20.427  24.781  1.00  0.00     0.275 C 
BRANCH  26  27
ATOM     27  O   UNL A   1      37.498  21.324  25.702  1.00  0.00    -0.458 OA
BRANCH  27  28
ATOM     28  C   UNL A   1      38.804  21.089  25.956  1.00  0.00     0.338 C 
ATOM     29  O   UNL A   1      39.436  20.069  25.739  1.00  0.00    -0.246 OA
BRANCH  28  30
ATOM     30  C   UNL A   1      39.406  22.302  26.533  1.00  0.00     0.060 A 
ATOM     31  C   UNL A   1      38.921  23.551  26.156  1.00  0.00     0.016 A 
ATOM     32  C   UNL A   1      40.522  22.214  27.361  1.00  0.00     0.016 A 
ATOM     33  C   UNL A   1      39.615  24.707  26.501  1.00  0.00     0.010 A 
ATOM     34  C   UNL A   1      41.145  23.387  27.807  1.00  0.00     0.010 A 
ATOM     35  C   UNL A   1      40.729  24.651  27.347  1.00  0.00    -0.014 A 
BRANCH  35  36
ATOM     36  C   UNL A   1      41.468  25.892  27.730  1.00  0.00     0.031 A 
ATOM     37  C   UNL A   1      40.818  26.914  28.632  1.00  0.00     0.074 A 
ATOM     38  C   UNL A   1      42.716  26.128  27.272  1.00  0.00     0.049 A 
ATOM     39  N   UNL A   1      41.167  28.157  28.859  1.00  0.00    -0.248 NA
ATOM     40  C   UNL A   1      39.608  26.493  29.357  1.00  0.00     0.031 C 
ATOM     41  C   UNL A   1      43.512  25.220  26.440  1.00  0.00     0.029 A 
ATOM     42  N   UNL A   1      43.538  27.218  27.440  1.00  0.00    -0.354 N 
ATOM     43  C   UNL A   1      40.177  28.686  29.679  1.00  0.00     0.074 A 
ATOM     44  C   UNL A   1      39.221  27.627  29.924  1.00  0.00     0.031 C 
ATOM     45  C   UNL A   1      44.711  25.770  26.204  1.00  0.00     0.029 A 
ATOM     46  C   UNL A   1      44.731  27.115  26.763  1.00  0.00     0.049 A 
ATOM     47  H   UNL A   1      43.296  27.996  27.991  1.00  0.00     0.167 HD
ATOM     48  C   UNL A   1      40.069  29.943  30.173  1.00  0.00     0.031 A 
ATOM     49  C   UNL A   1      45.708  28.017  26.548  1.00  0.00     0.031 A 
ATOM     50  C   UNL A   1      41.056  30.975  29.993  1.00  0.00     0.049 A 
ATOM     51  C   UNL A   1      45.554  29.409  27.084  1.00  0.00     0.074 A 
ATOM     52  C   UNL A   1      41.047  32.270  30.482  1.00  0.00     0.029 A 
ATOM     53  N   UNL A   1      42.239  30.820  29.290  1.00  0.00    -0.354 N 
ATOM     54  N   UNL A   1      44.580  29.915  27.797  1.00  0.00    -0.248 NA
ATOM     55  C   UNL A   1      46.627  30.362  26.763  1.00  0.00     0.031 C 
ATOM     56  C   UNL A   1      42.209  32.912  30.041  1.00  0.00     0.029 A 
ATOM     57  C   UNL A   1      42.961  32.001  29.318  1.00  0.00     0.049 A 
ATOM     58  H   UNL A   1      42.524  29.994  28.837  1.00  0.00     0.167 HD
ATOM     59  C   UNL A   1      44.928  31.240  28.024  1.00  0.00     0.074 A 
ATOM     60  C   UNL A   1      46.211  31.454  27.389  1.00  0.00     0.031 C 
ATOM     61  C   UNL A   1      44.240  32.196  28.692  1.00  0.00     0.031 A 
BRANCH  48  62
ATOM     62  C   UNL A   1      38.817  30.300  30.924  1.00  0.00    -0.014 A 
ATOM     63  C   UNL A   1      37.687  30.824  30.278  1.00  0.00     0.009 A 
ATOM     64  C   UNL A   1      38.748  30.034  32.303  1.00  0.00     0.009 A 
ATOM     65  C   UNL A   1      36.524  31.096  31.002  1.00  0.00     0.001 A 
ATOM     66  C   UNL A   1      37.576  30.284  33.018  1.00  0.00     0.001 A 
ATOM     67  C   UNL A   1      36.467  30.820  32.369  1.00  0.00     0.000 A 
ENDBRANCH  48  62
BRANCH  49  68
ATOM     68  C   UNL A   1      46.880  27.653  25.709  1.00  0.00    -0.014 A 
ATOM     69  C   UNL A   1      48.041  27.121  26.291  1.00  0.00     0.009 A 
ATOM     70  C   UNL A   1      46.846  27.844  24.318  1.00  0.00     0.009 A 
ATOM     71  C   UNL A   1      49.147  26.807  25.498  1.00  0.00     0.001 A 
ATOM     72  C   UNL A   1      47.939  27.497  23.524  1.00  0.00     0.001 A 
ATOM     73  C   UNL A   1      49.094  26.989  24.116  1.00  0.00     0.000 A 
ENDBRANCH  49  68
BRANCH  61  74
ATOM     74  C   UNL A   1      44.882  33.546  28.807  1.00  0.00    -0.014 A 
ATOM     75  C   UNL A   1      44.627  34.555  27.866  1.00  0.00     0.009 A 
ATOM     76  C   UNL A   1      45.723  33.824  29.897  1.00  0.00     0.009 A 
ATOM     77  C   UNL A   1      45.224  35.809  28.000  1.00  0.00     0.001 A 
ATOM     78  C   UNL A   1      46.299  35.085  30.041  1.00  0.00     0.001 A 
ATOM     79  C   UNL A   1      46.056  36.074  29.089  1.00  0.00     0.000 A 
ENDBRANCH  61  74
ENDBRANCH  35  36
ENDBRANCH  28  30
ENDBRANCH  27  28
ENDBRANCH  26  27
ENDBRANCH   1  26
TORSDOF 16
ENDMDL
MODEL 3
REMARK VINA RESULT:     -10.5      1.266      6.091
REMARK SMILES COc1cc(C(=O)OCCOC(=O)c2ccc(-c3c4nc(c(-c5ccccc5)c5ccc([nH]5)c(-c5ccccc5)c5nc(c(-c6ccccc6)c6ccc3[nH]6)C=C5)C=C4)cc2)ccc1OCC(=O)N[C@H]1CCCC[C@H]1C
REMARK SMILES IDX 9 1 8 2 6 3 7 4 5 5 3 6 4 7 64 8 63 9 62 10 2 11 1 12 65 13
REMARK SMILES IDX 66 14 67 15 68 16 69 17 70 19 71 20 75 21 72 22 74 23 76 24
REMARK SMILES IDX 73 25 10 26 11 27 12 28 13 29 14 30 15 31 61 32 16 33 60 34
REMARK SMILES IDX 17 35 18 36 19 37 54 38 20 39 59 40 53 41 55 42 21 43 58 44
REMARK SMILES IDX 52 45 51 46 22 48 44 49 29 50 43 51 30 52 33 53 42 54 56 55
REMARK SMILES IDX 31 56 32 57 41 59 57 60 34 61 23 62 24 63 28 64 25 65 27 66
REMARK SMILES IDX 26 67 45 68 46 69 50 70 47 71 49 72 48 73 35 74 36 75 40 76
REMARK SMILES IDX 37 77 39 78 38 79
REMARK H PARENT 69 18 55 47 33 58
REMARK Flexibility Score: inf
ROOT
ATOM      1  C   UNL A   1      42.874  21.448  25.759  1.00  0.00     0.275 C 
ENDROOT
BRANCH   1   2
ATOM      2  O   UNL A   1      41.952  21.974  26.734  1.00  0.00    -0.458 OA
BRANCH   2   3
ATOM      3  C   UNL A   1      40.844  21.232  26.991  1.00  0.00     0.338 C 
ATOM      4  O   UNL A   1      40.783  20.198  27.622  1.00  0.00    -0.246 OA
BRANCH   3   5
ATOM      5  C   UNL A   1      39.650  21.957  26.491  1.00  0.00     0.064 A 
ATOM      6  C   UNL A   1      37.659  21.960  25.085  1.00  0.00     0.161 A 
ATOM      7  C   UNL A   1      38.834  21.343  25.526  1.00  0.00     0.066 A 
ATOM      8  C   UNL A   1      37.375  23.259  25.514  1.00  0.00     0.161 A 
ATOM      9  C   UNL A   1      38.183  23.858  26.496  1.00  0.00     0.051 A 
ATOM     10  C   UNL A   1      39.313  23.211  26.991  1.00  0.00     0.020 A 
BRANCH   6  11
ATOM     11  O   UNL A   1      36.709  21.326  24.336  1.00  0.00    -0.493 OA
ATOM     12  C   UNL A   1      35.815  20.443  25.001  1.00  0.00     0.278 C 
ENDBRANCH   6  11
BRANCH   8  13
ATOM     13  O   UNL A   1      36.376  24.077  25.059  1.00  0.00    -0.480 OA
BRANCH  13  14
ATOM     14  C   UNL A   1      35.100  24.052  25.677  1.00  0.00     0.329 C 
BRANCH  14  15
ATOM     15  C   UNL A   1      33.747  24.243  24.952  1.00  0.00     0.258 C 
ATOM     16  O   UNL A   1      33.190  23.301  24.375  1.00  0.00    -0.271 OA
ATOM     17  N   UNL A   1      33.070  25.421  24.959  1.00  0.00    -0.350 N 
ATOM     18  H   UNL A   1      32.455  25.547  24.200  1.00  0.00     0.163 HD
BRANCH  17  19
ATOM     19  C   UNL A   1      33.105  26.531  25.905  1.00  0.00     0.085 C 
ATOM     20  C   UNL A   1      33.738  27.812  25.357  1.00  0.00     0.025 C 
ATOM     21  C   UNL A   1      31.671  26.813  26.431  1.00  0.00     0.008 C 
ATOM     22  C   UNL A   1      33.737  28.942  26.381  1.00  0.00     0.002 C 
ATOM     23  C   UNL A   1      31.708  27.932  27.482  1.00  0.00     0.005 C 
ATOM     24  C   UNL A   1      30.656  27.130  25.313  1.00  0.00     0.010 C 
ATOM     25  C   UNL A   1      32.353  29.210  26.951  1.00  0.00     0.000 C 
ENDBRANCH  17  19
ENDBRANCH  14  15
ENDBRANCH  13  14
ENDBRANCH   8  13
ENDBRANCH   3   5
ENDBRANCH   2   3
ENDBRANCH   1   2
BRANCH   1  26
ATOM     26  C   UNL A   1      43.719  22.584  25.185  1.00  0.00     0.275 C 
BRANCH  26  27
ATOM     27  O   UNL A   1      42.942  23.795  25.201  1.00  0.00    -0.458 OA
BRANCH  27  28
ATOM     28  C   UNL A   1      43.625  24.945  25.390  1.00  0.00     0.338 C 
ATOM     29  O   UNL A   1      44.615  25.334  24.793  1.00  0.00    -0.246 OA
BRANCH  28  30
ATOM     30  C   UNL A   1      42.965  25.725  26.449  1.00  0.00     0.060 A 
ATOM     31  C   UNL A   1      43.346  27.046  26.663  1.00  0.00     0.016 A 
ATOM     32  C   UNL A   1      42.049  25.122  27.306  1.00  0.00     0.016 A 
ATOM     33  C   UNL A   1      42.911  27.728  27.795  1.00  0.00     0.010 A 
ATOM     34  C   UNL A   1      41.517  25.854  28.376  1.00  0.00     0.010 A 
ATOM     35  C   UNL A   1      41.975  27.155  28.664  1.00  0.00    -0.014 A 
BRANCH  35  36
ATOM     36  C   UNL A   1      41.495  27.889  29.874  1.00  0.00     0.031 A 
ATOM     37  C   UNL A   1      40.256  28.749  29.797  1.00  0.00     0.074 A 
ATOM     38  C   UNL A   1      42.161  27.810  31.046  1.00  0.00     0.049 A 
ATOM     39  N   UNL A   1      39.834  29.667  30.632  1.00  0.00    -0.248 NA
ATOM     40  C   UNL A   1      39.391  28.571  28.620  1.00  0.00     0.031 C 
ATOM     41  C   UNL A   1      43.340  26.981  31.309  1.00  0.00     0.029 A 
ATOM     42  N   UNL A   1      41.938  28.448  32.244  1.00  0.00    -0.354 N 
ATOM     43  C   UNL A   1      38.708  30.229  30.041  1.00  0.00     0.074 A 
ATOM     44  C   UNL A   1      38.502  29.541  28.784  1.00  0.00     0.031 C 
ATOM     45  C   UNL A   1      43.712  27.131  32.589  1.00  0.00     0.029 A 
ATOM     46  C   UNL A   1      42.877  28.152  33.205  1.00  0.00     0.049 A 
ATOM     47  H   UNL A   1      41.181  29.056  32.399  1.00  0.00     0.167 HD
ATOM     48  C   UNL A   1      37.924  31.235  30.499  1.00  0.00     0.031 A 
ATOM     49  C   UNL A   1      43.095  28.684  34.423  1.00  0.00     0.031 A 
ATOM     50  C   UNL A   1      38.082  31.869  31.781  1.00  0.00     0.049 A 
ATOM     51  C   UNL A   1      42.230  29.813  34.898  1.00  0.00     0.074 A 
ATOM     52  C   UNL A   1      37.317  32.877  32.344  1.00  0.00     0.029 A 
ATOM     53  N   UNL A   1      39.055  31.539  32.710  1.00  0.00    -0.354 N 
ATOM     54  N   UNL A   1      41.214  30.382  34.300  1.00  0.00    -0.248 NA
ATOM     55  C   UNL A   1      42.559  30.390  36.210  1.00  0.00     0.031 C 
ATOM     56  C   UNL A   1      37.852  33.183  33.599  1.00  0.00     0.029 A 
ATOM     57  C   UNL A   1      38.920  32.333  33.835  1.00  0.00     0.049 A 
ATOM     58  H   UNL A   1      39.741  30.842  32.588  1.00  0.00     0.167 HD
ATOM     59  C   UNL A   1      40.773  31.372  35.165  1.00  0.00     0.074 A 
ATOM     60  C   UNL A   1      41.618  31.315  36.339  1.00  0.00     0.031 C 
ATOM     61  C   UNL A   1      39.761  32.257  34.999  1.00  0.00     0.031 A 
BRANCH  48  62
ATOM     62  C   UNL A   1      36.844  31.755  29.593  1.00  0.00    -0.014 A 
ATOM     63  C   UNL A   1      35.567  31.175  29.550  1.00  0.00     0.009 A 
ATOM     64  C   UNL A   1      37.096  32.901  28.817  1.00  0.00     0.009 A 
ATOM     65  C   UNL A   1      34.574  31.717  28.731  1.00  0.00     0.001 A 
ATOM     66  C   UNL A   1      36.093  33.454  28.020  1.00  0.00     0.001 A 
ATOM     67  C   UNL A   1      34.834  32.859  27.972  1.00  0.00     0.000 A 
ENDBRANCH  48  62
BRANCH  49  68
ATOM     68  C   UNL A   1      44.242  28.211  35.243  1.00  0.00    -0.014 A 
ATOM     69  C   UNL A   1      44.086  27.157  36.155  1.00  0.00     0.009 A 
ATOM     70  C   UNL A   1      45.502  28.821  35.121  1.00  0.00     0.009 A 
ATOM     71  C   UNL A   1      45.162  26.738  36.940  1.00  0.00     0.001 A 
ATOM     72  C   UNL A   1      46.584  28.378  35.882  1.00  0.00     0.001 A 
ATOM     73  C   UNL A   1      46.411  27.343  36.799  1.00  0.00     0.000 A 
ENDBRANCH  49  68
BRANCH  61  74
ATOM     74  C   UNL A   1      39.487  33.204  36.129  1.00  0.00    -0.014 A 
ATOM     75  C   UNL A   1      40.070  34.479  36.167  1.00  0.00     0.009 A 
ATOM     76  C   UNL A   1      38.600  32.826  37.150  1.00  0.00     0.009 A 
ATOM     77  C   UNL A   1      39.790  35.349  37.221  1.00  0.00     0.001 A 
ATOM     78  C   UNL A   1      38.303  33.707  38.189  1.00  0.00     0.001 A 
ATOM     79  C   UNL A   1      38.904  34.964  38.228  1.00  0.00     0.000 A 
ENDBRANCH  61  74
ENDBRANCH  35  36
ENDBRANCH  28  30
ENDBRANCH  27  28
ENDBRANCH  26  27
ENDBRANCH   1  26
TORSDOF 16
ENDMDL
