MODEL 1
REMARK VINA RESULT:     -14.2      0.000      0.000
REMARK SMILES O=C(OCCOC(=O)c1ccc(-c2c3nc(c(-c4ccccc4)c4ccc([nH]4)c(-c4ccccc4)c4nc(c(-c5ccccc5)c5ccc2[nH]5)C=C4)C=C3)cc1)C1=Cc2cc(Cl)cc(-c3ccc(CO)cc3)c2O[C@@H]1C(F)(F)F
REMARK SMILES IDX 4 1 3 2 2 3 1 4 57 5 58 6 75 7 59 8 74 9 60 10 73 11 61 12
REMARK SMILES IDX 64 13 62 14 63 15 76 16 77 17 78 18 79 19 65 20 66 21 72 22
REMARK SMILES IDX 67 23 71 24 68 25 69 26 70 27 5 29 6 30 7 31 8 32 9 33 10 34
REMARK SMILES IDX 56 35 11 36 55 37 12 38 13 39 14 40 49 41 15 42 54 43 48 44
REMARK SMILES IDX 50 45 16 46 53 47 47 48 46 49 17 51 39 52 24 53 38 54 25 55
REMARK SMILES IDX 28 56 37 57 51 58 26 59 27 60 36 62 52 63 29 64 18 65 19 66
REMARK SMILES IDX 23 67 20 68 22 69 21 70 40 71 41 72 45 73 42 74 44 75 43 76
REMARK SMILES IDX 30 77 31 78 35 79 32 80 34 81 33 82
REMARK H PARENT 70 28 50 50 28 61
REMARK Flexibility Score: inf
ROOT
ATOM      1  C   UNL A   1      31.934  27.784  26.921  1.00  0.00     0.275 C 
ENDROOT
BRANCH   1   2
ATOM      2  O   UNL A   1      32.874  26.732  26.232  1.00  0.00    -0.459 OA
BRANCH   2   3
ATOM      3  C   UNL A   1      32.341  25.507  26.162  1.00  0.00     0.338 C 
ATOM      4  O   UNL A   1      31.808  24.825  26.999  1.00  0.00    -0.246 OA
BRANCH   3   5
ATOM      5  C   UNL A   1      32.911  25.201  24.878  1.00  0.00     0.087 C 
ATOM      6  C   UNL A   1      34.365  24.966  25.006  1.00  0.00     0.027 C 
ATOM      7  C   UNL A   1      31.614  23.869  24.350  1.00  0.00     0.316 C 
ATOM      8  C   UNL A   1      35.124  23.333  24.816  1.00  0.00     0.019 A 
ATOM      9  O   UNL A   1      32.400  22.119  24.176  1.00  0.00    -0.475 OA
ATOM     10  C   UNL A   1      36.436  23.225  25.192  1.00  0.00     0.032 A 
ATOM     11  C   UNL A   1      34.180  21.892  24.509  1.00  0.00     0.135 A 
ATOM     12  C   UNL A   1      36.906  21.917  25.303  1.00  0.00     0.042 A 
ATOM     13  C   UNL A   1      34.729  20.641  24.687  1.00  0.00     0.026 A 
ATOM     14  Cl  UNL A   1      38.536  21.708  25.858  1.00  0.00    -0.084 Cl
ATOM     15  C   UNL A   1      36.115  20.726  25.067  1.00  0.00     0.033 A 
BRANCH   7  16
ATOM     16  C   UNL A   1      30.729  24.751  23.402  1.00  0.00     0.430 C 
ATOM     17  F   UNL A   1      31.426  25.238  22.365  1.00  0.00    -0.167 F 
ATOM     18  F   UNL A   1      29.790  23.939  22.825  1.00  0.00    -0.167 F 
ATOM     19  F   UNL A   1      29.979  25.707  23.979  1.00  0.00    -0.167 F 
ENDBRANCH   7  16
BRANCH  13  20
ATOM     20  C   UNL A   1      34.128  19.316  24.713  1.00  0.00    -0.015 A 
ATOM     21  C   UNL A   1      32.942  19.128  25.453  1.00  0.00     0.009 A 
ATOM     22  C   UNL A   1      34.816  18.182  24.275  1.00  0.00     0.009 A 
ATOM     23  C   UNL A   1      32.472  17.851  25.762  1.00  0.00     0.007 A 
ATOM     24  C   UNL A   1      34.345  16.897  24.582  1.00  0.00     0.007 A 
ATOM     25  C   UNL A   1      33.173  16.721  25.333  1.00  0.00    -0.023 A 
BRANCH  25  26
ATOM     26  C   UNL A   1      32.671  15.349  25.695  1.00  0.00     0.191 C 
BRANCH  26  27
ATOM     27  O   UNL A   1      33.655  14.357  25.423  1.00  0.00    -0.392 OA
ATOM     28  H   UNL A   1      33.591  14.085  24.495  1.00  0.00     0.211 HD
ENDBRANCH  26  27
ENDBRANCH  25  26
ENDBRANCH  13  20
ENDBRANCH   3   5
ENDBRANCH   2   3
ENDBRANCH   1   2
BRANCH   1  29
ATOM     29  C   UNL A   1      32.367  29.876  27.218  1.00  0.00     0.275 C 
BRANCH  29  30
ATOM     30  O   UNL A   1      33.890  30.572  27.458  1.00  0.00    -0.458 OA
BRANCH  30  31
ATOM     31  C   UNL A   1      34.727  31.093  28.403  1.00  0.00     0.338 C 
ATOM     32  O   UNL A   1      34.537  31.972  29.217  1.00  0.00    -0.246 OA
BRANCH  31  33
ATOM     33  C   UNL A   1      35.867  30.123  28.461  1.00  0.00     0.060 A 
ATOM     34  C   UNL A   1      36.770  30.071  27.387  1.00  0.00     0.016 A 
ATOM     35  C   UNL A   1      36.233  29.586  29.698  1.00  0.00     0.016 A 
ATOM     36  C   UNL A   1      38.107  29.693  27.616  1.00  0.00     0.010 A 
ATOM     37  C   UNL A   1      37.555  29.186  29.915  1.00  0.00     0.010 A 
ATOM     38  C   UNL A   1      38.520  29.298  28.897  1.00  0.00    -0.014 A 
BRANCH  38  39
ATOM     39  C   UNL A   1      39.880  28.742  29.128  1.00  0.00     0.031 A 
ATOM     40  C   UNL A   1      40.859  29.675  29.776  1.00  0.00     0.074 A 
ATOM     41  C   UNL A   1      40.276  27.515  28.732  1.00  0.00     0.049 A 
ATOM     42  N   UNL A   1      42.121  29.501  30.065  1.00  0.00    -0.248 NA
ATOM     43  C   UNL A   1      40.333  31.009  30.119  1.00  0.00     0.031 C 
ATOM     44  C   UNL A   1      39.443  26.501  28.086  1.00  0.00     0.029 A 
ATOM     45  N   UNL A   1      41.516  26.914  28.814  1.00  0.00    -0.354 N 
ATOM     46  C   UNL A   1      42.532  30.700  30.629  1.00  0.00     0.074 A 
ATOM     47  C   UNL A   1      41.413  31.611  30.577  1.00  0.00     0.031 C 
ATOM     48  C   UNL A   1      40.193  25.409  27.829  1.00  0.00     0.029 A 
ATOM     49  C   UNL A   1      41.564  25.645  28.281  1.00  0.00     0.049 A 
ATOM     50  H   UNL A   1      42.297  27.355  29.219  1.00  0.00     0.167 HD
ATOM     51  C   UNL A   1      43.730  31.022  31.166  1.00  0.00     0.031 A 
ATOM     52  C   UNL A   1      42.599  24.782  28.178  1.00  0.00     0.031 A 
ATOM     53  C   UNL A   1      44.862  30.147  31.175  1.00  0.00     0.049 A 
ATOM     54  C   UNL A   1      43.955  25.190  28.715  1.00  0.00     0.074 A 
ATOM     55  C   UNL A   1      46.125  30.374  31.687  1.00  0.00     0.029 A 
ATOM     56  N   UNL A   1      44.867  28.876  30.624  1.00  0.00    -0.354 N 
ATOM     57  N   UNL A   1      44.310  26.297  29.324  1.00  0.00    -0.248 NA
ATOM     58  C   UNL A   1      45.051  24.217  28.564  1.00  0.00     0.031 C 
ATOM     59  C   UNL A   1      46.911  29.251  31.403  1.00  0.00     0.029 A 
ATOM     60  C   UNL A   1      46.119  28.307  30.768  1.00  0.00     0.049 A 
ATOM     61  H   UNL A   1      44.094  28.442  30.195  1.00  0.00     0.167 HD
ATOM     62  C   UNL A   1      45.648  26.132  29.671  1.00  0.00     0.074 A 
ATOM     63  C   UNL A   1      46.042  24.818  29.209  1.00  0.00     0.031 C 
ATOM     64  C   UNL A   1      46.477  26.986  30.320  1.00  0.00     0.031 A 
BRANCH  51  65
ATOM     65  C   UNL A   1      43.837  32.402  31.744  1.00  0.00    -0.014 A 
ATOM     66  C   UNL A   1      43.359  32.677  33.038  1.00  0.00     0.009 A 
ATOM     67  C   UNL A   1      44.317  33.455  30.955  1.00  0.00     0.009 A 
ATOM     68  C   UNL A   1      43.296  33.991  33.502  1.00  0.00     0.001 A 
ATOM     69  C   UNL A   1      44.285  34.765  31.437  1.00  0.00     0.001 A 
ATOM     70  C   UNL A   1      43.759  35.033  32.700  1.00  0.00     0.000 A 
ENDBRANCH  51  65
BRANCH  52  71
ATOM     71  C   UNL A   1      42.434  23.425  27.574  1.00  0.00    -0.014 A 
ATOM     72  C   UNL A   1      42.702  23.217  26.209  1.00  0.00     0.009 A 
ATOM     73  C   UNL A   1      41.920  22.355  28.322  1.00  0.00     0.009 A 
ATOM     74  C   UNL A   1      42.422  21.989  25.600  1.00  0.00     0.001 A 
ATOM     75  C   UNL A   1      41.666  21.118  27.718  1.00  0.00     0.001 A 
ATOM     76  C   UNL A   1      41.906  20.940  26.356  1.00  0.00     0.000 A 
ENDBRANCH  52  71
BRANCH  64  77
ATOM     77  C   UNL A   1      47.869  26.512  30.632  1.00  0.00    -0.014 A 
ATOM     78  C   UNL A   1      48.173  25.853  31.832  1.00  0.00     0.009 A 
ATOM     79  C   UNL A   1      48.875  26.660  29.662  1.00  0.00     0.009 A 
ATOM     80  C   UNL A   1      49.464  25.373  32.064  1.00  0.00     0.001 A 
ATOM     81  C   UNL A   1      50.156  26.151  29.885  1.00  0.00     0.001 A 
ATOM     82  C   UNL A   1      50.450  25.515  31.088  1.00  0.00     0.000 A 
ENDBRANCH  64  77
ENDBRANCH  38  39
ENDBRANCH  31  33
ENDBRANCH  30  31
ENDBRANCH  29  30
ENDBRANCH   1  29
TORSDOF 15
ENDMDL
MODEL 2
REMARK VINA RESULT:     -13.8      2.691      3.581
REMARK SMILES O=C(OCCOC(=O)c1ccc(-c2c3nc(c(-c4ccccc4)c4ccc([nH]4)c(-c4ccccc4)c4nc(c(-c5ccccc5)c5ccc2[nH]5)C=C4)C=C3)cc1)C1=Cc2cc(Cl)cc(-c3ccc(CO)cc3)c2O[C@@H]1C(F)(F)F
REMARK SMILES IDX 4 1 3 2 2 3 1 4 57 5 58 6 75 7 59 8 74 9 60 10 73 11 61 12
REMARK SMILES IDX 64 13 62 14 63 15 76 16 77 17 78 18 79 19 65 20 66 21 72 22
REMARK SMILES IDX 67 23 71 24 68 25 69 26 70 27 5 29 6 30 7 31 8 32 9 33 10 34
REMARK SMILES IDX 56 35 11 36 55 37 12 38 13 39 14 40 49 41 15 42 54 43 48 44
REMARK SMILES IDX 50 45 16 46 53 47 47 48 46 49 17 51 39 52 24 53 38 54 25 55
REMARK SMILES IDX 28 56 37 57 51 58 26 59 27 60 36 62 52 63 29 64 18 65 19 66
REMARK SMILES IDX 23 67 20 68 22 69 21 70 40 71 41 72 45 73 42 74 44 75 43 76
REMARK SMILES IDX 30 77 31 78 35 79 32 80 34 81 33 82
REMARK H PARENT 70 28 50 50 28 61
REMARK Flexibility Score: inf
ROOT
ATOM      1  C   UNL A   1      31.752  27.589  25.717  1.00  0.00     0.275 C 
ENDROOT
BRANCH   1   2
ATOM      2  O   UNL A   1      32.784  26.564  26.308  1.00  0.00    -0.459 OA
BRANCH   2   3
ATOM      3  C   UNL A   1      32.353  25.298  26.280  1.00  0.00     0.338 C 
ATOM      4  O   UNL A   1      31.907  24.593  27.149  1.00  0.00    -0.246 OA
BRANCH   3   5
ATOM      5  C   UNL A   1      32.903  25.011  24.983  1.00  0.00     0.087 C 
ATOM      6  C   UNL A   1      34.358  24.771  25.086  1.00  0.00     0.027 C 
ATOM      7  C   UNL A   1      31.594  23.692  24.453  1.00  0.00     0.316 C 
ATOM      8  C   UNL A   1      35.109  23.138  24.858  1.00  0.00     0.019 A 
ATOM      9  O   UNL A   1      32.373  21.942  24.239  1.00  0.00    -0.475 OA
ATOM     10  C   UNL A   1      36.427  23.022  25.211  1.00  0.00     0.032 A 
ATOM     11  C   UNL A   1      34.157  21.705  24.541  1.00  0.00     0.135 A 
ATOM     12  C   UNL A   1      36.895  21.711  25.295  1.00  0.00     0.042 A 
ATOM     13  C   UNL A   1      34.705  20.450  24.691  1.00  0.00     0.026 A 
ATOM     14  Cl  UNL A   1      38.532  21.488  25.821  1.00  0.00    -0.084 Cl
ATOM     15  C   UNL A   1      36.097  20.525  25.051  1.00  0.00     0.033 A 
BRANCH   7  16
ATOM     16  C   UNL A   1      30.698  24.591  23.532  1.00  0.00     0.430 C 
ATOM     17  F   UNL A   1      31.414  25.237  22.602  1.00  0.00    -0.167 F 
ATOM     18  F   UNL A   1      29.873  23.769  22.813  1.00  0.00    -0.167 F 
ATOM     19  F   UNL A   1      29.830  25.418  24.143  1.00  0.00    -0.167 F 
ENDBRANCH   7  16
BRANCH  13  20
ATOM     20  C   UNL A   1      34.100  19.127  24.704  1.00  0.00    -0.015 A 
ATOM     21  C   UNL A   1      32.920  18.932  25.450  1.00  0.00     0.009 A 
ATOM     22  C   UNL A   1      34.783  17.997  24.246  1.00  0.00     0.009 A 
ATOM     23  C   UNL A   1      32.448  17.653  25.746  1.00  0.00     0.007 A 
ATOM     24  C   UNL A   1      34.310  16.709  24.541  1.00  0.00     0.007 A 
ATOM     25  C   UNL A   1      33.143  16.527  25.297  1.00  0.00    -0.023 A 
BRANCH  25  26
ATOM     26  C   UNL A   1      32.640  15.151  25.646  1.00  0.00     0.191 C 
BRANCH  26  27
ATOM     27  O   UNL A   1      33.666  14.178  25.491  1.00  0.00    -0.392 OA
ATOM     28  H   UNL A   1      33.333  13.437  24.962  1.00  0.00     0.211 HD
ENDBRANCH  26  27
ENDBRANCH  25  26
ENDBRANCH  13  20
ENDBRANCH   3   5
ENDBRANCH   2   3
ENDBRANCH   1   2
BRANCH   1  29
ATOM     29  C   UNL A   1      31.848  29.737  25.892  1.00  0.00     0.275 C 
BRANCH  29  30
ATOM     30  O   UNL A   1      32.609  30.621  27.118  1.00  0.00    -0.458 OA
BRANCH  30  31
ATOM     31  C   UNL A   1      33.369  31.727  27.369  1.00  0.00     0.338 C 
ATOM     32  O   UNL A   1      33.034  32.867  27.615  1.00  0.00    -0.246 OA
BRANCH  31  33
ATOM     33  C   UNL A   1      34.745  31.184  27.608  1.00  0.00     0.060 A 
ATOM     34  C   UNL A   1      35.783  32.078  27.918  1.00  0.00     0.016 A 
ATOM     35  C   UNL A   1      34.893  29.826  27.897  1.00  0.00     0.016 A 
ATOM     36  C   UNL A   1      36.858  31.648  28.718  1.00  0.00     0.010 A 
ATOM     37  C   UNL A   1      35.976  29.397  28.670  1.00  0.00     0.010 A 
ATOM     38  C   UNL A   1      36.933  30.314  29.144  1.00  0.00    -0.014 A 
BRANCH  38  39
ATOM     39  C   UNL A   1      38.136  29.799  29.851  1.00  0.00     0.031 A 
ATOM     40  C   UNL A   1      38.344  30.324  31.241  1.00  0.00     0.074 A 
ATOM     41  C   UNL A   1      39.049  28.974  29.296  1.00  0.00     0.049 A 
ATOM     42  N   UNL A   1      39.314  30.100  32.086  1.00  0.00    -0.248 NA
ATOM     43  C   UNL A   1      37.314  31.259  31.727  1.00  0.00     0.031 C 
ATOM     44  C   UNL A   1      38.987  28.388  27.957  1.00  0.00     0.029 A 
ATOM     45  N   UNL A   1      40.234  28.491  29.809  1.00  0.00    -0.354 N 
ATOM     46  C   UNL A   1      39.003  30.863  33.203  1.00  0.00     0.074 A 
ATOM     47  C   UNL A   1      37.801  31.604  32.902  1.00  0.00     0.031 C 
ATOM     48  C   UNL A   1      40.083  27.628  27.755  1.00  0.00     0.029 A 
ATOM     49  C   UNL A   1      40.936  27.680  28.943  1.00  0.00     0.049 A 
ATOM     50  H   UNL A   1      40.552  28.707  30.715  1.00  0.00     0.167 HD
ATOM     51  C   UNL A   1      39.644  30.934  34.391  1.00  0.00     0.031 A 
ATOM     52  C   UNL A   1      42.123  27.055  29.103  1.00  0.00     0.031 A 
ATOM     53  C   UNL A   1      40.865  30.246  34.683  1.00  0.00     0.049 A 
ATOM     54  C   UNL A   1      42.866  27.209  30.414  1.00  0.00     0.074 A 
ATOM     55  C   UNL A   1      41.602  30.253  35.850  1.00  0.00     0.029 A 
ATOM     56  N   UNL A   1      41.538  29.440  33.778  1.00  0.00    -0.354 N 
ATOM     57  N   UNL A   1      42.518  27.865  31.496  1.00  0.00    -0.248 NA
ATOM     58  C   UNL A   1      44.162  26.518  30.530  1.00  0.00     0.031 C 
ATOM     59  C   UNL A   1      42.751  29.483  35.636  1.00  0.00     0.029 A 
ATOM     60  C   UNL A   1      42.695  28.954  34.356  1.00  0.00     0.049 A 
ATOM     61  H   UNL A   1      41.237  29.243  32.862  1.00  0.00     0.167 HD
ATOM     62  C   UNL A   1      43.521  27.625  32.430  1.00  0.00     0.074 A 
ATOM     63  C   UNL A   1      44.490  26.760  31.792  1.00  0.00     0.031 C 
ATOM     64  C   UNL A   1      43.630  28.073  33.706  1.00  0.00     0.031 A 
BRANCH  51  65
ATOM     65  C   UNL A   1      39.015  31.826  35.420  1.00  0.00    -0.014 A 
ATOM     66  C   UNL A   1      39.340  33.193  35.481  1.00  0.00     0.009 A 
ATOM     67  C   UNL A   1      38.176  31.278  36.400  1.00  0.00     0.009 A 
ATOM     68  C   UNL A   1      38.894  33.977  36.544  1.00  0.00     0.001 A 
ATOM     69  C   UNL A   1      37.704  32.075  37.444  1.00  0.00     0.001 A 
ATOM     70  C   UNL A   1      38.077  33.417  37.525  1.00  0.00     0.000 A 
ENDBRANCH  51  65
BRANCH  52  71
ATOM     71  C   UNL A   1      42.707  26.193  28.032  1.00  0.00    -0.014 A 
ATOM     72  C   UNL A   1      42.423  24.816  27.994  1.00  0.00     0.009 A 
ATOM     73  C   UNL A   1      43.623  26.710  27.103  1.00  0.00     0.009 A 
ATOM     74  C   UNL A   1      43.069  23.974  27.082  1.00  0.00     0.001 A 
ATOM     75  C   UNL A   1      44.247  25.870  26.172  1.00  0.00     0.001 A 
ATOM     76  C   UNL A   1      43.980  24.502  26.171  1.00  0.00     0.000 A 
ENDBRANCH  52  71
BRANCH  64  77
ATOM     77  C   UNL A   1      44.797  27.589  34.522  1.00  0.00    -0.014 A 
ATOM     78  C   UNL A   1      46.038  28.242  34.494  1.00  0.00     0.009 A 
ATOM     79  C   UNL A   1      44.617  26.505  35.397  1.00  0.00     0.009 A 
ATOM     80  C   UNL A   1      47.083  27.803  35.309  1.00  0.00     0.001 A 
ATOM     81  C   UNL A   1      45.654  26.088  36.233  1.00  0.00     0.001 A 
ATOM     82  C   UNL A   1      46.888  26.732  36.182  1.00  0.00     0.000 A 
ENDBRANCH  64  77
ENDBRANCH  38  39
ENDBRANCH  31  33
ENDBRANCH  30  31
ENDBRANCH  29  30
ENDBRANCH   1  29
TORSDOF 15
ENDMDL
MODEL 3
REMARK VINA RESULT:     -13.8      3.698      8.788
REMARK SMILES O=C(OCCOC(=O)c1ccc(-c2c3nc(c(-c4ccccc4)c4ccc([nH]4)c(-c4ccccc4)c4nc(c(-c5ccccc5)c5ccc2[nH]5)C=C4)C=C3)cc1)C1=Cc2cc(Cl)cc(-c3ccc(CO)cc3)c2O[C@@H]1C(F)(F)F
REMARK SMILES IDX 4 1 3 2 2 3 1 4 57 5 58 6 75 7 59 8 74 9 60 10 73 11 61 12
REMARK SMILES IDX 64 13 62 14 63 15 76 16 77 17 78 18 79 19 65 20 66 21 72 22
REMARK SMILES IDX 67 23 71 24 68 25 69 26 70 27 5 29 6 30 7 31 8 32 9 33 10 34
REMARK SMILES IDX 56 35 11 36 55 37 12 38 13 39 14 40 49 41 15 42 54 43 48 44
REMARK SMILES IDX 50 45 16 46 53 47 47 48 46 49 17 51 39 52 24 53 38 54 25 55
REMARK SMILES IDX 28 56 37 57 51 58 26 59 27 60 36 62 52 63 29 64 18 65 19 66
REMARK SMILES IDX 23 67 20 68 22 69 21 70 40 71 41 72 45 73 42 74 44 75 43 76
REMARK SMILES IDX 30 77 31 78 35 79 32 80 34 81 33 82
REMARK H PARENT 70 28 50 50 28 61
REMARK Flexibility Score: inf
ROOT
ATOM      1  C   UNL A   1      35.279  22.582  24.022  1.00  0.00     0.275 C 
ENDROOT
BRANCH   1   2
ATOM      2  O   UNL A   1      35.132  24.115  24.331  1.00  0.00    -0.459 OA
BRANCH   2   3
ATOM      3  C   UNL A   1      34.218  24.726  23.569  1.00  0.00     0.338 C 
ATOM      4  O   UNL A   1      34.308  25.240  22.483  1.00  0.00    -0.246 OA
BRANCH   3   5
ATOM      5  C   UNL A   1      33.237  24.829  24.615  1.00  0.00     0.087 C 
ATOM      6  C   UNL A   1      33.628  25.877  25.581  1.00  0.00     0.027 C 
ATOM      7  C   UNL A   1      31.677  24.894  23.475  1.00  0.00     0.316 C 
ATOM      8  C   UNL A   1      32.755  27.457  25.732  1.00  0.00     0.019 A 
ATOM      9  O   UNL A   1      30.757  26.583  23.601  1.00  0.00    -0.475 OA
ATOM     10  C   UNL A   1      33.364  28.417  26.496  1.00  0.00     0.032 A 
ATOM     11  C   UNL A   1      31.403  27.882  24.707  1.00  0.00     0.135 A 
ATOM     12  C   UNL A   1      32.824  29.696  26.366  1.00  0.00     0.042 A 
ATOM     13  C   UNL A   1      30.970  29.187  24.619  1.00  0.00     0.026 A 
ATOM     14  Cl  UNL A   1      33.604  30.975  27.240  1.00  0.00    -0.084 Cl
ATOM     15  C   UNL A   1      31.717  30.048  25.499  1.00  0.00     0.033 A 
BRANCH   7  16
ATOM     16  C   UNL A   1      31.213  23.402  23.611  1.00  0.00     0.430 C 
ATOM     17  F   UNL A   1      30.960  23.062  24.882  1.00  0.00    -0.167 F 
ATOM     18  F   UNL A   1      30.004  23.278  22.981  1.00  0.00    -0.167 F 
ATOM     19  F   UNL A   1      31.963  22.470  22.994  1.00  0.00    -0.167 F 
ENDBRANCH   7  16
BRANCH  13  20
ATOM     20  C   UNL A   1      30.038  29.838  23.710  1.00  0.00    -0.015 A 
ATOM     21  C   UNL A   1      30.089  29.505  22.341  1.00  0.00     0.009 A 
ATOM     22  C   UNL A   1      29.301  30.964  24.086  1.00  0.00     0.009 A 
ATOM     23  C   UNL A   1      29.442  30.281  21.379  1.00  0.00     0.007 A 
ATOM     24  C   UNL A   1      28.649  31.745  23.121  1.00  0.00     0.007 A 
ATOM     25  C   UNL A   1      28.719  31.414  21.760  1.00  0.00    -0.023 A 
BRANCH  25  26
ATOM     26  C   UNL A   1      28.048  32.259  20.710  1.00  0.00     0.191 C 
BRANCH  26  27
ATOM     27  O   UNL A   1      27.632  33.508  21.250  1.00  0.00    -0.392 OA
ATOM     28  H   UNL A   1      27.008  33.932  20.641  1.00  0.00     0.211 HD
ENDBRANCH  26  27
ENDBRANCH  25  26
ENDBRANCH  13  20
ENDBRANCH   3   5
ENDBRANCH   2   3
ENDBRANCH   1   2
BRANCH   1  29
ATOM     29  C   UNL A   1      36.623  21.209  25.004  1.00  0.00     0.275 C 
BRANCH  29  30
ATOM     30  O   UNL A   1      38.290  21.402  25.219  1.00  0.00    -0.458 OA
BRANCH  30  31
ATOM     31  C   UNL A   1      39.330  21.137  26.063  1.00  0.00     0.338 C 
ATOM     32  O   UNL A   1      40.101  20.200  26.084  1.00  0.00    -0.246 OA
BRANCH  31  33
ATOM     33  C   UNL A   1      39.552  22.426  26.793  1.00  0.00     0.060 A 
ATOM     34  C   UNL A   1      40.642  22.529  27.673  1.00  0.00     0.016 A 
ATOM     35  C   UNL A   1      38.939  23.586  26.315  1.00  0.00     0.016 A 
ATOM     36  C   UNL A   1      41.252  23.779  27.886  1.00  0.00     0.010 A 
ATOM     37  C   UNL A   1      39.532  24.831  26.550  1.00  0.00     0.010 A 
ATOM     38  C   UNL A   1      40.730  24.932  27.281  1.00  0.00    -0.014 A 
BRANCH  38  39
ATOM     39  C   UNL A   1      41.256  26.282  27.618  1.00  0.00     0.031 A 
ATOM     40  C   UNL A   1      42.611  26.606  27.064  1.00  0.00     0.074 A 
ATOM     41  C   UNL A   1      40.628  27.162  28.426  1.00  0.00     0.049 A 
ATOM     42  N   UNL A   1      43.348  27.673  27.217  1.00  0.00    -0.248 NA
ATOM     43  C   UNL A   1      43.227  25.551  26.238  1.00  0.00     0.031 C 
ATOM     44  C   UNL A   1      39.314  26.987  29.044  1.00  0.00     0.029 A 
ATOM     45  N   UNL A   1      41.038  28.400  28.877  1.00  0.00    -0.354 N 
ATOM     46  C   UNL A   1      44.509  27.416  26.501  1.00  0.00     0.074 A 
ATOM     47  C   UNL A   1      44.409  26.075  25.976  1.00  0.00     0.031 C 
ATOM     48  C   UNL A   1      39.028  28.073  29.792  1.00  0.00     0.029 A 
ATOM     49  C   UNL A   1      40.141  29.020  29.720  1.00  0.00     0.049 A 
ATOM     50  H   UNL A   1      41.897  28.805  28.619  1.00  0.00     0.167 HD
ATOM     51  C   UNL A   1      45.568  28.226  26.276  1.00  0.00     0.031 A 
ATOM     52  C   UNL A   1      40.218  30.213  30.350  1.00  0.00     0.031 A 
ATOM     53  C   UNL A   1      45.704  29.537  26.834  1.00  0.00     0.049 A 
ATOM     54  C   UNL A   1      41.448  31.075  30.147  1.00  0.00     0.074 A 
ATOM     55  C   UNL A   1      46.736  30.440  26.677  1.00  0.00     0.029 A 
ATOM     56  N   UNL A   1      44.775  30.121  27.681  1.00  0.00    -0.354 N 
ATOM     57  N   UNL A   1      42.503  30.857  29.397  1.00  0.00    -0.248 NA
ATOM     58  C   UNL A   1      41.486  32.358  30.869  1.00  0.00     0.031 C 
ATOM     59  C   UNL A   1      46.452  31.559  27.469  1.00  0.00     0.029 A 
ATOM     60  C   UNL A   1      45.217  31.372  28.070  1.00  0.00     0.049 A 
ATOM     61  H   UNL A   1      43.926  29.708  27.963  1.00  0.00     0.167 HD
ATOM     62  C   UNL A   1      43.299  31.991  29.518  1.00  0.00     0.074 A 
ATOM     63  C   UNL A   1      42.607  32.897  30.408  1.00  0.00     0.031 C 
ATOM     64  C   UNL A   1      44.495  32.265  28.938  1.00  0.00     0.031 A 
BRANCH  51  65
ATOM     65  C   UNL A   1      46.652  27.659  25.408  1.00  0.00    -0.014 A 
ATOM     66  C   UNL A   1      47.681  26.877  25.965  1.00  0.00     0.009 A 
ATOM     67  C   UNL A   1      46.706  27.993  24.049  1.00  0.00     0.009 A 
ATOM     68  C   UNL A   1      48.778  26.503  25.191  1.00  0.00     0.001 A 
ATOM     69  C   UNL A   1      47.790  27.587  23.269  1.00  0.00     0.001 A 
ATOM     70  C   UNL A   1      48.832  26.859  23.844  1.00  0.00     0.000 A 
ENDBRANCH  51  65
BRANCH  52  71
ATOM     71  C   UNL A   1      39.111  30.716  31.217  1.00  0.00    -0.014 A 
ATOM     72  C   UNL A   1      38.108  31.544  30.680  1.00  0.00     0.009 A 
ATOM     73  C   UNL A   1      39.095  30.459  32.596  1.00  0.00     0.009 A 
ATOM     74  C   UNL A   1      37.144  32.132  31.505  1.00  0.00     0.001 A 
ATOM     75  C   UNL A   1      38.113  31.027  33.417  1.00  0.00     0.001 A 
ATOM     76  C   UNL A   1      37.146  31.873  32.873  1.00  0.00     0.000 A 
ENDBRANCH  52  71
BRANCH  64  77
ATOM     77  C   UNL A   1      45.104  33.616  29.190  1.00  0.00    -0.014 A 
ATOM     78  C   UNL A   1      46.014  33.832  30.235  1.00  0.00     0.009 A 
ATOM     79  C   UNL A   1      44.818  34.671  28.306  1.00  0.00     0.009 A 
ATOM     80  C   UNL A   1      46.606  35.086  30.404  1.00  0.00     0.001 A 
ATOM     81  C   UNL A   1      45.435  35.913  28.460  1.00  0.00     0.001 A 
ATOM     82  C   UNL A   1      46.322  36.121  29.513  1.00  0.00     0.000 A 
ENDBRANCH  64  77
ENDBRANCH  38  39
ENDBRANCH  31  33
ENDBRANCH  30  31
ENDBRANCH  29  30
ENDBRANCH   1  29
TORSDOF 15
ENDMDL
