MODEL 1
REMARK VINA RESULT:     -10.6      0.000      0.000
REMARK SMILES C[N@H+]1CCO[C@@H](CN2C[C@H](C(=O)OCCOC(=O)c3ccc(-c4c5nc(c(-c6ccccc6)c6ccc([nH]6)c(-c6ccccc6)c6nc(c(-c7ccccc7)c7ccc4[nH]7)C=C6)C=C5)cc3)CC2=O)C1
REMARK SMILES IDX 14 1 13 2 11 3 12 4 10 5 8 6 9 7 68 8 67 9 69 10 7 11 6 12
REMARK SMILES IDX 1 13 2 14 3 15 70 16 4 18 5 19 15 20 16 21 17 22 18 23 19 24
REMARK SMILES IDX 20 25 66 26 21 27 65 28 22 29 23 30 24 31 59 32 25 33 64 34
REMARK SMILES IDX 58 35 60 36 26 37 63 38 57 39 56 40 27 42 49 43 34 44 48 45
REMARK SMILES IDX 35 46 38 47 47 48 61 49 36 50 37 51 46 53 62 54 39 55 28 56
REMARK SMILES IDX 29 57 33 58 30 59 32 60 31 61 50 62 51 63 55 64 52 65 54 66
REMARK SMILES IDX 53 67 40 68 41 69 45 70 42 71 44 72 43 73
REMARK H PARENT 2 17 60 41 38 52
REMARK Flexibility Score: inf
ROOT
ATOM      1  C   UNL A   1      34.624  20.944  24.643  1.00  0.00     0.274 C 
ENDROOT
BRANCH   1   2
ATOM      2  O   UNL A   1      34.069  22.223  24.271  1.00  0.00    -0.462 OA
BRANCH   2   3
ATOM      3  C   UNL A   1      32.729  22.362  24.474  1.00  0.00     0.311 C 
ATOM      4  O   UNL A   1      32.164  22.185  25.544  1.00  0.00    -0.252 OA
BRANCH   3   5
ATOM      5  C   UNL A   1      32.019  22.700  23.178  1.00  0.00     0.128 C 
ATOM      6  N   UNL A   1      31.877  25.024  22.917  1.00  0.00    -0.339 N 
ATOM      7  C   UNL A   1      31.102  23.896  23.370  1.00  0.00     0.135 C 
ATOM      8  C   UNL A   1      32.940  24.641  22.121  1.00  0.00     0.223 C 
ATOM      9  C   UNL A   1      32.976  23.131  22.069  1.00  0.00     0.117 C 
ATOM     10  O   UNL A   1      33.729  25.380  21.558  1.00  0.00    -0.275 OA
BRANCH   6  11
ATOM     11  C   UNL A   1      31.664  26.359  23.460  1.00  0.00     0.157 C 
BRANCH  11  12
ATOM     12  C   UNL A   1      32.264  26.663  24.845  1.00  0.00     0.192 C 
ATOM     13  C   UNL A   1      33.998  28.684  22.927  1.00  0.00     0.332 C 
ATOM     14  N   UNL A   1      33.935  28.549  24.373  1.00  0.00    -0.333 N 
ATOM     15  C   UNL A   1      32.956  29.451  25.003  1.00  0.00     0.290 C 
ATOM     16  C   UNL A   1      33.722  27.167  24.838  1.00  0.00     0.296 C 
ATOM     17  H   UNL A   1      34.865  28.834  24.678  1.00  0.00     0.348 HD
ATOM     18  C   UNL A   1      31.509  28.928  25.058  1.00  0.00     0.222 C 
ATOM     19  O   UNL A   1      31.421  27.592  25.562  1.00  0.00    -0.365 OA
ENDBRANCH  11  12
ENDBRANCH   6  11
ENDBRANCH   3   5
ENDBRANCH   2   3
ENDBRANCH   1   2
BRANCH   1  20
ATOM     20  C   UNL A   1      35.766  21.103  25.641  1.00  0.00     0.275 C 
BRANCH  20  21
ATOM     21  O   UNL A   1      36.933  21.618  24.976  1.00  0.00    -0.458 OA
BRANCH  21  22
ATOM     22  C   UNL A   1      38.121  21.212  25.478  1.00  0.00     0.338 C 
ATOM     23  O   UNL A   1      38.607  20.096  25.422  1.00  0.00    -0.246 OA
BRANCH  22  24
ATOM     24  C   UNL A   1      38.807  22.350  26.110  1.00  0.00     0.060 A 
ATOM     25  C   UNL A   1      38.282  23.628  25.957  1.00  0.00     0.016 A 
ATOM     26  C   UNL A   1      40.049  22.173  26.721  1.00  0.00     0.016 A 
ATOM     27  C   UNL A   1      39.041  24.737  26.325  1.00  0.00     0.010 A 
ATOM     28  C   UNL A   1      40.762  23.290  27.183  1.00  0.00     0.010 A 
ATOM     29  C   UNL A   1      40.278  24.589  26.958  1.00  0.00    -0.014 A 
BRANCH  29  30
ATOM     30  C   UNL A   1      41.069  25.802  27.310  1.00  0.00     0.031 A 
ATOM     31  C   UNL A   1      40.548  26.776  28.333  1.00  0.00     0.074 A 
ATOM     32  C   UNL A   1      42.292  26.007  26.778  1.00  0.00     0.049 A 
ATOM     33  N   UNL A   1      41.000  27.962  28.654  1.00  0.00    -0.248 NA
ATOM     34  C   UNL A   1      39.358  26.361  29.092  1.00  0.00     0.031 C 
ATOM     35  C   UNL A   1      42.986  25.101  25.860  1.00  0.00     0.029 A 
ATOM     36  N   UNL A   1      43.183  27.038  26.958  1.00  0.00    -0.354 N 
ATOM     37  C   UNL A   1      40.120  28.457  29.607  1.00  0.00     0.074 A 
ATOM     38  C   UNL A   1      39.109  27.443  29.816  1.00  0.00     0.031 C 
ATOM     39  C   UNL A   1      44.209  25.588  25.603  1.00  0.00     0.029 A 
ATOM     40  C   UNL A   1      44.351  26.887  26.252  1.00  0.00     0.049 A 
ATOM     41  H   UNL A   1      43.001  27.812  27.538  1.00  0.00     0.167 HD
ATOM     42  C   UNL A   1      40.149  29.651  30.248  1.00  0.00     0.031 A 
ATOM     43  C   UNL A   1      45.403  27.714  26.101  1.00  0.00     0.031 A 
ATOM     44  C   UNL A   1      41.179  30.642  30.078  1.00  0.00     0.049 A 
ATOM     45  C   UNL A   1      45.375  29.066  26.756  1.00  0.00     0.074 A 
ATOM     46  C   UNL A   1      41.278  31.894  30.662  1.00  0.00     0.029 A 
ATOM     47  N   UNL A   1      42.303  30.482  29.283  1.00  0.00    -0.354 N 
ATOM     48  N   UNL A   1      44.479  29.572  27.566  1.00  0.00    -0.248 NA
ATOM     49  C   UNL A   1      46.492  29.971  26.449  1.00  0.00     0.031 C 
ATOM     50  C   UNL A   1      42.442  32.508  30.187  1.00  0.00     0.029 A 
ATOM     51  C   UNL A   1      43.092  31.619  29.347  1.00  0.00     0.049 A 
ATOM     52  H   UNL A   1      42.510  29.680  28.752  1.00  0.00     0.167 HD
ATOM     53  C   UNL A   1      44.925  30.851  27.872  1.00  0.00     0.074 A 
ATOM     54  C   UNL A   1      46.184  31.034  27.180  1.00  0.00     0.031 C 
ATOM     55  C   UNL A   1      44.338  31.793  28.649  1.00  0.00     0.031 A 
BRANCH  42  56
ATOM     56  C   UNL A   1      38.989  29.978  31.145  1.00  0.00    -0.014 A 
ATOM     57  C   UNL A   1      39.056  29.804  32.535  1.00  0.00     0.009 A 
ATOM     58  C   UNL A   1      37.812  30.495  30.579  1.00  0.00     0.009 A 
ATOM     59  C   UNL A   1      37.954  30.110  33.336  1.00  0.00     0.001 A 
ATOM     60  C   UNL A   1      36.722  30.824  31.385  1.00  0.00     0.001 A 
ATOM     61  C   UNL A   1      36.790  30.622  32.763  1.00  0.00     0.000 A 
ENDBRANCH  42  56
BRANCH  43  62
ATOM     62  C   UNL A   1      46.540  27.321  25.228  1.00  0.00    -0.014 A 
ATOM     63  C   UNL A   1      46.709  27.905  23.964  1.00  0.00     0.009 A 
ATOM     64  C   UNL A   1      47.458  26.345  25.651  1.00  0.00     0.009 A 
ATOM     65  C   UNL A   1      47.762  27.508  23.136  1.00  0.00     0.001 A 
ATOM     66  C   UNL A   1      48.528  25.974  24.836  1.00  0.00     0.001 A 
ATOM     67  C   UNL A   1      48.674  26.549  23.575  1.00  0.00     0.000 A 
ENDBRANCH  43  62
BRANCH  55  68
ATOM     68  C   UNL A   1      45.065  33.097  28.809  1.00  0.00    -0.014 A 
ATOM     69  C   UNL A   1      46.023  33.274  29.818  1.00  0.00     0.009 A 
ATOM     70  C   UNL A   1      44.806  34.152  27.920  1.00  0.00     0.009 A 
ATOM     71  C   UNL A   1      46.686  34.495  29.953  1.00  0.00     0.001 A 
ATOM     72  C   UNL A   1      45.489  35.363  28.044  1.00  0.00     0.001 A 
ATOM     73  C   UNL A   1      46.421  35.536  29.064  1.00  0.00     0.000 A 
ENDBRANCH  55  68
ENDBRANCH  29  30
ENDBRANCH  22  24
ENDBRANCH  21  22
ENDBRANCH  20  21
ENDBRANCH   1  20
TORSDOF 13
ENDMDL
MODEL 2
REMARK VINA RESULT:     -10.6      1.068      2.070
REMARK SMILES C[N@H+]1CCO[C@@H](CN2C[C@H](C(=O)OCCOC(=O)c3ccc(-c4c5nc(c(-c6ccccc6)c6ccc([nH]6)c(-c6ccccc6)c6nc(c(-c7ccccc7)c7ccc4[nH]7)C=C6)C=C5)cc3)CC2=O)C1
REMARK SMILES IDX 14 1 13 2 11 3 12 4 10 5 8 6 9 7 68 8 67 9 69 10 7 11 6 12
REMARK SMILES IDX 1 13 2 14 3 15 70 16 4 18 5 19 15 20 16 21 17 22 18 23 19 24
REMARK SMILES IDX 20 25 66 26 21 27 65 28 22 29 23 30 24 31 59 32 25 33 64 34
REMARK SMILES IDX 58 35 60 36 26 37 63 38 57 39 56 40 27 42 49 43 34 44 48 45
REMARK SMILES IDX 35 46 38 47 47 48 61 49 36 50 37 51 46 53 62 54 39 55 28 56
REMARK SMILES IDX 29 57 33 58 30 59 32 60 31 61 50 62 51 63 55 64 52 65 54 66
REMARK SMILES IDX 53 67 40 68 41 69 45 70 42 71 44 72 43 73
REMARK H PARENT 2 17 60 41 38 52
REMARK Flexibility Score: inf
ROOT
ATOM      1  C   UNL A   1      34.785  20.581  24.676  1.00  0.00     0.274 C 
ENDROOT
BRANCH   1   2
ATOM      2  O   UNL A   1      33.828  21.660  24.626  1.00  0.00    -0.462 OA
BRANCH   2   3
ATOM      3  C   UNL A   1      32.763  21.539  25.468  1.00  0.00     0.311 C 
ATOM      4  O   UNL A   1      31.781  20.843  25.252  1.00  0.00    -0.252 OA
BRANCH   3   5
ATOM      5  C   UNL A   1      32.927  22.437  26.679  1.00  0.00     0.128 C 
ATOM      6  N   UNL A   1      32.642  24.679  26.065  1.00  0.00    -0.339 N 
ATOM      7  C   UNL A   1      33.676  23.704  26.304  1.00  0.00     0.135 C 
ATOM      8  C   UNL A   1      31.434  24.308  26.625  1.00  0.00     0.223 C 
ATOM      9  C   UNL A   1      31.595  22.935  27.235  1.00  0.00     0.117 C 
ATOM     10  O   UNL A   1      30.404  24.959  26.628  1.00  0.00    -0.275 OA
BRANCH   6  11
ATOM     11  C   UNL A   1      32.841  25.784  25.136  1.00  0.00     0.157 C 
BRANCH  11  12
ATOM     12  C   UNL A   1      33.519  25.464  23.792  1.00  0.00     0.192 C 
ATOM     13  C   UNL A   1      30.390  24.725  23.134  1.00  0.00     0.332 C 
ATOM     14  N   UNL A   1      31.561  24.800  22.276  1.00  0.00    -0.333 N 
ATOM     15  C   UNL A   1      31.732  26.114  21.633  1.00  0.00     0.290 C 
ATOM     16  C   UNL A   1      32.814  24.392  22.934  1.00  0.00     0.296 C 
ATOM     17  H   UNL A   1      31.362  24.117  21.545  1.00  0.00     0.348 HD
ATOM     18  C   UNL A   1      32.481  27.169  22.466  1.00  0.00     0.222 C 
ATOM     19  O   UNL A   1      33.702  26.673  23.022  1.00  0.00    -0.365 OA
ENDBRANCH  11  12
ENDBRANCH   6  11
ENDBRANCH   3   5
ENDBRANCH   2   3
ENDBRANCH   1   2
BRANCH   1  20
ATOM     20  C   UNL A   1      35.899  20.873  25.677  1.00  0.00     0.275 C 
BRANCH  20  21
ATOM     21  O   UNL A   1      37.044  21.413  24.995  1.00  0.00    -0.458 OA
BRANCH  21  22
ATOM     22  C   UNL A   1      38.248  21.043  25.488  1.00  0.00     0.338 C 
ATOM     23  O   UNL A   1      38.767  19.941  25.432  1.00  0.00    -0.246 OA
BRANCH  22  24
ATOM     24  C   UNL A   1      38.906  22.203  26.111  1.00  0.00     0.060 A 
ATOM     25  C   UNL A   1      38.374  23.472  25.911  1.00  0.00     0.016 A 
ATOM     26  C   UNL A   1      40.132  22.053  26.761  1.00  0.00     0.016 A 
ATOM     27  C   UNL A   1      39.111  24.596  26.273  1.00  0.00     0.010 A 
ATOM     28  C   UNL A   1      40.820  23.188  27.215  1.00  0.00     0.010 A 
ATOM     29  C   UNL A   1      40.332  24.477  26.944  1.00  0.00    -0.014 A 
BRANCH  29  30
ATOM     30  C   UNL A   1      41.102  25.705  27.288  1.00  0.00     0.031 A 
ATOM     31  C   UNL A   1      40.558  26.681  28.298  1.00  0.00     0.074 A 
ATOM     32  C   UNL A   1      42.325  25.924  26.762  1.00  0.00     0.049 A 
ATOM     33  N   UNL A   1      40.990  27.878  28.609  1.00  0.00    -0.248 NA
ATOM     34  C   UNL A   1      39.371  26.255  29.054  1.00  0.00     0.031 C 
ATOM     35  C   UNL A   1      43.038  25.019  25.858  1.00  0.00     0.029 A 
ATOM     36  N   UNL A   1      43.198  26.971  26.936  1.00  0.00    -0.354 N 
ATOM     37  C   UNL A   1      40.097  28.368  29.552  1.00  0.00     0.074 A 
ATOM     38  C   UNL A   1      39.100  27.341  29.765  1.00  0.00     0.031 C 
ATOM     39  C   UNL A   1      44.255  25.522  25.602  1.00  0.00     0.029 A 
ATOM     40  C   UNL A   1      44.373  26.830  26.238  1.00  0.00     0.049 A 
ATOM     41  H   UNL A   1      43.000  27.748  27.507  1.00  0.00     0.167 HD
ATOM     42  C   UNL A   1      40.103  29.569  30.180  1.00  0.00     0.031 A 
ATOM     43  C   UNL A   1      45.412  27.672  26.086  1.00  0.00     0.031 A 
ATOM     44  C   UNL A   1      41.118  30.575  30.006  1.00  0.00     0.049 A 
ATOM     45  C   UNL A   1      45.359  29.030  26.726  1.00  0.00     0.074 A 
ATOM     46  C   UNL A   1      41.194  31.834  30.578  1.00  0.00     0.029 A 
ATOM     47  N   UNL A   1      42.249  30.424  29.220  1.00  0.00    -0.354 N 
ATOM     48  N   UNL A   1      44.450  29.531  27.526  1.00  0.00    -0.248 NA
ATOM     49  C   UNL A   1      46.463  29.950  26.417  1.00  0.00     0.031 C 
ATOM     50  C   UNL A   1      42.351  32.462  30.103  1.00  0.00     0.029 A 
ATOM     51  C   UNL A   1      43.020  31.574  29.276  1.00  0.00     0.049 A 
ATOM     52  H   UNL A   1      42.473  29.620  28.698  1.00  0.00     0.167 HD
ATOM     53  C   UNL A   1      44.874  30.819  27.820  1.00  0.00     0.074 A 
ATOM     54  C   UNL A   1      46.134  31.015  27.134  1.00  0.00     0.031 C 
ATOM     55  C   UNL A   1      44.267  31.760  28.585  1.00  0.00     0.031 A 
BRANCH  42  56
ATOM     56  C   UNL A   1      38.933  29.888  31.067  1.00  0.00    -0.014 A 
ATOM     57  C   UNL A   1      38.982  29.698  32.455  1.00  0.00     0.009 A 
ATOM     58  C   UNL A   1      37.763  30.412  30.493  1.00  0.00     0.009 A 
ATOM     59  C   UNL A   1      37.870  29.995  33.247  1.00  0.00     0.001 A 
ATOM     60  C   UNL A   1      36.663  30.733  31.289  1.00  0.00     0.001 A 
ATOM     61  C   UNL A   1      36.715  30.515  32.665  1.00  0.00     0.000 A 
ENDBRANCH  42  56
BRANCH  43  62
ATOM     62  C   UNL A   1      46.561  27.289  25.223  1.00  0.00    -0.014 A 
ATOM     63  C   UNL A   1      47.514  26.361  25.668  1.00  0.00     0.009 A 
ATOM     64  C   UNL A   1      46.719  27.864  23.952  1.00  0.00     0.009 A 
ATOM     65  C   UNL A   1      48.608  26.030  24.865  1.00  0.00     0.001 A 
ATOM     66  C   UNL A   1      47.793  27.507  23.137  1.00  0.00     0.001 A 
ATOM     67  C   UNL A   1      48.743  26.597  23.598  1.00  0.00     0.000 A 
ENDBRANCH  43  62
BRANCH  55  68
ATOM     68  C   UNL A   1      44.973  33.077  28.735  1.00  0.00    -0.014 A 
ATOM     69  C   UNL A   1      44.704  34.147  27.868  1.00  0.00     0.009 A 
ATOM     70  C   UNL A   1      45.900  33.256  29.773  1.00  0.00     0.009 A 
ATOM     71  C   UNL A   1      45.374  35.362  28.020  1.00  0.00     0.001 A 
ATOM     72  C   UNL A   1      46.550  34.480  29.937  1.00  0.00     0.001 A 
ATOM     73  C   UNL A   1      46.292  35.529  29.057  1.00  0.00     0.000 A 
ENDBRANCH  55  68
ENDBRANCH  29  30
ENDBRANCH  22  24
ENDBRANCH  21  22
ENDBRANCH  20  21
ENDBRANCH   1  20
TORSDOF 13
ENDMDL
MODEL 3
REMARK VINA RESULT:     -10.6      3.570      8.859
REMARK SMILES C[N@H+]1CCO[C@@H](CN2C[C@H](C(=O)OCCOC(=O)c3ccc(-c4c5nc(c(-c6ccccc6)c6ccc([nH]6)c(-c6ccccc6)c6nc(c(-c7ccccc7)c7ccc4[nH]7)C=C6)C=C5)cc3)CC2=O)C1
REMARK SMILES IDX 14 1 13 2 11 3 12 4 10 5 8 6 9 7 68 8 67 9 69 10 7 11 6 12
REMARK SMILES IDX 1 13 2 14 3 15 70 16 4 18 5 19 15 20 16 21 17 22 18 23 19 24
REMARK SMILES IDX 20 25 66 26 21 27 65 28 22 29 23 30 24 31 59 32 25 33 64 34
REMARK SMILES IDX 58 35 60 36 26 37 63 38 57 39 56 40 27 42 49 43 34 44 48 45
REMARK SMILES IDX 35 46 38 47 47 48 61 49 36 50 37 51 46 53 62 54 39 55 28 56
REMARK SMILES IDX 29 57 33 58 30 59 32 60 31 61 50 62 51 63 55 64 52 65 54 66
REMARK SMILES IDX 53 67 40 68 41 69 45 70 42 71 44 72 43 73
REMARK H PARENT 2 17 60 41 38 52
REMARK Flexibility Score: inf
ROOT
ATOM      1  C   UNL A   1      31.421  29.199  24.533  1.00  0.00     0.274 C 
ENDROOT
BRANCH   1   2
ATOM      2  O   UNL A   1      31.366  27.996  25.328  1.00  0.00    -0.462 OA
BRANCH   2   3
ATOM      3  C   UNL A   1      31.677  26.844  24.671  1.00  0.00     0.311 C 
ATOM      4  O   UNL A   1      32.778  26.581  24.209  1.00  0.00    -0.252 OA
BRANCH   3   5
ATOM      5  C   UNL A   1      30.456  25.956  24.530  1.00  0.00     0.128 C 
ATOM      6  N   UNL A   1      30.996  23.745  25.084  1.00  0.00    -0.339 N 
ATOM      7  C   UNL A   1      30.842  24.610  23.941  1.00  0.00     0.135 C 
ATOM      8  C   UNL A   1      30.376  24.253  26.210  1.00  0.00     0.223 C 
ATOM      9  C   UNL A   1      29.811  25.613  25.870  1.00  0.00     0.117 C 
ATOM     10  O   UNL A   1      30.297  23.714  27.301  1.00  0.00    -0.275 OA
BRANCH   6  11
ATOM     11  C   UNL A   1      31.908  22.609  25.059  1.00  0.00     0.157 C 
BRANCH  11  12
ATOM     12  C   UNL A   1      33.195  22.716  25.897  1.00  0.00     0.192 C 
ATOM     13  C   UNL A   1      33.024  19.480  25.377  1.00  0.00     0.332 C 
ATOM     14  N   UNL A   1      34.063  20.304  25.972  1.00  0.00    -0.333 N 
ATOM     15  C   UNL A   1      35.088  20.740  25.009  1.00  0.00     0.290 C 
ATOM     16  C   UNL A   1      33.551  21.464  26.725  1.00  0.00     0.296 C 
ATOM     17  H   UNL A   1      34.508  19.677  26.642  1.00  0.00     0.348 HD
ATOM     18  C   UNL A   1      34.758  22.019  24.219  1.00  0.00     0.222 C 
ATOM     19  O   UNL A   1      34.309  23.088  25.056  1.00  0.00    -0.365 OA
ENDBRANCH  11  12
ENDBRANCH   6  11
ENDBRANCH   3   5
ENDBRANCH   2   3
ENDBRANCH   1   2
BRANCH   1  20
ATOM     20  C   UNL A   1      31.413  30.446  25.410  1.00  0.00     0.275 C 
BRANCH  20  21
ATOM     21  O   UNL A   1      32.308  30.272  26.522  1.00  0.00    -0.458 OA
BRANCH  21  22
ATOM     22  C   UNL A   1      32.838  31.406  27.031  1.00  0.00     0.338 C 
ATOM     23  O   UNL A   1      32.316  32.507  27.095  1.00  0.00    -0.246 OA
BRANCH  22  24
ATOM     24  C   UNL A   1      34.187  31.132  27.554  1.00  0.00     0.060 A 
ATOM     25  C   UNL A   1      34.564  29.818  27.799  1.00  0.00     0.016 A 
ATOM     26  C   UNL A   1      35.018  32.183  27.945  1.00  0.00     0.016 A 
ATOM     27  C   UNL A   1      35.724  29.554  28.523  1.00  0.00     0.010 A 
ATOM     28  C   UNL A   1      36.236  31.905  28.582  1.00  0.00     0.010 A 
ATOM     29  C   UNL A   1      36.587  30.584  28.909  1.00  0.00    -0.014 A 
BRANCH  29  30
ATOM     30  C   UNL A   1      37.803  30.261  29.706  1.00  0.00     0.031 A 
ATOM     31  C   UNL A   1      38.940  29.500  29.077  1.00  0.00     0.074 A 
ATOM     32  C   UNL A   1      37.939  30.707  30.972  1.00  0.00     0.049 A 
ATOM     33  N   UNL A   1      40.002  28.981  29.641  1.00  0.00    -0.248 NA
ATOM     34  C   UNL A   1      38.869  29.293  27.623  1.00  0.00     0.031 C 
ATOM     35  C   UNL A   1      36.978  31.552  31.686  1.00  0.00     0.029 A 
ATOM     36  N   UNL A   1      38.958  30.532  31.877  1.00  0.00    -0.354 N 
ATOM     37  C   UNL A   1      40.694  28.339  28.623  1.00  0.00     0.074 A 
ATOM     38  C   UNL A   1      39.936  28.535  27.406  1.00  0.00     0.031 C 
ATOM     39  C   UNL A   1      37.478  31.864  32.891  1.00  0.00     0.029 A 
ATOM     40  C   UNL A   1      38.743  31.162  33.078  1.00  0.00     0.049 A 
ATOM     41  H   UNL A   1      39.766  30.004  31.682  1.00  0.00     0.167 HD
ATOM     42  C   UNL A   1      41.856  27.644  28.696  1.00  0.00     0.031 A 
ATOM     43  C   UNL A   1      39.455  31.146  34.221  1.00  0.00     0.031 A 
ATOM     44  C   UNL A   1      42.638  27.487  29.894  1.00  0.00     0.049 A 
ATOM     45  C   UNL A   1      40.696  30.302  34.302  1.00  0.00     0.074 A 
ATOM     46  C   UNL A   1      43.813  26.777  30.072  1.00  0.00     0.029 A 
ATOM     47  N   UNL A   1      42.336  28.072  31.114  1.00  0.00    -0.354 N 
ATOM     48  N   UNL A   1      41.282  29.602  33.362  1.00  0.00    -0.248 NA
ATOM     49  C   UNL A   1      41.357  30.225  35.613  1.00  0.00     0.031 C 
ATOM     50  C   UNL A   1      44.200  26.898  31.412  1.00  0.00     0.029 A 
ATOM     51  C   UNL A   1      43.293  27.724  32.054  1.00  0.00     0.049 A 
ATOM     52  H   UNL A   1      41.558  28.649  31.287  1.00  0.00     0.167 HD
ATOM     53  C   UNL A   1      42.381  29.007  33.964  1.00  0.00     0.074 A 
ATOM     54  C   UNL A   1      42.396  29.448  35.344  1.00  0.00     0.031 C 
ATOM     55  C   UNL A   1      43.293  28.162  33.424  1.00  0.00     0.031 A 
BRANCH  42  56
ATOM     56  C   UNL A   1      42.316  26.941  27.451  1.00  0.00    -0.014 A 
ATOM     57  C   UNL A   1      41.937  25.622  27.161  1.00  0.00     0.009 A 
ATOM     58  C   UNL A   1      43.133  27.630  26.538  1.00  0.00     0.009 A 
ATOM     59  C   UNL A   1      42.394  24.997  25.999  1.00  0.00     0.001 A 
ATOM     60  C   UNL A   1      43.566  27.012  25.366  1.00  0.00     0.001 A 
ATOM     61  C   UNL A   1      43.203  25.692  25.101  1.00  0.00     0.000 A 
ENDBRANCH  42  56
BRANCH  43  62
ATOM     62  C   UNL A   1      38.969  31.890  35.412  1.00  0.00    -0.014 A 
ATOM     63  C   UNL A   1      38.188  31.253  36.388  1.00  0.00     0.009 A 
ATOM     64  C   UNL A   1      39.272  33.252  35.572  1.00  0.00     0.009 A 
ATOM     65  C   UNL A   1      37.708  31.967  37.488  1.00  0.00     0.001 A 
ATOM     66  C   UNL A   1      38.820  33.956  36.689  1.00  0.00     0.001 A 
ATOM     67  C   UNL A   1      38.031  33.315  37.642  1.00  0.00     0.000 A 
ENDBRANCH  43  62
BRANCH  55  68
ATOM     68  C   UNL A   1      44.394  27.679  34.324  1.00  0.00    -0.014 A 
ATOM     69  C   UNL A   1      44.253  26.502  35.074  1.00  0.00     0.009 A 
ATOM     70  C   UNL A   1      45.597  28.399  34.401  1.00  0.00     0.009 A 
ATOM     71  C   UNL A   1      45.286  26.071  35.908  1.00  0.00     0.001 A 
ATOM     72  C   UNL A   1      46.636  27.951  35.218  1.00  0.00     0.001 A 
ATOM     73  C   UNL A   1      46.477  26.793  35.976  1.00  0.00     0.000 A 
ENDBRANCH  55  68
ENDBRANCH  29  30
ENDBRANCH  22  24
ENDBRANCH  21  22
ENDBRANCH  20  21
ENDBRANCH   1  20
TORSDOF 13
ENDMDL
