MODEL 1
REMARK VINA RESULT:     -11.7      0.000      0.000
REMARK SMILES O=C(Nc1ccccc1C(=O)OCCOC(=O)c1ccc(-c2c3nc(c(-c4ccccc4)c4ccc([nH]4)c(-c4ccccc4)c4nc(c(-c5ccccc5)c5ccc2[nH]5)C=C4)C=C3)cc1)c1ccc(C[NH+]2CCOCC2)cc1
REMARK SMILES IDX 13 1 12 2 10 3 11 4 9 5 4 6 5 7 6 8 8 9 7 10 3 11 1 12 2 13
REMARK SMILES IDX 66 15 67 16 78 17 68 18 77 19 69 20 70 21 71 22 72 23 76 24
REMARK SMILES IDX 73 26 75 27 74 28 14 29 15 30 16 31 17 32 18 33 19 34 65 35
REMARK SMILES IDX 20 36 64 37 21 38 22 39 23 40 58 41 24 42 63 43 57 44 59 45
REMARK SMILES IDX 25 46 62 47 56 48 55 49 26 51 48 52 33 53 47 54 34 55 37 56
REMARK SMILES IDX 46 57 60 58 35 59 36 60 45 62 61 63 38 64 27 65 28 66 32 67
REMARK SMILES IDX 29 68 31 69 30 70 49 71 50 72 54 73 51 74 53 75 52 76 39 77
REMARK SMILES IDX 40 78 44 79 41 80 43 81 42 82
REMARK H PARENT 3 14 71 25 59 50 37 61
REMARK Flexibility Score: inf
ROOT
ATOM      1  C   UNL A   1      35.245  20.460  25.370  1.00  0.00     0.275 C 
ENDROOT
BRANCH   1   2
ATOM      2  O   UNL A   1      34.530  19.285  24.913  1.00  0.00    -0.458 OA
BRANCH   2   3
ATOM      3  C   UNL A   1      33.189  19.334  25.085  1.00  0.00     0.340 C 
ATOM      4  O   UNL A   1      32.542  18.556  25.769  1.00  0.00    -0.246 OA
BRANCH   3   5
ATOM      5  C   UNL A   1      32.504  20.428  24.365  1.00  0.00     0.083 A 
ATOM      6  C   UNL A   1      31.951  21.563  24.974  1.00  0.00     0.056 A 
ATOM      7  C   UNL A   1      31.343  22.535  24.155  1.00  0.00     0.027 A 
ATOM      8  C   UNL A   1      31.374  22.442  22.759  1.00  0.00     0.002 A 
ATOM      9  C   UNL A   1      32.484  20.334  22.959  1.00  0.00     0.018 A 
ATOM     10  C   UNL A   1      31.950  21.339  22.157  1.00  0.00     0.001 A 
BRANCH   6  11
ATOM     11  N   UNL A   1      31.929  21.842  26.355  1.00  0.00    -0.321 N 
ATOM     12  O   UNL A   1      32.717  22.677  28.300  1.00  0.00    -0.269 OA
ATOM     13  C   UNL A   1      32.548  22.828  27.092  1.00  0.00     0.255 C 
ATOM     14  H   UNL A   1      31.375  21.224  26.885  1.00  0.00     0.170 HD
BRANCH  13  15
ATOM     15  C   UNL A   1      32.898  24.133  26.475  1.00  0.00     0.040 A 
ATOM     16  C   UNL A   1      32.012  25.211  26.492  1.00  0.00     0.014 A 
ATOM     17  C   UNL A   1      34.168  24.302  25.915  1.00  0.00     0.014 A 
ATOM     18  C   UNL A   1      32.361  26.409  25.861  1.00  0.00     0.010 A 
ATOM     19  C   UNL A   1      34.483  25.476  25.218  1.00  0.00     0.010 A 
ATOM     20  C   UNL A   1      33.565  26.533  25.145  1.00  0.00     0.006 A 
BRANCH  20  21
ATOM     21  C   UNL A   1      33.905  27.807  24.394  1.00  0.00     0.299 C 
BRANCH  21  22
ATOM     22  N   UNL A   1      33.476  27.979  23.001  1.00  0.00    -0.327 N 
ATOM     23  C   UNL A   1      32.348  28.885  22.743  1.00  0.00     0.291 C 
ATOM     24  C   UNL A   1      33.337  26.749  22.210  1.00  0.00     0.291 C 
ATOM     25  H   UNL A   1      34.303  28.469  22.659  1.00  0.00     0.348 HD
ATOM     26  C   UNL A   1      30.965  28.213  22.753  1.00  0.00     0.221 C 
ATOM     27  C   UNL A   1      31.945  26.122  22.278  1.00  0.00     0.221 C 
ATOM     28  O   UNL A   1      30.946  27.074  21.894  1.00  0.00    -0.370 OA
ENDBRANCH  21  22
ENDBRANCH  20  21
ENDBRANCH  13  15
ENDBRANCH   6  11
ENDBRANCH   3   5
ENDBRANCH   2   3
ENDBRANCH   1   2
BRANCH   1  29
ATOM     29  C   UNL A   1      36.555  20.766  24.635  1.00  0.00     0.275 C 
BRANCH  29  30
ATOM     30  O   UNL A   1      37.304  21.817  25.274  1.00  0.00    -0.458 OA
BRANCH  30  31
ATOM     31  C   UNL A   1      38.485  21.418  25.794  1.00  0.00     0.338 C 
ATOM     32  O   UNL A   1      39.030  20.338  25.643  1.00  0.00    -0.246 OA
BRANCH  31  33
ATOM     33  C   UNL A   1      39.152  22.540  26.471  1.00  0.00     0.060 A 
ATOM     34  C   UNL A   1      38.680  23.807  26.150  1.00  0.00     0.016 A 
ATOM     35  C   UNL A   1      40.275  22.405  27.280  1.00  0.00     0.016 A 
ATOM     36  C   UNL A   1      39.331  24.956  26.559  1.00  0.00     0.010 A 
ATOM     37  C   UNL A   1      40.924  23.565  27.733  1.00  0.00     0.010 A 
ATOM     38  C   UNL A   1      40.467  24.843  27.350  1.00  0.00    -0.014 A 
BRANCH  38  39
ATOM     39  C   UNL A   1      41.239  26.071  27.631  1.00  0.00     0.031 A 
ATOM     40  C   UNL A   1      40.641  27.087  28.557  1.00  0.00     0.074 A 
ATOM     41  C   UNL A   1      42.491  26.227  27.164  1.00  0.00     0.049 A 
ATOM     42  N   UNL A   1      41.067  28.284  28.859  1.00  0.00    -0.248 NA
ATOM     43  C   UNL A   1      39.395  26.695  29.237  1.00  0.00     0.031 C 
ATOM     44  C   UNL A   1      43.232  25.237  26.384  1.00  0.00     0.029 A 
ATOM     45  N   UNL A   1      43.365  27.276  27.285  1.00  0.00    -0.354 N 
ATOM     46  C   UNL A   1      40.121  28.805  29.729  1.00  0.00     0.074 A 
ATOM     47  C   UNL A   1      39.097  27.798  29.904  1.00  0.00     0.031 C 
ATOM     48  C   UNL A   1      44.448  25.725  26.091  1.00  0.00     0.029 A 
ATOM     49  C   UNL A   1      44.540  27.090  26.598  1.00  0.00     0.049 A 
ATOM     50  H   UNL A   1      43.170  28.085  27.812  1.00  0.00     0.167 HD
ATOM     51  C   UNL A   1      40.107  30.023  30.316  1.00  0.00     0.031 A 
ATOM     52  C   UNL A   1      45.551  27.946  26.362  1.00  0.00     0.031 A 
ATOM     53  C   UNL A   1      41.133  31.010  30.123  1.00  0.00     0.049 A 
ATOM     54  C   UNL A   1      45.448  29.342  26.918  1.00  0.00     0.074 A 
ATOM     55  C   UNL A   1      41.205  32.292  30.635  1.00  0.00     0.029 A 
ATOM     56  N   UNL A   1      42.271  30.818  29.353  1.00  0.00    -0.354 N 
ATOM     57  N   UNL A   1      44.520  29.860  27.686  1.00  0.00    -0.248 NA
ATOM     58  C   UNL A   1      46.528  30.273  26.566  1.00  0.00     0.031 C 
ATOM     59  C   UNL A   1      42.358  32.897  30.124  1.00  0.00     0.029 A 
ATOM     60  C   UNL A   1      43.040  31.967  29.353  1.00  0.00     0.049 A 
ATOM     61  H   UNL A   1      42.498  29.986  28.877  1.00  0.00     0.167 HD
ATOM     62  C   UNL A   1      44.917  31.167  27.935  1.00  0.00     0.074 A 
ATOM     63  C   UNL A   1      46.179  31.356  27.247  1.00  0.00     0.031 C 
ATOM     64  C   UNL A   1      44.296  32.126  28.664  1.00  0.00     0.031 A 
BRANCH  51  65
ATOM     65  C   UNL A   1      38.903  30.367  31.146  1.00  0.00    -0.014 A 
ATOM     66  C   UNL A   1      38.868  30.140  32.530  1.00  0.00     0.009 A 
ATOM     67  C   UNL A   1      37.775  30.920  30.519  1.00  0.00     0.009 A 
ATOM     68  C   UNL A   1      37.712  30.421  33.263  1.00  0.00     0.001 A 
ATOM     69  C   UNL A   1      36.632  31.229  31.258  1.00  0.00     0.001 A 
ATOM     70  C   UNL A   1      36.597  30.969  32.627  1.00  0.00     0.000 A 
ENDBRANCH  51  65
BRANCH  52  71
ATOM     71  C   UNL A   1      46.701  27.545  25.508  1.00  0.00    -0.014 A 
ATOM     72  C   UNL A   1      46.737  27.879  24.145  1.00  0.00     0.009 A 
ATOM     73  C   UNL A   1      47.759  26.793  26.045  1.00  0.00     0.009 A 
ATOM     74  C   UNL A   1      47.792  27.444  23.336  1.00  0.00     0.001 A 
ATOM     75  C   UNL A   1      48.827  26.388  25.242  1.00  0.00     0.001 A 
ATOM     76  C   UNL A   1      48.837  26.703  23.885  1.00  0.00     0.000 A 
ENDBRANCH  52  71
BRANCH  64  77
ATOM     77  C   UNL A   1      45.000  33.445  28.800  1.00  0.00    -0.014 A 
ATOM     78  C   UNL A   1      45.956  33.668  29.802  1.00  0.00     0.009 A 
ATOM     79  C   UNL A   1      44.735  34.465  27.872  1.00  0.00     0.009 A 
ATOM     80  C   UNL A   1      46.608  34.899  29.892  1.00  0.00     0.001 A 
ATOM     81  C   UNL A   1      45.412  35.683  27.943  1.00  0.00     0.001 A 
ATOM     82  C   UNL A   1      46.340  35.901  28.959  1.00  0.00     0.000 A 
ENDBRANCH  64  77
ENDBRANCH  38  39
ENDBRANCH  31  33
ENDBRANCH  30  31
ENDBRANCH  29  30
ENDBRANCH   1  29
TORSDOF 15
ENDMDL
MODEL 2
REMARK VINA RESULT:     -11.7      1.439      3.945
REMARK SMILES O=C(Nc1ccccc1C(=O)OCCOC(=O)c1ccc(-c2c3nc(c(-c4ccccc4)c4ccc([nH]4)c(-c4ccccc4)c4nc(c(-c5ccccc5)c5ccc2[nH]5)C=C4)C=C3)cc1)c1ccc(C[NH+]2CCOCC2)cc1
REMARK SMILES IDX 13 1 12 2 10 3 11 4 9 5 4 6 5 7 6 8 8 9 7 10 3 11 1 12 2 13
REMARK SMILES IDX 66 15 67 16 78 17 68 18 77 19 69 20 70 21 71 22 72 23 76 24
REMARK SMILES IDX 73 26 75 27 74 28 14 29 15 30 16 31 17 32 18 33 19 34 65 35
REMARK SMILES IDX 20 36 64 37 21 38 22 39 23 40 58 41 24 42 63 43 57 44 59 45
REMARK SMILES IDX 25 46 62 47 56 48 55 49 26 51 48 52 33 53 47 54 34 55 37 56
REMARK SMILES IDX 46 57 60 58 35 59 36 60 45 62 61 63 38 64 27 65 28 66 32 67
REMARK SMILES IDX 29 68 31 69 30 70 49 71 50 72 54 73 51 74 53 75 52 76 39 77
REMARK SMILES IDX 40 78 44 79 41 80 43 81 42 82
REMARK H PARENT 3 14 71 25 59 50 37 61
REMARK Flexibility Score: inf
ROOT
ATOM      1  C   UNL A   1      36.454  23.183  23.642  1.00  0.00     0.275 C 
ENDROOT
BRANCH   1   2
ATOM      2  O   UNL A   1      35.038  23.424  23.454  1.00  0.00    -0.458 OA
BRANCH   2   3
ATOM      3  C   UNL A   1      34.583  24.581  23.990  1.00  0.00     0.340 C 
ATOM      4  O   UNL A   1      35.059  25.132  24.971  1.00  0.00    -0.246 OA
BRANCH   3   5
ATOM      5  C   UNL A   1      33.421  25.179  23.300  1.00  0.00     0.083 A 
ATOM      6  C   UNL A   1      32.273  25.662  23.941  1.00  0.00     0.056 A 
ATOM      7  C   UNL A   1      31.250  26.224  23.152  1.00  0.00     0.027 A 
ATOM      8  C   UNL A   1      31.402  26.404  21.773  1.00  0.00     0.002 A 
ATOM      9  C   UNL A   1      33.534  25.330  21.904  1.00  0.00     0.018 A 
ATOM     10  C   UNL A   1      32.550  25.959  21.145  1.00  0.00     0.001 A 
BRANCH   6  11
ATOM     11  N   UNL A   1      32.018  25.638  25.327  1.00  0.00    -0.321 N 
ATOM     12  O   UNL A   1      31.186  24.806  27.255  1.00  0.00    -0.269 OA
ATOM     13  C   UNL A   1      31.753  24.593  26.184  1.00  0.00     0.255 C 
ATOM     14  H   UNL A   1      32.032  26.524  25.757  1.00  0.00     0.170 HD
BRANCH  13  15
ATOM     15  C   UNL A   1      32.257  23.226  25.897  1.00  0.00     0.040 A 
ATOM     16  C   UNL A   1      33.232  22.624  26.693  1.00  0.00     0.014 A 
ATOM     17  C   UNL A   1      31.701  22.504  24.837  1.00  0.00     0.014 A 
ATOM     18  C   UNL A   1      33.713  21.353  26.363  1.00  0.00     0.010 A 
ATOM     19  C   UNL A   1      32.239  21.265  24.465  1.00  0.00     0.010 A 
ATOM     20  C   UNL A   1      33.285  20.690  25.200  1.00  0.00     0.006 A 
BRANCH  20  21
ATOM     21  C   UNL A   1      33.868  19.347  24.802  1.00  0.00     0.299 C 
BRANCH  21  22
ATOM     22  N   UNL A   1      32.982  18.204  24.550  1.00  0.00    -0.327 N 
ATOM     23  C   UNL A   1      32.868  17.187  25.604  1.00  0.00     0.291 C 
ATOM     24  C   UNL A   1      33.109  17.565  23.232  1.00  0.00     0.291 C 
ATOM     25  H   UNL A   1      32.096  18.708  24.560  1.00  0.00     0.348 HD
ATOM     26  C   UNL A   1      33.872  16.027  25.495  1.00  0.00     0.221 C 
ATOM     27  C   UNL A   1      34.136  16.435  23.187  1.00  0.00     0.221 C 
ATOM     28  O   UNL A   1      33.847  15.452  24.189  1.00  0.00    -0.370 OA
ENDBRANCH  21  22
ENDBRANCH  20  21
ENDBRANCH  13  15
ENDBRANCH   6  11
ENDBRANCH   3   5
ENDBRANCH   2   3
ENDBRANCH   1   2
BRANCH   1  29
ATOM     29  C   UNL A   1      36.815  21.864  24.335  1.00  0.00     0.275 C 
BRANCH  29  30
ATOM     30  O   UNL A   1      37.207  22.059  25.707  1.00  0.00    -0.458 OA
BRANCH  30  31
ATOM     31  C   UNL A   1      38.491  21.731  25.968  1.00  0.00     0.338 C 
ATOM     32  O   UNL A   1      39.083  20.728  25.609  1.00  0.00    -0.246 OA
BRANCH  31  33
ATOM     33  C   UNL A   1      39.179  22.846  26.636  1.00  0.00     0.060 A 
ATOM     34  C   UNL A   1      38.695  24.116  26.347  1.00  0.00     0.016 A 
ATOM     35  C   UNL A   1      40.328  22.703  27.405  1.00  0.00     0.016 A 
ATOM     36  C   UNL A   1      39.358  25.261  26.748  1.00  0.00     0.010 A 
ATOM     37  C   UNL A   1      40.990  23.859  27.851  1.00  0.00     0.010 A 
ATOM     38  C   UNL A   1      40.519  25.140  27.500  1.00  0.00    -0.014 A 
BRANCH  38  39
ATOM     39  C   UNL A   1      41.299  26.366  27.770  1.00  0.00     0.031 A 
ATOM     40  C   UNL A   1      40.716  27.384  28.702  1.00  0.00     0.074 A 
ATOM     41  C   UNL A   1      42.545  26.518  27.287  1.00  0.00     0.049 A 
ATOM     42  N   UNL A   1      41.149  28.580  28.997  1.00  0.00    -0.248 NA
ATOM     43  C   UNL A   1      39.477  26.998  29.397  1.00  0.00     0.031 C 
ATOM     44  C   UNL A   1      43.273  25.524  26.498  1.00  0.00     0.029 A 
ATOM     45  N   UNL A   1      43.424  27.564  27.396  1.00  0.00    -0.354 N 
ATOM     46  C   UNL A   1      40.215  29.105  29.878  1.00  0.00     0.074 A 
ATOM     47  C   UNL A   1      39.191  28.102  30.067  1.00  0.00     0.031 C 
ATOM     48  C   UNL A   1      44.487  26.008  26.190  1.00  0.00     0.029 A 
ATOM     49  C   UNL A   1      44.590  27.373  26.695  1.00  0.00     0.049 A 
ATOM     50  H   UNL A   1      43.238  28.373  27.924  1.00  0.00     0.167 HD
ATOM     51  C   UNL A   1      40.212  30.324  30.465  1.00  0.00     0.031 A 
ATOM     52  C   UNL A   1      45.601  28.226  26.445  1.00  0.00     0.031 A 
ATOM     53  C   UNL A   1      41.239  31.308  30.258  1.00  0.00     0.049 A 
ATOM     54  C   UNL A   1      45.510  29.622  27.001  1.00  0.00     0.074 A 
ATOM     55  C   UNL A   1      41.322  32.590  30.768  1.00  0.00     0.029 A 
ATOM     56  N   UNL A   1      42.367  31.111  29.474  1.00  0.00    -0.354 N 
ATOM     57  N   UNL A   1      44.592  30.144  27.780  1.00  0.00    -0.248 NA
ATOM     58  C   UNL A   1      46.588  30.549  26.635  1.00  0.00     0.031 C 
ATOM     59  C   UNL A   1      42.470  33.191  30.242  1.00  0.00     0.029 A 
ATOM     60  C   UNL A   1      43.140  32.258  29.463  1.00  0.00     0.049 A 
ATOM     61  H   UNL A   1      42.585  30.278  28.996  1.00  0.00     0.167 HD
ATOM     62  C   UNL A   1      44.996  31.450  28.023  1.00  0.00     0.074 A 
ATOM     63  C   UNL A   1      46.251  31.634  27.319  1.00  0.00     0.031 C 
ATOM     64  C   UNL A   1      44.388  32.411  28.759  1.00  0.00     0.031 A 
BRANCH  51  65
ATOM     65  C   UNL A   1      39.020  30.673  31.309  1.00  0.00    -0.014 A 
ATOM     66  C   UNL A   1      37.872  31.264  30.760  1.00  0.00     0.009 A 
ATOM     67  C   UNL A   1      39.058  30.415  32.688  1.00  0.00     0.009 A 
ATOM     68  C   UNL A   1      36.803  31.627  31.583  1.00  0.00     0.001 A 
ATOM     69  C   UNL A   1      37.976  30.750  33.503  1.00  0.00     0.001 A 
ATOM     70  C   UNL A   1      36.854  31.366  32.952  1.00  0.00     0.000 A 
ENDBRANCH  51  65
BRANCH  52  71
ATOM     71  C   UNL A   1      46.739  27.820  25.577  1.00  0.00    -0.014 A 
ATOM     72  C   UNL A   1      46.665  27.956  24.183  1.00  0.00     0.009 A 
ATOM     73  C   UNL A   1      47.899  27.260  26.139  1.00  0.00     0.009 A 
ATOM     74  C   UNL A   1      47.715  27.514  23.370  1.00  0.00     0.001 A 
ATOM     75  C   UNL A   1      48.958  26.850  25.328  1.00  0.00     0.001 A 
ATOM     76  C   UNL A   1      48.861  26.966  23.943  1.00  0.00     0.000 A 
ENDBRANCH  52  71
BRANCH  64  77
ATOM     77  C   UNL A   1      45.098  33.729  28.884  1.00  0.00    -0.014 A 
ATOM     78  C   UNL A   1      46.046  33.959  29.893  1.00  0.00     0.009 A 
ATOM     79  C   UNL A   1      44.846  34.738  27.941  1.00  0.00     0.009 A 
ATOM     80  C   UNL A   1      46.704  35.187  29.973  1.00  0.00     0.001 A 
ATOM     81  C   UNL A   1      45.530  35.953  28.004  1.00  0.00     0.001 A 
ATOM     82  C   UNL A   1      46.450  36.179  29.025  1.00  0.00     0.000 A 
ENDBRANCH  64  77
ENDBRANCH  38  39
ENDBRANCH  31  33
ENDBRANCH  30  31
ENDBRANCH  29  30
ENDBRANCH   1  29
TORSDOF 15
ENDMDL
MODEL 3
REMARK VINA RESULT:     -11.6      2.717      7.534
REMARK SMILES O=C(Nc1ccccc1C(=O)OCCOC(=O)c1ccc(-c2c3nc(c(-c4ccccc4)c4ccc([nH]4)c(-c4ccccc4)c4nc(c(-c5ccccc5)c5ccc2[nH]5)C=C4)C=C3)cc1)c1ccc(C[NH+]2CCOCC2)cc1
REMARK SMILES IDX 13 1 12 2 10 3 11 4 9 5 4 6 5 7 6 8 8 9 7 10 3 11 1 12 2 13
REMARK SMILES IDX 66 15 67 16 78 17 68 18 77 19 69 20 70 21 71 22 72 23 76 24
REMARK SMILES IDX 73 26 75 27 74 28 14 29 15 30 16 31 17 32 18 33 19 34 65 35
REMARK SMILES IDX 20 36 64 37 21 38 22 39 23 40 58 41 24 42 63 43 57 44 59 45
REMARK SMILES IDX 25 46 62 47 56 48 55 49 26 51 48 52 33 53 47 54 34 55 37 56
REMARK SMILES IDX 46 57 60 58 35 59 36 60 45 62 61 63 38 64 27 65 28 66 32 67
REMARK SMILES IDX 29 68 31 69 30 70 49 71 50 72 54 73 51 74 53 75 52 76 39 77
REMARK SMILES IDX 40 78 44 79 41 80 43 81 42 82
REMARK H PARENT 3 14 71 25 59 50 37 61
REMARK Flexibility Score: inf
ROOT
ATOM      1  C   UNL A   1      41.767  19.151  26.192  1.00  0.00     0.275 C 
ENDROOT
BRANCH   1   2
ATOM      2  O   UNL A   1      41.412  20.557  26.159  1.00  0.00    -0.458 OA
BRANCH   2   3
ATOM      3  C   UNL A   1      40.809  21.016  27.279  1.00  0.00     0.340 C 
ATOM      4  O   UNL A   1      40.795  20.436  28.354  1.00  0.00    -0.246 OA
BRANCH   3   5
ATOM      5  C   UNL A   1      40.127  22.320  27.136  1.00  0.00     0.083 A 
ATOM      6  C   UNL A   1      39.053  22.569  26.273  1.00  0.00     0.056 A 
ATOM      7  C   UNL A   1      38.490  23.861  26.257  1.00  0.00     0.027 A 
ATOM      8  C   UNL A   1      38.908  24.855  27.150  1.00  0.00     0.002 A 
ATOM      9  C   UNL A   1      40.561  23.349  27.995  1.00  0.00     0.018 A 
ATOM     10  C   UNL A   1      39.946  24.597  28.025  1.00  0.00     0.001 A 
BRANCH   6  11
ATOM     11  N   UNL A   1      38.461  21.646  25.388  1.00  0.00    -0.321 N 
ATOM     12  O   UNL A   1      36.825  20.297  24.608  1.00  0.00    -0.269 OA
ATOM     13  C   UNL A   1      37.139  21.377  25.106  1.00  0.00     0.255 C 
ATOM     14  H   UNL A   1      39.105  21.098  24.883  1.00  0.00     0.170 HD
BRANCH  13  15
ATOM     15  C   UNL A   1      36.097  22.423  25.270  1.00  0.00     0.040 A 
ATOM     16  C   UNL A   1      35.882  23.400  24.298  1.00  0.00     0.014 A 
ATOM     17  C   UNL A   1      35.276  22.393  26.401  1.00  0.00     0.014 A 
ATOM     18  C   UNL A   1      34.922  24.395  24.510  1.00  0.00     0.010 A 
ATOM     19  C   UNL A   1      34.370  23.433  26.645  1.00  0.00     0.010 A 
ATOM     20  C   UNL A   1      34.210  24.475  25.720  1.00  0.00     0.006 A 
BRANCH  20  21
ATOM     21  C   UNL A   1      33.227  25.601  25.980  1.00  0.00     0.299 C 
BRANCH  21  22
ATOM     22  N   UNL A   1      33.364  26.879  25.269  1.00  0.00    -0.327 N 
ATOM     23  C   UNL A   1      33.620  28.080  26.075  1.00  0.00     0.291 C 
ATOM     24  C   UNL A   1      32.355  27.157  24.238  1.00  0.00     0.291 C 
ATOM     25  H   UNL A   1      34.242  26.679  24.790  1.00  0.00     0.348 HD
ATOM     26  C   UNL A   1      32.358  28.832  26.532  1.00  0.00     0.221 C 
ATOM     27  C   UNL A   1      31.119  27.888  24.762  1.00  0.00     0.221 C 
ATOM     28  O   UNL A   1      31.496  29.100  25.426  1.00  0.00    -0.370 OA
ENDBRANCH  21  22
ENDBRANCH  20  21
ENDBRANCH  13  15
ENDBRANCH   6  11
ENDBRANCH   3   5
ENDBRANCH   2   3
ENDBRANCH   1   2
BRANCH   1  29
ATOM     29  C   UNL A   1      43.190  18.816  25.735  1.00  0.00     0.275 C 
BRANCH  29  30
ATOM     30  O   UNL A   1      43.533  19.473  24.499  1.00  0.00    -0.458 OA
BRANCH  30  31
ATOM     31  C   UNL A   1      44.859  19.659  24.320  1.00  0.00     0.338 C 
ATOM     32  O   UNL A   1      45.673  18.837  23.935  1.00  0.00    -0.246 OA
BRANCH  31  33
ATOM     33  C   UNL A   1      45.207  21.076  24.499  1.00  0.00     0.060 A 
ATOM     34  C   UNL A   1      45.774  21.411  25.723  1.00  0.00     0.016 A 
ATOM     35  C   UNL A   1      44.884  22.078  23.591  1.00  0.00     0.016 A 
ATOM     36  C   UNL A   1      45.974  22.725  26.103  1.00  0.00     0.010 A 
ATOM     37  C   UNL A   1      45.116  23.416  23.949  1.00  0.00     0.010 A 
ATOM     38  C   UNL A   1      45.638  23.741  25.218  1.00  0.00    -0.014 A 
BRANCH  38  39
ATOM     39  C   UNL A   1      45.701  25.134  25.708  1.00  0.00     0.031 A 
ATOM     40  C   UNL A   1      47.014  25.851  25.636  1.00  0.00     0.074 A 
ATOM     41  C   UNL A   1      44.590  25.782  26.104  1.00  0.00     0.049 A 
ATOM     42  N   UNL A   1      47.345  27.022  26.110  1.00  0.00    -0.248 NA
ATOM     43  C   UNL A   1      48.100  25.153  24.928  1.00  0.00     0.031 C 
ATOM     44  C   UNL A   1      43.235  25.235  26.070  1.00  0.00     0.029 A 
ATOM     45  N   UNL A   1      44.425  27.047  26.605  1.00  0.00    -0.354 N 
ATOM     46  C   UNL A   1      48.687  27.183  25.796  1.00  0.00     0.074 A 
ATOM     47  C   UNL A   1      49.111  25.991  25.096  1.00  0.00     0.031 C 
ATOM     48  C   UNL A   1      42.374  26.156  26.533  1.00  0.00     0.029 A 
ATOM     49  C   UNL A   1      43.129  27.326  26.967  1.00  0.00     0.049 A 
ATOM     50  H   UNL A   1      45.163  27.692  26.697  1.00  0.00     0.167 HD
ATOM     51  C   UNL A   1      49.492  28.231  26.082  1.00  0.00     0.031 A 
ATOM     52  C   UNL A   1      42.623  28.386  27.624  1.00  0.00     0.031 A 
ATOM     53  C   UNL A   1      49.050  29.405  26.784  1.00  0.00     0.049 A 
ATOM     54  C   UNL A   1      43.566  29.480  28.049  1.00  0.00     0.074 A 
ATOM     55  C   UNL A   1      49.786  30.511  27.164  1.00  0.00     0.029 A 
ATOM     56  N   UNL A   1      47.747  29.619  27.210  1.00  0.00    -0.354 N 
ATOM     57  N   UNL A   1      44.851  29.603  27.812  1.00  0.00    -0.248 NA
ATOM     58  C   UNL A   1      42.991  30.577  28.838  1.00  0.00     0.031 C 
ATOM     59  C   UNL A   1      48.940  31.369  27.875  1.00  0.00     0.029 A 
ATOM     60  C   UNL A   1      47.662  30.829  27.875  1.00  0.00     0.049 A 
ATOM     61  H   UNL A   1      46.995  29.001  27.062  1.00  0.00     0.167 HD
ATOM     62  C   UNL A   1      45.232  30.803  28.397  1.00  0.00     0.074 A 
ATOM     63  C   UNL A   1      44.038  31.377  28.986  1.00  0.00     0.031 C 
ATOM     64  C   UNL A   1      46.458  31.379  28.445  1.00  0.00     0.031 A 
BRANCH  51  65
ATOM     65  C   UNL A   1      50.940  28.102  25.706  1.00  0.00    -0.014 A 
ATOM     66  C   UNL A   1      51.413  28.476  24.439  1.00  0.00     0.009 A 
ATOM     67  C   UNL A   1      51.847  27.581  26.642  1.00  0.00     0.009 A 
ATOM     68  C   UNL A   1      52.756  28.291  24.103  1.00  0.00     0.001 A 
ATOM     69  C   UNL A   1      53.195  27.427  26.316  1.00  0.00     0.001 A 
ATOM     70  C   UNL A   1      53.646  27.771  25.043  1.00  0.00     0.000 A 
ENDBRANCH  51  65
BRANCH  52  71
ATOM     71  C   UNL A   1      41.181  28.434  27.987  1.00  0.00    -0.014 A 
ATOM     72  C   UNL A   1      40.728  27.911  29.208  1.00  0.00     0.009 A 
ATOM     73  C   UNL A   1      40.239  28.977  27.096  1.00  0.00     0.009 A 
ATOM     74  C   UNL A   1      39.363  27.904  29.514  1.00  0.00     0.001 A 
ATOM     75  C   UNL A   1      38.881  28.998  27.419  1.00  0.00     0.001 A 
ATOM     76  C   UNL A   1      38.442  28.451  28.622  1.00  0.00     0.000 A 
ENDBRANCH  52  71
BRANCH  64  77
ATOM     77  C   UNL A   1      46.556  32.722  29.110  1.00  0.00    -0.014 A 
ATOM     78  C   UNL A   1      46.873  32.846  30.472  1.00  0.00     0.009 A 
ATOM     79  C   UNL A   1      46.378  33.885  28.343  1.00  0.00     0.009 A 
ATOM     80  C   UNL A   1      46.975  34.108  31.058  1.00  0.00     0.001 A 
ATOM     81  C   UNL A   1      46.514  35.145  28.924  1.00  0.00     0.001 A 
ATOM     82  C   UNL A   1      46.803  35.256  30.283  1.00  0.00     0.000 A 
ENDBRANCH  64  77
ENDBRANCH  38  39
ENDBRANCH  31  33
ENDBRANCH  30  31
ENDBRANCH  29  30
ENDBRANCH   1  29
TORSDOF 15
ENDMDL
