MODEL 1
REMARK VINA RESULT:     -11.9      0.000      0.000
REMARK SMILES Cc1ccc(S(=O)(=O)n2cc(C(=O)C(=O)NCC(=O)OCCOC(=O)c3ccc(-c4c5nc(c(-c6ccccc6)c6ccc([nH]6)c(-c6ccccc6)c6nc(c(-c7ccccc7)c7ccc4[nH]7)C=C6)C=C5)cc3)c3ccccc32)cc1
REMARK SMILES IDX 20 1 18 2 19 3 17 4 16 5 14 6 15 7 12 9 13 10 11 11 9 12
REMARK SMILES IDX 10 13 79 14 74 15 78 16 75 17 77 18 76 19 6 20 7 21 8 22
REMARK SMILES IDX 5 23 1 24 2 25 3 26 81 27 4 28 80 29 21 30 22 31 23 32 24 33
REMARK SMILES IDX 25 34 26 35 27 36 73 37 28 38 72 39 29 40 30 41 31 42 66 43
REMARK SMILES IDX 32 44 71 45 65 46 67 47 33 48 70 49 64 50 63 51 34 53 56 54
REMARK SMILES IDX 41 55 55 56 42 57 45 58 54 59 68 60 43 61 44 62 53 64 69 65
REMARK SMILES IDX 46 66 35 67 36 68 40 69 37 70 39 71 38 72 57 73 58 74 62 75
REMARK SMILES IDX 59 76 61 77 60 78 47 79 48 80 52 81 49 82 51 83 50 84
REMARK H PARENT 16 8 67 52 45 63
REMARK Flexibility Score: inf
ROOT
ATOM      1  O   UNL A   1      37.485  21.469  25.776  1.00  0.00    -0.461 OA
ENDROOT
BRANCH   1   2
ATOM      2  C   UNL A   1      36.410  22.092  25.218  1.00  0.00     0.325 C 
ATOM      3  O   UNL A   1      35.795  21.681  24.240  1.00  0.00    -0.250 OA
BRANCH   2   4
ATOM      4  C   UNL A   1      35.885  23.200  26.106  1.00  0.00     0.239 C 
BRANCH   4   5
ATOM      5  N   UNL A   1      35.079  22.854  27.251  1.00  0.00    -0.338 N 
ATOM      6  C   UNL A   1      33.699  22.828  27.201  1.00  0.00     0.292 C 
ATOM      7  O   UNL A   1      33.004  22.476  28.142  1.00  0.00    -0.265 OA
ATOM      8  H   UNL A   1      35.527  22.630  28.099  1.00  0.00     0.164 HD
BRANCH   6   9
ATOM      9  C   UNL A   1      33.054  23.330  25.894  1.00  0.00     0.252 C 
ATOM     10  O   UNL A   1      32.697  22.492  25.071  1.00  0.00    -0.283 OA
BRANCH   9  11
ATOM     11  C   UNL A   1      33.024  24.767  25.635  1.00  0.00     0.054 A 
ATOM     12  N   UNL A   1      32.729  26.946  25.972  1.00  0.00    -0.240 N 
ATOM     13  C   UNL A   1      32.759  25.727  26.591  1.00  0.00     0.117 A 
ATOM     14  C   UNL A   1      33.035  26.833  24.632  1.00  0.00     0.065 A 
ATOM     15  C   UNL A   1      33.243  25.464  24.397  1.00  0.00     0.012 A 
ATOM     16  C   UNL A   1      33.095  27.781  23.594  1.00  0.00     0.028 A 
ATOM     17  C   UNL A   1      33.574  25.051  23.087  1.00  0.00     0.011 A 
ATOM     18  C   UNL A   1      33.390  27.336  22.303  1.00  0.00     0.002 A 
ATOM     19  C   UNL A   1      33.640  25.991  22.053  1.00  0.00     0.001 A 
BRANCH  12  20
ATOM     20  S   UNL A   1      32.096  28.333  26.729  1.00  0.00     0.268 S 
ATOM     21  O   UNL A   1      31.523  27.864  27.980  1.00  0.00    -0.201 OA
ATOM     22  O   UNL A   1      31.295  28.995  25.722  1.00  0.00    -0.201 OA
BRANCH  20  23
ATOM     23  C   UNL A   1      33.469  29.386  27.110  1.00  0.00     0.088 A 
ATOM     24  C   UNL A   1      36.566  32.050  28.444  1.00  0.00     0.044 C 
ATOM     25  C   UNL A   1      35.499  31.126  27.935  1.00  0.00    -0.051 A 
ATOM     26  C   UNL A   1      34.195  31.600  27.748  1.00  0.00     0.005 A 
ATOM     27  C   UNL A   1      35.787  29.785  27.656  1.00  0.00     0.005 A 
ATOM     28  C   UNL A   1      33.180  30.734  27.341  1.00  0.00     0.022 A 
ATOM     29  C   UNL A   1      34.779  28.918  27.233  1.00  0.00     0.022 A 
ENDBRANCH  20  23
ENDBRANCH  12  20
ENDBRANCH   9  11
ENDBRANCH   6   9
ENDBRANCH   4   5
ENDBRANCH   2   4
ENDBRANCH   1   2
BRANCH   1  30
ATOM     30  C   UNL A   1      38.035  20.455  24.931  1.00  0.00     0.274 C 
BRANCH  30  31
ATOM     31  C   UNL A   1      38.940  19.501  25.720  1.00  0.00     0.275 C 
BRANCH  31  32
ATOM     32  O   UNL A   1      40.391  19.736  25.737  1.00  0.00    -0.458 OA
BRANCH  32  33
ATOM     33  C   UNL A   1      41.299  20.077  26.689  1.00  0.00     0.338 C 
ATOM     34  O   UNL A   1      41.933  19.224  27.299  1.00  0.00    -0.246 OA
BRANCH  33  35
ATOM     35  C   UNL A   1      41.581  21.497  26.949  1.00  0.00     0.060 A 
ATOM     36  C   UNL A   1      41.223  22.504  26.026  1.00  0.00     0.016 A 
ATOM     37  C   UNL A   1      42.115  21.839  28.169  1.00  0.00     0.016 A 
ATOM     38  C   UNL A   1      41.276  23.849  26.409  1.00  0.00     0.010 A 
ATOM     39  C   UNL A   1      41.896  23.100  28.634  1.00  0.00     0.010 A 
ATOM     40  C   UNL A   1      41.572  24.126  27.740  1.00  0.00    -0.014 A 
BRANCH  40  41
ATOM     41  C   UNL A   1      41.866  25.429  28.312  1.00  0.00     0.031 A 
ATOM     42  C   UNL A   1      40.820  26.414  28.609  1.00  0.00     0.074 A 
ATOM     43  C   UNL A   1      43.143  25.488  28.762  1.00  0.00     0.049 A 
ATOM     44  N   UNL A   1      41.034  27.675  28.738  1.00  0.00    -0.248 NA
ATOM     45  C   UNL A   1      39.413  26.064  28.790  1.00  0.00     0.031 C 
ATOM     46  C   UNL A   1      43.820  26.362  29.697  1.00  0.00     0.029 A 
ATOM     47  N   UNL A   1      44.169  24.655  28.311  1.00  0.00    -0.354 N 
ATOM     48  C   UNL A   1      39.926  28.205  29.367  1.00  0.00     0.074 A 
ATOM     49  C   UNL A   1      38.891  27.213  29.237  1.00  0.00     0.031 C 
ATOM     50  C   UNL A   1      45.153  26.237  29.505  1.00  0.00     0.029 A 
ATOM     51  C   UNL A   1      45.362  25.355  28.359  1.00  0.00     0.049 A 
ATOM     52  H   UNL A   1      44.062  23.725  28.008  1.00  0.00     0.167 HD
ATOM     53  C   UNL A   1      40.073  29.325  30.129  1.00  0.00     0.031 A 
ATOM     54  C   UNL A   1      45.887  25.692  27.142  1.00  0.00     0.031 A 
ATOM     55  C   UNL A   1      41.474  29.740  30.135  1.00  0.00     0.049 A 
ATOM     56  C   UNL A   1      45.702  27.176  26.926  1.00  0.00     0.074 A 
ATOM     57  C   UNL A   1      42.502  29.483  31.027  1.00  0.00     0.029 A 
ATOM     58  N   UNL A   1      42.073  30.118  28.938  1.00  0.00    -0.354 N 
ATOM     59  N   UNL A   1      44.721  27.880  27.432  1.00  0.00    -0.248 NA
ATOM     60  C   UNL A   1      46.688  27.994  26.232  1.00  0.00     0.031 C 
ATOM     61  C   UNL A   1      43.728  29.588  30.313  1.00  0.00     0.029 A 
ATOM     62  C   UNL A   1      43.441  29.916  28.996  1.00  0.00     0.049 A 
ATOM     63  H   UNL A   1      41.592  30.477  28.158  1.00  0.00     0.167 HD
ATOM     64  C   UNL A   1      44.999  29.209  27.274  1.00  0.00     0.074 A 
ATOM     65  C   UNL A   1      46.218  29.228  26.478  1.00  0.00     0.031 C 
ATOM     66  C   UNL A   1      44.273  30.217  27.841  1.00  0.00     0.031 A 
BRANCH  53  67
ATOM     67  C   UNL A   1      39.049  29.828  31.117  1.00  0.00    -0.014 A 
ATOM     68  C   UNL A   1      38.709  31.195  31.123  1.00  0.00     0.009 A 
ATOM     69  C   UNL A   1      38.381  29.018  32.052  1.00  0.00     0.009 A 
ATOM     70  C   UNL A   1      37.793  31.736  32.034  1.00  0.00     0.001 A 
ATOM     71  C   UNL A   1      37.475  29.558  32.982  1.00  0.00     0.001 A 
ATOM     72  C   UNL A   1      37.182  30.917  32.973  1.00  0.00     0.000 A 
ENDBRANCH  53  67
BRANCH  54  73
ATOM     73  C   UNL A   1      45.703  24.598  26.113  1.00  0.00    -0.014 A 
ATOM     74  C   UNL A   1      46.156  23.297  26.458  1.00  0.00     0.009 A 
ATOM     75  C   UNL A   1      44.805  24.702  25.041  1.00  0.00     0.009 A 
ATOM     76  C   UNL A   1      45.619  22.147  25.861  1.00  0.00     0.001 A 
ATOM     77  C   UNL A   1      44.300  23.544  24.416  1.00  0.00     0.001 A 
ATOM     78  C   UNL A   1      44.671  22.272  24.854  1.00  0.00     0.000 A 
ENDBRANCH  54  73
BRANCH  66  79
ATOM     79  C   UNL A   1      44.353  31.651  27.399  1.00  0.00    -0.014 A 
ATOM     80  C   UNL A   1      44.124  32.057  26.080  1.00  0.00     0.009 A 
ATOM     81  C   UNL A   1      44.497  32.668  28.369  1.00  0.00     0.009 A 
ATOM     82  C   UNL A   1      44.118  33.409  25.730  1.00  0.00     0.001 A 
ATOM     83  C   UNL A   1      44.419  34.017  28.035  1.00  0.00     0.001 A 
ATOM     84  C   UNL A   1      44.254  34.387  26.709  1.00  0.00     0.000 A 
ENDBRANCH  66  79
ENDBRANCH  40  41
ENDBRANCH  33  35
ENDBRANCH  32  33
ENDBRANCH  31  32
ENDBRANCH  30  31
ENDBRANCH   1  30
TORSDOF 16
ENDMDL
MODEL 2
REMARK VINA RESULT:     -11.9      2.666      4.687
REMARK SMILES Cc1ccc(S(=O)(=O)n2cc(C(=O)C(=O)NCC(=O)OCCOC(=O)c3ccc(-c4c5nc(c(-c6ccccc6)c6ccc([nH]6)c(-c6ccccc6)c6nc(c(-c7ccccc7)c7ccc4[nH]7)C=C6)C=C5)cc3)c3ccccc32)cc1
REMARK SMILES IDX 20 1 18 2 19 3 17 4 16 5 14 6 15 7 12 9 13 10 11 11 9 12
REMARK SMILES IDX 10 13 79 14 74 15 78 16 75 17 77 18 76 19 6 20 7 21 8 22
REMARK SMILES IDX 5 23 1 24 2 25 3 26 81 27 4 28 80 29 21 30 22 31 23 32 24 33
REMARK SMILES IDX 25 34 26 35 27 36 73 37 28 38 72 39 29 40 30 41 31 42 66 43
REMARK SMILES IDX 32 44 71 45 65 46 67 47 33 48 70 49 64 50 63 51 34 53 56 54
REMARK SMILES IDX 41 55 55 56 42 57 45 58 54 59 68 60 43 61 44 62 53 64 69 65
REMARK SMILES IDX 46 66 35 67 36 68 40 69 37 70 39 71 38 72 57 73 58 74 62 75
REMARK SMILES IDX 59 76 61 77 60 78 47 79 48 80 52 81 49 82 51 83 50 84
REMARK H PARENT 16 8 67 52 45 63
REMARK Flexibility Score: inf
ROOT
ATOM      1  O   UNL A   1      37.769  20.719  25.060  1.00  0.00    -0.461 OA
ENDROOT
BRANCH   1   2
ATOM      2  C   UNL A   1      36.765  21.469  24.528  1.00  0.00     0.325 C 
ATOM      3  O   UNL A   1      36.900  22.260  23.601  1.00  0.00    -0.250 OA
BRANCH   2   4
ATOM      4  C   UNL A   1      35.408  21.016  25.022  1.00  0.00     0.239 C 
BRANCH   4   5
ATOM      5  N   UNL A   1      35.053  21.251  26.401  1.00  0.00    -0.338 N 
ATOM      6  C   UNL A   1      33.743  21.412  26.808  1.00  0.00     0.292 C 
ATOM      7  O   UNL A   1      33.420  21.547  27.978  1.00  0.00    -0.265 OA
ATOM      8  H   UNL A   1      35.769  21.300  27.075  1.00  0.00     0.164 HD
BRANCH   6   9
ATOM      9  C   UNL A   1      32.684  21.472  25.690  1.00  0.00     0.252 C 
ATOM     10  O   UNL A   1      32.276  20.410  25.226  1.00  0.00    -0.283 OA
BRANCH   9  11
ATOM     11  C   UNL A   1      32.318  22.775  25.141  1.00  0.00     0.054 A 
ATOM     12  N   UNL A   1      31.370  24.781  24.972  1.00  0.00    -0.240 N 
ATOM     13  C   UNL A   1      31.598  23.734  25.823  1.00  0.00     0.117 A 
ATOM     14  C   UNL A   1      31.980  24.573  23.752  1.00  0.00     0.065 A 
ATOM     15  C   UNL A   1      32.601  23.317  23.840  1.00  0.00     0.012 A 
ATOM     16  C   UNL A   1      32.002  25.331  22.566  1.00  0.00     0.028 A 
ATOM     17  C   UNL A   1      33.310  22.839  22.715  1.00  0.00     0.011 A 
ATOM     18  C   UNL A   1      32.682  24.814  21.461  1.00  0.00     0.002 A 
ATOM     19  C   UNL A   1      33.340  23.592  21.536  1.00  0.00     0.001 A 
BRANCH  12  20
ATOM     20  S   UNL A   1      30.233  25.999  25.315  1.00  0.00     0.268 S 
ATOM     21  O   UNL A   1      29.454  25.497  26.435  1.00  0.00    -0.201 OA
ATOM     22  O   UNL A   1      29.621  26.329  24.046  1.00  0.00    -0.201 OA
BRANCH  20  23
ATOM     23  C   UNL A   1      31.142  27.416  25.865  1.00  0.00     0.088 A 
ATOM     24  C   UNL A   1      32.945  31.108  27.125  1.00  0.00     0.044 C 
ATOM     25  C   UNL A   1      32.358  29.803  26.676  1.00  0.00    -0.051 A 
ATOM     26  C   UNL A   1      31.830  29.681  25.385  1.00  0.00     0.005 A 
ATOM     27  C   UNL A   1      32.317  28.702  27.539  1.00  0.00     0.005 A 
ATOM     28  C   UNL A   1      31.220  28.495  24.979  1.00  0.00     0.022 A 
ATOM     29  C   UNL A   1      31.721  27.506  27.133  1.00  0.00     0.022 A 
ENDBRANCH  20  23
ENDBRANCH  12  20
ENDBRANCH   9  11
ENDBRANCH   6   9
ENDBRANCH   4   5
ENDBRANCH   2   4
ENDBRANCH   1   2
BRANCH   1  30
ATOM     30  C   UNL A   1      38.831  21.516  25.591  1.00  0.00     0.274 C 
BRANCH  30  31
ATOM     31  C   UNL A   1      38.290  22.747  26.329  1.00  0.00     0.275 C 
BRANCH  31  32
ATOM     32  O   UNL A   1      39.151  23.928  26.484  1.00  0.00    -0.458 OA
BRANCH  32  33
ATOM     33  C   UNL A   1      39.920  24.433  27.485  1.00  0.00     0.338 C 
ATOM     34  O   UNL A   1      40.901  23.827  27.899  1.00  0.00    -0.246 OA
BRANCH  33  35
ATOM     35  C   UNL A   1      39.616  25.761  28.036  1.00  0.00     0.060 A 
ATOM     36  C   UNL A   1      38.990  25.916  29.292  1.00  0.00     0.016 A 
ATOM     37  C   UNL A   1      40.051  26.866  27.343  1.00  0.00     0.016 A 
ATOM     38  C   UNL A   1      38.944  27.178  29.896  1.00  0.00     0.010 A 
ATOM     39  C   UNL A   1      40.264  28.017  28.039  1.00  0.00     0.010 A 
ATOM     40  C   UNL A   1      39.631  28.213  29.271  1.00  0.00    -0.014 A 
BRANCH  40  41
ATOM     41  C   UNL A   1      39.565  29.627  29.605  1.00  0.00     0.031 A 
ATOM     42  C   UNL A   1      38.528  30.515  29.069  1.00  0.00     0.074 A 
ATOM     43  C   UNL A   1      40.387  29.923  30.641  1.00  0.00     0.049 A 
ATOM     44  N   UNL A   1      38.637  31.794  29.008  1.00  0.00    -0.248 NA
ATOM     45  C   UNL A   1      37.251  30.037  28.544  1.00  0.00     0.031 C 
ATOM     46  C   UNL A   1      40.443  31.032  31.569  1.00  0.00     0.029 A 
ATOM     47  N   UNL A   1      41.493  29.152  31.005  1.00  0.00    -0.354 N 
ATOM     48  C   UNL A   1      37.366  32.294  28.811  1.00  0.00     0.074 A 
ATOM     49  C   UNL A   1      36.570  31.177  28.374  1.00  0.00     0.031 C 
ATOM     50  C   UNL A   1      41.664  31.036  32.152  1.00  0.00     0.029 A 
ATOM     51  C   UNL A   1      42.466  29.988  31.525  1.00  0.00     0.049 A 
ATOM     52  H   UNL A   1      41.568  28.175  30.909  1.00  0.00     0.167 HD
ATOM     53  C   UNL A   1      37.072  33.546  29.261  1.00  0.00     0.031 A 
ATOM     54  C   UNL A   1      43.571  30.153  30.738  1.00  0.00     0.031 A 
ATOM     55  C   UNL A   1      38.243  34.122  29.921  1.00  0.00     0.049 A 
ATOM     56  C   UNL A   1      43.535  31.537  30.132  1.00  0.00     0.074 A 
ATOM     57  C   UNL A   1      38.615  34.163  31.255  1.00  0.00     0.029 A 
ATOM     58  N   UNL A   1      39.399  34.339  29.180  1.00  0.00    -0.354 N 
ATOM     59  N   UNL A   1      42.438  32.198  29.864  1.00  0.00    -0.248 NA
ATOM     60  C   UNL A   1      44.741  32.324  29.909  1.00  0.00     0.031 C 
ATOM     61  C   UNL A   1      40.032  34.281  31.303  1.00  0.00     0.029 A 
ATOM     62  C   UNL A   1      40.512  34.320  30.003  1.00  0.00     0.049 A 
ATOM     63  H   UNL A   1      39.423  34.486  28.207  1.00  0.00     0.167 HD
ATOM     64  C   UNL A   1      42.758  33.498  29.587  1.00  0.00     0.074 A 
ATOM     65  C   UNL A   1      44.214  33.516  29.584  1.00  0.00     0.031 C 
ATOM     66  C   UNL A   1      41.841  34.498  29.438  1.00  0.00     0.031 A 
BRANCH  53  67
ATOM     67  C   UNL A   1      35.675  34.096  29.409  1.00  0.00    -0.014 A 
ATOM     68  C   UNL A   1      35.193  34.420  30.693  1.00  0.00     0.009 A 
ATOM     69  C   UNL A   1      34.795  34.327  28.338  1.00  0.00     0.009 A 
ATOM     70  C   UNL A   1      33.895  34.903  30.905  1.00  0.00     0.001 A 
ATOM     71  C   UNL A   1      33.484  34.794  28.547  1.00  0.00     0.001 A 
ATOM     72  C   UNL A   1      33.035  35.080  29.832  1.00  0.00     0.000 A 
ENDBRANCH  53  67
BRANCH  54  73
ATOM     73  C   UNL A   1      43.980  28.871  30.044  1.00  0.00    -0.014 A 
ATOM     74  C   UNL A   1      44.106  27.708  30.848  1.00  0.00     0.009 A 
ATOM     75  C   UNL A   1      43.870  28.685  28.659  1.00  0.00     0.009 A 
ATOM     76  C   UNL A   1      43.976  26.420  30.307  1.00  0.00     0.001 A 
ATOM     77  C   UNL A   1      43.781  27.388  28.116  1.00  0.00     0.001 A 
ATOM     78  C   UNL A   1      43.789  26.262  28.941  1.00  0.00     0.000 A 
ENDBRANCH  54  73
BRANCH  66  79
ATOM     79  C   UNL A   1      42.151  35.824  28.800  1.00  0.00    -0.014 A 
ATOM     80  C   UNL A   1      42.814  36.856  29.470  1.00  0.00     0.009 A 
ATOM     81  C   UNL A   1      41.926  35.995  27.416  1.00  0.00     0.009 A 
ATOM     82  C   UNL A   1      43.164  38.037  28.812  1.00  0.00     0.001 A 
ATOM     83  C   UNL A   1      42.338  37.141  26.742  1.00  0.00     0.001 A 
ATOM     84  C   UNL A   1      42.937  38.174  27.448  1.00  0.00     0.000 A 
ENDBRANCH  66  79
ENDBRANCH  40  41
ENDBRANCH  33  35
ENDBRANCH  32  33
ENDBRANCH  31  32
ENDBRANCH  30  31
ENDBRANCH   1  30
TORSDOF 16
ENDMDL
MODEL 3
REMARK VINA RESULT:     -11.7      3.183      8.304
REMARK SMILES Cc1ccc(S(=O)(=O)n2cc(C(=O)C(=O)NCC(=O)OCCOC(=O)c3ccc(-c4c5nc(c(-c6ccccc6)c6ccc([nH]6)c(-c6ccccc6)c6nc(c(-c7ccccc7)c7ccc4[nH]7)C=C6)C=C5)cc3)c3ccccc32)cc1
REMARK SMILES IDX 20 1 18 2 19 3 17 4 16 5 14 6 15 7 12 9 13 10 11 11 9 12
REMARK SMILES IDX 10 13 79 14 74 15 78 16 75 17 77 18 76 19 6 20 7 21 8 22
REMARK SMILES IDX 5 23 1 24 2 25 3 26 81 27 4 28 80 29 21 30 22 31 23 32 24 33
REMARK SMILES IDX 25 34 26 35 27 36 73 37 28 38 72 39 29 40 30 41 31 42 66 43
REMARK SMILES IDX 32 44 71 45 65 46 67 47 33 48 70 49 64 50 63 51 34 53 56 54
REMARK SMILES IDX 41 55 55 56 42 57 45 58 54 59 68 60 43 61 44 62 53 64 69 65
REMARK SMILES IDX 46 66 35 67 36 68 40 69 37 70 39 71 38 72 57 73 58 74 62 75
REMARK SMILES IDX 59 76 61 77 60 78 47 79 48 80 52 81 49 82 51 83 50 84
REMARK H PARENT 16 8 67 52 45 63
REMARK Flexibility Score: inf
ROOT
ATOM      1  O   UNL A   1      33.039  30.125  26.029  1.00  0.00    -0.461 OA
ENDROOT
BRANCH   1   2
ATOM      2  C   UNL A   1      32.711  29.264  25.026  1.00  0.00     0.325 C 
ATOM      3  O   UNL A   1      33.417  28.339  24.640  1.00  0.00    -0.250 OA
BRANCH   2   4
ATOM      4  C   UNL A   1      31.258  29.403  24.626  1.00  0.00     0.239 C 
BRANCH   4   5
ATOM      5  N   UNL A   1      30.940  29.786  23.271  1.00  0.00    -0.338 N 
ATOM      6  C   UNL A   1      30.008  29.107  22.512  1.00  0.00     0.292 C 
ATOM      7  O   UNL A   1      29.681  29.457  21.388  1.00  0.00    -0.265 OA
ATOM      8  H   UNL A   1      31.404  30.559  22.874  1.00  0.00     0.164 HD
BRANCH   6   9
ATOM      9  C   UNL A   1      29.426  27.823  23.135  1.00  0.00     0.252 C 
ATOM     10  O   UNL A   1      28.248  27.837  23.484  1.00  0.00    -0.283 OA
BRANCH   9  11
ATOM     11  C   UNL A   1      30.325  26.706  23.407  1.00  0.00     0.054 A 
ATOM     12  N   UNL A   1      31.928  25.192  23.108  1.00  0.00    -0.240 N 
ATOM     13  C   UNL A   1      31.361  26.320  22.581  1.00  0.00     0.117 A 
ATOM     14  C   UNL A   1      31.337  24.850  24.307  1.00  0.00     0.065 A 
ATOM     15  C   UNL A   1      30.330  25.804  24.527  1.00  0.00     0.012 A 
ATOM     16  C   UNL A   1      31.545  23.774  25.189  1.00  0.00     0.028 A 
ATOM     17  C   UNL A   1      29.548  25.697  25.699  1.00  0.00     0.011 A 
ATOM     18  C   UNL A   1      30.732  23.677  26.321  1.00  0.00     0.002 A 
ATOM     19  C   UNL A   1      29.756  24.631  26.582  1.00  0.00     0.001 A 
BRANCH  12  20
ATOM     20  S   UNL A   1      32.998  24.213  22.218  1.00  0.00     0.268 S 
ATOM     21  O   UNL A   1      33.381  25.008  21.063  1.00  0.00    -0.201 OA
ATOM     22  O   UNL A   1      32.334  22.935  22.080  1.00  0.00    -0.201 OA
BRANCH  20  23
ATOM     23  C   UNL A   1      34.437  23.972  23.224  1.00  0.00     0.088 A 
ATOM     24  C   UNL A   1      37.623  23.285  26.025  1.00  0.00     0.044 C 
ATOM     25  C   UNL A   1      36.539  23.551  25.023  1.00  0.00    -0.051 A 
ATOM     26  C   UNL A   1      35.580  24.538  25.276  1.00  0.00     0.005 A 
ATOM     27  C   UNL A   1      36.465  22.812  23.836  1.00  0.00     0.005 A 
ATOM     28  C   UNL A   1      34.528  24.748  24.384  1.00  0.00     0.022 A 
ATOM     29  C   UNL A   1      35.424  23.028  22.932  1.00  0.00     0.022 A 
ENDBRANCH  20  23
ENDBRANCH  12  20
ENDBRANCH   9  11
ENDBRANCH   6   9
ENDBRANCH   4   5
ENDBRANCH   2   4
ENDBRANCH   1   2
BRANCH   1  30
ATOM     30  C   UNL A   1      33.190  29.469  27.291  1.00  0.00     0.274 C 
BRANCH  30  31
ATOM     31  C   UNL A   1      34.663  29.160  27.587  1.00  0.00     0.275 C 
BRANCH  31  32
ATOM     32  O   UNL A   1      35.452  30.113  28.379  1.00  0.00    -0.458 OA
BRANCH  32  33
ATOM     33  C   UNL A   1      36.728  30.582  28.328  1.00  0.00     0.338 C 
ATOM     34  O   UNL A   1      36.967  31.782  28.394  1.00  0.00    -0.246 OA
BRANCH  33  35
ATOM     35  C   UNL A   1      37.849  29.633  28.264  1.00  0.00     0.060 A 
ATOM     36  C   UNL A   1      38.718  29.588  27.152  1.00  0.00     0.016 A 
ATOM     37  C   UNL A   1      38.100  28.851  29.366  1.00  0.00     0.016 A 
ATOM     38  C   UNL A   1      39.910  28.859  27.229  1.00  0.00     0.010 A 
ATOM     39  C   UNL A   1      39.368  28.388  29.549  1.00  0.00     0.010 A 
ATOM     40  C   UNL A   1      40.242  28.301  28.460  1.00  0.00    -0.014 A 
BRANCH  40  41
ATOM     41  C   UNL A   1      41.314  27.356  28.726  1.00  0.00     0.031 A 
ATOM     42  C   UNL A   1      41.167  25.914  28.501  1.00  0.00     0.074 A 
ATOM     43  C   UNL A   1      42.490  27.997  28.933  1.00  0.00     0.049 A 
ATOM     44  N   UNL A   1      41.900  25.020  29.062  1.00  0.00    -0.248 NA
ATOM     45  C   UNL A   1      40.164  25.336  27.610  1.00  0.00     0.031 C 
ATOM     46  C   UNL A   1      43.871  27.567  28.879  1.00  0.00     0.029 A 
ATOM     47  N   UNL A   1      42.591  29.329  29.340  1.00  0.00    -0.354 N 
ATOM     48  C   UNL A   1      41.727  23.854  28.344  1.00  0.00     0.074 A 
ATOM     49  C   UNL A   1      40.534  24.050  27.562  1.00  0.00     0.031 C 
ATOM     50  C   UNL A   1      44.625  28.480  29.532  1.00  0.00     0.029 A 
ATOM     51  C   UNL A   1      43.726  29.470  30.120  1.00  0.00     0.049 A 
ATOM     52  H   UNL A   1      41.960  30.049  29.110  1.00  0.00     0.167 HD
ATOM     53  C   UNL A   1      42.737  22.940  28.315  1.00  0.00     0.031 A 
ATOM     54  C   UNL A   1      43.493  29.688  31.450  1.00  0.00     0.031 A 
ATOM     55  C   UNL A   1      43.875  23.436  29.087  1.00  0.00     0.049 A 
ATOM     56  C   UNL A   1      43.833  28.431  32.216  1.00  0.00     0.074 A 
ATOM     57  C   UNL A   1      45.018  24.118  28.700  1.00  0.00     0.029 A 
ATOM     58  N   UNL A   1      43.722  23.662  30.450  1.00  0.00    -0.354 N 
ATOM     59  N   UNL A   1      43.743  27.219  31.728  1.00  0.00    -0.248 NA
ATOM     60  C   UNL A   1      44.425  28.463  33.547  1.00  0.00     0.031 C 
ATOM     61  C   UNL A   1      45.477  24.860  29.823  1.00  0.00     0.029 A 
ATOM     62  C   UNL A   1      44.620  24.621  30.886  1.00  0.00     0.049 A 
ATOM     63  H   UNL A   1      43.066  23.206  31.025  1.00  0.00     0.167 HD
ATOM     64  C   UNL A   1      44.375  26.350  32.572  1.00  0.00     0.074 A 
ATOM     65  C   UNL A   1      44.746  27.169  33.717  1.00  0.00     0.031 C 
ATOM     66  C   UNL A   1      44.621  25.039  32.280  1.00  0.00     0.031 A 
BRANCH  53  67
ATOM     67  C   UNL A   1      42.827  21.794  27.338  1.00  0.00    -0.014 A 
ATOM     68  C   UNL A   1      43.783  21.842  26.304  1.00  0.00     0.009 A 
ATOM     69  C   UNL A   1      42.017  20.646  27.383  1.00  0.00     0.009 A 
ATOM     70  C   UNL A   1      43.898  20.829  25.343  1.00  0.00     0.001 A 
ATOM     71  C   UNL A   1      42.115  19.635  26.409  1.00  0.00     0.001 A 
ATOM     72  C   UNL A   1      43.055  19.729  25.389  1.00  0.00     0.000 A 
ENDBRANCH  53  67
BRANCH  54  73
ATOM     73  C   UNL A   1      42.307  30.598  31.685  1.00  0.00    -0.014 A 
ATOM     74  C   UNL A   1      42.183  31.737  30.846  1.00  0.00     0.009 A 
ATOM     75  C   UNL A   1      41.164  30.195  32.392  1.00  0.00     0.009 A 
ATOM     76  C   UNL A   1      40.944  32.349  30.610  1.00  0.00     0.001 A 
ATOM     77  C   UNL A   1      39.929  30.840  32.182  1.00  0.00     0.001 A 
ATOM     78  C   UNL A   1      39.810  31.882  31.262  1.00  0.00     0.000 A 
ENDBRANCH  54  73
BRANCH  66  79
ATOM     79  C   UNL A   1      44.989  24.011  33.313  1.00  0.00    -0.014 A 
ATOM     80  C   UNL A   1      46.279  23.885  33.838  1.00  0.00     0.009 A 
ATOM     81  C   UNL A   1      43.969  23.243  33.918  1.00  0.00     0.009 A 
ATOM     82  C   UNL A   1      46.556  22.978  34.863  1.00  0.00     0.001 A 
ATOM     83  C   UNL A   1      44.229  22.391  34.988  1.00  0.00     0.001 A 
ATOM     84  C   UNL A   1      45.530  22.241  35.444  1.00  0.00     0.000 A 
ENDBRANCH  66  79
ENDBRANCH  40  41
ENDBRANCH  33  35
ENDBRANCH  32  33
ENDBRANCH  31  32
ENDBRANCH  30  31
ENDBRANCH   1  30
TORSDOF 16
ENDMDL
