MODEL 1
REMARK VINA RESULT:      -9.9      0.000      0.000
REMARK SMILES CCc1nn(C)c(N[C@@](C)(CC)C(=O)OCCOC(=O)c2ccc(-c3c4nc(c(-c5ccccc5)c5ccc([nH]5)c(-c5ccccc5)c5nc(c(-c6ccccc6)c6ccc3[nH]6)C=C5)C=C4)cc2)c1[N+](=O)[O-]
REMARK SMILES IDX 16 1 15 2 13 3 14 4 9 5 10 6 8 7 7 9 3 10 4 11 69 12 5 13
REMARK SMILES IDX 6 14 2 15 1 16 70 17 71 18 72 19 11 20 12 21 17 22 18 23
REMARK SMILES IDX 19 24 20 25 21 26 22 27 68 28 23 29 67 30 24 31 25 32 26 33
REMARK SMILES IDX 61 34 27 35 66 36 60 37 62 38 28 39 65 40 59 41 58 42 29 44
REMARK SMILES IDX 51 45 36 46 50 47 37 48 40 49 49 50 63 51 38 52 39 53 48 55
REMARK SMILES IDX 64 56 41 57 30 58 31 59 35 60 32 61 34 62 33 63 52 64 53 65
REMARK SMILES IDX 57 66 54 67 56 68 55 69 42 70 43 71 47 72 44 73 46 74 45 75
REMARK H PARENT 8 8 62 43 40 54
REMARK Flexibility Score: inf
ROOT
ATOM      1  C   UNL A   1      37.922  20.300  24.873  1.00  0.00     0.274 C 
ENDROOT
BRANCH   1   2
ATOM      2  O   UNL A   1      36.766  20.918  25.458  1.00  0.00    -0.460 OA
BRANCH   2   3
ATOM      3  C   UNL A   1      36.161  21.866  24.692  1.00  0.00     0.331 C 
ATOM      4  O   UNL A   1      36.638  22.311  23.654  1.00  0.00    -0.249 OA
BRANCH   3   5
ATOM      5  C   UNL A   1      34.853  22.365  25.336  1.00  0.00     0.134 C 
ATOM      6  C   UNL A   1      34.947  23.878  25.613  1.00  0.00     0.047 C 
BRANCH   5   7
ATOM      7  N   UNL A   1      33.591  22.164  24.581  1.00  0.00    -0.349 N 
ATOM      8  H   UNL A   1      33.524  21.289  24.135  1.00  0.00     0.163 HD
BRANCH   7   9
ATOM      9  C   UNL A   1      32.495  22.977  24.390  1.00  0.00     0.205 A 
ATOM     10  C   UNL A   1      31.019  24.670  24.433  1.00  0.00     0.142 A 
ATOM     11  N   UNL A   1      31.530  24.681  23.204  1.00  0.00    -0.169 NA
ATOM     12  C   UNL A   1      31.382  23.463  25.088  1.00  0.00     0.334 A 
ATOM     13  N   UNL A   1      32.363  23.633  23.171  1.00  0.00    -0.246 N 
ATOM     14  C   UNL A   1      33.002  23.350  21.904  1.00  0.00     0.176 C 
BRANCH  10  15
ATOM     15  C   UNL A   1      30.281  25.883  24.918  1.00  0.00     0.062 C 
ATOM     16  C   UNL A   1      29.210  26.424  23.996  1.00  0.00     0.011 C 
ENDBRANCH  10  15
BRANCH  12  17
ATOM     17  N   UNL A   1      30.738  22.961  26.249  1.00  0.00     0.068 N 
ATOM     18  O   UNL A   1      30.825  23.626  27.291  1.00  0.00    -0.258 OA
ATOM     19  O   UNL A   1      30.057  21.941  26.103  1.00  0.00    -0.258 OA
ENDBRANCH  12  17
ENDBRANCH   7   9
ENDBRANCH   5   7
BRANCH   5  20
ATOM     20  C   UNL A   1      34.753  21.674  26.741  1.00  0.00     0.037 C 
ATOM     21  C   UNL A   1      33.966  22.393  27.829  1.00  0.00     0.007 C 
ENDBRANCH   5  20
ENDBRANCH   3   5
ENDBRANCH   2   3
ENDBRANCH   1   2
BRANCH   1  22
ATOM     22  C   UNL A   1      39.183  20.703  25.645  1.00  0.00     0.275 C 
BRANCH  22  23
ATOM     23  O   UNL A   1      39.897  19.561  26.168  1.00  0.00    -0.458 OA
BRANCH  23  24
ATOM     24  C   UNL A   1      41.247  19.639  26.038  1.00  0.00     0.338 C 
ATOM     25  O   UNL A   1      41.978  18.834  25.490  1.00  0.00    -0.246 OA
BRANCH  24  26
ATOM     26  C   UNL A   1      41.743  20.932  26.558  1.00  0.00     0.060 A 
ATOM     27  C   UNL A   1      41.608  21.170  27.927  1.00  0.00     0.016 A 
ATOM     28  C   UNL A   1      42.259  21.929  25.729  1.00  0.00     0.016 A 
ATOM     29  C   UNL A   1      42.017  22.382  28.482  1.00  0.00     0.010 A 
ATOM     30  C   UNL A   1      42.644  23.164  26.283  1.00  0.00     0.010 A 
ATOM     31  C   UNL A   1      42.536  23.395  27.664  1.00  0.00    -0.014 A 
BRANCH  31  32
ATOM     32  C   UNL A   1      42.723  24.747  28.260  1.00  0.00     0.031 A 
ATOM     33  C   UNL A   1      44.127  25.178  28.552  1.00  0.00     0.074 A 
ATOM     34  C   UNL A   1      41.712  25.616  28.449  1.00  0.00     0.049 A 
ATOM     35  N   UNL A   1      44.570  26.338  28.958  1.00  0.00    -0.248 NA
ATOM     36  C   UNL A   1      45.172  24.158  28.363  1.00  0.00     0.031 C 
ATOM     37  C   UNL A   1      40.307  25.331  28.214  1.00  0.00     0.029 A 
ATOM     38  N   UNL A   1      41.710  26.931  28.851  1.00  0.00    -0.354 N 
ATOM     39  C   UNL A   1      45.942  26.187  29.078  1.00  0.00     0.074 A 
ATOM     40  C   UNL A   1      46.260  24.826  28.704  1.00  0.00     0.031 C 
ATOM     41  C   UNL A   1      39.582  26.449  28.376  1.00  0.00     0.029 A 
ATOM     42  C   UNL A   1      40.464  27.519  28.823  1.00  0.00     0.049 A 
ATOM     43  H   UNL A   1      42.524  27.409  29.132  1.00  0.00     0.167 HD
ATOM     44  C   UNL A   1      46.859  27.093  29.487  1.00  0.00     0.031 A 
ATOM     45  C   UNL A   1      40.074  28.769  29.144  1.00  0.00     0.031 A 
ATOM     46  C   UNL A   1      46.541  28.415  29.944  1.00  0.00     0.049 A 
ATOM     47  C   UNL A   1      41.105  29.733  29.666  1.00  0.00     0.074 A 
ATOM     48  C   UNL A   1      47.391  29.377  30.457  1.00  0.00     0.029 A 
ATOM     49  N   UNL A   1      45.264  28.953  29.962  1.00  0.00    -0.354 N 
ATOM     50  N   UNL A   1      42.402  29.577  29.775  1.00  0.00    -0.248 NA
ATOM     51  C   UNL A   1      40.616  31.040  30.132  1.00  0.00     0.031 C 
ATOM     52  C   UNL A   1      46.620  30.482  30.832  1.00  0.00     0.029 A 
ATOM     53  C   UNL A   1      45.299  30.233  30.491  1.00  0.00     0.049 A 
ATOM     54  H   UNL A   1      44.452  28.495  29.646  1.00  0.00     0.167 HD
ATOM     55  C   UNL A   1      42.885  30.765  30.306  1.00  0.00     0.074 A 
ATOM     56  C   UNL A   1      41.746  31.645  30.470  1.00  0.00     0.031 C 
ATOM     57  C   UNL A   1      44.157  31.097  30.638  1.00  0.00     0.031 A 
BRANCH  44  58
ATOM     58  C   UNL A   1      48.280  26.616  29.535  1.00  0.00    -0.014 A 
ATOM     59  C   UNL A   1      48.797  25.989  30.679  1.00  0.00     0.009 A 
ATOM     60  C   UNL A   1      49.127  26.861  28.445  1.00  0.00     0.009 A 
ATOM     61  C   UNL A   1      50.150  25.654  30.746  1.00  0.00     0.001 A 
ATOM     62  C   UNL A   1      50.473  26.502  28.504  1.00  0.00     0.001 A 
ATOM     63  C   UNL A   1      50.986  25.912  29.658  1.00  0.00     0.000 A 
ENDBRANCH  44  58
BRANCH  45  64
ATOM     64  C   UNL A   1      38.646  29.186  29.040  1.00  0.00    -0.014 A 
ATOM     65  C   UNL A   1      38.128  29.683  27.833  1.00  0.00     0.009 A 
ATOM     66  C   UNL A   1      37.804  29.152  30.165  1.00  0.00     0.009 A 
ATOM     67  C   UNL A   1      36.816  30.164  27.762  1.00  0.00     0.001 A 
ATOM     68  C   UNL A   1      36.484  29.600  30.083  1.00  0.00     0.001 A 
ATOM     69  C   UNL A   1      35.994  30.119  28.886  1.00  0.00     0.000 A 
ENDBRANCH  45  64
BRANCH  57  70
ATOM     70  C   UNL A   1      44.391  32.485  31.159  1.00  0.00    -0.014 A 
ATOM     71  C   UNL A   1      44.358  32.771  32.532  1.00  0.00     0.009 A 
ATOM     72  C   UNL A   1      44.692  33.516  30.255  1.00  0.00     0.009 A 
ATOM     73  C   UNL A   1      44.588  34.072  32.987  1.00  0.00     0.001 A 
ATOM     74  C   UNL A   1      44.950  34.807  30.713  1.00  0.00     0.001 A 
ATOM     75  C   UNL A   1      44.889  35.087  32.078  1.00  0.00     0.000 A 
ENDBRANCH  57  70
ENDBRANCH  31  32
ENDBRANCH  24  26
ENDBRANCH  23  24
ENDBRANCH  22  23
ENDBRANCH   1  22
TORSDOF 16
ENDMDL
MODEL 2
REMARK VINA RESULT:      -9.9      2.529      3.611
REMARK SMILES CCc1nn(C)c(N[C@@](C)(CC)C(=O)OCCOC(=O)c2ccc(-c3c4nc(c(-c5ccccc5)c5ccc([nH]5)c(-c5ccccc5)c5nc(c(-c6ccccc6)c6ccc3[nH]6)C=C5)C=C4)cc2)c1[N+](=O)[O-]
REMARK SMILES IDX 16 1 15 2 13 3 14 4 9 5 10 6 8 7 7 9 3 10 4 11 69 12 5 13
REMARK SMILES IDX 6 14 2 15 1 16 70 17 71 18 72 19 11 20 12 21 17 22 18 23
REMARK SMILES IDX 19 24 20 25 21 26 22 27 68 28 23 29 67 30 24 31 25 32 26 33
REMARK SMILES IDX 61 34 27 35 66 36 60 37 62 38 28 39 65 40 59 41 58 42 29 44
REMARK SMILES IDX 51 45 36 46 50 47 37 48 40 49 49 50 63 51 38 52 39 53 48 55
REMARK SMILES IDX 64 56 41 57 30 58 31 59 35 60 32 61 34 62 33 63 52 64 53 65
REMARK SMILES IDX 57 66 54 67 56 68 55 69 42 70 43 71 47 72 44 73 46 74 45 75
REMARK H PARENT 8 8 62 43 40 54
REMARK Flexibility Score: inf
ROOT
ATOM      1  C   UNL A   1      36.478  22.445  23.781  1.00  0.00     0.274 C 
ENDROOT
BRANCH   1   2
ATOM      2  O   UNL A   1      35.582  23.123  24.675  1.00  0.00    -0.460 OA
BRANCH   2   3
ATOM      3  C   UNL A   1      34.260  22.861  24.484  1.00  0.00     0.331 C 
ATOM      4  O   UNL A   1      33.836  22.050  23.669  1.00  0.00    -0.249 OA
BRANCH   3   5
ATOM      5  C   UNL A   1      33.372  23.769  25.356  1.00  0.00     0.134 C 
ATOM      6  C   UNL A   1      33.465  23.335  26.831  1.00  0.00     0.047 C 
BRANCH   5   7
ATOM      7  N   UNL A   1      33.647  25.228  25.340  1.00  0.00    -0.349 N 
ATOM      8  H   UNL A   1      34.419  25.497  25.887  1.00  0.00     0.163 HD
BRANCH   7   9
ATOM      9  C   UNL A   1      33.019  26.274  24.701  1.00  0.00     0.205 A 
ATOM     10  C   UNL A   1      31.643  27.542  23.457  1.00  0.00     0.142 A 
ATOM     11  N   UNL A   1      31.339  27.829  24.721  1.00  0.00    -0.169 NA
ATOM     12  C   UNL A   1      32.860  26.809  23.415  1.00  0.00     0.334 A 
ATOM     13  N   UNL A   1      32.203  27.114  25.452  1.00  0.00    -0.246 N 
ATOM     14  C   UNL A   1      32.155  27.303  26.885  1.00  0.00     0.176 C 
BRANCH  10  15
ATOM     15  C   UNL A   1      30.677  27.929  22.376  1.00  0.00     0.062 C 
ATOM     16  C   UNL A   1      29.531  28.822  22.796  1.00  0.00     0.011 C 
ENDBRANCH  10  15
BRANCH  12  17
ATOM     17  N   UNL A   1      33.652  26.645  22.250  1.00  0.00     0.068 N 
ATOM     18  O   UNL A   1      33.987  27.664  21.630  1.00  0.00    -0.258 OA
ATOM     19  O   UNL A   1      34.027  25.495  21.998  1.00  0.00    -0.258 OA
ENDBRANCH  12  17
ENDBRANCH   7   9
ENDBRANCH   5   7
BRANCH   5  20
ATOM     20  C   UNL A   1      31.890  23.498  24.919  1.00  0.00     0.037 C 
ATOM     21  C   UNL A   1      31.069  22.528  25.761  1.00  0.00     0.007 C 
ENDBRANCH   5  20
ENDBRANCH   3   5
ENDBRANCH   2   3
ENDBRANCH   1   2
BRANCH   1  22
ATOM     22  C   UNL A   1      37.200  21.312  24.518  1.00  0.00     0.275 C 
BRANCH  22  23
ATOM     23  O   UNL A   1      37.581  21.683  25.861  1.00  0.00    -0.458 OA
BRANCH  23  24
ATOM     24  C   UNL A   1      38.908  21.560  26.119  1.00  0.00     0.338 C 
ATOM     25  O   UNL A   1      39.637  20.642  25.789  1.00  0.00    -0.246 OA
BRANCH  24  26
ATOM     26  C   UNL A   1      39.424  22.780  26.776  1.00  0.00     0.060 A 
ATOM     27  C   UNL A   1      38.810  23.993  26.456  1.00  0.00     0.016 A 
ATOM     28  C   UNL A   1      40.530  22.769  27.627  1.00  0.00     0.016 A 
ATOM     29  C   UNL A   1      39.267  25.190  27.005  1.00  0.00     0.010 A 
ATOM     30  C   UNL A   1      41.012  23.979  28.158  1.00  0.00     0.010 A 
ATOM     31  C   UNL A   1      40.378  25.196  27.860  1.00  0.00    -0.014 A 
BRANCH  31  32
ATOM     32  C   UNL A   1      40.976  26.512  28.218  1.00  0.00     0.031 A 
ATOM     33  C   UNL A   1      42.312  26.841  27.630  1.00  0.00     0.074 A 
ATOM     34  C   UNL A   1      40.331  27.438  28.954  1.00  0.00     0.049 A 
ATOM     35  N   UNL A   1      42.991  27.956  27.687  1.00  0.00    -0.248 NA
ATOM     36  C   UNL A   1      42.973  25.763  26.875  1.00  0.00     0.031 C 
ATOM     37  C   UNL A   1      39.037  27.252  29.589  1.00  0.00     0.029 A 
ATOM     38  N   UNL A   1      40.659  28.737  29.267  1.00  0.00    -0.354 N 
ATOM     39  C   UNL A   1      44.159  27.713  26.983  1.00  0.00     0.074 A 
ATOM     40  C   UNL A   1      44.100  26.348  26.509  1.00  0.00     0.031 C 
ATOM     41  C   UNL A   1      38.626  28.409  30.132  1.00  0.00     0.029 A 
ATOM     42  C   UNL A   1      39.677  29.405  29.966  1.00  0.00     0.049 A 
ATOM     43  H   UNL A   1      41.515  29.151  29.013  1.00  0.00     0.167 HD
ATOM     44  C   UNL A   1      45.204  28.543  26.768  1.00  0.00     0.031 A 
ATOM     45  C   UNL A   1      39.639  30.666  30.441  1.00  0.00     0.031 A 
ATOM     46  C   UNL A   1      45.309  29.868  27.310  1.00  0.00     0.049 A 
ATOM     47  C   UNL A   1      40.847  31.543  30.251  1.00  0.00     0.074 A 
ATOM     48  C   UNL A   1      46.365  30.756  27.218  1.00  0.00     0.029 A 
ATOM     49  N   UNL A   1      44.326  30.487  28.066  1.00  0.00    -0.354 N 
ATOM     50  N   UNL A   1      41.948  31.300  29.581  1.00  0.00    -0.248 NA
ATOM     51  C   UNL A   1      40.818  32.862  30.900  1.00  0.00     0.031 C 
ATOM     52  C   UNL A   1      46.040  31.895  27.961  1.00  0.00     0.029 A 
ATOM     53  C   UNL A   1      44.755  31.743  28.460  1.00  0.00     0.049 A 
ATOM     54  H   UNL A   1      43.452  30.092  28.290  1.00  0.00     0.167 HD
ATOM     55  C   UNL A   1      42.734  32.436  29.717  1.00  0.00     0.074 A 
ATOM     56  C   UNL A   1      41.972  33.382  30.507  1.00  0.00     0.031 C 
ATOM     57  C   UNL A   1      43.980  32.674  29.238  1.00  0.00     0.031 A 
BRANCH  44  58
ATOM     58  C   UNL A   1      46.347  27.974  25.981  1.00  0.00    -0.014 A 
ATOM     59  C   UNL A   1      46.409  28.117  24.586  1.00  0.00     0.009 A 
ATOM     60  C   UNL A   1      47.335  27.227  26.639  1.00  0.00     0.009 A 
ATOM     61  C   UNL A   1      47.419  27.484  23.859  1.00  0.00     0.001 A 
ATOM     62  C   UNL A   1      48.357  26.619  25.913  1.00  0.00     0.001 A 
ATOM     63  C   UNL A   1      48.391  26.736  24.524  1.00  0.00     0.000 A 
ENDBRANCH  44  58
BRANCH  45  64
ATOM     64  C   UNL A   1      38.454  31.178  31.188  1.00  0.00    -0.014 A 
ATOM     65  C   UNL A   1      38.352  31.006  32.579  1.00  0.00     0.009 A 
ATOM     66  C   UNL A   1      37.385  31.786  30.509  1.00  0.00     0.009 A 
ATOM     67  C   UNL A   1      37.198  31.400  33.264  1.00  0.00     0.001 A 
ATOM     68  C   UNL A   1      36.249  32.211  31.201  1.00  0.00     0.001 A 
ATOM     69  C   UNL A   1      36.149  32.006  32.575  1.00  0.00     0.000 A 
ENDBRANCH  45  64
BRANCH  57  70
ATOM     70  C   UNL A   1      44.574  34.026  29.508  1.00  0.00    -0.014 A 
ATOM     71  C   UNL A   1      44.371  35.107  28.637  1.00  0.00     0.009 A 
ATOM     72  C   UNL A   1      45.316  34.227  30.683  1.00  0.00     0.009 A 
ATOM     73  C   UNL A   1      44.930  36.355  28.920  1.00  0.00     0.001 A 
ATOM     74  C   UNL A   1      45.848  35.482  30.978  1.00  0.00     0.001 A 
ATOM     75  C   UNL A   1      45.663  36.542  30.092  1.00  0.00     0.000 A 
ENDBRANCH  57  70
ENDBRANCH  31  32
ENDBRANCH  24  26
ENDBRANCH  23  24
ENDBRANCH  22  23
ENDBRANCH   1  22
TORSDOF 16
ENDMDL
MODEL 3
REMARK VINA RESULT:      -9.8      3.622      8.441
REMARK SMILES CCc1nn(C)c(N[C@@](C)(CC)C(=O)OCCOC(=O)c2ccc(-c3c4nc(c(-c5ccccc5)c5ccc([nH]5)c(-c5ccccc5)c5nc(c(-c6ccccc6)c6ccc3[nH]6)C=C5)C=C4)cc2)c1[N+](=O)[O-]
REMARK SMILES IDX 16 1 15 2 13 3 14 4 9 5 10 6 8 7 7 9 3 10 4 11 69 12 5 13
REMARK SMILES IDX 6 14 2 15 1 16 70 17 71 18 72 19 11 20 12 21 17 22 18 23
REMARK SMILES IDX 19 24 20 25 21 26 22 27 68 28 23 29 67 30 24 31 25 32 26 33
REMARK SMILES IDX 61 34 27 35 66 36 60 37 62 38 28 39 65 40 59 41 58 42 29 44
REMARK SMILES IDX 51 45 36 46 50 47 37 48 40 49 49 50 63 51 38 52 39 53 48 55
REMARK SMILES IDX 64 56 41 57 30 58 31 59 35 60 32 61 34 62 33 63 52 64 53 65
REMARK SMILES IDX 57 66 54 67 56 68 55 69 42 70 43 71 47 72 44 73 46 74 45 75
REMARK H PARENT 8 8 62 43 40 54
REMARK Flexibility Score: inf
ROOT
ATOM      1  C   UNL A   1      31.802  28.879  27.356  1.00  0.00     0.274 C 
ENDROOT
BRANCH   1   2
ATOM      2  O   UNL A   1      32.267  28.002  26.320  1.00  0.00    -0.460 OA
BRANCH   2   3
ATOM      3  C   UNL A   1      31.473  26.926  26.067  1.00  0.00     0.331 C 
ATOM      4  O   UNL A   1      30.633  26.500  26.851  1.00  0.00    -0.249 OA
BRANCH   3   5
ATOM      5  C   UNL A   1      31.823  26.268  24.719  1.00  0.00     0.134 C 
ATOM      6  C   UNL A   1      33.312  26.492  24.395  1.00  0.00     0.047 C 
BRANCH   5   7
ATOM      7  N   UNL A   1      31.589  24.808  24.581  1.00  0.00    -0.349 N 
ATOM      8  H   UNL A   1      30.644  24.562  24.456  1.00  0.00     0.163 HD
BRANCH   7   9
ATOM      9  C   UNL A   1      32.451  23.734  24.597  1.00  0.00     0.205 A 
ATOM     10  C   UNL A   1      34.258  22.403  24.484  1.00  0.00     0.142 A 
ATOM     11  N   UNL A   1      33.951  22.470  25.778  1.00  0.00    -0.169 NA
ATOM     12  C   UNL A   1      33.188  22.933  23.713  1.00  0.00     0.334 A 
ATOM     13  N   UNL A   1      32.840  23.216  25.827  1.00  0.00    -0.246 N 
ATOM     14  C   UNL A   1      32.227  23.383  27.127  1.00  0.00     0.176 C 
BRANCH  10  15
ATOM     15  C   UNL A   1      35.616  21.903  24.088  1.00  0.00     0.062 C 
ATOM     16  C   UNL A   1      36.616  22.956  23.664  1.00  0.00     0.011 C 
ENDBRANCH  10  15
BRANCH  12  17
ATOM     17  N   UNL A   1      33.017  22.705  22.323  1.00  0.00     0.068 N 
ATOM     18  O   UNL A   1      33.619  23.449  21.537  1.00  0.00    -0.258 OA
ATOM     19  O   UNL A   1      32.349  21.715  22.007  1.00  0.00    -0.258 OA
ENDBRANCH  12  17
ENDBRANCH   7   9
ENDBRANCH   5   7
BRANCH   5  20
ATOM     20  C   UNL A   1      31.019  27.045  23.619  1.00  0.00     0.037 C 
ATOM     21  C   UNL A   1      29.497  26.986  23.679  1.00  0.00     0.007 C 
ENDBRANCH   5  20
ENDBRANCH   3   5
ENDBRANCH   2   3
ENDBRANCH   1   2
BRANCH   1  22
ATOM     22  C   UNL A   1      31.771  30.325  26.848  1.00  0.00     0.275 C 
BRANCH  22  23
ATOM     23  O   UNL A   1      33.081  30.806  26.475  1.00  0.00    -0.458 OA
BRANCH  23  24
ATOM     24  C   UNL A   1      33.596  31.737  27.320  1.00  0.00     0.338 C 
ATOM     25  O   UNL A   1      33.024  32.712  27.771  1.00  0.00    -0.246 OA
BRANCH  24  26
ATOM     26  C   UNL A   1      34.958  31.351  27.748  1.00  0.00     0.060 A 
ATOM     27  C   UNL A   1      35.217  29.991  27.927  1.00  0.00     0.016 A 
ATOM     28  C   UNL A   1      35.948  32.289  28.046  1.00  0.00     0.016 A 
ATOM     29  C   UNL A   1      36.466  29.555  28.366  1.00  0.00     0.010 A 
ATOM     30  C   UNL A   1      37.200  31.853  28.519  1.00  0.00     0.010 A 
ATOM     31  C   UNL A   1      37.471  30.483  28.673  1.00  0.00    -0.014 A 
BRANCH  31  32
ATOM     32  C   UNL A   1      38.690  29.988  29.369  1.00  0.00     0.031 A 
ATOM     33  C   UNL A   1      38.830  30.317  30.823  1.00  0.00     0.074 A 
ATOM     34  C   UNL A   1      39.601  29.189  28.781  1.00  0.00     0.049 A 
ATOM     35  N   UNL A   1      39.728  29.912  31.681  1.00  0.00    -0.248 NA
ATOM     36  C   UNL A   1      37.820  31.232  31.383  1.00  0.00     0.031 C 
ATOM     37  C   UNL A   1      39.592  28.795  27.383  1.00  0.00     0.029 A 
ATOM     38  N   UNL A   1      40.697  28.534  29.293  1.00  0.00    -0.354 N 
ATOM     39  C   UNL A   1      39.396  30.524  32.879  1.00  0.00     0.074 A 
ATOM     40  C   UNL A   1      38.218  31.328  32.640  1.00  0.00     0.031 C 
ATOM     41  C   UNL A   1      40.562  27.895  27.157  1.00  0.00     0.029 A 
ATOM     42  C   UNL A   1      41.331  27.716  28.383  1.00  0.00     0.049 A 
ATOM     43  H   UNL A   1      41.000  28.638  30.224  1.00  0.00     0.167 HD
ATOM     44  C   UNL A   1      40.028  30.446  34.072  1.00  0.00     0.031 A 
ATOM     45  C   UNL A   1      42.420  26.933  28.513  1.00  0.00     0.031 A 
ATOM     46  C   UNL A   1      41.247  29.722  34.295  1.00  0.00     0.049 A 
ATOM     47  C   UNL A   1      43.145  26.923  29.832  1.00  0.00     0.074 A 
ATOM     48  C   UNL A   1      42.009  29.651  35.446  1.00  0.00     0.029 A 
ATOM     49  N   UNL A   1      41.893  28.959  33.335  1.00  0.00    -0.354 N 
ATOM     50  N   UNL A   1      42.819  27.508  30.959  1.00  0.00    -0.248 NA
ATOM     51  C   UNL A   1      44.403  26.162  29.891  1.00  0.00     0.031 C 
ATOM     52  C   UNL A   1      43.145  28.884  35.169  1.00  0.00     0.029 A 
ATOM     53  C   UNL A   1      43.055  28.423  33.864  1.00  0.00     0.049 A 
ATOM     54  H   UNL A   1      41.574  28.819  32.414  1.00  0.00     0.167 HD
ATOM     55  C   UNL A   1      43.820  27.177  31.862  1.00  0.00     0.074 A 
ATOM     56  C   UNL A   1      44.749  26.314  31.162  1.00  0.00     0.031 C 
ATOM     57  C   UNL A   1      43.963  27.559  33.155  1.00  0.00     0.031 A 
BRANCH  44  58
ATOM     58  C   UNL A   1      39.433  31.254  35.186  1.00  0.00    -0.014 A 
ATOM     59  C   UNL A   1      38.459  30.710  36.037  1.00  0.00     0.009 A 
ATOM     60  C   UNL A   1      39.805  32.597  35.341  1.00  0.00     0.009 A 
ATOM     61  C   UNL A   1      37.836  31.510  36.996  1.00  0.00     0.001 A 
ATOM     62  C   UNL A   1      39.201  33.388  36.317  1.00  0.00     0.001 A 
ATOM     63  C   UNL A   1      38.208  32.849  37.133  1.00  0.00     0.000 A 
ENDBRANCH  44  58
BRANCH  45  64
ATOM     64  C   UNL A   1      42.938  26.128  27.369  1.00  0.00    -0.014 A 
ATOM     65  C   UNL A   1      43.840  26.686  26.448  1.00  0.00     0.009 A 
ATOM     66  C   UNL A   1      42.486  24.816  27.151  1.00  0.00     0.009 A 
ATOM     67  C   UNL A   1      44.250  25.963  25.323  1.00  0.00     0.001 A 
ATOM     68  C   UNL A   1      42.924  24.084  26.046  1.00  0.00     0.001 A 
ATOM     69  C   UNL A   1      43.796  24.661  25.125  1.00  0.00     0.000 A 
ENDBRANCH  45  64
BRANCH  57  70
ATOM     70  C   UNL A   1      45.136  27.004  33.910  1.00  0.00    -0.014 A 
ATOM     71  C   UNL A   1      46.363  27.682  33.965  1.00  0.00     0.009 A 
ATOM     72  C   UNL A   1      44.991  25.798  34.613  1.00  0.00     0.009 A 
ATOM     73  C   UNL A   1      47.434  27.143  34.682  1.00  0.00     0.001 A 
ATOM     74  C   UNL A   1      46.053  25.277  35.353  1.00  0.00     0.001 A 
ATOM     75  C   UNL A   1      47.276  25.945  35.379  1.00  0.00     0.000 A 
ENDBRANCH  57  70
ENDBRANCH  31  32
ENDBRANCH  24  26
ENDBRANCH  23  24
ENDBRANCH  22  23
ENDBRANCH   1  22
TORSDOF 16
ENDMDL
