MODEL 1
REMARK VINA RESULT:     -10.9      0.000      0.000
REMARK SMILES O=C(COc1cccc(/C=C2/SC(=S)N(NC(=O)c3ccccc3F)C2=O)c1)OCCOC(=O)c1ccc(-c2c3nc(c(-c4ccccc4)c4ccc([nH]4)c(-c4ccccc4)c4nc(c(-c5ccccc5)c5ccc2[nH]5)C=C4)C=C3)cc1
REMARK SMILES IDX 29 1 2 2 1 3 3 4 4 5 5 6 6 7 28 8 7 9 9 10 8 11 10 12 11 13
REMARK SMILES IDX 12 14 26 15 13 16 15 17 27 18 14 19 16 20 17 21 18 23 19 24
REMARK SMILES IDX 20 25 24 26 21 27 23 28 25 29 22 30 30 31 31 32 32 33 33 34
REMARK SMILES IDX 34 35 35 36 36 37 82 38 37 39 81 40 38 41 39 42 40 43 75 44
REMARK SMILES IDX 41 45 80 46 74 47 76 48 42 49 79 50 73 51 72 52 43 54 65 55
REMARK SMILES IDX 50 56 64 57 51 58 54 59 63 60 77 61 52 62 53 63 62 65 78 66
REMARK SMILES IDX 55 67 44 68 45 69 49 70 46 71 48 72 47 73 66 74 67 75 71 76
REMARK SMILES IDX 68 77 70 78 69 79 56 80 57 81 61 82 58 83 60 84 59 85
REMARK H PARENT 16 22 76 53 54 64
REMARK Flexibility Score: inf
ROOT
ATOM      1  O   UNL A   1      34.885  33.094  27.641  1.00  0.00    -0.460 OA
ENDROOT
BRANCH   1   2
ATOM      2  C   UNL A   1      34.441  31.870  27.999  1.00  0.00     0.344 C 
ATOM      3  O   UNL A   1      34.875  31.346  29.028  1.00  0.00    -0.248 OA
BRANCH   2   4
ATOM      4  C   UNL A   1      33.435  31.115  27.111  1.00  0.00     0.351 C 
BRANCH   4   5
ATOM      5  O   UNL A   1      33.725  29.964  26.347  1.00  0.00    -0.482 OA
BRANCH   5   6
ATOM      6  C   UNL A   1      32.904  29.703  25.285  1.00  0.00     0.120 A 
ATOM      7  C   UNL A   1      31.579  30.118  25.404  1.00  0.00     0.046 A 
ATOM      8  C   UNL A   1      33.269  28.912  24.204  1.00  0.00     0.054 A 
ATOM      9  C   UNL A   1      30.627  29.698  24.474  1.00  0.00     0.004 A 
ATOM     10  C   UNL A   1      32.301  28.334  23.386  1.00  0.00    -0.021 A 
ATOM     11  C   UNL A   1      30.980  28.778  23.483  1.00  0.00     0.008 A 
BRANCH  10  12
ATOM     12  C   UNL A   1      32.643  27.190  22.527  1.00  0.00     0.029 C 
ATOM     13  C   UNL A   1      32.824  25.927  22.961  1.00  0.00     0.082 C 
ATOM     14  S   UNL A   1      32.907  24.585  21.866  1.00  0.00    -0.052 SA
ATOM     15  C   UNL A   1      32.826  25.393  24.367  1.00  0.00     0.285 C 
ATOM     16  C   UNL A   1      32.566  23.408  23.133  1.00  0.00     0.168 C 
ATOM     17  N   UNL A   1      32.483  24.055  24.349  1.00  0.00    -0.198 N 
ATOM     18  O   UNL A   1      33.143  26.013  25.370  1.00  0.00    -0.266 OA
ATOM     19  S   UNL A   1      32.426  21.769  22.848  1.00  0.00    -0.050 S 
BRANCH  17  20
ATOM     20  N   UNL A   1      32.309  23.327  25.540  1.00  0.00    -0.254 N 
ATOM     21  C   UNL A   1      33.255  22.637  26.273  1.00  0.00     0.273 C 
ATOM     22  H   UNL A   1      31.393  23.308  25.900  1.00  0.00     0.192 HD
ATOM     23  O   UNL A   1      32.892  22.055  27.299  1.00  0.00    -0.267 OA
BRANCH  21  24
ATOM     24  C   UNL A   1      34.669  22.483  25.869  1.00  0.00     0.077 A 
ATOM     25  C   UNL A   1      35.511  23.596  26.035  1.00  0.00     0.017 A 
ATOM     26  C   UNL A   1      35.199  21.313  25.332  1.00  0.00     0.136 A 
ATOM     27  C   UNL A   1      36.874  23.508  25.743  1.00  0.00     0.001 A 
ATOM     28  C   UNL A   1      36.561  21.219  25.043  1.00  0.00     0.040 A 
ATOM     29  F   UNL A   1      34.424  20.245  25.099  1.00  0.00    -0.206 F 
ATOM     30  C   UNL A   1      37.400  22.313  25.258  1.00  0.00     0.003 A 
ENDBRANCH  21  24
ENDBRANCH  17  20
ENDBRANCH  10  12
ENDBRANCH   5   6
ENDBRANCH   4   5
ENDBRANCH   2   4
ENDBRANCH   1   2
BRANCH   1  31
ATOM     31  C   UNL A   1      34.095  34.296  27.663  1.00  0.00     0.274 C 
BRANCH  31  32
ATOM     32  C   UNL A   1      33.234  34.333  28.929  1.00  0.00     0.275 C 
BRANCH  32  33
ATOM     33  O   UNL A   1      33.839  35.226  29.881  1.00  0.00    -0.458 OA
BRANCH  33  34
ATOM     34  C   UNL A   1      33.825  34.830  31.179  1.00  0.00     0.338 C 
ATOM     35  O   UNL A   1      32.916  34.953  31.979  1.00  0.00    -0.246 OA
BRANCH  34  36
ATOM     36  C   UNL A   1      35.021  33.982  31.391  1.00  0.00     0.060 A 
ATOM     37  C   UNL A   1      34.900  32.848  32.205  1.00  0.00     0.016 A 
ATOM     38  C   UNL A   1      36.210  34.224  30.695  1.00  0.00     0.016 A 
ATOM     39  C   UNL A   1      35.959  31.942  32.305  1.00  0.00     0.010 A 
ATOM     40  C   UNL A   1      37.275  33.330  30.811  1.00  0.00     0.010 A 
ATOM     41  C   UNL A   1      37.156  32.188  31.621  1.00  0.00    -0.014 A 
BRANCH  41  42
ATOM     42  C   UNL A   1      38.348  31.342  31.854  1.00  0.00     0.031 A 
ATOM     43  C   UNL A   1      39.260  31.698  32.993  1.00  0.00     0.074 A 
ATOM     44  C   UNL A   1      38.646  30.310  31.044  1.00  0.00     0.049 A 
ATOM     45  N   UNL A   1      40.393  31.149  33.348  1.00  0.00    -0.248 NA
ATOM     46  C   UNL A   1      38.842  32.827  33.839  1.00  0.00     0.031 C 
ATOM     47  C   UNL A   1      37.836  29.847  29.918  1.00  0.00     0.029 A 
ATOM     48  N   UNL A   1      39.736  29.475  31.040  1.00  0.00    -0.354 N 
ATOM     49  C   UNL A   1      40.818  31.860  34.462  1.00  0.00     0.074 A 
ATOM     50  C   UNL A   1      39.838  32.895  34.710  1.00  0.00     0.031 C 
ATOM     51  C   UNL A   1      38.470  28.823  29.318  1.00  0.00     0.029 A 
ATOM     52  C   UNL A   1      39.739  28.577  30.001  1.00  0.00     0.049 A 
ATOM     53  H   UNL A   1      40.447  29.515  31.720  1.00  0.00     0.167 HD
ATOM     54  C   UNL A   1      41.925  31.669  35.214  1.00  0.00     0.031 A 
ATOM     55  C   UNL A   1      40.673  27.679  29.632  1.00  0.00     0.031 A 
ATOM     56  C   UNL A   1      42.918  30.665  34.959  1.00  0.00     0.049 A 
ATOM     57  C   UNL A   1      41.945  27.555  30.432  1.00  0.00     0.074 A 
ATOM     58  C   UNL A   1      44.058  30.377  35.689  1.00  0.00     0.029 A 
ATOM     59  N   UNL A   1      42.902  29.800  33.878  1.00  0.00    -0.354 N 
ATOM     60  N   UNL A   1      42.302  28.186  31.524  1.00  0.00    -0.248 NA
ATOM     61  C   UNL A   1      42.945  26.591  29.943  1.00  0.00     0.031 C 
ATOM     62  C   UNL A   1      44.762  29.373  35.016  1.00  0.00     0.029 A 
ATOM     63  C   UNL A   1      44.034  29.006  33.897  1.00  0.00     0.049 A 
ATOM     64  H   UNL A   1      42.191  29.757  33.198  1.00  0.00     0.167 HD
ATOM     65  C   UNL A   1      43.552  27.680  31.863  1.00  0.00     0.074 A 
ATOM     66  C   UNL A   1      43.886  26.679  30.872  1.00  0.00     0.031 C 
ATOM     67  C   UNL A   1      44.354  28.016  32.903  1.00  0.00     0.031 A 
BRANCH  54  68
ATOM     68  C   UNL A   1      42.133  32.592  36.377  1.00  0.00    -0.014 A 
ATOM     69  C   UNL A   1      42.867  33.779  36.233  1.00  0.00     0.009 A 
ATOM     70  C   UNL A   1      41.551  32.293  37.617  1.00  0.00     0.009 A 
ATOM     71  C   UNL A   1      43.030  34.641  37.318  1.00  0.00     0.001 A 
ATOM     72  C   UNL A   1      41.698  33.166  38.694  1.00  0.00     0.001 A 
ATOM     73  C   UNL A   1      42.442  34.336  38.546  1.00  0.00     0.000 A 
ENDBRANCH  54  68
BRANCH  55  74
ATOM     74  C   UNL A   1      40.481  26.843  28.417  1.00  0.00    -0.014 A 
ATOM     75  C   UNL A   1      39.823  25.606  28.497  1.00  0.00     0.009 A 
ATOM     76  C   UNL A   1      41.017  27.248  27.185  1.00  0.00     0.009 A 
ATOM     77  C   UNL A   1      39.738  24.776  27.376  1.00  0.00     0.001 A 
ATOM     78  C   UNL A   1      40.906  26.428  26.059  1.00  0.00     0.001 A 
ATOM     79  C   UNL A   1      40.279  25.189  26.158  1.00  0.00     0.000 A 
ENDBRANCH  55  74
BRANCH  67  80
ATOM     80  C   UNL A   1      45.659  27.285  33.036  1.00  0.00    -0.014 A 
ATOM     81  C   UNL A   1      46.841  27.809  32.490  1.00  0.00     0.009 A 
ATOM     82  C   UNL A   1      45.717  26.088  33.766  1.00  0.00     0.009 A 
ATOM     83  C   UNL A   1      48.051  27.132  32.652  1.00  0.00     0.001 A 
ATOM     84  C   UNL A   1      46.934  25.428  33.950  1.00  0.00     0.001 A 
ATOM     85  C   UNL A   1      48.098  25.948  33.386  1.00  0.00     0.000 A 
ENDBRANCH  67  80
ENDBRANCH  41  42
ENDBRANCH  34  36
ENDBRANCH  33  34
ENDBRANCH  32  33
ENDBRANCH  31  32
ENDBRANCH   1  31
TORSDOF 16
ENDMDL
MODEL 2
REMARK VINA RESULT:     -10.6      2.004      2.944
REMARK SMILES O=C(COc1cccc(/C=C2/SC(=S)N(NC(=O)c3ccccc3F)C2=O)c1)OCCOC(=O)c1ccc(-c2c3nc(c(-c4ccccc4)c4ccc([nH]4)c(-c4ccccc4)c4nc(c(-c5ccccc5)c5ccc2[nH]5)C=C4)C=C3)cc1
REMARK SMILES IDX 29 1 2 2 1 3 3 4 4 5 5 6 6 7 28 8 7 9 9 10 8 11 10 12 11 13
REMARK SMILES IDX 12 14 26 15 13 16 15 17 27 18 14 19 16 20 17 21 18 23 19 24
REMARK SMILES IDX 20 25 24 26 21 27 23 28 25 29 22 30 30 31 31 32 32 33 33 34
REMARK SMILES IDX 34 35 35 36 36 37 82 38 37 39 81 40 38 41 39 42 40 43 75 44
REMARK SMILES IDX 41 45 80 46 74 47 76 48 42 49 79 50 73 51 72 52 43 54 65 55
REMARK SMILES IDX 50 56 64 57 51 58 54 59 63 60 77 61 52 62 53 63 62 65 78 66
REMARK SMILES IDX 55 67 44 68 45 69 49 70 46 71 48 72 47 73 66 74 67 75 71 76
REMARK SMILES IDX 68 77 70 78 69 79 56 80 57 81 61 82 58 83 60 84 59 85
REMARK H PARENT 16 22 76 53 54 64
REMARK Flexibility Score: inf
ROOT
ATOM      1  O   UNL A   1      33.685  34.324  29.693  1.00  0.00    -0.460 OA
ENDROOT
BRANCH   1   2
ATOM      2  C   UNL A   1      34.882  33.910  29.223  1.00  0.00     0.344 C 
ATOM      3  O   UNL A   1      35.915  34.277  29.788  1.00  0.00    -0.248 OA
BRANCH   2   4
ATOM      4  C   UNL A   1      34.959  33.020  27.968  1.00  0.00     0.351 C 
BRANCH   4   5
ATOM      5  O   UNL A   1      33.928  32.176  27.502  1.00  0.00    -0.482 OA
BRANCH   5   6
ATOM      6  C   UNL A   1      34.224  30.847  27.378  1.00  0.00     0.120 A 
ATOM      7  C   UNL A   1      35.312  30.380  28.114  1.00  0.00     0.046 A 
ATOM      8  C   UNL A   1      33.625  30.006  26.449  1.00  0.00     0.054 A 
ATOM      9  C   UNL A   1      35.820  29.101  27.877  1.00  0.00     0.004 A 
ATOM     10  C   UNL A   1      34.236  28.813  26.072  1.00  0.00    -0.021 A 
ATOM     11  C   UNL A   1      35.304  28.329  26.833  1.00  0.00     0.008 A 
BRANCH  10  12
ATOM     12  C   UNL A   1      33.845  28.142  24.823  1.00  0.00     0.029 C 
ATOM     13  C   UNL A   1      33.061  27.049  24.748  1.00  0.00     0.082 C 
ATOM     14  S   UNL A   1      32.386  26.507  23.244  1.00  0.00    -0.052 SA
ATOM     15  C   UNL A   1      32.490  26.206  25.854  1.00  0.00     0.285 C 
ATOM     16  C   UNL A   1      31.155  25.528  24.041  1.00  0.00     0.168 C 
ATOM     17  N   UNL A   1      31.345  25.576  25.407  1.00  0.00    -0.198 N 
ATOM     18  O   UNL A   1      32.984  26.042  26.959  1.00  0.00    -0.266 OA
ATOM     19  S   UNL A   1      29.996  24.661  23.211  1.00  0.00    -0.050 S 
BRANCH  17  20
ATOM     20  N   UNL A   1      30.548  24.803  26.271  1.00  0.00    -0.254 N 
ATOM     21  C   UNL A   1      30.765  23.515  26.719  1.00  0.00     0.273 C 
ATOM     22  H   UNL A   1      29.729  25.238  26.600  1.00  0.00     0.192 HD
ATOM     23  O   UNL A   1      29.933  23.010  27.478  1.00  0.00    -0.267 OA
BRANCH  21  24
ATOM     24  C   UNL A   1      31.896  22.665  26.287  1.00  0.00     0.077 A 
ATOM     25  C   UNL A   1      31.797  22.055  25.025  1.00  0.00     0.017 A 
ATOM     26  C   UNL A   1      33.031  22.435  27.059  1.00  0.00     0.136 A 
ATOM     27  C   UNL A   1      32.854  21.295  24.517  1.00  0.00     0.001 A 
ATOM     28  C   UNL A   1      34.091  21.680  26.554  1.00  0.00     0.040 A 
ATOM     29  F   UNL A   1      33.145  22.946  28.293  1.00  0.00    -0.206 F 
ATOM     30  C   UNL A   1      34.007  21.120  25.279  1.00  0.00     0.003 A 
ENDBRANCH  21  24
ENDBRANCH  17  20
ENDBRANCH  10  12
ENDBRANCH   5   6
ENDBRANCH   4   5
ENDBRANCH   2   4
ENDBRANCH   1   2
BRANCH   1  31
ATOM     31  C   UNL A   1      32.910  35.400  29.139  1.00  0.00     0.274 C 
BRANCH  31  32
ATOM     32  C   UNL A   1      32.569  36.417  30.232  1.00  0.00     0.275 C 
BRANCH  32  33
ATOM     33  O   UNL A   1      32.156  35.712  31.416  1.00  0.00    -0.458 OA
BRANCH  33  34
ATOM     34  C   UNL A   1      32.727  36.099  32.585  1.00  0.00     0.338 C 
ATOM     35  O   UNL A   1      32.272  36.869  33.411  1.00  0.00    -0.246 OA
BRANCH  34  36
ATOM     36  C   UNL A   1      33.896  35.219  32.813  1.00  0.00     0.060 A 
ATOM     37  C   UNL A   1      35.178  35.780  32.745  1.00  0.00     0.016 A 
ATOM     38  C   UNL A   1      33.731  33.890  33.219  1.00  0.00     0.016 A 
ATOM     39  C   UNL A   1      36.295  35.021  33.104  1.00  0.00     0.010 A 
ATOM     40  C   UNL A   1      34.848  33.126  33.558  1.00  0.00     0.010 A 
ATOM     41  C   UNL A   1      36.135  33.685  33.497  1.00  0.00    -0.014 A 
BRANCH  41  42
ATOM     42  C   UNL A   1      37.312  32.813  33.707  1.00  0.00     0.031 A 
ATOM     43  C   UNL A   1      38.155  33.037  34.929  1.00  0.00     0.074 A 
ATOM     44  C   UNL A   1      37.657  31.872  32.809  1.00  0.00     0.049 A 
ATOM     45  N   UNL A   1      39.265  32.447  35.288  1.00  0.00    -0.248 NA
ATOM     46  C   UNL A   1      37.687  34.071  35.867  1.00  0.00     0.031 C 
ATOM     47  C   UNL A   1      36.915  31.539  31.594  1.00  0.00     0.029 A 
ATOM     48  N   UNL A   1      38.745  31.036  32.778  1.00  0.00    -0.354 N 
ATOM     49  C   UNL A   1      39.624  33.031  36.495  1.00  0.00     0.074 A 
ATOM     50  C   UNL A   1      38.631  34.039  36.796  1.00  0.00     0.031 C 
ATOM     51  C   UNL A   1      37.584  30.582  30.924  1.00  0.00     0.029 A 
ATOM     52  C   UNL A   1      38.810  30.256  31.650  1.00  0.00     0.049 A 
ATOM     53  H   UNL A   1      39.416  30.998  33.499  1.00  0.00     0.167 HD
ATOM     54  C   UNL A   1      40.685  32.753  37.286  1.00  0.00     0.031 A 
ATOM     55  C   UNL A   1      39.765  29.397  31.241  1.00  0.00     0.031 A 
ATOM     56  C   UNL A   1      41.692  31.777  36.982  1.00  0.00     0.049 A 
ATOM     57  C   UNL A   1      40.988  29.180  32.096  1.00  0.00     0.074 A 
ATOM     58  C   UNL A   1      42.787  31.405  37.742  1.00  0.00     0.029 A 
ATOM     59  N   UNL A   1      41.739  31.034  35.814  1.00  0.00    -0.354 N 
ATOM     60  N   UNL A   1      41.280  29.688  33.268  1.00  0.00    -0.248 NA
ATOM     61  C   UNL A   1      42.015  28.269  31.564  1.00  0.00     0.031 C 
ATOM     62  C   UNL A   1      43.530  30.476  37.006  1.00  0.00     0.029 A 
ATOM     63  C   UNL A   1      42.869  30.236  35.813  1.00  0.00     0.049 A 
ATOM     64  H   UNL A   1      41.070  31.069  35.094  1.00  0.00     0.167 HD
ATOM     65  C   UNL A   1      42.508  29.141  33.623  1.00  0.00     0.074 A 
ATOM     66  C   UNL A   1      42.900  28.251  32.551  1.00  0.00     0.031 C 
ATOM     67  C   UNL A   1      43.247  29.357  34.739  1.00  0.00     0.031 A 
BRANCH  54  68
ATOM     68  C   UNL A   1      40.824  33.544  38.552  1.00  0.00    -0.014 A 
ATOM     69  C   UNL A   1      40.331  33.051  39.769  1.00  0.00     0.009 A 
ATOM     70  C   UNL A   1      41.495  34.775  38.533  1.00  0.00     0.009 A 
ATOM     71  C   UNL A   1      40.491  33.787  40.943  1.00  0.00     0.001 A 
ATOM     72  C   UNL A   1      41.672  35.500  39.712  1.00  0.00     0.001 A 
ATOM     73  C   UNL A   1      41.165  35.008  40.915  1.00  0.00     0.000 A 
ENDBRANCH  54  68
BRANCH  55  74
ATOM     74  C   UNL A   1      39.645  28.699  29.934  1.00  0.00    -0.014 A 
ATOM     75  C   UNL A   1      39.236  27.358  29.874  1.00  0.00     0.009 A 
ATOM     76  C   UNL A   1      40.007  29.351  28.745  1.00  0.00     0.009 A 
ATOM     77  C   UNL A   1      39.226  26.674  28.656  1.00  0.00     0.001 A 
ATOM     78  C   UNL A   1      39.970  28.673  27.524  1.00  0.00     0.001 A 
ATOM     79  C   UNL A   1      39.592  27.333  27.482  1.00  0.00     0.000 A 
ENDBRANCH  55  74
BRANCH  67  80
ATOM     80  C   UNL A   1      44.543  28.609  34.868  1.00  0.00    -0.014 A 
ATOM     81  C   UNL A   1      45.750  29.170  34.424  1.00  0.00     0.009 A 
ATOM     82  C   UNL A   1      44.563  27.353  35.493  1.00  0.00     0.009 A 
ATOM     83  C   UNL A   1      46.950  28.473  34.583  1.00  0.00     0.001 A 
ATOM     84  C   UNL A   1      45.768  26.671  35.675  1.00  0.00     0.001 A 
ATOM     85  C   UNL A   1      46.959  27.230  35.213  1.00  0.00     0.000 A 
ENDBRANCH  67  80
ENDBRANCH  41  42
ENDBRANCH  34  36
ENDBRANCH  33  34
ENDBRANCH  32  33
ENDBRANCH  31  32
ENDBRANCH   1  31
TORSDOF 16
ENDMDL
MODEL 3
REMARK VINA RESULT:     -10.6      3.409      8.761
REMARK SMILES O=C(COc1cccc(/C=C2/SC(=S)N(NC(=O)c3ccccc3F)C2=O)c1)OCCOC(=O)c1ccc(-c2c3nc(c(-c4ccccc4)c4ccc([nH]4)c(-c4ccccc4)c4nc(c(-c5ccccc5)c5ccc2[nH]5)C=C4)C=C3)cc1
REMARK SMILES IDX 29 1 2 2 1 3 3 4 4 5 5 6 6 7 28 8 7 9 9 10 8 11 10 12 11 13
REMARK SMILES IDX 12 14 26 15 13 16 15 17 27 18 14 19 16 20 17 21 18 23 19 24
REMARK SMILES IDX 20 25 24 26 21 27 23 28 25 29 22 30 30 31 31 32 32 33 33 34
REMARK SMILES IDX 34 35 35 36 36 37 82 38 37 39 81 40 38 41 39 42 40 43 75 44
REMARK SMILES IDX 41 45 80 46 74 47 76 48 42 49 79 50 73 51 72 52 43 54 65 55
REMARK SMILES IDX 50 56 64 57 51 58 54 59 63 60 77 61 52 62 53 63 62 65 78 66
REMARK SMILES IDX 55 67 44 68 45 69 49 70 46 71 48 72 47 73 66 74 67 75 71 76
REMARK SMILES IDX 68 77 70 78 69 79 56 80 57 81 61 82 58 83 60 84 59 85
REMARK H PARENT 16 22 76 53 54 64
REMARK Flexibility Score: inf
ROOT
ATOM      1  O   UNL A   1      42.840  19.466  26.413  1.00  0.00    -0.460 OA
ENDROOT
BRANCH   1   2
ATOM      2  C   UNL A   1      41.886  20.106  27.123  1.00  0.00     0.344 C 
ATOM      3  O   UNL A   1      42.217  20.872  28.031  1.00  0.00    -0.248 OA
BRANCH   2   4
ATOM      4  C   UNL A   1      40.395  19.851  26.830  1.00  0.00     0.351 C 
BRANCH   4   5
ATOM      5  O   UNL A   1      39.710  20.266  25.667  1.00  0.00    -0.482 OA
BRANCH   5   6
ATOM      6  C   UNL A   1      39.006  21.435  25.749  1.00  0.00     0.120 A 
ATOM      7  C   UNL A   1      39.713  22.562  26.165  1.00  0.00     0.046 A 
ATOM      8  C   UNL A   1      37.626  21.516  25.615  1.00  0.00     0.054 A 
ATOM      9  C   UNL A   1      39.032  23.736  26.490  1.00  0.00     0.004 A 
ATOM     10  C   UNL A   1      36.925  22.610  26.116  1.00  0.00    -0.021 A 
ATOM     11  C   UNL A   1      37.635  23.751  26.499  1.00  0.00     0.008 A 
BRANCH  10  12
ATOM     12  C   UNL A   1      35.477  22.516  26.356  1.00  0.00     0.029 C 
ATOM     13  C   UNL A   1      34.529  23.069  25.573  1.00  0.00     0.082 C 
ATOM     14  S   UNL A   1      32.852  22.653  25.734  1.00  0.00    -0.052 SA
ATOM     15  C   UNL A   1      34.683  23.961  24.373  1.00  0.00     0.285 C 
ATOM     16  C   UNL A   1      32.449  23.267  24.132  1.00  0.00     0.168 C 
ATOM     17  N   UNL A   1      33.570  23.838  23.564  1.00  0.00    -0.198 N 
ATOM     18  O   UNL A   1      35.609  24.729  24.164  1.00  0.00    -0.266 OA
ATOM     19  S   UNL A   1      30.915  23.185  23.479  1.00  0.00    -0.050 S 
BRANCH  17  20
ATOM     20  N   UNL A   1      33.494  24.487  22.319  1.00  0.00    -0.254 N 
ATOM     21  C   UNL A   1      33.158  25.800  22.051  1.00  0.00     0.273 C 
ATOM     22  H   UNL A   1      33.709  23.933  21.534  1.00  0.00     0.192 HD
ATOM     23  O   UNL A   1      33.147  26.174  20.875  1.00  0.00    -0.267 OA
BRANCH  21  24
ATOM     24  C   UNL A   1      32.735  26.775  23.079  1.00  0.00     0.077 A 
ATOM     25  C   UNL A   1      33.746  27.488  23.745  1.00  0.00     0.017 A 
ATOM     26  C   UNL A   1      31.406  27.012  23.421  1.00  0.00     0.136 A 
ATOM     27  C   UNL A   1      33.423  28.477  24.678  1.00  0.00     0.001 A 
ATOM     28  C   UNL A   1      31.079  28.001  24.350  1.00  0.00     0.040 A 
ATOM     29  F   UNL A   1      30.411  26.314  22.857  1.00  0.00    -0.206 F 
ATOM     30  C   UNL A   1      32.087  28.741  24.969  1.00  0.00     0.003 A 
ENDBRANCH  21  24
ENDBRANCH  17  20
ENDBRANCH  10  12
ENDBRANCH   5   6
ENDBRANCH   4   5
ENDBRANCH   2   4
ENDBRANCH   1   2
BRANCH   1  31
ATOM     31  C   UNL A   1      43.313  19.869  25.117  1.00  0.00     0.274 C 
BRANCH  31  32
ATOM     32  C   UNL A   1      44.231  21.088  25.250  1.00  0.00     0.275 C 
BRANCH  32  33
ATOM     33  O   UNL A   1      43.443  22.284  25.119  1.00  0.00    -0.458 OA
BRANCH  33  34
ATOM     34  C   UNL A   1      44.125  23.448  24.962  1.00  0.00     0.338 C 
ATOM     35  O   UNL A   1      44.863  23.753  24.042  1.00  0.00    -0.246 OA
BRANCH  34  36
ATOM     36  C   UNL A   1      43.615  24.395  25.978  1.00  0.00     0.060 A 
ATOM     37  C   UNL A   1      42.749  23.911  26.968  1.00  0.00     0.016 A 
ATOM     38  C   UNL A   1      44.083  25.712  26.038  1.00  0.00     0.016 A 
ATOM     39  C   UNL A   1      42.369  24.735  28.030  1.00  0.00     0.010 A 
ATOM     40  C   UNL A   1      43.687  26.541  27.088  1.00  0.00     0.010 A 
ATOM     41  C   UNL A   1      42.825  26.058  28.086  1.00  0.00    -0.014 A 
BRANCH  41  42
ATOM     42  C   UNL A   1      42.294  26.999  29.098  1.00  0.00     0.031 A 
ATOM     43  C   UNL A   1      42.984  27.074  30.430  1.00  0.00     0.074 A 
ATOM     44  C   UNL A   1      41.194  27.736  28.862  1.00  0.00     0.049 A 
ATOM     45  N   UNL A   1      42.663  27.769  31.490  1.00  0.00    -0.248 NA
ATOM     46  C   UNL A   1      44.193  26.249  30.589  1.00  0.00     0.031 C 
ATOM     47  C   UNL A   1      40.443  27.773  27.608  1.00  0.00     0.029 A 
ATOM     48  N   UNL A   1      40.505  28.587  29.691  1.00  0.00    -0.354 N 
ATOM     49  C   UNL A   1      43.633  27.472  32.437  1.00  0.00     0.074 A 
ATOM     50  C   UNL A   1      44.539  26.517  31.839  1.00  0.00     0.031 C 
ATOM     51  C   UNL A   1      39.383  28.587  27.759  1.00  0.00     0.029 A 
ATOM     52  C   UNL A   1      39.367  29.108  29.125  1.00  0.00     0.049 A 
ATOM     53  H   UNL A   1      40.800  28.803  30.606  1.00  0.00     0.167 HD
ATOM     54  C   UNL A   1      43.761  27.953  33.695  1.00  0.00     0.031 A 
ATOM     55  C   UNL A   1      38.412  29.893  29.660  1.00  0.00     0.031 A 
ATOM     56  C   UNL A   1      42.850  28.878  34.308  1.00  0.00     0.049 A 
ATOM     57  C   UNL A   1      38.528  30.334  31.097  1.00  0.00     0.074 A 
ATOM     58  C   UNL A   1      42.920  29.445  35.568  1.00  0.00     0.029 A 
ATOM     59  N   UNL A   1      41.694  29.353  33.714  1.00  0.00    -0.354 N 
ATOM     60  N   UNL A   1      39.487  30.102  31.960  1.00  0.00    -0.248 NA
ATOM     61  C   UNL A   1      37.424  31.148  31.633  1.00  0.00     0.031 C 
ATOM     62  C   UNL A   1      41.772  30.221  35.758  1.00  0.00     0.029 A 
ATOM     63  C   UNL A   1      41.017  30.174  34.598  1.00  0.00     0.049 A 
ATOM     64  H   UNL A   1      41.398  29.139  32.800  1.00  0.00     0.167 HD
ATOM     65  C   UNL A   1      39.113  30.758  33.128  1.00  0.00     0.074 A 
ATOM     66  C   UNL A   1      37.850  31.411  32.861  1.00  0.00     0.031 C 
ATOM     67  C   UNL A   1      39.760  30.815  34.318  1.00  0.00     0.031 A 
BRANCH  54  68
ATOM     68  C   UNL A   1      44.922  27.459  34.505  1.00  0.00    -0.014 A 
ATOM     69  C   UNL A   1      46.151  28.136  34.493  1.00  0.00     0.009 A 
ATOM     70  C   UNL A   1      44.770  26.330  35.322  1.00  0.00     0.009 A 
ATOM     71  C   UNL A   1      47.213  27.678  35.272  1.00  0.00     0.001 A 
ATOM     72  C   UNL A   1      45.827  25.886  36.115  1.00  0.00     0.001 A 
ATOM     73  C   UNL A   1      47.050  26.557  36.086  1.00  0.00     0.000 A 
ENDBRANCH  54  68
BRANCH  55  74
ATOM     74  C   UNL A   1      37.222  30.289  28.861  1.00  0.00    -0.014 A 
ATOM     75  C   UNL A   1      37.007  31.632  28.516  1.00  0.00     0.009 A 
ATOM     76  C   UNL A   1      36.260  29.333  28.499  1.00  0.00     0.009 A 
ATOM     77  C   UNL A   1      35.836  32.014  27.857  1.00  0.00     0.001 A 
ATOM     78  C   UNL A   1      35.103  29.715  27.816  1.00  0.00     0.001 A 
ATOM     79  C   UNL A   1      34.886  31.056  27.507  1.00  0.00     0.000 A 
ENDBRANCH  55  74
BRANCH  67  80
ATOM     80  C   UNL A   1      39.125  31.621  35.414  1.00  0.00    -0.014 A 
ATOM     81  C   UNL A   1      38.283  31.019  36.362  1.00  0.00     0.009 A 
ATOM     82  C   UNL A   1      39.419  32.988  35.534  1.00  0.00     0.009 A 
ATOM     83  C   UNL A   1      37.728  31.778  37.394  1.00  0.00     0.001 A 
ATOM     84  C   UNL A   1      38.883  33.738  36.583  1.00  0.00     0.001 A 
ATOM     85  C   UNL A   1      38.033  33.134  37.507  1.00  0.00     0.000 A 
ENDBRANCH  67  80
ENDBRANCH  41  42
ENDBRANCH  34  36
ENDBRANCH  33  34
ENDBRANCH  32  33
ENDBRANCH  31  32
ENDBRANCH   1  31
TORSDOF 16
ENDMDL
