MODEL 1
REMARK VINA RESULT:     -12.8      0.000      0.000
REMARK SMILES CCc1ccc(-c2cc(Cl)cc3c2O[C@H](C(F)(F)F)C(C(=O)OCCOC(=O)c2ccc(-c4c5nc(c(-c6ccccc6)c6ccc([nH]6)c(-c6ccccc6)c6nc(c(-c7ccccc7)c7ccc4[nH]7)C=C6)C=C5)cc2)=C3)cc1
REMARK SMILES IDX 24 1 23 2 21 3 22 4 20 5 7 6 8 7 13 8 9 9 12 10 14 11 10 12
REMARK SMILES IDX 11 13 77 14 15 15 6 16 3 17 4 18 79 19 5 20 78 21 2 22 1 23
REMARK SMILES IDX 16 24 17 25 18 26 19 27 25 28 26 29 27 30 28 31 29 32 30 33
REMARK SMILES IDX 76 34 31 35 75 36 32 37 33 38 34 39 69 40 35 41 74 42 68 43
REMARK SMILES IDX 70 44 36 45 73 46 67 47 66 48 37 50 59 51 44 52 58 53 45 54
REMARK SMILES IDX 48 55 57 56 71 57 46 58 47 59 56 61 72 62 49 63 38 64 39 65
REMARK SMILES IDX 43 66 40 67 42 68 41 69 60 70 61 71 65 72 62 73 64 74 63 75
REMARK SMILES IDX 50 76 51 77 55 78 52 79 54 80 53 81
REMARK H PARENT 70 49 48 60
REMARK Flexibility Score: inf
ROOT
ATOM      1  C   UNL A   1      35.075  21.013  25.012  1.00  0.00     0.275 C 
ENDROOT
BRANCH   1   2
ATOM      2  O   UNL A   1      34.653  21.865  23.921  1.00  0.00    -0.459 OA
BRANCH   2   3
ATOM      3  C   UNL A   1      33.315  22.089  23.923  1.00  0.00     0.338 C 
ATOM      4  O   UNL A   1      32.489  21.348  23.402  1.00  0.00    -0.246 OA
BRANCH   3   5
ATOM      5  C   UNL A   1      32.906  23.267  24.720  1.00  0.00     0.087 C 
ATOM      6  C   UNL A   1      30.801  26.428  23.171  1.00  0.00     0.026 A 
ATOM      7  C   UNL A   1      31.172  26.433  21.802  1.00  0.00     0.033 A 
ATOM      8  C   UNL A   1      31.533  25.542  23.963  1.00  0.00     0.135 A 
ATOM      9  C   UNL A   1      32.269  25.744  21.283  1.00  0.00     0.042 A 
ATOM     10  C   UNL A   1      32.781  25.075  23.482  1.00  0.00     0.019 A 
ATOM     11  O   UNL A   1      31.091  24.976  25.150  1.00  0.00    -0.475 OA
ATOM     12  Cl  UNL A   1      32.618  25.666  19.605  1.00  0.00    -0.084 Cl
ATOM     13  C   UNL A   1      33.138  25.132  22.146  1.00  0.00     0.032 A 
ATOM     14  C   UNL A   1      33.652  24.338  24.413  1.00  0.00     0.027 C 
ATOM     15  C   UNL A   1      31.517  23.528  25.275  1.00  0.00     0.316 C 
BRANCH   6  16
ATOM     16  C   UNL A   1      29.895  27.558  23.550  1.00  0.00    -0.015 A 
ATOM     17  C   UNL A   1      28.453  30.031  23.185  1.00  0.00    -0.048 A 
ATOM     18  C   UNL A   1      27.805  28.795  23.113  1.00  0.00     0.004 A 
ATOM     19  C   UNL A   1      29.805  30.023  23.550  1.00  0.00     0.004 A 
ATOM     20  C   UNL A   1      28.510  27.582  23.327  1.00  0.00     0.009 A 
ATOM     21  C   UNL A   1      30.504  28.817  23.728  1.00  0.00     0.009 A 
BRANCH  17  22
ATOM     22  C   UNL A   1      27.797  31.366  22.900  1.00  0.00     0.032 C 
ATOM     23  C   UNL A   1      28.654  32.623  22.935  1.00  0.00     0.009 C 
ENDBRANCH  17  22
ENDBRANCH   6  16
BRANCH  15  24
ATOM     24  C   UNL A   1      31.568  23.102  26.747  1.00  0.00     0.430 C 
ATOM     25  F   UNL A   1      30.345  22.737  27.205  1.00  0.00    -0.167 F 
ATOM     26  F   UNL A   1      32.410  22.068  26.954  1.00  0.00    -0.167 F 
ATOM     27  F   UNL A   1      31.994  24.123  27.534  1.00  0.00    -0.167 F 
ENDBRANCH  15  24
ENDBRANCH   3   5
ENDBRANCH   2   3
ENDBRANCH   1   2
BRANCH   1  28
ATOM     28  C   UNL A   1      36.565  20.671  24.956  1.00  0.00     0.275 C 
BRANCH  28  29
ATOM     29  O   UNL A   1      37.381  21.789  25.361  1.00  0.00    -0.458 OA
BRANCH  29  30
ATOM     30  C   UNL A   1      38.602  21.435  25.827  1.00  0.00     0.338 C 
ATOM     31  O   UNL A   1      39.154  20.354  25.635  1.00  0.00    -0.246 OA
BRANCH  30  32
ATOM     32  C   UNL A   1      39.286  22.551  26.531  1.00  0.00     0.060 A 
ATOM     33  C   UNL A   1      38.802  23.829  26.269  1.00  0.00     0.016 A 
ATOM     34  C   UNL A   1      40.386  22.411  27.391  1.00  0.00     0.016 A 
ATOM     35  C   UNL A   1      39.390  24.937  26.880  1.00  0.00     0.010 A 
ATOM     36  C   UNL A   1      40.964  23.545  28.021  1.00  0.00     0.010 A 
ATOM     37  C   UNL A   1      40.454  24.830  27.796  1.00  0.00    -0.014 A 
BRANCH  37  38
ATOM     38  C   UNL A   1      41.029  26.124  28.322  1.00  0.00     0.031 A 
ATOM     39  C   UNL A   1      42.343  26.562  27.738  1.00  0.00     0.074 A 
ATOM     40  C   UNL A   1      40.372  27.003  29.114  1.00  0.00     0.049 A 
ATOM     41  N   UNL A   1      42.896  27.747  27.724  1.00  0.00    -0.248 NA
ATOM     42  C   UNL A   1      43.123  25.515  27.058  1.00  0.00     0.031 C 
ATOM     43  C   UNL A   1      39.087  26.770  29.747  1.00  0.00     0.029 A 
ATOM     44  N   UNL A   1      40.637  28.323  29.440  1.00  0.00    -0.354 N 
ATOM     45  C   UNL A   1      44.084  27.589  27.028  1.00  0.00     0.074 A 
ATOM     46  C   UNL A   1      44.156  26.205  26.607  1.00  0.00     0.031 C 
ATOM     47  C   UNL A   1      38.567  27.931  30.175  1.00  0.00     0.029 A 
ATOM     48  C   UNL A   1      39.560  28.985  30.009  1.00  0.00     0.049 A 
ATOM     49  H   UNL A   1      41.510  28.751  29.283  1.00  0.00     0.167 HD
ATOM     50  C   UNL A   1      45.060  28.497  26.797  1.00  0.00     0.031 A 
ATOM     51  C   UNL A   1      39.383  30.281  30.357  1.00  0.00     0.031 A 
ATOM     52  C   UNL A   1      45.074  29.835  27.318  1.00  0.00     0.049 A 
ATOM     53  C   UNL A   1      40.553  31.227  30.234  1.00  0.00     0.074 A 
ATOM     54  C   UNL A   1      46.055  30.799  27.174  1.00  0.00     0.029 A 
ATOM     55  N   UNL A   1      44.090  30.381  28.128  1.00  0.00    -0.354 N 
ATOM     56  N   UNL A   1      41.723  31.030  29.678  1.00  0.00    -0.248 NA
ATOM     57  C   UNL A   1      40.382  32.577  30.797  1.00  0.00     0.031 C 
ATOM     58  C   UNL A   1      45.698  31.904  27.953  1.00  0.00     0.029 A 
ATOM     59  C   UNL A   1      44.443  31.671  28.491  1.00  0.00     0.049 A 
ATOM     60  H   UNL A   1      43.265  29.922  28.404  1.00  0.00     0.167 HD
ATOM     61  C   UNL A   1      42.396  32.243  29.758  1.00  0.00     0.074 A 
ATOM     62  C   UNL A   1      41.516  33.165  30.444  1.00  0.00     0.031 C 
ATOM     63  C   UNL A   1      43.610  32.571  29.250  1.00  0.00     0.031 A 
BRANCH  50  64
ATOM     64  C   UNL A   1      46.261  27.994  26.053  1.00  0.00    -0.014 A 
ATOM     65  C   UNL A   1      46.335  28.038  24.651  1.00  0.00     0.009 A 
ATOM     66  C   UNL A   1      47.312  27.412  26.777  1.00  0.00     0.009 A 
ATOM     67  C   UNL A   1      47.422  27.464  23.990  1.00  0.00     0.001 A 
ATOM     68  C   UNL A   1      48.409  26.865  26.114  1.00  0.00     0.001 A 
ATOM     69  C   UNL A   1      48.457  26.879  24.721  1.00  0.00     0.000 A 
ENDBRANCH  50  64
BRANCH  51  70
ATOM     70  C   UNL A   1      38.058  30.810  30.832  1.00  0.00    -0.014 A 
ATOM     71  C   UNL A   1      37.160  31.404  29.922  1.00  0.00     0.009 A 
ATOM     72  C   UNL A   1      37.690  30.788  32.185  1.00  0.00     0.009 A 
ATOM     73  C   UNL A   1      35.947  31.959  30.346  1.00  0.00     0.001 A 
ATOM     74  C   UNL A   1      36.460  31.313  32.606  1.00  0.00     0.001 A 
ATOM     75  C   UNL A   1      35.593  31.904  31.690  1.00  0.00     0.000 A 
ENDBRANCH  51  70
BRANCH  63  76
ATOM     76  C   UNL A   1      44.060  34.002  29.394  1.00  0.00    -0.014 A 
ATOM     77  C   UNL A   1      44.844  34.437  30.473  1.00  0.00     0.009 A 
ATOM     78  C   UNL A   1      43.708  34.931  28.399  1.00  0.00     0.009 A 
ATOM     79  C   UNL A   1      45.226  35.778  30.574  1.00  0.00     0.001 A 
ATOM     80  C   UNL A   1      44.125  36.259  28.480  1.00  0.00     0.001 A 
ATOM     81  C   UNL A   1      44.873  36.686  29.575  1.00  0.00     0.000 A 
ENDBRANCH  63  76
ENDBRANCH  37  38
ENDBRANCH  30  32
ENDBRANCH  29  30
ENDBRANCH  28  29
ENDBRANCH   1  28
TORSDOF 14
ENDMDL
MODEL 2
REMARK VINA RESULT:     -12.6      3.793      8.860
REMARK SMILES CCc1ccc(-c2cc(Cl)cc3c2O[C@H](C(F)(F)F)C(C(=O)OCCOC(=O)c2ccc(-c4c5nc(c(-c6ccccc6)c6ccc([nH]6)c(-c6ccccc6)c6nc(c(-c7ccccc7)c7ccc4[nH]7)C=C6)C=C5)cc2)=C3)cc1
REMARK SMILES IDX 24 1 23 2 21 3 22 4 20 5 7 6 8 7 13 8 9 9 12 10 14 11 10 12
REMARK SMILES IDX 11 13 77 14 15 15 6 16 3 17 4 18 79 19 5 20 78 21 2 22 1 23
REMARK SMILES IDX 16 24 17 25 18 26 19 27 25 28 26 29 27 30 28 31 29 32 30 33
REMARK SMILES IDX 76 34 31 35 75 36 32 37 33 38 34 39 69 40 35 41 74 42 68 43
REMARK SMILES IDX 70 44 36 45 73 46 67 47 66 48 37 50 59 51 44 52 58 53 45 54
REMARK SMILES IDX 48 55 57 56 71 57 46 58 47 59 56 61 72 62 49 63 38 64 39 65
REMARK SMILES IDX 43 66 40 67 42 68 41 69 60 70 61 71 65 72 62 73 64 74 63 75
REMARK SMILES IDX 50 76 51 77 55 78 52 79 54 80 53 81
REMARK H PARENT 70 49 48 60
REMARK Flexibility Score: inf
ROOT
ATOM      1  C   UNL A   1      33.216  29.206  24.622  1.00  0.00     0.275 C 
ENDROOT
BRANCH   1   2
ATOM      2  O   UNL A   1      32.881  27.968  23.950  1.00  0.00    -0.459 OA
BRANCH   2   3
ATOM      3  C   UNL A   1      33.119  26.877  24.721  1.00  0.00     0.338 C 
ATOM      4  O   UNL A   1      33.979  26.820  25.593  1.00  0.00    -0.246 OA
BRANCH   3   5
ATOM      5  C   UNL A   1      32.161  25.770  24.502  1.00  0.00     0.087 C 
ATOM      6  C   UNL A   1      33.246  21.815  24.467  1.00  0.00     0.026 A 
ATOM      7  C   UNL A   1      34.598  21.846  24.041  1.00  0.00     0.033 A 
ATOM      8  C   UNL A   1      32.588  23.043  24.386  1.00  0.00     0.135 A 
ATOM      9  C   UNL A   1      35.208  22.951  23.442  1.00  0.00     0.042 A 
ATOM     10  C   UNL A   1      33.126  24.047  23.545  1.00  0.00     0.019 A 
ATOM     11  O   UNL A   1      31.496  23.419  25.155  1.00  0.00    -0.475 OA
ATOM     12  Cl  UNL A   1      36.877  23.003  23.054  1.00  0.00    -0.084 Cl
ATOM     13  C   UNL A   1      34.438  24.032  23.106  1.00  0.00     0.032 A 
ATOM     14  C   UNL A   1      32.308  25.242  23.278  1.00  0.00     0.027 C 
ATOM     15  C   UNL A   1      31.580  24.870  25.578  1.00  0.00     0.316 C 
BRANCH   6  16
ATOM     16  C   UNL A   1      32.711  20.429  24.659  1.00  0.00    -0.015 A 
ATOM     17  C   UNL A   1      32.773  17.544  24.656  1.00  0.00    -0.048 A 
ATOM     18  C   UNL A   1      32.880  18.273  25.845  1.00  0.00     0.004 A 
ATOM     19  C   UNL A   1      32.525  18.269  23.484  1.00  0.00     0.004 A 
ATOM     20  C   UNL A   1      32.815  19.690  25.847  1.00  0.00     0.009 A 
ATOM     21  C   UNL A   1      32.494  19.673  23.488  1.00  0.00     0.009 A 
BRANCH  17  22
ATOM     22  C   UNL A   1      32.905  16.039  24.553  1.00  0.00     0.032 C 
ATOM     23  C   UNL A   1      32.411  15.182  25.710  1.00  0.00     0.009 C 
ENDBRANCH  17  22
ENDBRANCH   6  16
BRANCH  15  24
ATOM     24  C   UNL A   1      30.184  25.429  25.881  1.00  0.00     0.430 C 
ATOM     25  F   UNL A   1      29.462  24.581  26.652  1.00  0.00    -0.167 F 
ATOM     26  F   UNL A   1      30.234  26.620  26.514  1.00  0.00    -0.167 F 
ATOM     27  F   UNL A   1      29.478  25.619  24.736  1.00  0.00    -0.167 F 
ENDBRANCH  15  24
ENDBRANCH   3   5
ENDBRANCH   2   3
ENDBRANCH   1   2
BRANCH   1  28
ATOM     28  C   UNL A   1      32.060  29.759  25.459  1.00  0.00     0.275 C 
BRANCH  28  29
ATOM     29  O   UNL A   1      32.436  29.913  26.844  1.00  0.00    -0.458 OA
BRANCH  29  30
ATOM     30  C   UNL A   1      32.961  31.126  27.137  1.00  0.00     0.338 C 
ATOM     31  O   UNL A   1      32.360  32.196  27.083  1.00  0.00    -0.246 OA
BRANCH  30  32
ATOM     32  C   UNL A   1      34.352  31.033  27.650  1.00  0.00     0.060 A 
ATOM     33  C   UNL A   1      34.801  29.756  27.977  1.00  0.00     0.016 A 
ATOM     34  C   UNL A   1      35.212  32.122  27.859  1.00  0.00     0.016 A 
ATOM     35  C   UNL A   1      36.092  29.576  28.474  1.00  0.00     0.010 A 
ATOM     36  C   UNL A   1      36.531  31.923  28.348  1.00  0.00     0.010 A 
ATOM     37  C   UNL A   1      37.003  30.638  28.638  1.00  0.00    -0.014 A 
BRANCH  37  38
ATOM     38  C   UNL A   1      38.340  30.294  29.250  1.00  0.00     0.031 A 
ATOM     39  C   UNL A   1      38.508  30.599  30.712  1.00  0.00     0.074 A 
ATOM     40  C   UNL A   1      39.308  29.565  28.648  1.00  0.00     0.049 A 
ATOM     41  N   UNL A   1      39.371  30.121  31.571  1.00  0.00    -0.248 NA
ATOM     42  C   UNL A   1      37.550  31.562  31.281  1.00  0.00     0.031 C 
ATOM     43  C   UNL A   1      39.312  29.155  27.256  1.00  0.00     0.029 A 
ATOM     44  N   UNL A   1      40.436  28.938  29.153  1.00  0.00    -0.354 N 
ATOM     45  C   UNL A   1      39.054  30.717  32.781  1.00  0.00     0.074 A 
ATOM     46  C   UNL A   1      37.902  31.565  32.554  1.00  0.00     0.031 C 
ATOM     47  C   UNL A   1      40.219  28.184  27.064  1.00  0.00     0.029 A 
ATOM     48  C   UNL A   1      40.998  28.016  28.284  1.00  0.00     0.049 A 
ATOM     49  H   UNL A   1      40.803  29.130  30.047  1.00  0.00     0.167 HD
ATOM     50  C   UNL A   1      39.690  30.616  33.970  1.00  0.00     0.031 A 
ATOM     51  C   UNL A   1      42.016  27.136  28.442  1.00  0.00     0.031 A 
ATOM     52  C   UNL A   1      40.910  29.890  34.187  1.00  0.00     0.049 A 
ATOM     53  C   UNL A   1      42.804  27.169  29.729  1.00  0.00     0.074 A 
ATOM     54  C   UNL A   1      41.647  29.785  35.353  1.00  0.00     0.029 A 
ATOM     55  N   UNL A   1      41.603  29.194  33.210  1.00  0.00    -0.354 N 
ATOM     56  N   UNL A   1      42.563  27.833  30.832  1.00  0.00    -0.248 NA
ATOM     57  C   UNL A   1      44.017  26.335  29.790  1.00  0.00     0.031 C 
ATOM     58  C   UNL A   1      42.821  29.082  35.064  1.00  0.00     0.029 A 
ATOM     59  C   UNL A   1      42.762  28.656  33.747  1.00  0.00     0.049 A 
ATOM     60  H   UNL A   1      41.317  29.097  32.273  1.00  0.00     0.167 HD
ATOM     61  C   UNL A   1      43.543  27.444  31.737  1.00  0.00     0.074 A 
ATOM     62  C   UNL A   1      44.404  26.508  31.045  1.00  0.00     0.031 C 
ATOM     63  C   UNL A   1      43.674  27.791  33.041  1.00  0.00     0.031 A 
BRANCH  50  64
ATOM     64  C   UNL A   1      39.127  31.442  35.089  1.00  0.00    -0.014 A 
ATOM     65  C   UNL A   1      39.441  32.803  35.234  1.00  0.00     0.009 A 
ATOM     66  C   UNL A   1      38.314  30.820  36.048  1.00  0.00     0.009 A 
ATOM     67  C   UNL A   1      38.985  33.512  36.347  1.00  0.00     0.001 A 
ATOM     68  C   UNL A   1      37.838  31.538  37.143  1.00  0.00     0.001 A 
ATOM     69  C   UNL A   1      38.184  32.879  37.299  1.00  0.00     0.000 A 
ENDBRANCH  50  64
BRANCH  51  70
ATOM     70  C   UNL A   1      42.364  26.117  27.393  1.00  0.00    -0.014 A 
ATOM     71  C   UNL A   1      43.234  26.452  26.336  1.00  0.00     0.009 A 
ATOM     72  C   UNL A   1      41.804  24.832  27.387  1.00  0.00     0.009 A 
ATOM     73  C   UNL A   1      43.528  25.544  25.312  1.00  0.00     0.001 A 
ATOM     74  C   UNL A   1      42.124  23.909  26.382  1.00  0.00     0.001 A 
ATOM     75  C   UNL A   1      42.978  24.267  25.342  1.00  0.00     0.000 A 
ENDBRANCH  51  70
BRANCH  63  76
ATOM     76  C   UNL A   1      44.781  27.136  33.827  1.00  0.00    -0.014 A 
ATOM     77  C   UNL A   1      44.586  25.951  34.554  1.00  0.00     0.009 A 
ATOM     78  C   UNL A   1      46.062  27.714  33.812  1.00  0.00     0.009 A 
ATOM     79  C   UNL A   1      45.637  25.387  35.282  1.00  0.00     0.001 A 
ATOM     80  C   UNL A   1      47.120  27.126  34.505  1.00  0.00     0.001 A 
ATOM     81  C   UNL A   1      46.904  25.970  35.251  1.00  0.00     0.000 A 
ENDBRANCH  63  76
ENDBRANCH  37  38
ENDBRANCH  30  32
ENDBRANCH  29  30
ENDBRANCH  28  29
ENDBRANCH   1  28
TORSDOF 14
ENDMDL
MODEL 3
REMARK VINA RESULT:     -12.5      1.770      2.303
REMARK SMILES CCc1ccc(-c2cc(Cl)cc3c2O[C@H](C(F)(F)F)C(C(=O)OCCOC(=O)c2ccc(-c4c5nc(c(-c6ccccc6)c6ccc([nH]6)c(-c6ccccc6)c6nc(c(-c7ccccc7)c7ccc4[nH]7)C=C6)C=C5)cc2)=C3)cc1
REMARK SMILES IDX 24 1 23 2 21 3 22 4 20 5 7 6 8 7 13 8 9 9 12 10 14 11 10 12
REMARK SMILES IDX 11 13 77 14 15 15 6 16 3 17 4 18 79 19 5 20 78 21 2 22 1 23
REMARK SMILES IDX 16 24 17 25 18 26 19 27 25 28 26 29 27 30 28 31 29 32 30 33
REMARK SMILES IDX 76 34 31 35 75 36 32 37 33 38 34 39 69 40 35 41 74 42 68 43
REMARK SMILES IDX 70 44 36 45 73 46 67 47 66 48 37 50 59 51 44 52 58 53 45 54
REMARK SMILES IDX 48 55 57 56 71 57 46 58 47 59 56 61 72 62 49 63 38 64 39 65
REMARK SMILES IDX 43 66 40 67 42 68 41 69 60 70 61 71 65 72 62 73 64 74 63 75
REMARK SMILES IDX 50 76 51 77 55 78 52 79 54 80 53 81
REMARK H PARENT 70 49 48 60
REMARK Flexibility Score: inf
ROOT
ATOM      1  C   UNL A   1      35.198  21.735  26.420  1.00  0.00     0.275 C 
ENDROOT
BRANCH   1   2
ATOM      2  O   UNL A   1      33.831  22.159  26.201  1.00  0.00    -0.459 OA
BRANCH   2   3
ATOM      3  C   UNL A   1      33.748  23.433  25.744  1.00  0.00     0.338 C 
ATOM      4  O   UNL A   1      34.539  24.325  26.033  1.00  0.00    -0.246 OA
BRANCH   3   5
ATOM      5  C   UNL A   1      32.670  23.645  24.753  1.00  0.00     0.087 C 
ATOM      6  C   UNL A   1      30.921  27.288  24.055  1.00  0.00     0.026 A 
ATOM      7  C   UNL A   1      31.063  27.966  25.292  1.00  0.00     0.033 A 
ATOM      8  C   UNL A   1      31.284  25.941  24.091  1.00  0.00     0.135 A 
ATOM      9  C   UNL A   1      31.385  27.340  26.498  1.00  0.00     0.042 A 
ATOM     10  C   UNL A   1      31.340  25.287  25.346  1.00  0.00     0.019 A 
ATOM     11  O   UNL A   1      31.713  25.198  23.001  1.00  0.00    -0.475 OA
ATOM     12  Cl  UNL A   1      31.675  28.203  27.952  1.00  0.00    -0.084 Cl
ATOM     13  C   UNL A   1      31.434  25.973  26.544  1.00  0.00     0.032 A 
ATOM     14  C   UNL A   1      31.487  23.822  25.360  1.00  0.00     0.027 C 
ATOM     15  C   UNL A   1      32.836  24.253  23.372  1.00  0.00     0.316 C 
BRANCH   6  16
ATOM     16  C   UNL A   1      30.158  28.068  23.029  1.00  0.00    -0.015 A 
ATOM     17  C   UNL A   1      28.548  30.236  22.011  1.00  0.00    -0.048 A 
ATOM     18  C   UNL A   1      29.921  30.168  21.755  1.00  0.00     0.004 A 
ATOM     19  C   UNL A   1      27.970  29.154  22.686  1.00  0.00     0.004 A 
ATOM     20  C   UNL A   1      30.704  29.083  22.229  1.00  0.00     0.009 A 
ATOM     21  C   UNL A   1      28.756  28.099  23.180  1.00  0.00     0.009 A 
BRANCH  17  22
ATOM     22  C   UNL A   1      27.652  31.389  21.609  1.00  0.00     0.032 C 
ATOM     23  C   UNL A   1      28.030  32.214  20.386  1.00  0.00     0.009 C 
ENDBRANCH  17  22
ENDBRANCH   6  16
BRANCH  15  24
ATOM     24  C   UNL A   1      32.896  23.069  22.398  1.00  0.00     0.430 C 
ATOM     25  F   UNL A   1      31.732  22.375  22.385  1.00  0.00    -0.167 F 
ATOM     26  F   UNL A   1      33.158  23.458  21.133  1.00  0.00    -0.167 F 
ATOM     27  F   UNL A   1      33.872  22.195  22.755  1.00  0.00    -0.167 F 
ENDBRANCH  15  24
ENDBRANCH   3   5
ENDBRANCH   2   3
ENDBRANCH   1   2
BRANCH   1  28
ATOM     28  C   UNL A   1      35.823  21.085  25.185  1.00  0.00     0.275 C 
BRANCH  28  29
ATOM     29  O   UNL A   1      37.047  21.746  24.800  1.00  0.00    -0.458 OA
BRANCH  29  30
ATOM     30  C   UNL A   1      38.150  21.257  25.415  1.00  0.00     0.338 C 
ATOM     31  O   UNL A   1      38.553  20.099  25.345  1.00  0.00    -0.246 OA
BRANCH  30  32
ATOM     32  C   UNL A   1      38.917  22.313  26.126  1.00  0.00     0.060 A 
ATOM     33  C   UNL A   1      38.494  23.623  25.919  1.00  0.00     0.016 A 
ATOM     34  C   UNL A   1      40.036  22.088  26.943  1.00  0.00     0.016 A 
ATOM     35  C   UNL A   1      39.162  24.678  26.541  1.00  0.00     0.010 A 
ATOM     36  C   UNL A   1      40.695  23.170  27.585  1.00  0.00     0.010 A 
ATOM     37  C   UNL A   1      40.249  24.485  27.416  1.00  0.00    -0.014 A 
BRANCH  37  38
ATOM     38  C   UNL A   1      40.910  25.730  27.958  1.00  0.00     0.031 A 
ATOM     39  C   UNL A   1      42.233  26.107  27.351  1.00  0.00     0.074 A 
ATOM     40  C   UNL A   1      40.325  26.624  28.788  1.00  0.00     0.049 A 
ATOM     41  N   UNL A   1      42.854  27.259  27.352  1.00  0.00    -0.248 NA
ATOM     42  C   UNL A   1      42.934  25.035  26.625  1.00  0.00     0.031 C 
ATOM     43  C   UNL A   1      39.045  26.449  29.449  1.00  0.00     0.029 A 
ATOM     44  N   UNL A   1      40.675  27.918  29.140  1.00  0.00    -0.354 N 
ATOM     45  C   UNL A   1      44.013  27.051  26.621  1.00  0.00     0.074 A 
ATOM     46  C   UNL A   1      43.994  25.677  26.165  1.00  0.00     0.031 C 
ATOM     47  C   UNL A   1      38.604  27.627  29.919  1.00  0.00     0.029 A 
ATOM     48  C   UNL A   1      39.652  28.626  29.753  1.00  0.00     0.049 A 
ATOM     49  H   UNL A   1      41.567  28.299  28.970  1.00  0.00     0.167 HD
ATOM     50  C   UNL A   1      45.034  27.907  26.388  1.00  0.00     0.031 A 
ATOM     51  C   UNL A   1      39.560  29.921  30.137  1.00  0.00     0.031 A 
ATOM     52  C   UNL A   1      45.138  29.228  26.942  1.00  0.00     0.049 A 
ATOM     53  C   UNL A   1      40.779  30.801  30.007  1.00  0.00     0.074 A 
ATOM     54  C   UNL A   1      46.170  30.137  26.796  1.00  0.00     0.029 A 
ATOM     55  N   UNL A   1      44.208  29.808  27.790  1.00  0.00    -0.354 N 
ATOM     56  N   UNL A   1      41.921  30.551  29.416  1.00  0.00    -0.248 NA
ATOM     57  C   UNL A   1      40.700  32.143  30.608  1.00  0.00     0.031 C 
ATOM     58  C   UNL A   1      45.897  31.240  27.611  1.00  0.00     0.029 A 
ATOM     59  C   UNL A   1      44.644  31.066  28.176  1.00  0.00     0.049 A 
ATOM     60  H   UNL A   1      43.365  29.390  28.076  1.00  0.00     0.167 HD
ATOM     61  C   UNL A   1      42.665  31.721  29.509  1.00  0.00     0.074 A 
ATOM     62  C   UNL A   1      41.858  32.673  30.241  1.00  0.00     0.031 C 
ATOM     63  C   UNL A   1      43.884  31.992  28.978  1.00  0.00     0.031 A 
BRANCH  50  64
ATOM     64  C   UNL A   1      46.186  27.356  25.601  1.00  0.00    -0.014 A 
ATOM     65  C   UNL A   1      47.085  26.431  26.154  1.00  0.00     0.009 A 
ATOM     66  C   UNL A   1      46.401  27.825  24.296  1.00  0.00     0.009 A 
ATOM     67  C   UNL A   1      48.206  26.023  25.428  1.00  0.00     0.001 A 
ATOM     68  C   UNL A   1      47.505  27.394  23.564  1.00  0.00     0.001 A 
ATOM     69  C   UNL A   1      48.413  26.504  24.134  1.00  0.00     0.000 A 
ENDBRANCH  50  64
BRANCH  51  70
ATOM     70  C   UNL A   1      38.280  30.512  30.660  1.00  0.00    -0.014 A 
ATOM     71  C   UNL A   1      37.388  31.167  29.786  1.00  0.00     0.009 A 
ATOM     72  C   UNL A   1      37.950  30.489  32.022  1.00  0.00     0.009 A 
ATOM     73  C   UNL A   1      36.220  31.780  30.253  1.00  0.00     0.001 A 
ATOM     74  C   UNL A   1      36.763  31.071  32.488  1.00  0.00     0.001 A 
ATOM     75  C   UNL A   1      35.903  31.723  31.607  1.00  0.00     0.000 A 
ENDBRANCH  51  70
BRANCH  63  76
ATOM     76  C   UNL A   1      44.420  33.390  29.145  1.00  0.00    -0.014 A 
ATOM     77  C   UNL A   1      44.236  34.386  28.174  1.00  0.00     0.009 A 
ATOM     78  C   UNL A   1      45.106  33.721  30.327  1.00  0.00     0.009 A 
ATOM     79  C   UNL A   1      44.764  35.666  28.364  1.00  0.00     0.001 A 
ATOM     80  C   UNL A   1      45.596  35.010  30.533  1.00  0.00     0.001 A 
ATOM     81  C   UNL A   1      45.437  35.979  29.545  1.00  0.00     0.000 A 
ENDBRANCH  63  76
ENDBRANCH  37  38
ENDBRANCH  30  32
ENDBRANCH  29  30
ENDBRANCH  28  29
ENDBRANCH   1  28
TORSDOF 14
ENDMDL
