MODEL 1
REMARK VINA RESULT:      -9.0      0.000      0.000
REMARK SMILES CN(C)c1cc(C(F)(F)F)cc(-c2cccc(/C=C/C(=O)OCCOC(=O)c3ccc(-c4c5nc(c(-c6ccccc6)c6ccc([nH]6)c(-c6ccccc6)c6nc(c(-c7ccccc7)c7ccc4[nH]7)C=C6)C=C5)cc3)c2)n1
REMARK SMILES IDX 23 1 22 2 20 3 21 4 19 5 18 6 17 7 13 8 14 9 76 10 15 11
REMARK SMILES IDX 16 12 12 13 4 14 5 15 77 16 6 17 11 18 2 19 1 20 3 21 7 22
REMARK SMILES IDX 8 23 9 24 10 25 24 26 25 27 26 28 27 29 28 30 29 31 75 32
REMARK SMILES IDX 30 33 74 34 31 35 32 36 33 37 68 38 34 39 73 40 67 41 69 42
REMARK SMILES IDX 35 43 72 44 66 45 65 46 36 48 58 49 43 50 57 51 44 52 47 53
REMARK SMILES IDX 56 54 70 55 45 56 46 57 55 59 71 60 48 61 37 62 38 63 42 64
REMARK SMILES IDX 39 65 41 66 40 67 59 68 60 69 64 70 61 71 63 72 62 73 49 74
REMARK SMILES IDX 50 75 54 76 51 77 53 78 52 79
REMARK H PARENT 69 47 47 58
REMARK Flexibility Score: inf
ROOT
ATOM      1  C   UNL A   1      33.134  36.511  31.415  1.00  0.00     0.275 C 
ENDROOT
BRANCH   1   2
ATOM      2  O   UNL A   1      34.235  36.061  32.227  1.00  0.00    -0.459 OA
BRANCH   2   3
ATOM      3  C   UNL A   1      34.078  34.859  32.830  1.00  0.00     0.330 C 
ATOM      4  O   UNL A   1      33.032  34.235  32.937  1.00  0.00    -0.247 OA
BRANCH   3   5
ATOM      5  C   UNL A   1      35.354  34.302  33.323  1.00  0.00     0.094 C 
ATOM      6  C   UNL A   1      35.618  34.001  34.603  1.00  0.00     0.015 C 
BRANCH   6   7
ATOM      7  C   UNL A   1      36.934  33.539  35.063  1.00  0.00    -0.025 A 
ATOM      8  C   UNL A   1      38.731  31.878  34.926  1.00  0.00     0.001 A 
ATOM      9  C   UNL A   1      39.377  32.522  35.992  1.00  0.00     0.010 A 
ATOM     10  C   UNL A   1      37.499  32.397  34.482  1.00  0.00     0.018 A 
ATOM     11  C   UNL A   1      38.824  33.659  36.582  1.00  0.00     0.001 A 
ATOM     12  C   UNL A   1      37.608  34.164  36.120  1.00  0.00     0.008 A 
BRANCH   8  13
ATOM     13  C   UNL A   1      39.333  30.706  34.280  1.00  0.00     0.073 A 
ATOM     14  C   UNL A   1      41.268  29.423  33.988  1.00  0.00     0.129 A 
ATOM     15  C   UNL A   1      40.579  28.566  33.133  1.00  0.00     0.060 A 
ATOM     16  N   UNL A   1      40.641  30.479  34.553  1.00  0.00    -0.231 NA
ATOM     17  C   UNL A   1      39.226  28.786  32.852  1.00  0.00     0.061 A 
ATOM     18  C   UNL A   1      38.599  29.885  33.435  1.00  0.00     0.042 A 
BRANCH  14  19
ATOM     19  N   UNL A   1      42.604  29.181  34.299  1.00  0.00    -0.363 N 
ATOM     20  C   UNL A   1      43.140  29.831  35.485  1.00  0.00     0.144 C 
ATOM     21  C   UNL A   1      43.094  27.846  33.987  1.00  0.00     0.144 C 
ENDBRANCH  14  19
BRANCH  17  22
ATOM     22  C   UNL A   1      38.450  27.864  31.957  1.00  0.00     0.416 C 
ATOM     23  F   UNL A   1      39.228  27.306  30.989  1.00  0.00    -0.166 F 
ATOM     24  F   UNL A   1      37.900  26.822  32.639  1.00  0.00    -0.166 F 
ATOM     25  F   UNL A   1      37.420  28.470  31.306  1.00  0.00    -0.166 F 
ENDBRANCH  17  22
ENDBRANCH   8  13
ENDBRANCH   6   7
ENDBRANCH   3   5
ENDBRANCH   2   3
ENDBRANCH   1   2
BRANCH   1  26
ATOM     26  C   UNL A   1      33.272  36.021  29.970  1.00  0.00     0.275 C 
BRANCH  26  27
ATOM     27  O   UNL A   1      32.719  34.702  29.797  1.00  0.00    -0.458 OA
BRANCH  27  28
ATOM     28  C   UNL A   1      33.281  33.970  28.805  1.00  0.00     0.338 C 
ATOM     29  O   UNL A   1      32.837  33.778  27.687  1.00  0.00    -0.246 OA
BRANCH  28  30
ATOM     30  C   UNL A   1      34.617  33.507  29.224  1.00  0.00     0.060 A 
ATOM     31  C   UNL A   1      35.726  33.993  28.525  1.00  0.00     0.016 A 
ATOM     32  C   UNL A   1      34.778  32.563  30.241  1.00  0.00     0.016 A 
ATOM     33  C   UNL A   1      37.004  33.538  28.841  1.00  0.00     0.010 A 
ATOM     34  C   UNL A   1      36.062  32.103  30.554  1.00  0.00     0.010 A 
ATOM     35  C   UNL A   1      37.181  32.581  29.850  1.00  0.00    -0.014 A 
BRANCH  35  36
ATOM     36  C   UNL A   1      38.539  32.063  30.143  1.00  0.00     0.031 A 
ATOM     37  C   UNL A   1      39.441  32.801  31.089  1.00  0.00     0.074 A 
ATOM     38  C   UNL A   1      38.956  30.917  29.574  1.00  0.00     0.049 A 
ATOM     39  N   UNL A   1      40.662  32.512  31.461  1.00  0.00    -0.248 NA
ATOM     40  C   UNL A   1      38.897  34.024  31.699  1.00  0.00     0.031 C 
ATOM     41  C   UNL A   1      38.163  30.091  28.662  1.00  0.00     0.029 A 
ATOM     42  N   UNL A   1      40.149  30.250  29.683  1.00  0.00    -0.354 N 
ATOM     43  C   UNL A   1      41.037  33.518  32.342  1.00  0.00     0.074 A 
ATOM     44  C   UNL A   1      39.922  34.438  32.431  1.00  0.00     0.031 C 
ATOM     45  C   UNL A   1      38.893  29.022  28.300  1.00  0.00     0.029 A 
ATOM     46  C   UNL A   1      40.210  29.108  28.924  1.00  0.00     0.049 A 
ATOM     47  H   UNL A   1      40.891  30.560  30.251  1.00  0.00     0.167 HD
ATOM     48  C   UNL A   1      42.203  33.661  33.018  1.00  0.00     0.031 A 
ATOM     49  C   UNL A   1      41.220  28.237  28.738  1.00  0.00     0.031 A 
ATOM     50  C   UNL A   1      43.317  32.755  32.924  1.00  0.00     0.049 A 
ATOM     51  C   UNL A   1      42.527  28.456  29.446  1.00  0.00     0.074 A 
ATOM     52  C   UNL A   1      44.531  32.810  33.586  1.00  0.00     0.029 A 
ATOM     53  N   UNL A   1      43.357  31.636  32.107  1.00  0.00    -0.354 N 
ATOM     54  N   UNL A   1      42.859  29.398  30.294  1.00  0.00    -0.248 NA
ATOM     55  C   UNL A   1      43.598  27.487  29.171  1.00  0.00     0.031 C 
ATOM     56  C   UNL A   1      45.325  31.749  33.133  1.00  0.00     0.029 A 
ATOM     57  C   UNL A   1      44.585  31.007  32.228  1.00  0.00     0.049 A 
ATOM     58  H   UNL A   1      42.621  31.332  31.529  1.00  0.00     0.167 HD
ATOM     59  C   UNL A   1      44.169  29.128  30.669  1.00  0.00     0.074 A 
ATOM     60  C   UNL A   1      44.566  27.924  29.967  1.00  0.00     0.031 C 
ATOM     61  C   UNL A   1      44.971  29.816  31.518  1.00  0.00     0.031 A 
BRANCH  48  62
ATOM     62  C   UNL A   1      42.342  34.868  33.901  1.00  0.00    -0.014 A 
ATOM     63  C   UNL A   1      42.021  34.815  35.265  1.00  0.00     0.009 A 
ATOM     64  C   UNL A   1      42.833  36.069  33.364  1.00  0.00     0.009 A 
ATOM     65  C   UNL A   1      42.158  35.949  36.068  1.00  0.00     0.001 A 
ATOM     66  C   UNL A   1      42.991  37.195  34.173  1.00  0.00     0.001 A 
ATOM     67  C   UNL A   1      42.646  37.137  35.523  1.00  0.00     0.000 A 
ENDBRANCH  48  62
BRANCH  49  68
ATOM     68  C   UNL A   1      41.040  27.081  27.822  1.00  0.00    -0.014 A 
ATOM     69  C   UNL A   1      40.451  25.893  28.278  1.00  0.00     0.009 A 
ATOM     70  C   UNL A   1      41.461  27.164  26.485  1.00  0.00     0.009 A 
ATOM     71  C   UNL A   1      40.304  24.803  27.417  1.00  0.00     0.001 A 
ATOM     72  C   UNL A   1      41.290  26.082  25.621  1.00  0.00     0.001 A 
ATOM     73  C   UNL A   1      40.718  24.900  26.089  1.00  0.00     0.000 A 
ENDBRANCH  49  68
BRANCH  61  74
ATOM     74  C   UNL A   1      46.350  29.269  31.751  1.00  0.00    -0.014 A 
ATOM     75  C   UNL A   1      46.652  28.530  32.905  1.00  0.00     0.009 A 
ATOM     76  C   UNL A   1      47.351  29.469  30.787  1.00  0.00     0.009 A 
ATOM     77  C   UNL A   1      47.939  28.025  33.102  1.00  0.00     0.001 A 
ATOM     78  C   UNL A   1      48.630  28.942  30.976  1.00  0.00     0.001 A 
ATOM     79  C   UNL A   1      48.925  28.227  32.136  1.00  0.00     0.000 A 
ENDBRANCH  61  74
ENDBRANCH  35  36
ENDBRANCH  28  30
ENDBRANCH  27  28
ENDBRANCH  26  27
ENDBRANCH   1  26
TORSDOF 15
ENDMDL
MODEL 2
REMARK VINA RESULT:      -8.9      0.395      5.865
REMARK SMILES CN(C)c1cc(C(F)(F)F)cc(-c2cccc(/C=C/C(=O)OCCOC(=O)c3ccc(-c4c5nc(c(-c6ccccc6)c6ccc([nH]6)c(-c6ccccc6)c6nc(c(-c7ccccc7)c7ccc4[nH]7)C=C6)C=C5)cc3)c2)n1
REMARK SMILES IDX 23 1 22 2 20 3 21 4 19 5 18 6 17 7 13 8 14 9 76 10 15 11
REMARK SMILES IDX 16 12 12 13 4 14 5 15 77 16 6 17 11 18 2 19 1 20 3 21 7 22
REMARK SMILES IDX 8 23 9 24 10 25 24 26 25 27 26 28 27 29 28 30 29 31 75 32
REMARK SMILES IDX 30 33 74 34 31 35 32 36 33 37 68 38 34 39 73 40 67 41 69 42
REMARK SMILES IDX 35 43 72 44 66 45 65 46 36 48 58 49 43 50 57 51 44 52 47 53
REMARK SMILES IDX 56 54 70 55 45 56 46 57 55 59 71 60 48 61 37 62 38 63 42 64
REMARK SMILES IDX 39 65 41 66 40 67 59 68 60 69 64 70 61 71 63 72 62 73 49 74
REMARK SMILES IDX 50 75 54 76 51 77 53 78 52 79
REMARK H PARENT 69 47 47 58
REMARK Flexibility Score: inf
ROOT
ATOM      1  C   UNL A   1      33.086  36.288  31.593  1.00  0.00     0.275 C 
ENDROOT
BRANCH   1   2
ATOM      2  O   UNL A   1      34.210  35.769  32.327  1.00  0.00    -0.459 OA
BRANCH   2   3
ATOM      3  C   UNL A   1      34.019  34.581  32.948  1.00  0.00     0.330 C 
ATOM      4  O   UNL A   1      32.958  33.980  33.050  1.00  0.00    -0.247 OA
BRANCH   3   5
ATOM      5  C   UNL A   1      35.275  34.005  33.470  1.00  0.00     0.094 C 
ATOM      6  C   UNL A   1      35.608  33.937  34.767  1.00  0.00     0.015 C 
BRANCH   6   7
ATOM      7  C   UNL A   1      36.910  33.444  35.236  1.00  0.00    -0.025 A 
ATOM      8  C   UNL A   1      38.695  31.773  35.069  1.00  0.00     0.001 A 
ATOM      9  C   UNL A   1      39.325  32.367  36.173  1.00  0.00     0.010 A 
ATOM     10  C   UNL A   1      37.478  32.321  34.622  1.00  0.00     0.018 A 
ATOM     11  C   UNL A   1      38.770  33.486  36.797  1.00  0.00     0.001 A 
ATOM     12  C   UNL A   1      37.568  34.021  36.330  1.00  0.00     0.008 A 
BRANCH   8  13
ATOM     13  C   UNL A   1      39.300  30.621  34.391  1.00  0.00     0.073 A 
ATOM     14  C   UNL A   1      41.217  29.308  34.117  1.00  0.00     0.129 A 
ATOM     15  C   UNL A   1      40.549  28.513  33.188  1.00  0.00     0.060 A 
ATOM     16  N   UNL A   1      40.589  30.348  34.709  1.00  0.00    -0.231 NA
ATOM     17  C   UNL A   1      39.216  28.781  32.859  1.00  0.00     0.061 A 
ATOM     18  C   UNL A   1      38.588  29.864  33.471  1.00  0.00     0.042 A 
BRANCH  14  19
ATOM     19  N   UNL A   1      42.532  29.017  34.474  1.00  0.00    -0.363 N 
ATOM     20  C   UNL A   1      43.037  29.617  35.700  1.00  0.00     0.144 C 
ATOM     21  C   UNL A   1      42.995  27.678  34.143  1.00  0.00     0.144 C 
ENDBRANCH  14  19
BRANCH  17  22
ATOM     22  C   UNL A   1      38.461  27.926  31.883  1.00  0.00     0.416 C 
ATOM     23  F   UNL A   1      37.867  26.857  32.483  1.00  0.00    -0.166 F 
ATOM     24  F   UNL A   1      37.460  28.608  31.262  1.00  0.00    -0.166 F 
ATOM     25  F   UNL A   1      39.236  27.413  30.889  1.00  0.00    -0.166 F 
ENDBRANCH  17  22
ENDBRANCH   8  13
ENDBRANCH   6   7
ENDBRANCH   3   5
ENDBRANCH   2   3
ENDBRANCH   1   2
BRANCH   1  26
ATOM     26  C   UNL A   1      33.192  35.948  30.103  1.00  0.00     0.275 C 
BRANCH  26  27
ATOM     27  O   UNL A   1      32.678  34.633  29.815  1.00  0.00    -0.458 OA
BRANCH  27  28
ATOM     28  C   UNL A   1      33.324  33.968  28.827  1.00  0.00     0.338 C 
ATOM     29  O   UNL A   1      32.947  33.803  27.680  1.00  0.00    -0.246 OA
BRANCH  28  30
ATOM     30  C   UNL A   1      34.656  33.546  29.297  1.00  0.00     0.060 A 
ATOM     31  C   UNL A   1      35.774  34.181  28.746  1.00  0.00     0.016 A 
ATOM     32  C   UNL A   1      34.813  32.504  30.214  1.00  0.00     0.016 A 
ATOM     33  C   UNL A   1      37.056  33.775  29.112  1.00  0.00     0.010 A 
ATOM     34  C   UNL A   1      36.101  32.096  30.577  1.00  0.00     0.010 A 
ATOM     35  C   UNL A   1      37.230  32.722  30.021  1.00  0.00    -0.014 A 
BRANCH  35  36
ATOM     36  C   UNL A   1      38.598  32.263  30.361  1.00  0.00     0.031 A 
ATOM     37  C   UNL A   1      39.173  31.047  29.695  1.00  0.00     0.074 A 
ATOM     38  C   UNL A   1      39.332  32.951  31.254  1.00  0.00     0.049 A 
ATOM     39  N   UNL A   1      40.343  30.487  29.868  1.00  0.00    -0.248 NA
ATOM     40  C   UNL A   1      38.321  30.373  28.703  1.00  0.00     0.031 C 
ATOM     41  C   UNL A   1      38.899  34.166  31.946  1.00  0.00     0.029 A 
ATOM     42  N   UNL A   1      40.599  32.726  31.728  1.00  0.00    -0.354 N 
ATOM     43  C   UNL A   1      40.368  29.392  29.013  1.00  0.00     0.074 A 
ATOM     44  C   UNL A   1      39.087  29.354  28.340  1.00  0.00     0.031 C 
ATOM     45  C   UNL A   1      39.889  34.582  32.753  1.00  0.00     0.029 A 
ATOM     46  C   UNL A   1      41.007  33.647  32.661  1.00  0.00     0.049 A 
ATOM     47  H   UNL A   1      41.162  31.976  31.429  1.00  0.00     0.167 HD
ATOM     48  C   UNL A   1      41.368  28.502  28.807  1.00  0.00     0.031 A 
ATOM     49  C   UNL A   1      42.147  33.720  33.374  1.00  0.00     0.031 A 
ATOM     50  C   UNL A   1      42.638  28.529  29.482  1.00  0.00     0.049 A 
ATOM     51  C   UNL A   1      43.213  32.680  33.175  1.00  0.00     0.074 A 
ATOM     52  C   UNL A   1      43.719  27.679  29.323  1.00  0.00     0.029 A 
ATOM     53  N   UNL A   1      42.995  29.451  30.454  1.00  0.00    -0.354 N 
ATOM     54  N   UNL A   1      43.232  31.665  32.347  1.00  0.00    -0.248 NA
ATOM     55  C   UNL A   1      44.417  32.800  34.011  1.00  0.00     0.031 C 
ATOM     56  C   UNL A   1      44.712  28.057  30.234  1.00  0.00     0.029 A 
ATOM     57  C   UNL A   1      44.268  29.174  30.924  1.00  0.00     0.049 A 
ATOM     58  H   UNL A   1      42.427  30.193  30.764  1.00  0.00     0.167 HD
ATOM     59  C   UNL A   1      44.454  31.035  32.547  1.00  0.00     0.074 A 
ATOM     60  C   UNL A   1      45.155  31.792  33.565  1.00  0.00     0.031 C 
ATOM     61  C   UNL A   1      44.950  29.928  31.942  1.00  0.00     0.031 A 
BRANCH  48  62
ATOM     62  C   UNL A   1      41.110  27.395  27.824  1.00  0.00    -0.014 A 
ATOM     63  C   UNL A   1      41.656  27.425  26.533  1.00  0.00     0.009 A 
ATOM     64  C   UNL A   1      40.335  26.289  28.209  1.00  0.00     0.009 A 
ATOM     65  C   UNL A   1      41.405  26.386  25.634  1.00  0.00     0.001 A 
ATOM     66  C   UNL A   1      40.105  25.240  27.318  1.00  0.00     0.001 A 
ATOM     67  C   UNL A   1      40.632  25.293  26.029  1.00  0.00     0.000 A 
ENDBRANCH  48  62
BRANCH  49  68
ATOM     68  C   UNL A   1      42.332  34.815  34.361  1.00  0.00    -0.014 A 
ATOM     69  C   UNL A   1      42.996  35.997  34.002  1.00  0.00     0.009 A 
ATOM     70  C   UNL A   1      41.845  34.677  35.671  1.00  0.00     0.009 A 
ATOM     71  C   UNL A   1      43.184  37.013  34.941  1.00  0.00     0.001 A 
ATOM     72  C   UNL A   1      42.012  35.704  36.600  1.00  0.00     0.001 A 
ATOM     73  C   UNL A   1      42.688  36.869  36.237  1.00  0.00     0.000 A 
ENDBRANCH  49  68
BRANCH  61  74
ATOM     74  C   UNL A   1      46.326  29.483  32.349  1.00  0.00    -0.014 A 
ATOM     75  C   UNL A   1      46.514  28.605  33.428  1.00  0.00     0.009 A 
ATOM     76  C   UNL A   1      47.444  29.922  31.623  1.00  0.00     0.009 A 
ATOM     77  C   UNL A   1      47.801  28.198  33.788  1.00  0.00     0.001 A 
ATOM     78  C   UNL A   1      48.726  29.494  31.971  1.00  0.00     0.001 A 
ATOM     79  C   UNL A   1      48.904  28.639  33.057  1.00  0.00     0.000 A 
ENDBRANCH  61  74
ENDBRANCH  35  36
ENDBRANCH  28  30
ENDBRANCH  27  28
ENDBRANCH  26  27
ENDBRANCH   1  26
TORSDOF 15
ENDMDL
MODEL 3
REMARK VINA RESULT:      -8.8      5.625     11.177
REMARK SMILES CN(C)c1cc(C(F)(F)F)cc(-c2cccc(/C=C/C(=O)OCCOC(=O)c3ccc(-c4c5nc(c(-c6ccccc6)c6ccc([nH]6)c(-c6ccccc6)c6nc(c(-c7ccccc7)c7ccc4[nH]7)C=C6)C=C5)cc3)c2)n1
REMARK SMILES IDX 23 1 22 2 20 3 21 4 19 5 18 6 17 7 13 8 14 9 76 10 15 11
REMARK SMILES IDX 16 12 12 13 4 14 5 15 77 16 6 17 11 18 2 19 1 20 3 21 7 22
REMARK SMILES IDX 8 23 9 24 10 25 24 26 25 27 26 28 27 29 28 30 29 31 75 32
REMARK SMILES IDX 30 33 74 34 31 35 32 36 33 37 68 38 34 39 73 40 67 41 69 42
REMARK SMILES IDX 35 43 72 44 66 45 65 46 36 48 58 49 43 50 57 51 44 52 47 53
REMARK SMILES IDX 56 54 70 55 45 56 46 57 55 59 71 60 48 61 37 62 38 63 42 64
REMARK SMILES IDX 39 65 41 66 40 67 59 68 60 69 64 70 61 71 63 72 62 73 49 74
REMARK SMILES IDX 50 75 54 76 51 77 53 78 52 79
REMARK H PARENT 69 47 47 58
REMARK Flexibility Score: inf
ROOT
ATOM      1  C   UNL A   1      45.335  19.973  24.685  1.00  0.00     0.275 C 
ENDROOT
BRANCH   1   2
ATOM      2  O   UNL A   1      45.507  21.292  25.233  1.00  0.00    -0.459 OA
BRANCH   2   3
ATOM      3  C   UNL A   1      45.449  22.317  24.351  1.00  0.00     0.330 C 
ATOM      4  O   UNL A   1      44.673  22.419  23.411  1.00  0.00    -0.247 OA
BRANCH   3   5
ATOM      5  C   UNL A   1      46.410  23.393  24.667  1.00  0.00     0.094 C 
ATOM      6  C   UNL A   1      46.086  24.679  24.870  1.00  0.00     0.015 C 
BRANCH   6   7
ATOM      7  C   UNL A   1      47.085  25.734  25.087  1.00  0.00    -0.025 A 
ATOM      8  C   UNL A   1      47.578  28.037  25.764  1.00  0.00     0.001 A 
ATOM      9  C   UNL A   1      48.916  27.836  25.392  1.00  0.00     0.010 A 
ATOM     10  C   UNL A   1      46.671  26.973  25.591  1.00  0.00     0.018 A 
ATOM     11  C   UNL A   1      49.341  26.607  24.886  1.00  0.00     0.001 A 
ATOM     12  C   UNL A   1      48.429  25.562  24.734  1.00  0.00     0.008 A 
BRANCH   8  13
ATOM     13  C   UNL A   1      47.141  29.317  26.333  1.00  0.00     0.073 A 
ATOM     14  C   UNL A   1      47.787  31.292  27.407  1.00  0.00     0.129 A 
ATOM     15  C   UNL A   1      46.461  31.718  27.437  1.00  0.00     0.060 A 
ATOM     16  N   UNL A   1      48.113  30.102  26.856  1.00  0.00    -0.231 NA
ATOM     17  C   UNL A   1      45.450  30.919  26.892  1.00  0.00     0.061 A 
ATOM     18  C   UNL A   1      45.804  29.691  26.338  1.00  0.00     0.042 A 
BRANCH  14  19
ATOM     19  N   UNL A   1      48.798  32.106  27.914  1.00  0.00    -0.363 N 
ATOM     20  C   UNL A   1      49.851  32.510  26.994  1.00  0.00     0.144 C 
ATOM     21  C   UNL A   1      48.387  33.068  28.926  1.00  0.00     0.144 C 
ENDBRANCH  14  19
BRANCH  17  22
ATOM     22  C   UNL A   1      44.016  31.363  26.884  1.00  0.00     0.416 C 
ATOM     23  F   UNL A   1      43.684  32.021  25.740  1.00  0.00    -0.166 F 
ATOM     24  F   UNL A   1      43.149  30.318  26.978  1.00  0.00    -0.166 F 
ATOM     25  F   UNL A   1      43.697  32.205  27.905  1.00  0.00    -0.166 F 
ENDBRANCH  17  22
ENDBRANCH   8  13
ENDBRANCH   6   7
ENDBRANCH   3   5
ENDBRANCH   2   3
ENDBRANCH   1   2
BRANCH   1  26
ATOM     26  C   UNL A   1      44.229  19.206  25.417  1.00  0.00     0.275 C 
BRANCH  26  27
ATOM     27  O   UNL A   1      42.932  19.458  24.843  1.00  0.00    -0.458 OA
BRANCH  27  28
ATOM     28  C   UNL A   1      41.937  19.660  25.740  1.00  0.00     0.338 C 
ATOM     29  O   UNL A   1      41.074  18.867  26.076  1.00  0.00    -0.246 OA
BRANCH  28  30
ATOM     30  C   UNL A   1      42.101  20.978  26.379  1.00  0.00     0.060 A 
ATOM     31  C   UNL A   1      42.155  22.104  25.552  1.00  0.00     0.016 A 
ATOM     32  C   UNL A   1      42.262  21.106  27.761  1.00  0.00     0.016 A 
ATOM     33  C   UNL A   1      42.371  23.364  26.104  1.00  0.00     0.010 A 
ATOM     34  C   UNL A   1      42.483  22.373  28.313  1.00  0.00     0.010 A 
ATOM     35  C   UNL A   1      42.548  23.508  27.487  1.00  0.00    -0.014 A 
BRANCH  35  36
ATOM     36  C   UNL A   1      42.831  24.847  28.057  1.00  0.00     0.031 A 
ATOM     37  C   UNL A   1      44.232  25.222  28.442  1.00  0.00     0.074 A 
ATOM     38  C   UNL A   1      41.831  25.734  28.209  1.00  0.00     0.049 A 
ATOM     39  N   UNL A   1      44.674  26.338  28.964  1.00  0.00    -0.248 NA
ATOM     40  C   UNL A   1      45.274  24.210  28.209  1.00  0.00     0.031 C 
ATOM     41  C   UNL A   1      40.433  25.502  27.844  1.00  0.00     0.029 A 
ATOM     42  N   UNL A   1      41.842  27.011  28.710  1.00  0.00    -0.354 N 
ATOM     43  C   UNL A   1      46.043  26.162  29.128  1.00  0.00     0.074 A 
ATOM     44  C   UNL A   1      46.354  24.824  28.672  1.00  0.00     0.031 C 
ATOM     45  C   UNL A   1      39.721  26.606  28.128  1.00  0.00     0.029 A 
ATOM     46  C   UNL A   1      40.604  27.604  28.725  1.00  0.00     0.049 A 
ATOM     47  H   UNL A   1      42.659  27.460  29.027  1.00  0.00     0.167 HD
ATOM     48  C   UNL A   1      46.956  27.038  29.612  1.00  0.00     0.031 A 
ATOM     49  C   UNL A   1      40.220  28.811  29.184  1.00  0.00     0.031 A 
ATOM     50  C   UNL A   1      46.650  28.364  30.077  1.00  0.00     0.049 A 
ATOM     51  C   UNL A   1      41.244  29.736  29.780  1.00  0.00     0.074 A 
ATOM     52  C   UNL A   1      47.514  29.328  30.567  1.00  0.00     0.029 A 
ATOM     53  N   UNL A   1      45.376  28.911  30.120  1.00  0.00    -0.354 N 
ATOM     54  N   UNL A   1      42.536  29.566  29.906  1.00  0.00    -0.248 NA
ATOM     55  C   UNL A   1      40.751  31.023  30.294  1.00  0.00     0.031 C 
ATOM     56  C   UNL A   1      46.757  30.441  30.952  1.00  0.00     0.029 A 
ATOM     57  C   UNL A   1      45.428  30.187  30.654  1.00  0.00     0.049 A 
ATOM     58  H   UNL A   1      44.557  28.458  29.816  1.00  0.00     0.167 HD
ATOM     59  C   UNL A   1      43.016  30.728  30.497  1.00  0.00     0.074 A 
ATOM     60  C   UNL A   1      41.877  31.603  30.690  1.00  0.00     0.031 C 
ATOM     61  C   UNL A   1      44.287  31.043  30.848  1.00  0.00     0.031 A 
BRANCH  48  62
ATOM     62  C   UNL A   1      48.382  26.569  29.692  1.00  0.00    -0.014 A 
ATOM     63  C   UNL A   1      49.293  26.829  28.659  1.00  0.00     0.009 A 
ATOM     64  C   UNL A   1      48.825  25.885  30.836  1.00  0.00     0.009 A 
ATOM     65  C   UNL A   1      50.614  26.384  28.753  1.00  0.00     0.001 A 
ATOM     66  C   UNL A   1      50.151  25.463  30.939  1.00  0.00     0.001 A 
ATOM     67  C   UNL A   1      51.043  25.705  29.894  1.00  0.00     0.000 A 
ENDBRANCH  48  62
BRANCH  49  68
ATOM     68  C   UNL A   1      38.790  29.207  29.116  1.00  0.00    -0.014 A 
ATOM     69  C   UNL A   1      38.254  29.750  27.939  1.00  0.00     0.009 A 
ATOM     70  C   UNL A   1      37.956  29.044  30.233  1.00  0.00     0.009 A 
ATOM     71  C   UNL A   1      36.914  30.139  27.888  1.00  0.00     0.001 A 
ATOM     72  C   UNL A   1      36.611  29.410  30.172  1.00  0.00     0.001 A 
ATOM     73  C   UNL A   1      36.092  29.964  29.002  1.00  0.00     0.000 A 
ENDBRANCH  49  68
BRANCH  61  74
ATOM     74  C   UNL A   1      44.514  32.398  31.456  1.00  0.00    -0.014 A 
ATOM     75  C   UNL A   1      44.410  32.598  32.841  1.00  0.00     0.009 A 
ATOM     76  C   UNL A   1      44.870  33.479  30.635  1.00  0.00     0.009 A 
ATOM     77  C   UNL A   1      44.631  33.864  33.389  1.00  0.00     0.001 A 
ATOM     78  C   UNL A   1      45.114  34.737  31.188  1.00  0.00     0.001 A 
ATOM     79  C   UNL A   1      44.987  34.930  32.563  1.00  0.00     0.000 A 
ENDBRANCH  61  74
ENDBRANCH  35  36
ENDBRANCH  28  30
ENDBRANCH  27  28
ENDBRANCH  26  27
ENDBRANCH   1  26
TORSDOF 15
ENDMDL
