MODEL 1
REMARK VINA RESULT:     -10.8      0.000      0.000
REMARK SMILES O=C(C[C@@H]([NH2+]Cc1ccccc1)C(=O)OCCOC(=O)c1ccc(-c2c3nc(c(-c4ccccc4)c4ccc([nH]4)c(-c4ccccc4)c4nc(c(-c5ccccc5)c5ccc2[nH]5)C=C4)C=C3)cc1)Nc1cccc(Cl)c1Cl
REMARK SMILES IDX 16 1 15 2 13 3 14 4 4 5 3 6 2 7 1 8 69 9 70 11 71 12 76 13
REMARK SMILES IDX 72 14 74 15 77 16 73 17 75 18 5 19 6 22 7 23 8 24 12 25 9 26
REMARK SMILES IDX 11 27 10 28 17 29 18 30 19 31 20 32 21 33 22 34 68 35 23 36
REMARK SMILES IDX 67 37 24 38 25 39 26 40 61 41 27 42 66 43 60 44 62 45 28 46
REMARK SMILES IDX 65 47 59 48 58 49 29 51 51 52 36 53 50 54 37 55 40 56 49 57
REMARK SMILES IDX 63 58 38 59 39 60 48 62 64 63 41 64 30 65 31 66 35 67 32 68
REMARK SMILES IDX 34 69 33 70 52 71 53 72 57 73 54 74 56 75 55 76 42 77 43 78
REMARK SMILES IDX 47 79 44 80 46 81 45 82
REMARK H PARENT 69 10 5 20 5 21 62 50 40 61
REMARK Flexibility Score: inf
ROOT
ATOM      1  C   UNL A   1      32.285  28.588  27.326  1.00  0.00     0.274 C 
ENDROOT
BRANCH   1   2
ATOM      2  O   UNL A   1      32.281  27.904  26.056  1.00  0.00    -0.458 OA
BRANCH   2   3
ATOM      3  C   UNL A   1      31.441  26.837  25.970  1.00  0.00     0.365 C 
ATOM      4  O   UNL A   1      30.717  26.474  26.893  1.00  0.00    -0.245 OA
BRANCH   3   5
ATOM      5  C   UNL A   1      31.480  26.128  24.601  1.00  0.00     0.303 C 
BRANCH   5   6
ATOM      6  C   UNL A   1      31.676  24.608  24.734  1.00  0.00     0.177 C 
BRANCH   6   7
ATOM      7  C   UNL A   1      33.118  24.245  24.452  1.00  0.00     0.231 C 
ATOM      8  O   UNL A   1      33.607  24.363  23.334  1.00  0.00    -0.274 OA
ATOM      9  N   UNL A   1      33.730  23.629  25.534  1.00  0.00    -0.325 N 
ATOM     10  H   UNL A   1      33.212  23.534  26.364  1.00  0.00     0.169 HD
BRANCH   9  11
ATOM     11  C   UNL A   1      35.050  23.131  25.514  1.00  0.00     0.061 A 
ATOM     12  C   UNL A   1      36.062  24.076  25.749  1.00  0.00     0.028 A 
ATOM     13  C   UNL A   1      35.396  21.790  25.242  1.00  0.00     0.083 A 
ATOM     14  C   UNL A   1      37.400  23.691  25.786  1.00  0.00     0.004 A 
ATOM     15  C   UNL A   1      36.751  21.418  25.258  1.00  0.00     0.061 A 
ATOM     16  Cl  UNL A   1      34.198  20.656  24.695  1.00  0.00    -0.080 Cl
ATOM     17  C   UNL A   1      37.744  22.363  25.544  1.00  0.00     0.022 A 
ATOM     18  Cl  UNL A   1      37.287  19.813  24.887  1.00  0.00    -0.083 Cl
ENDBRANCH   9  11
ENDBRANCH   6   7
ENDBRANCH   5   6
BRANCH   5  19
ATOM     19  N   UNL A   1      30.286  26.429  23.747  1.00  0.00    -0.330 N 
ATOM     20  H   UNL A   1      29.502  26.654  24.360  1.00  0.00     0.347 HD
ATOM     21  H   UNL A   1      30.118  25.600  23.177  1.00  0.00     0.347 HD
BRANCH  19  22
ATOM     22  C   UNL A   1      30.478  27.554  22.812  1.00  0.00     0.298 C 
BRANCH  22  23
ATOM     23  C   UNL A   1      29.542  28.722  23.040  1.00  0.00     0.006 A 
ATOM     24  C   UNL A   1      30.010  29.954  23.524  1.00  0.00     0.009 A 
ATOM     25  C   UNL A   1      28.175  28.587  22.762  1.00  0.00     0.009 A 
ATOM     26  C   UNL A   1      29.123  31.008  23.756  1.00  0.00     0.001 A 
ATOM     27  C   UNL A   1      27.293  29.644  22.985  1.00  0.00     0.001 A 
ATOM     28  C   UNL A   1      27.765  30.852  23.491  1.00  0.00     0.000 A 
ENDBRANCH  22  23
ENDBRANCH  19  22
ENDBRANCH   5  19
ENDBRANCH   3   5
ENDBRANCH   2   3
ENDBRANCH   1   2
BRANCH   1  29
ATOM     29  C   UNL A   1      32.559  30.090  27.188  1.00  0.00     0.275 C 
BRANCH  29  30
ATOM     30  O   UNL A   1      33.951  30.390  26.963  1.00  0.00    -0.458 OA
BRANCH  30  31
ATOM     31  C   UNL A   1      34.594  30.937  28.023  1.00  0.00     0.338 C 
ATOM     32  O   UNL A   1      34.145  31.760  28.803  1.00  0.00    -0.246 OA
BRANCH  31  33
ATOM     33  C   UNL A   1      35.903  30.292  28.221  1.00  0.00     0.060 A 
ATOM     34  C   UNL A   1      36.164  29.725  29.473  1.00  0.00     0.016 A 
ATOM     35  C   UNL A   1      36.894  30.316  27.238  1.00  0.00     0.016 A 
ATOM     36  C   UNL A   1      37.407  29.165  29.747  1.00  0.00     0.010 A 
ATOM     37  C   UNL A   1      38.153  29.772  27.522  1.00  0.00     0.010 A 
ATOM     38  C   UNL A   1      38.415  29.200  28.780  1.00  0.00    -0.014 A 
BRANCH  38  39
ATOM     39  C   UNL A   1      39.763  28.692  29.121  1.00  0.00     0.031 A 
ATOM     40  C   UNL A   1      40.699  29.546  29.921  1.00  0.00     0.074 A 
ATOM     41  C   UNL A   1      40.123  27.450  28.752  1.00  0.00     0.049 A 
ATOM     42  N   UNL A   1      41.939  29.309  30.268  1.00  0.00    -0.248 NA
ATOM     43  C   UNL A   1      40.173  30.836  30.394  1.00  0.00     0.031 C 
ATOM     44  C   UNL A   1      39.271  26.507  28.031  1.00  0.00     0.029 A 
ATOM     45  N   UNL A   1      41.296  26.767  28.944  1.00  0.00    -0.354 N 
ATOM     46  C   UNL A   1      42.349  30.429  30.978  1.00  0.00     0.074 A 
ATOM     47  C   UNL A   1      41.229  31.345  31.013  1.00  0.00     0.031 C 
ATOM     48  C   UNL A   1      39.945  25.357  27.854  1.00  0.00     0.029 A 
ATOM     49  C   UNL A   1      41.292  25.508  28.399  1.00  0.00     0.049 A 
ATOM     50  H   UNL A   1      42.068  27.144  29.427  1.00  0.00     0.167 HD
ATOM     51  C   UNL A   1      43.556  30.673  31.543  1.00  0.00     0.031 A 
ATOM     52  C   UNL A   1      42.276  24.591  28.320  1.00  0.00     0.031 A 
ATOM     53  C   UNL A   1      44.669  29.763  31.500  1.00  0.00     0.049 A 
ATOM     54  C   UNL A   1      43.629  24.918  28.889  1.00  0.00     0.074 A 
ATOM     55  C   UNL A   1      45.939  29.927  32.026  1.00  0.00     0.029 A 
ATOM     56  N   UNL A   1      44.644  28.518  30.891  1.00  0.00    -0.354 N 
ATOM     57  N   UNL A   1      44.015  25.991  29.535  1.00  0.00    -0.248 NA
ATOM     58  C   UNL A   1      44.685  23.913  28.703  1.00  0.00     0.031 C 
ATOM     59  C   UNL A   1      46.697  28.798  31.696  1.00  0.00     0.029 A 
ATOM     60  C   UNL A   1      45.883  27.911  31.009  1.00  0.00     0.049 A 
ATOM     61  H   UNL A   1      43.862  28.123  30.443  1.00  0.00     0.167 HD
ATOM     62  C   UNL A   1      45.353  25.786  29.845  1.00  0.00     0.074 A 
ATOM     63  C   UNL A   1      45.707  24.477  29.333  1.00  0.00     0.031 C 
ATOM     64  C   UNL A   1      46.214  26.609  30.492  1.00  0.00     0.031 A 
BRANCH  51  65
ATOM     65  C   UNL A   1      43.746  32.006  32.208  1.00  0.00    -0.014 A 
ATOM     66  C   UNL A   1      43.460  32.194  33.568  1.00  0.00     0.009 A 
ATOM     67  C   UNL A   1      44.240  33.086  31.458  1.00  0.00     0.009 A 
ATOM     68  C   UNL A   1      43.636  33.448  34.158  1.00  0.00     0.001 A 
ATOM     69  C   UNL A   1      44.436  34.331  32.057  1.00  0.00     0.001 A 
ATOM     70  C   UNL A   1      44.127  34.514  33.403  1.00  0.00     0.000 A 
ENDBRANCH  51  65
BRANCH  52  71
ATOM     71  C   UNL A   1      42.033  23.294  27.637  1.00  0.00    -0.014 A 
ATOM     72  C   UNL A   1      41.392  22.242  28.306  1.00  0.00     0.009 A 
ATOM     73  C   UNL A   1      42.458  23.098  26.312  1.00  0.00     0.009 A 
ATOM     74  C   UNL A   1      41.198  21.013  27.669  1.00  0.00     0.001 A 
ATOM     75  C   UNL A   1      42.237  21.879  25.669  1.00  0.00     0.001 A 
ATOM     76  C   UNL A   1      41.615  20.835  26.351  1.00  0.00     0.000 A 
ENDBRANCH  52  71
BRANCH  64  77
ATOM     77  C   UNL A   1      47.613  26.107  30.703  1.00  0.00    -0.014 A 
ATOM     78  C   UNL A   1      48.553  26.117  29.662  1.00  0.00     0.009 A 
ATOM     79  C   UNL A   1      48.008  25.665  31.976  1.00  0.00     0.009 A 
ATOM     80  C   UNL A   1      49.857  25.668  29.886  1.00  0.00     0.001 A 
ATOM     81  C   UNL A   1      49.318  25.241  32.202  1.00  0.00     0.001 A 
ATOM     82  C   UNL A   1      50.239  25.237  31.156  1.00  0.00     0.000 A 
ENDBRANCH  64  77
ENDBRANCH  38  39
ENDBRANCH  31  33
ENDBRANCH  30  31
ENDBRANCH  29  30
ENDBRANCH   1  29
TORSDOF 17
ENDMDL
MODEL 2
REMARK VINA RESULT:     -10.7      2.837      8.402
REMARK SMILES O=C(C[C@@H]([NH2+]Cc1ccccc1)C(=O)OCCOC(=O)c1ccc(-c2c3nc(c(-c4ccccc4)c4ccc([nH]4)c(-c4ccccc4)c4nc(c(-c5ccccc5)c5ccc2[nH]5)C=C4)C=C3)cc1)Nc1cccc(Cl)c1Cl
REMARK SMILES IDX 16 1 15 2 13 3 14 4 4 5 3 6 2 7 1 8 69 9 70 11 71 12 76 13
REMARK SMILES IDX 72 14 74 15 77 16 73 17 75 18 5 19 6 22 7 23 8 24 12 25 9 26
REMARK SMILES IDX 11 27 10 28 17 29 18 30 19 31 20 32 21 33 22 34 68 35 23 36
REMARK SMILES IDX 67 37 24 38 25 39 26 40 61 41 27 42 66 43 60 44 62 45 28 46
REMARK SMILES IDX 65 47 59 48 58 49 29 51 51 52 36 53 50 54 37 55 40 56 49 57
REMARK SMILES IDX 63 58 38 59 39 60 48 62 64 63 41 64 30 65 31 66 35 67 32 68
REMARK SMILES IDX 34 69 33 70 52 71 53 72 57 73 54 74 56 75 55 76 42 77 43 78
REMARK SMILES IDX 47 79 44 80 46 81 45 82
REMARK H PARENT 69 10 5 20 5 21 62 50 40 61
REMARK Flexibility Score: inf
ROOT
ATOM      1  C   UNL A   1      38.150  19.984  24.775  1.00  0.00     0.274 C 
ENDROOT
BRANCH   1   2
ATOM      2  O   UNL A   1      36.896  20.382  25.367  1.00  0.00    -0.458 OA
BRANCH   2   3
ATOM      3  C   UNL A   1      36.393  21.568  24.927  1.00  0.00     0.365 C 
ATOM      4  O   UNL A   1      36.921  22.236  24.040  1.00  0.00    -0.245 OA
BRANCH   3   5
ATOM      5  C   UNL A   1      35.096  21.995  25.642  1.00  0.00     0.303 C 
BRANCH   5   6
ATOM      6  C   UNL A   1      35.185  23.417  26.219  1.00  0.00     0.177 C 
BRANCH   6   7
ATOM      7  C   UNL A   1      34.344  24.366  25.393  1.00  0.00     0.231 C 
ATOM      8  O   UNL A   1      34.691  24.731  24.275  1.00  0.00    -0.274 OA
ATOM      9  N   UNL A   1      33.267  24.875  26.104  1.00  0.00    -0.325 N 
ATOM     10  H   UNL A   1      33.124  24.550  27.021  1.00  0.00     0.169 HD
BRANCH   9  11
ATOM     11  C   UNL A   1      32.363  25.830  25.590  1.00  0.00     0.061 A 
ATOM     12  C   UNL A   1      31.265  25.313  24.884  1.00  0.00     0.028 A 
ATOM     13  C   UNL A   1      32.522  27.227  25.710  1.00  0.00     0.083 A 
ATOM     14  C   UNL A   1      30.292  26.162  24.362  1.00  0.00     0.004 A 
ATOM     15  C   UNL A   1      31.546  28.074  25.157  1.00  0.00     0.061 A 
ATOM     16  Cl  UNL A   1      33.991  27.905  26.345  1.00  0.00    -0.080 Cl
ATOM     17  C   UNL A   1      30.431  27.541  24.501  1.00  0.00     0.022 A 
ATOM     18  Cl  UNL A   1      31.671  29.802  25.203  1.00  0.00    -0.083 Cl
ENDBRANCH   9  11
ENDBRANCH   6   7
ENDBRANCH   5   6
BRANCH   5  19
ATOM     19  N   UNL A   1      33.875  21.854  24.784  1.00  0.00    -0.330 N 
ATOM     20  H   UNL A   1      34.177  21.701  23.821  1.00  0.00     0.347 HD
ATOM     21  H   UNL A   1      33.337  22.713  24.898  1.00  0.00     0.347 HD
BRANCH  19  22
ATOM     22  C   UNL A   1      32.987  20.741  25.172  1.00  0.00     0.298 C 
BRANCH  22  23
ATOM     23  C   UNL A   1      33.147  19.493  24.331  1.00  0.00     0.006 A 
ATOM     24  C   UNL A   1      32.310  19.234  23.234  1.00  0.00     0.009 A 
ATOM     25  C   UNL A   1      34.152  18.566  24.640  1.00  0.00     0.009 A 
ATOM     26  C   UNL A   1      32.456  18.061  22.491  1.00  0.00     0.001 A 
ATOM     27  C   UNL A   1      34.303  17.399  23.890  1.00  0.00     0.001 A 
ATOM     28  C   UNL A   1      33.449  17.141  22.822  1.00  0.00     0.000 A 
ENDBRANCH  22  23
ENDBRANCH  19  22
ENDBRANCH   5  19
ENDBRANCH   3   5
ENDBRANCH   2   3
ENDBRANCH   1   2
BRANCH   1  29
ATOM     29  C   UNL A   1      39.336  20.161  25.730  1.00  0.00     0.275 C 
BRANCH  29  30
ATOM     30  O   UNL A   1      40.204  19.010  25.769  1.00  0.00    -0.458 OA
BRANCH  30  31
ATOM     31  C   UNL A   1      41.505  19.288  26.027  1.00  0.00     0.338 C 
ATOM     32  O   UNL A   1      42.463  18.571  25.791  1.00  0.00    -0.246 OA
BRANCH  31  33
ATOM     33  C   UNL A   1      41.652  20.670  26.513  1.00  0.00     0.060 A 
ATOM     34  C   UNL A   1      42.055  21.642  25.592  1.00  0.00     0.016 A 
ATOM     35  C   UNL A   1      41.487  21.000  27.859  1.00  0.00     0.016 A 
ATOM     36  C   UNL A   1      42.282  22.951  26.003  1.00  0.00     0.010 A 
ATOM     37  C   UNL A   1      41.737  22.313  28.278  1.00  0.00     0.010 A 
ATOM     38  C   UNL A   1      42.140  23.292  27.352  1.00  0.00    -0.014 A 
BRANCH  38  39
ATOM     39  C   UNL A   1      42.482  24.663  27.791  1.00  0.00     0.031 A 
ATOM     40  C   UNL A   1      43.919  25.044  27.989  1.00  0.00     0.074 A 
ATOM     41  C   UNL A   1      41.508  25.573  27.964  1.00  0.00     0.049 A 
ATOM     42  N   UNL A   1      44.419  26.170  28.429  1.00  0.00    -0.248 NA
ATOM     43  C   UNL A   1      44.923  24.025  27.649  1.00  0.00     0.031 C 
ATOM     44  C   UNL A   1      40.084  25.334  27.736  1.00  0.00     0.029 A 
ATOM     45  N   UNL A   1      41.571  26.883  28.363  1.00  0.00    -0.354 N 
ATOM     46  C   UNL A   1      45.796  25.988  28.440  1.00  0.00     0.074 A 
ATOM     47  C   UNL A   1      46.051  24.645  27.966  1.00  0.00     0.031 C 
ATOM     48  C   UNL A   1      39.406  26.469  27.983  1.00  0.00     0.029 A 
ATOM     49  C   UNL A   1      40.343  27.492  28.440  1.00  0.00     0.049 A 
ATOM     50  H   UNL A   1      42.416  27.344  28.573  1.00  0.00     0.167 HD
ATOM     51  C   UNL A   1      46.758  26.862  28.822  1.00  0.00     0.031 A 
ATOM     52  C   UNL A   1      40.010  28.726  28.864  1.00  0.00     0.031 A 
ATOM     53  C   UNL A   1      46.499  28.194  29.300  1.00  0.00     0.049 A 
ATOM     54  C   UNL A   1      41.091  29.649  29.353  1.00  0.00     0.074 A 
ATOM     55  C   UNL A   1      47.406  29.148  29.728  1.00  0.00     0.029 A 
ATOM     56  N   UNL A   1      45.238  28.757  29.415  1.00  0.00    -0.354 N 
ATOM     57  N   UNL A   1      42.387  29.458  29.386  1.00  0.00    -0.248 NA
ATOM     58  C   UNL A   1      40.661  30.953  29.878  1.00  0.00     0.031 C 
ATOM     59  C   UNL A   1      46.688  30.275  30.145  1.00  0.00     0.029 A 
ATOM     60  C   UNL A   1      45.340  30.039  29.929  1.00  0.00     0.049 A 
ATOM     61  H   UNL A   1      44.395  28.312  29.169  1.00  0.00     0.167 HD
ATOM     62  C   UNL A   1      42.929  30.619  29.921  1.00  0.00     0.074 A 
ATOM     63  C   UNL A   1      41.821  31.518  30.181  1.00  0.00     0.031 C 
ATOM     64  C   UNL A   1      44.225  30.916  30.180  1.00  0.00     0.031 A 
BRANCH  51  65
ATOM     65  C   UNL A   1      48.179  26.376  28.788  1.00  0.00    -0.014 A 
ATOM     66  C   UNL A   1      48.748  25.699  29.877  1.00  0.00     0.009 A 
ATOM     67  C   UNL A   1      48.952  26.584  27.635  1.00  0.00     0.009 A 
ATOM     68  C   UNL A   1      50.075  25.267  29.823  1.00  0.00     0.001 A 
ATOM     69  C   UNL A   1      50.270  26.132  27.575  1.00  0.00     0.001 A 
ATOM     70  C   UNL A   1      50.833  25.481  28.671  1.00  0.00     0.000 A 
ENDBRANCH  51  65
BRANCH  52  71
ATOM     71  C   UNL A   1      38.585  29.146  28.888  1.00  0.00    -0.014 A 
ATOM     72  C   UNL A   1      37.987  29.717  27.756  1.00  0.00     0.009 A 
ATOM     73  C   UNL A   1      37.818  28.990  30.055  1.00  0.00     0.009 A 
ATOM     74  C   UNL A   1      36.657  30.142  27.796  1.00  0.00     0.001 A 
ATOM     75  C   UNL A   1      36.480  29.388  30.084  1.00  0.00     0.001 A 
ATOM     76  C   UNL A   1      35.904  29.972  28.957  1.00  0.00     0.000 A 
ENDBRANCH  52  71
BRANCH  64  77
ATOM     77  C   UNL A   1      44.519  32.273  30.749  1.00  0.00    -0.014 A 
ATOM     78  C   UNL A   1      44.734  33.380  29.913  1.00  0.00     0.009 A 
ATOM     79  C   UNL A   1      44.530  32.456  32.141  1.00  0.00     0.009 A 
ATOM     80  C   UNL A   1      44.982  34.639  30.463  1.00  0.00     0.001 A 
ATOM     81  C   UNL A   1      44.753  33.721  32.686  1.00  0.00     0.001 A 
ATOM     82  C   UNL A   1      44.985  34.809  31.847  1.00  0.00     0.000 A 
ENDBRANCH  64  77
ENDBRANCH  38  39
ENDBRANCH  31  33
ENDBRANCH  30  31
ENDBRANCH  29  30
ENDBRANCH   1  29
TORSDOF 17
ENDMDL
MODEL 3
REMARK VINA RESULT:     -10.5      3.104      4.443
REMARK SMILES O=C(C[C@@H]([NH2+]Cc1ccccc1)C(=O)OCCOC(=O)c1ccc(-c2c3nc(c(-c4ccccc4)c4ccc([nH]4)c(-c4ccccc4)c4nc(c(-c5ccccc5)c5ccc2[nH]5)C=C4)C=C3)cc1)Nc1cccc(Cl)c1Cl
REMARK SMILES IDX 16 1 15 2 13 3 14 4 4 5 3 6 2 7 1 8 69 9 70 11 71 12 76 13
REMARK SMILES IDX 72 14 74 15 77 16 73 17 75 18 5 19 6 22 7 23 8 24 12 25 9 26
REMARK SMILES IDX 11 27 10 28 17 29 18 30 19 31 20 32 21 33 22 34 68 35 23 36
REMARK SMILES IDX 67 37 24 38 25 39 26 40 61 41 27 42 66 43 60 44 62 45 28 46
REMARK SMILES IDX 65 47 59 48 58 49 29 51 51 52 36 53 50 54 37 55 40 56 49 57
REMARK SMILES IDX 63 58 38 59 39 60 48 62 64 63 41 64 30 65 31 66 35 67 32 68
REMARK SMILES IDX 34 69 33 70 52 71 53 72 57 73 54 74 56 75 55 76 42 77 43 78
REMARK SMILES IDX 47 79 44 80 46 81 45 82
REMARK H PARENT 69 10 5 20 5 21 62 50 40 61
REMARK Flexibility Score: inf
ROOT
ATOM      1  C   UNL A   1      31.402  31.858  26.816  1.00  0.00     0.274 C 
ENDROOT
BRANCH   1   2
ATOM      2  O   UNL A   1      31.931  30.919  25.857  1.00  0.00    -0.458 OA
BRANCH   2   3
ATOM      3  C   UNL A   1      32.072  29.643  26.307  1.00  0.00     0.365 C 
ATOM      4  O   UNL A   1      31.768  29.292  27.445  1.00  0.00    -0.245 OA
BRANCH   3   5
ATOM      5  C   UNL A   1      32.645  28.674  25.253  1.00  0.00     0.303 C 
BRANCH   5   6
ATOM      6  C   UNL A   1      33.739  27.760  25.830  1.00  0.00     0.177 C 
BRANCH   6   7
ATOM      7  C   UNL A   1      33.305  26.313  25.743  1.00  0.00     0.231 C 
ATOM      8  O   UNL A   1      32.368  25.878  26.404  1.00  0.00    -0.274 OA
ATOM      9  N   UNL A   1      34.174  25.544  24.983  1.00  0.00    -0.325 N 
ATOM     10  H   UNL A   1      34.931  25.997  24.548  1.00  0.00     0.169 HD
BRANCH   9  11
ATOM     11  C   UNL A   1      34.038  24.151  24.796  1.00  0.00     0.061 A 
ATOM     12  C   UNL A   1      34.859  23.345  25.601  1.00  0.00     0.028 A 
ATOM     13  C   UNL A   1      33.180  23.550  23.852  1.00  0.00     0.083 A 
ATOM     14  C   UNL A   1      34.786  21.957  25.527  1.00  0.00     0.004 A 
ATOM     15  C   UNL A   1      33.132  22.148  23.768  1.00  0.00     0.061 A 
ATOM     16  Cl  UNL A   1      32.346  24.512  22.668  1.00  0.00    -0.080 Cl
ATOM     17  C   UNL A   1      33.921  21.358  24.613  1.00  0.00     0.022 A 
ATOM     18  Cl  UNL A   1      32.154  21.311  22.609  1.00  0.00    -0.083 Cl
ENDBRANCH   9  11
ENDBRANCH   6   7
ENDBRANCH   5   6
BRANCH   5  19
ATOM     19  N   UNL A   1      31.591  27.860  24.565  1.00  0.00    -0.330 N 
ATOM     20  H   UNL A   1      30.778  27.804  25.179  1.00  0.00     0.347 HD
ATOM     21  H   UNL A   1      32.006  26.947  24.374  1.00  0.00     0.347 HD
BRANCH  19  22
ATOM     22  C   UNL A   1      31.154  28.407  23.267  1.00  0.00     0.298 C 
BRANCH  22  23
ATOM     23  C   UNL A   1      29.790  29.062  23.294  1.00  0.00     0.006 A 
ATOM     24  C   UNL A   1      28.613  28.315  23.126  1.00  0.00     0.009 A 
ATOM     25  C   UNL A   1      29.683  30.445  23.495  1.00  0.00     0.009 A 
ATOM     26  C   UNL A   1      27.367  28.946  23.124  1.00  0.00     0.001 A 
ATOM     27  C   UNL A   1      28.436  31.071  23.502  1.00  0.00     0.001 A 
ATOM     28  C   UNL A   1      27.278  30.323  23.307  1.00  0.00     0.000 A 
ENDBRANCH  22  23
ENDBRANCH  19  22
ENDBRANCH   5  19
ENDBRANCH   3   5
ENDBRANCH   2   3
ENDBRANCH   1   2
BRANCH   1  29
ATOM     29  C   UNL A   1      32.177  33.181  26.836  1.00  0.00     0.275 C 
BRANCH  29  30
ATOM     30  O   UNL A   1      32.154  33.828  28.124  1.00  0.00    -0.458 OA
BRANCH  30  31
ATOM     31  C   UNL A   1      33.218  34.628  28.378  1.00  0.00     0.338 C 
ATOM     32  O   UNL A   1      33.230  35.847  28.377  1.00  0.00    -0.246 OA
BRANCH  31  33
ATOM     33  C   UNL A   1      34.373  33.826  28.815  1.00  0.00     0.060 A 
ATOM     34  C   UNL A   1      34.115  32.648  29.522  1.00  0.00     0.016 A 
ATOM     35  C   UNL A   1      35.687  34.257  28.619  1.00  0.00     0.016 A 
ATOM     36  C   UNL A   1      35.163  31.884  30.025  1.00  0.00     0.010 A 
ATOM     37  C   UNL A   1      36.741  33.500  29.145  1.00  0.00     0.010 A 
ATOM     38  C   UNL A   1      36.482  32.314  29.854  1.00  0.00    -0.014 A 
BRANCH  38  39
ATOM     39  C   UNL A   1      37.580  31.544  30.481  1.00  0.00     0.031 A 
ATOM     40  C   UNL A   1      37.901  31.752  31.931  1.00  0.00     0.074 A 
ATOM     41  C   UNL A   1      38.253  30.629  29.761  1.00  0.00     0.049 A 
ATOM     42  N   UNL A   1      38.861  31.224  32.646  1.00  0.00    -0.248 NA
ATOM     43  C   UNL A   1      37.027  32.674  32.672  1.00  0.00     0.031 C 
ATOM     44  C   UNL A   1      37.983  30.295  28.364  1.00  0.00     0.029 A 
ATOM     45  N   UNL A   1      39.293  29.807  30.110  1.00  0.00    -0.354 N 
ATOM     46  C   UNL A   1      38.722  31.768  33.916  1.00  0.00     0.074 A 
ATOM     47  C   UNL A   1      37.589  32.666  33.873  1.00  0.00     0.031 C 
ATOM     48  C   UNL A   1      38.828  29.324  27.976  1.00  0.00     0.029 A 
ATOM     49  C   UNL A   1      39.732  29.012  29.081  1.00  0.00     0.049 A 
ATOM     50  H   UNL A   1      39.689  29.790  31.012  1.00  0.00     0.167 HD
ATOM     51  C   UNL A   1      39.480  31.543  35.016  1.00  0.00     0.031 A 
ATOM     52  C   UNL A   1      40.767  28.152  29.027  1.00  0.00     0.031 A 
ATOM     53  C   UNL A   1      40.612  30.655  35.052  1.00  0.00     0.049 A 
ATOM     54  C   UNL A   1      41.638  27.978  30.240  1.00  0.00     0.074 A 
ATOM     55  C   UNL A   1      41.454  30.374  36.114  1.00  0.00     0.029 A 
ATOM     56  N   UNL A   1      41.058  29.906  33.975  1.00  0.00    -0.354 N 
ATOM     57  N   UNL A   1      41.515  28.517  31.429  1.00  0.00    -0.248 NA
ATOM     58  C   UNL A   1      42.799  27.088  30.099  1.00  0.00     0.031 C 
ATOM     59  C   UNL A   1      42.440  29.487  35.665  1.00  0.00     0.029 A 
ATOM     60  C   UNL A   1      42.179  29.179  34.339  1.00  0.00     0.049 A 
ATOM     61  H   UNL A   1      40.641  29.892  33.084  1.00  0.00     0.167 HD
ATOM     62  C   UNL A   1      42.573  28.023  32.181  1.00  0.00     0.074 A 
ATOM     63  C   UNL A   1      43.317  27.125  31.319  1.00  0.00     0.031 C 
ATOM     64  C   UNL A   1      42.904  28.292  33.467  1.00  0.00     0.031 A 
BRANCH  51  65
ATOM     65  C   UNL A   1      39.138  32.318  36.256  1.00  0.00    -0.014 A 
ATOM     66  C   UNL A   1      39.770  33.534  36.557  1.00  0.00     0.009 A 
ATOM     67  C   UNL A   1      38.150  31.829  37.125  1.00  0.00     0.009 A 
ATOM     68  C   UNL A   1      39.440  34.230  37.723  1.00  0.00     0.001 A 
ATOM     69  C   UNL A   1      37.807  32.538  38.276  1.00  0.00     0.001 A 
ATOM     70  C   UNL A   1      38.457  33.733  38.579  1.00  0.00     0.000 A 
ENDBRANCH  51  65
BRANCH  52  71
ATOM     71  C   UNL A   1      41.066  27.423  27.768  1.00  0.00    -0.014 A 
ATOM     72  C   UNL A   1      41.833  28.022  26.759  1.00  0.00     0.009 A 
ATOM     73  C   UNL A   1      40.571  26.124  27.563  1.00  0.00     0.009 A 
ATOM     74  C   UNL A   1      42.081  27.345  25.562  1.00  0.00     0.001 A 
ATOM     75  C   UNL A   1      40.846  25.438  26.379  1.00  0.00     0.001 A 
ATOM     76  C   UNL A   1      41.593  26.052  25.376  1.00  0.00     0.000 A 
ENDBRANCH  52  71
BRANCH  64  77
ATOM     77  C   UNL A   1      44.106  27.588  34.027  1.00  0.00    -0.014 A 
ATOM     78  C   UNL A   1      45.351  28.230  34.110  1.00  0.00     0.009 A 
ATOM     79  C   UNL A   1      43.977  26.281  34.524  1.00  0.00     0.009 A 
ATOM     80  C   UNL A   1      46.450  27.566  34.657  1.00  0.00     0.001 A 
ATOM     81  C   UNL A   1      45.072  25.630  35.092  1.00  0.00     0.001 A 
ATOM     82  C   UNL A   1      46.309  26.270  35.152  1.00  0.00     0.000 A 
ENDBRANCH  64  77
ENDBRANCH  38  39
ENDBRANCH  31  33
ENDBRANCH  30  31
ENDBRANCH  29  30
ENDBRANCH   1  29
TORSDOF 17
ENDMDL
