MODEL 1
REMARK VINA RESULT:     -10.6      0.000      0.000
REMARK SMILES O=C(OCCOC(=O)c1ccc(-c2c3nc(c(-c4ccccc4)c4ccc([nH]4)c(-c4ccccc4)c4nc(c(-c5ccccc5)c5ccc2[nH]5)C=C4)C=C3)cc1)C1=Cc2c(ccc(Cl)c2Cl)O[C@H]1C(F)(F)F
REMARK SMILES IDX 5 1 4 2 3 3 2 4 1 5 57 6 58 7 68 8 59 9 67 10 60 11 65 12
REMARK SMILES IDX 61 13 63 14 66 15 62 16 64 17 69 18 70 19 71 20 72 21 6 22
REMARK SMILES IDX 7 23 8 24 9 25 10 26 56 27 11 28 55 29 12 30 13 31 14 32
REMARK SMILES IDX 49 33 15 34 54 35 48 36 50 37 16 38 53 39 47 40 46 41 17 43
REMARK SMILES IDX 39 44 24 45 38 46 25 47 28 48 37 49 51 50 26 51 27 52 36 54
REMARK SMILES IDX 52 55 29 56 18 57 19 58 23 59 20 60 22 61 21 62 40 63 41 64
REMARK SMILES IDX 45 65 42 66 44 67 43 68 30 69 31 70 35 71 32 72 34 73 33 74
REMARK H PARENT 50 42 28 53
REMARK Flexibility Score: inf
ROOT
ATOM      1  C   UNL A   1      33.005  29.268  25.659  1.00  0.00     0.275 C 
ENDROOT
BRANCH   1   2
ATOM      2  C   UNL A   1      33.206  28.837  24.199  1.00  0.00     0.275 C 
BRANCH   2   3
ATOM      3  O   UNL A   1      34.050  27.672  24.048  1.00  0.00    -0.459 OA
BRANCH   3   4
ATOM      4  C   UNL A   1      33.710  26.381  23.843  1.00  0.00     0.338 C 
ATOM      5  O   UNL A   1      33.474  26.005  22.696  1.00  0.00    -0.246 OA
BRANCH   4   6
ATOM      6  C   UNL A   1      33.669  25.367  24.928  1.00  0.00     0.087 C 
ATOM      7  C   UNL A   1      34.757  24.906  25.560  1.00  0.00     0.029 C 
ATOM      8  C   UNL A   1      32.376  24.569  24.945  1.00  0.00     0.316 C 
ATOM      9  C   UNL A   1      34.942  23.450  25.469  1.00  0.00     0.037 A 
ATOM     10  O   UNL A   1      32.542  23.157  25.259  1.00  0.00    -0.475 OA
ATOM     11  C   UNL A   1      33.814  22.659  25.236  1.00  0.00     0.129 A 
ATOM     12  C   UNL A   1      36.222  22.859  25.479  1.00  0.00     0.070 A 
ATOM     13  C   UNL A   1      33.948  21.298  24.982  1.00  0.00     0.049 A 
ATOM     14  C   UNL A   1      36.354  21.497  25.176  1.00  0.00     0.060 A 
ATOM     15  Cl  UNL A   1      37.625  23.817  25.843  1.00  0.00    -0.082 Cl
ATOM     16  C   UNL A   1      35.219  20.724  24.922  1.00  0.00     0.026 A 
ATOM     17  Cl  UNL A   1      37.893  20.716  25.064  1.00  0.00    -0.083 Cl
BRANCH   8  18
ATOM     18  C   UNL A   1      31.385  25.197  25.943  1.00  0.00     0.430 C 
ATOM     19  F   UNL A   1      30.350  25.814  25.332  1.00  0.00    -0.167 F 
ATOM     20  F   UNL A   1      30.855  24.263  26.769  1.00  0.00    -0.167 F 
ATOM     21  F   UNL A   1      31.992  26.126  26.725  1.00  0.00    -0.167 F 
ENDBRANCH   8  18
ENDBRANCH   4   6
ENDBRANCH   3   4
ENDBRANCH   2   3
ENDBRANCH   1   2
BRANCH   1  22
ATOM     22  O   UNL A   1      34.188  29.068  26.438  1.00  0.00    -0.458 OA
BRANCH  22  23
ATOM     23  C   UNL A   1      34.374  30.034  27.379  1.00  0.00     0.338 C 
ATOM     24  O   UNL A   1      33.541  30.816  27.785  1.00  0.00    -0.246 OA
BRANCH  23  25
ATOM     25  C   UNL A   1      35.720  29.886  27.971  1.00  0.00     0.060 A 
ATOM     26  C   UNL A   1      36.814  30.126  27.133  1.00  0.00     0.016 A 
ATOM     27  C   UNL A   1      35.916  29.507  29.304  1.00  0.00     0.016 A 
ATOM     28  C   UNL A   1      38.106  29.900  27.597  1.00  0.00     0.010 A 
ATOM     29  C   UNL A   1      37.214  29.295  29.774  1.00  0.00     0.010 A 
ATOM     30  C   UNL A   1      38.307  29.435  28.903  1.00  0.00    -0.014 A 
BRANCH  30  31
ATOM     31  C   UNL A   1      39.635  28.895  29.270  1.00  0.00     0.031 A 
ATOM     32  C   UNL A   1      40.512  29.713  30.177  1.00  0.00     0.074 A 
ATOM     33  C   UNL A   1      40.028  27.678  28.856  1.00  0.00     0.049 A 
ATOM     34  N   UNL A   1      41.673  29.416  30.701  1.00  0.00    -0.248 NA
ATOM     35  C   UNL A   1      40.014  31.052  30.540  1.00  0.00     0.031 C 
ATOM     36  C   UNL A   1      39.260  26.789  27.987  1.00  0.00     0.029 A 
ATOM     37  N   UNL A   1      41.181  26.983  29.122  1.00  0.00    -0.354 N 
ATOM     38  C   UNL A   1      42.038  30.525  31.454  1.00  0.00     0.074 A 
ATOM     39  C   UNL A   1      41.005  31.519  31.280  1.00  0.00     0.031 C 
ATOM     40  C   UNL A   1      39.965  25.661  27.790  1.00  0.00     0.029 A 
ATOM     41  C   UNL A   1      41.233  25.756  28.509  1.00  0.00     0.049 A 
ATOM     42  H   UNL A   1      41.900  27.331  29.697  1.00  0.00     0.167 HD
ATOM     43  C   UNL A   1      43.126  30.694  32.239  1.00  0.00     0.031 A 
ATOM     44  C   UNL A   1      42.199  24.818  28.532  1.00  0.00     0.031 A 
ATOM     45  C   UNL A   1      44.158  29.709  32.405  1.00  0.00     0.049 A 
ATOM     46  C   UNL A   1      43.427  25.046  29.373  1.00  0.00     0.074 A 
ATOM     47  C   UNL A   1      45.289  29.766  33.199  1.00  0.00     0.029 A 
ATOM     48  N   UNL A   1      44.184  28.487  31.750  1.00  0.00    -0.354 N 
ATOM     49  N   UNL A   1      43.726  26.067  30.140  1.00  0.00    -0.248 NA
ATOM     50  C   UNL A   1      44.442  23.983  29.366  1.00  0.00     0.031 C 
ATOM     51  C   UNL A   1      46.027  28.597  32.985  1.00  0.00     0.029 A 
ATOM     52  C   UNL A   1      45.329  27.792  32.099  1.00  0.00     0.049 A 
ATOM     53  H   UNL A   1      43.492  28.162  31.130  1.00  0.00     0.167 HD
ATOM     54  C   UNL A   1      44.946  25.758  30.728  1.00  0.00     0.074 A 
ATOM     55  C   UNL A   1      45.327  24.449  30.238  1.00  0.00     0.031 C 
ATOM     56  C   UNL A   1      45.683  26.488  31.601  1.00  0.00     0.031 A 
BRANCH  43  57
ATOM     57  C   UNL A   1      43.256  32.011  32.951  1.00  0.00    -0.014 A 
ATOM     58  C   UNL A   1      42.765  32.185  34.255  1.00  0.00     0.009 A 
ATOM     59  C   UNL A   1      43.865  33.096  32.302  1.00  0.00     0.009 A 
ATOM     60  C   UNL A   1      42.838  33.433  34.877  1.00  0.00     0.001 A 
ATOM     61  C   UNL A   1      43.961  34.335  32.937  1.00  0.00     0.001 A 
ATOM     62  C   UNL A   1      43.437  34.506  34.218  1.00  0.00     0.000 A 
ENDBRANCH  43  57
BRANCH  44  63
ATOM     63  C   UNL A   1      42.043  23.575  27.734  1.00  0.00    -0.014 A 
ATOM     64  C   UNL A   1      42.529  23.497  26.420  1.00  0.00     0.009 A 
ATOM     65  C   UNL A   1      41.395  22.458  28.284  1.00  0.00     0.009 A 
ATOM     66  C   UNL A   1      42.347  22.334  25.666  1.00  0.00     0.001 A 
ATOM     67  C   UNL A   1      41.238  21.289  27.537  1.00  0.00     0.001 A 
ATOM     68  C   UNL A   1      41.705  21.230  26.226  1.00  0.00     0.000 A 
ENDBRANCH  44  63
BRANCH  56  69
ATOM     69  C   UNL A   1      46.961  25.881  32.105  1.00  0.00    -0.014 A 
ATOM     70  C   UNL A   1      48.174  26.076  31.429  1.00  0.00     0.009 A 
ATOM     71  C   UNL A   1      46.958  25.165  33.313  1.00  0.00     0.009 A 
ATOM     72  C   UNL A   1      49.360  25.547  31.945  1.00  0.00     0.001 A 
ATOM     73  C   UNL A   1      48.148  24.660  33.838  1.00  0.00     0.001 A 
ATOM     74  C   UNL A   1      49.346  24.846  33.150  1.00  0.00     0.000 A 
ENDBRANCH  56  69
ENDBRANCH  30  31
ENDBRANCH  23  25
ENDBRANCH  22  23
ENDBRANCH   1  22
TORSDOF 12
ENDMDL
MODEL 2
REMARK VINA RESULT:     -10.6      2.948      4.110
REMARK SMILES O=C(OCCOC(=O)c1ccc(-c2c3nc(c(-c4ccccc4)c4ccc([nH]4)c(-c4ccccc4)c4nc(c(-c5ccccc5)c5ccc2[nH]5)C=C4)C=C3)cc1)C1=Cc2c(ccc(Cl)c2Cl)O[C@H]1C(F)(F)F
REMARK SMILES IDX 5 1 4 2 3 3 2 4 1 5 57 6 58 7 68 8 59 9 67 10 60 11 65 12
REMARK SMILES IDX 61 13 63 14 66 15 62 16 64 17 69 18 70 19 71 20 72 21 6 22
REMARK SMILES IDX 7 23 8 24 9 25 10 26 56 27 11 28 55 29 12 30 13 31 14 32
REMARK SMILES IDX 49 33 15 34 54 35 48 36 50 37 16 38 53 39 47 40 46 41 17 43
REMARK SMILES IDX 39 44 24 45 38 46 25 47 28 48 37 49 51 50 26 51 27 52 36 54
REMARK SMILES IDX 52 55 29 56 18 57 19 58 23 59 20 60 22 61 21 62 40 63 41 64
REMARK SMILES IDX 45 65 42 66 44 67 43 68 30 69 31 70 35 71 32 72 34 73 33 74
REMARK H PARENT 50 42 28 53
REMARK Flexibility Score: inf
ROOT
ATOM      1  C   UNL A   1      31.739  32.661  26.821  1.00  0.00     0.275 C 
ENDROOT
BRANCH   1   2
ATOM      2  C   UNL A   1      30.952  31.598  26.039  1.00  0.00     0.275 C 
BRANCH   2   3
ATOM      3  O   UNL A   1      31.564  30.288  26.064  1.00  0.00    -0.459 OA
BRANCH   3   4
ATOM      4  C   UNL A   1      32.050  29.543  25.048  1.00  0.00     0.338 C 
ATOM      5  O   UNL A   1      33.216  29.712  24.693  1.00  0.00    -0.246 OA
BRANCH   4   6
ATOM      6  C   UNL A   1      31.267  28.475  24.374  1.00  0.00     0.087 C 
ATOM      7  C   UNL A   1      31.237  27.199  24.783  1.00  0.00     0.029 C 
ATOM      8  C   UNL A   1      30.886  28.832  22.946  1.00  0.00     0.316 C 
ATOM      9  C   UNL A   1      31.682  26.226  23.776  1.00  0.00     0.037 A 
ATOM     10  O   UNL A   1      30.954  27.721  22.008  1.00  0.00    -0.475 OA
ATOM     11  C   UNL A   1      31.590  26.587  22.430  1.00  0.00     0.129 A 
ATOM     12  C   UNL A   1      32.310  25.016  24.134  1.00  0.00     0.070 A 
ATOM     13  C   UNL A   1      32.141  25.776  21.442  1.00  0.00     0.049 A 
ATOM     14  C   UNL A   1      32.905  24.227  23.140  1.00  0.00     0.060 A 
ATOM     15  Cl  UNL A   1      32.365  24.519  25.798  1.00  0.00    -0.082 Cl
ATOM     16  C   UNL A   1      32.824  24.613  21.800  1.00  0.00     0.026 A 
ATOM     17  Cl  UNL A   1      33.784  22.783  23.504  1.00  0.00    -0.083 Cl
BRANCH   8  18
ATOM     18  C   UNL A   1      29.469  29.434  22.917  1.00  0.00     0.430 C 
ATOM     19  F   UNL A   1      28.535  28.597  23.418  1.00  0.00    -0.167 F 
ATOM     20  F   UNL A   1      29.402  30.578  23.640  1.00  0.00    -0.167 F 
ATOM     21  F   UNL A   1      29.087  29.738  21.650  1.00  0.00    -0.167 F 
ENDBRANCH   8  18
ENDBRANCH   4   6
ENDBRANCH   3   4
ENDBRANCH   2   3
ENDBRANCH   1   2
BRANCH   1  22
ATOM     22  O   UNL A   1      32.898  32.105  27.451  1.00  0.00    -0.458 OA
BRANCH  22  23
ATOM     23  C   UNL A   1      33.766  33.053  27.897  1.00  0.00     0.338 C 
ATOM     24  O   UNL A   1      33.502  34.207  28.163  1.00  0.00    -0.246 OA
BRANCH  23  25
ATOM     25  C   UNL A   1      35.074  32.424  28.176  1.00  0.00     0.060 A 
ATOM     26  C   UNL A   1      35.092  31.035  28.336  1.00  0.00     0.016 A 
ATOM     27  C   UNL A   1      36.253  33.169  28.298  1.00  0.00     0.016 A 
ATOM     28  C   UNL A   1      36.270  30.395  28.707  1.00  0.00     0.010 A 
ATOM     29  C   UNL A   1      37.439  32.523  28.655  1.00  0.00     0.010 A 
ATOM     30  C   UNL A   1      37.435  31.143  28.918  1.00  0.00    -0.014 A 
BRANCH  30  31
ATOM     31  C   UNL A   1      38.573  30.507  29.617  1.00  0.00     0.031 A 
ATOM     32  C   UNL A   1      38.754  30.784  31.084  1.00  0.00     0.074 A 
ATOM     33  C   UNL A   1      39.394  29.657  28.977  1.00  0.00     0.049 A 
ATOM     34  N   UNL A   1      39.621  30.281  31.924  1.00  0.00    -0.248 NA
ATOM     35  C   UNL A   1      37.833  31.764  31.686  1.00  0.00     0.031 C 
ATOM     36  C   UNL A   1      39.310  29.302  27.562  1.00  0.00     0.029 A 
ATOM     37  N   UNL A   1      40.461  28.935  29.446  1.00  0.00    -0.354 N 
ATOM     38  C   UNL A   1      39.347  30.879  33.147  1.00  0.00     0.074 A 
ATOM     39  C   UNL A   1      38.270  31.818  32.933  1.00  0.00     0.031 C 
ATOM     40  C   UNL A   1      40.290  28.425  27.276  1.00  0.00     0.029 A 
ATOM     41  C   UNL A   1      41.070  28.169  28.484  1.00  0.00     0.049 A 
ATOM     42  H   UNL A   1      40.761  28.963  30.384  1.00  0.00     0.167 HD
ATOM     43  C   UNL A   1      39.925  30.653  34.349  1.00  0.00     0.031 A 
ATOM     44  C   UNL A   1      42.137  27.353  28.575  1.00  0.00     0.031 A 
ATOM     45  C   UNL A   1      41.001  29.726  34.561  1.00  0.00     0.049 A 
ATOM     46  C   UNL A   1      42.799  27.152  29.912  1.00  0.00     0.074 A 
ATOM     47  C   UNL A   1      41.641  29.399  35.743  1.00  0.00     0.029 A 
ATOM     48  N   UNL A   1      41.604  28.985  33.555  1.00  0.00    -0.354 N 
ATOM     49  N   UNL A   1      42.483  27.667  31.077  1.00  0.00    -0.248 NA
ATOM     50  C   UNL A   1      43.953  26.242  29.951  1.00  0.00     0.031 C 
ATOM     51  C   UNL A   1      42.666  28.495  35.444  1.00  0.00     0.029 A 
ATOM     52  C   UNL A   1      42.630  28.223  34.085  1.00  0.00     0.049 A 
ATOM     53  H   UNL A   1      41.341  28.999  32.607  1.00  0.00     0.167 HD
ATOM     54  C   UNL A   1      43.378  27.122  31.989  1.00  0.00     0.074 A 
ATOM     55  C   UNL A   1      44.243  26.229  31.246  1.00  0.00     0.031 C 
ATOM     56  C   UNL A   1      43.473  27.337  33.325  1.00  0.00     0.031 A 
BRANCH  43  57
ATOM     57  C   UNL A   1      39.411  31.451  35.514  1.00  0.00    -0.014 A 
ATOM     58  C   UNL A   1      40.049  32.634  35.923  1.00  0.00     0.009 A 
ATOM     59  C   UNL A   1      38.284  31.006  36.221  1.00  0.00     0.009 A 
ATOM     60  C   UNL A   1      39.594  33.329  37.046  1.00  0.00     0.001 A 
ATOM     61  C   UNL A   1      37.816  31.718  37.326  1.00  0.00     0.001 A 
ATOM     62  C   UNL A   1      38.479  32.871  37.746  1.00  0.00     0.000 A 
ENDBRANCH  43  57
BRANCH  44  63
ATOM     63  C   UNL A   1      42.647  26.662  27.362  1.00  0.00    -0.014 A 
ATOM     64  C   UNL A   1      42.153  25.402  26.990  1.00  0.00     0.009 A 
ATOM     65  C   UNL A   1      43.641  27.260  26.573  1.00  0.00     0.009 A 
ATOM     66  C   UNL A   1      42.663  24.746  25.867  1.00  0.00     0.001 A 
ATOM     67  C   UNL A   1      44.131  26.613  25.437  1.00  0.00     0.001 A 
ATOM     68  C   UNL A   1      43.649  25.353  25.089  1.00  0.00     0.000 A 
ENDBRANCH  44  63
BRANCH  56  69
ATOM     69  C   UNL A   1      44.528  26.576  34.075  1.00  0.00    -0.014 A 
ATOM     70  C   UNL A   1      44.275  25.293  34.584  1.00  0.00     0.009 A 
ATOM     71  C   UNL A   1      45.814  27.123  34.211  1.00  0.00     0.009 A 
ATOM     72  C   UNL A   1      45.286  24.581  35.233  1.00  0.00     0.001 A 
ATOM     73  C   UNL A   1      46.828  26.399  34.837  1.00  0.00     0.001 A 
ATOM     74  C   UNL A   1      46.562  25.131  35.352  1.00  0.00     0.000 A 
ENDBRANCH  56  69
ENDBRANCH  30  31
ENDBRANCH  23  25
ENDBRANCH  22  23
ENDBRANCH   1  22
TORSDOF 12
ENDMDL
MODEL 3
REMARK VINA RESULT:     -10.6      2.593      7.456
REMARK SMILES O=C(OCCOC(=O)c1ccc(-c2c3nc(c(-c4ccccc4)c4ccc([nH]4)c(-c4ccccc4)c4nc(c(-c5ccccc5)c5ccc2[nH]5)C=C4)C=C3)cc1)C1=Cc2c(ccc(Cl)c2Cl)O[C@H]1C(F)(F)F
REMARK SMILES IDX 5 1 4 2 3 3 2 4 1 5 57 6 58 7 68 8 59 9 67 10 60 11 65 12
REMARK SMILES IDX 61 13 63 14 66 15 62 16 64 17 69 18 70 19 71 20 72 21 6 22
REMARK SMILES IDX 7 23 8 24 9 25 10 26 56 27 11 28 55 29 12 30 13 31 14 32
REMARK SMILES IDX 49 33 15 34 54 35 48 36 50 37 16 38 53 39 47 40 46 41 17 43
REMARK SMILES IDX 39 44 24 45 38 46 25 47 28 48 37 49 51 50 26 51 27 52 36 54
REMARK SMILES IDX 52 55 29 56 18 57 19 58 23 59 20 60 22 61 21 62 40 63 41 64
REMARK SMILES IDX 45 65 42 66 44 67 43 68 30 69 31 70 35 71 32 72 34 73 33 74
REMARK H PARENT 50 42 28 53
REMARK Flexibility Score: inf
ROOT
ATOM      1  C   UNL A   1      38.532  19.946  24.892  1.00  0.00     0.275 C 
ENDROOT
BRANCH   1   2
ATOM      2  C   UNL A   1      37.109  20.522  24.878  1.00  0.00     0.275 C 
BRANCH   2   3
ATOM      3  O   UNL A   1      37.063  21.949  24.648  1.00  0.00    -0.459 OA
BRANCH   3   4
ATOM      4  C   UNL A   1      36.238  22.670  23.859  1.00  0.00     0.338 C 
ATOM      5  O   UNL A   1      36.549  22.848  22.682  1.00  0.00    -0.246 OA
BRANCH   4   6
ATOM      6  C   UNL A   1      34.932  23.207  24.320  1.00  0.00     0.087 C 
ATOM      7  C   UNL A   1      34.105  23.927  23.549  1.00  0.00     0.029 C 
ATOM      8  C   UNL A   1      34.820  23.274  25.834  1.00  0.00     0.316 C 
ATOM      9  C   UNL A   1      33.792  25.264  24.075  1.00  0.00     0.037 A 
ATOM     10  O   UNL A   1      34.131  24.454  26.338  1.00  0.00    -0.475 OA
ATOM     11  C   UNL A   1      33.908  25.470  25.452  1.00  0.00     0.129 A 
ATOM     12  C   UNL A   1      33.512  26.353  23.226  1.00  0.00     0.070 A 
ATOM     13  C   UNL A   1      33.780  26.748  25.987  1.00  0.00     0.049 A 
ATOM     14  C   UNL A   1      33.431  27.645  23.764  1.00  0.00     0.060 A 
ATOM     15  Cl  UNL A   1      33.290  26.098  21.521  1.00  0.00    -0.082 Cl
ATOM     16  C   UNL A   1      33.573  27.838  25.140  1.00  0.00     0.026 A 
ATOM     17  Cl  UNL A   1      33.195  29.047  22.781  1.00  0.00    -0.083 Cl
BRANCH   8  18
ATOM     18  C   UNL A   1      34.117  22.011  26.365  1.00  0.00     0.430 C 
ATOM     19  F   UNL A   1      33.879  21.100  25.396  1.00  0.00    -0.167 F 
ATOM     20  F   UNL A   1      34.859  21.392  27.314  1.00  0.00    -0.167 F 
ATOM     21  F   UNL A   1      32.917  22.311  26.926  1.00  0.00    -0.167 F 
ENDBRANCH   8  18
ENDBRANCH   4   6
ENDBRANCH   3   4
ENDBRANCH   2   3
ENDBRANCH   1   2
BRANCH   1  22
ATOM     22  O   UNL A   1      39.173  20.145  26.156  1.00  0.00    -0.458 OA
BRANCH  22  23
ATOM     23  C   UNL A   1      40.520  19.960  26.104  1.00  0.00     0.338 C 
ATOM     24  O   UNL A   1      41.102  19.028  25.590  1.00  0.00    -0.246 OA
BRANCH  23  25
ATOM     25  C   UNL A   1      41.199  21.163  26.630  1.00  0.00     0.060 A 
ATOM     26  C   UNL A   1      41.198  21.340  28.018  1.00  0.00     0.016 A 
ATOM     27  C   UNL A   1      41.807  22.107  25.795  1.00  0.00     0.016 A 
ATOM     28  C   UNL A   1      41.724  22.503  28.569  1.00  0.00     0.010 A 
ATOM     29  C   UNL A   1      42.348  23.268  26.350  1.00  0.00     0.010 A 
ATOM     30  C   UNL A   1      42.255  23.494  27.734  1.00  0.00    -0.014 A 
BRANCH  30  31
ATOM     31  C   UNL A   1      42.505  24.840  28.294  1.00  0.00     0.031 A 
ATOM     32  C   UNL A   1      43.911  25.196  28.693  1.00  0.00     0.074 A 
ATOM     33  C   UNL A   1      41.518  25.746  28.391  1.00  0.00     0.049 A 
ATOM     34  N   UNL A   1      44.388  26.334  29.127  1.00  0.00    -0.248 NA
ATOM     35  C   UNL A   1      44.914  24.122  28.593  1.00  0.00     0.031 C 
ATOM     36  C   UNL A   1      40.121  25.521  28.024  1.00  0.00     0.029 A 
ATOM     37  N   UNL A   1      41.550  27.046  28.828  1.00  0.00    -0.354 N 
ATOM     38  C   UNL A   1      45.742  26.111  29.346  1.00  0.00     0.074 A 
ATOM     39  C   UNL A   1      46.001  24.722  29.049  1.00  0.00     0.031 C 
ATOM     40  C   UNL A   1      39.426  26.650  28.252  1.00  0.00     0.029 A 
ATOM     41  C   UNL A   1      40.327  27.667  28.789  1.00  0.00     0.049 A 
ATOM     42  H   UNL A   1      42.371  27.491  29.139  1.00  0.00     0.167 HD
ATOM     43  C   UNL A   1      46.692  26.991  29.740  1.00  0.00     0.031 A 
ATOM     44  C   UNL A   1      39.979  28.918  29.146  1.00  0.00     0.031 A 
ATOM     45  C   UNL A   1      46.433  28.370  30.044  1.00  0.00     0.049 A 
ATOM     46  C   UNL A   1      41.043  29.868  29.630  1.00  0.00     0.074 A 
ATOM     47  C   UNL A   1      47.327  29.354  30.425  1.00  0.00     0.029 A 
ATOM     48  N   UNL A   1      45.176  28.954  30.013  1.00  0.00    -0.354 N 
ATOM     49  N   UNL A   1      42.332  29.667  29.762  1.00  0.00    -0.248 NA
ATOM     50  C   UNL A   1      40.605  31.223  29.996  1.00  0.00     0.031 C 
ATOM     51  C   UNL A   1      46.602  30.525  30.672  1.00  0.00     0.029 A 
ATOM     52  C   UNL A   1      45.265  30.281  30.396  1.00  0.00     0.049 A 
ATOM     53  H   UNL A   1      44.344  28.495  29.755  1.00  0.00     0.167 HD
ATOM     54  C   UNL A   1      42.863  30.876  30.196  1.00  0.00     0.074 A 
ATOM     55  C   UNL A   1      41.758  31.806  30.296  1.00  0.00     0.031 C 
ATOM     56  C   UNL A   1      44.151  31.189  30.482  1.00  0.00     0.031 A 
BRANCH  43  57
ATOM     57  C   UNL A   1      48.091  26.463  29.886  1.00  0.00    -0.014 A 
ATOM     58  C   UNL A   1      49.012  26.541  28.829  1.00  0.00     0.009 A 
ATOM     59  C   UNL A   1      48.488  25.866  31.092  1.00  0.00     0.009 A 
ATOM     60  C   UNL A   1      50.289  25.990  28.962  1.00  0.00     0.001 A 
ATOM     61  C   UNL A   1      49.774  25.340  31.231  1.00  0.00     0.001 A 
ATOM     62  C   UNL A   1      50.668  25.391  30.162  1.00  0.00     0.000 A 
ENDBRANCH  43  57
BRANCH  44  63
ATOM     63  C   UNL A   1      38.559  29.347  29.058  1.00  0.00    -0.014 A 
ATOM     64  C   UNL A   1      37.700  29.223  30.160  1.00  0.00     0.009 A 
ATOM     65  C   UNL A   1      38.053  29.875  27.860  1.00  0.00     0.009 A 
ATOM     66  C   UNL A   1      36.358  29.597  30.056  1.00  0.00     0.001 A 
ATOM     67  C   UNL A   1      36.718  30.272  27.767  1.00  0.00     0.001 A 
ATOM     68  C   UNL A   1      35.869  30.125  28.862  1.00  0.00     0.000 A 
ENDBRANCH  44  63
BRANCH  56  69
ATOM     69  C   UNL A   1      44.443  32.601  30.902  1.00  0.00    -0.014 A 
ATOM     70  C   UNL A   1      44.460  32.968  32.256  1.00  0.00     0.009 A 
ATOM     71  C   UNL A   1      44.777  33.558  29.931  1.00  0.00     0.009 A 
ATOM     72  C   UNL A   1      44.786  34.274  32.628  1.00  0.00     0.001 A 
ATOM     73  C   UNL A   1      45.127  34.855  30.307  1.00  0.00     0.001 A 
ATOM     74  C   UNL A   1      45.126  35.213  31.654  1.00  0.00     0.000 A 
ENDBRANCH  56  69
ENDBRANCH  30  31
ENDBRANCH  23  25
ENDBRANCH  22  23
ENDBRANCH   1  22
TORSDOF 12
ENDMDL
