MODEL 1
REMARK VINA RESULT:     -12.1      0.000      0.000
REMARK SMILES O=C(OCCOC(=O)[C@@]1([NH2+]C2CC2)CCC[C@H]1CCn1ccnc1)c1ccc(-c2c3nc(c(-c4ccccc4)c4ccc([nH]4)c(-c4ccccc4)c4nc(c(-c5ccccc5)c5ccc2[nH]5)C=C4)C=C3)cc1
REMARK SMILES IDX 5 1 4 2 3 3 2 4 1 5 25 6 26 7 72 8 27 9 71 10 28 11 29 12
REMARK SMILES IDX 30 13 65 14 31 15 70 16 64 17 66 18 32 19 69 20 63 21 62 22
REMARK SMILES IDX 33 24 55 25 40 26 54 27 41 28 44 29 53 30 67 31 42 32 43 33
REMARK SMILES IDX 52 35 68 36 45 37 34 38 35 39 39 40 36 41 38 42 37 43 56 44
REMARK SMILES IDX 57 45 61 46 58 47 60 48 59 49 46 50 47 51 51 52 48 53 50 54
REMARK SMILES IDX 49 55 6 56 7 57 8 58 9 59 14 60 17 61 15 62 16 63 10 64
REMARK SMILES IDX 11 67 12 68 13 69 18 70 19 71 20 72 21 73 24 74 22 75 23 76
REMARK H PARENT 66 23 44 34 10 65 10 66
REMARK Flexibility Score: inf
ROOT
ATOM      1  C   UNL A   1      33.185  29.943  27.347  1.00  0.00     0.274 C 
ENDROOT
BRANCH   1   2
ATOM      2  C   UNL A   1      33.457  31.433  27.639  1.00  0.00     0.275 C 
BRANCH   2   3
ATOM      3  O   UNL A   1      34.461  31.844  28.554  1.00  0.00    -0.458 OA
BRANCH   3   4
ATOM      4  C   UNL A   1      35.681  32.140  28.134  1.00  0.00     0.338 C 
ATOM      5  O   UNL A   1      35.871  32.980  27.262  1.00  0.00    -0.246 OA
BRANCH   4   6
ATOM      6  C   UNL A   1      36.817  31.725  29.028  1.00  0.00     0.060 A 
ATOM      7  C   UNL A   1      38.330  32.503  29.761  1.00  0.00     0.016 A 
ATOM      8  C   UNL A   1      36.636  29.973  29.100  1.00  0.00     0.016 A 
ATOM      9  C   UNL A   1      39.711  31.344  30.269  1.00  0.00     0.010 A 
ATOM     10  C   UNL A   1      37.881  28.971  29.584  1.00  0.00     0.010 A 
ATOM     11  C   UNL A   1      39.415  29.548  30.100  1.00  0.00    -0.014 A 
BRANCH  11  12
ATOM     12  C   UNL A   1      40.453  28.427  29.986  1.00  0.00     0.031 A 
ATOM     13  C   UNL A   1      41.034  28.283  31.326  1.00  0.00     0.074 A 
ATOM     14  C   UNL A   1      40.817  27.628  28.903  1.00  0.00     0.049 A 
ATOM     15  N   UNL A   1      42.172  28.754  31.713  1.00  0.00    -0.248 NA
ATOM     16  C   UNL A   1      40.122  27.919  32.424  1.00  0.00     0.031 C 
ATOM     17  C   UNL A   1      40.340  27.646  27.497  1.00  0.00     0.029 A 
ATOM     18  N   UNL A   1      41.696  26.535  28.815  1.00  0.00    -0.354 N 
ATOM     19  C   UNL A   1      42.222  28.431  33.061  1.00  0.00     0.074 A 
ATOM     20  C   UNL A   1      40.856  28.274  33.479  1.00  0.00     0.031 C 
ATOM     21  C   UNL A   1      40.655  26.504  26.832  1.00  0.00     0.029 A 
ATOM     22  C   UNL A   1      41.521  25.695  27.660  1.00  0.00     0.049 A 
ATOM     23  H   UNL A   1      42.383  26.356  29.496  1.00  0.00     0.167 HD
ATOM     24  C   UNL A   1      43.334  27.810  33.545  1.00  0.00     0.031 A 
ATOM     25  C   UNL A   1      42.088  24.470  27.364  1.00  0.00     0.031 A 
ATOM     26  C   UNL A   1      44.471  28.068  32.692  1.00  0.00     0.049 A 
ATOM     27  C   UNL A   1      43.301  24.339  28.195  1.00  0.00     0.074 A 
ATOM     28  C   UNL A   1      45.102  29.205  32.226  1.00  0.00     0.029 A 
ATOM     29  N   UNL A   1      44.823  27.053  31.839  1.00  0.00    -0.354 N 
ATOM     30  N   UNL A   1      44.359  25.067  27.999  1.00  0.00    -0.248 NA
ATOM     31  C   UNL A   1      43.085  23.843  29.540  1.00  0.00     0.031 C 
ATOM     32  C   UNL A   1      45.475  28.908  30.884  1.00  0.00     0.029 A 
ATOM     33  C   UNL A   1      45.195  27.567  30.627  1.00  0.00     0.049 A 
ATOM     34  H   UNL A   1      44.808  26.095  32.065  1.00  0.00     0.167 HD
ATOM     35  C   UNL A   1      44.629  25.570  29.260  1.00  0.00     0.074 A 
ATOM     36  C   UNL A   1      43.816  24.760  30.176  1.00  0.00     0.031 C 
ATOM     37  C   UNL A   1      45.208  26.795  29.408  1.00  0.00     0.031 A 
BRANCH  24  38
ATOM     38  C   UNL A   1      43.228  26.555  34.392  1.00  0.00    -0.014 A 
ATOM     39  C   UNL A   1      44.162  25.531  34.178  1.00  0.00     0.009 A 
ATOM     40  C   UNL A   1      42.098  26.216  35.170  1.00  0.00     0.009 A 
ATOM     41  C   UNL A   1      43.939  24.234  34.657  1.00  0.00     0.001 A 
ATOM     42  C   UNL A   1      41.887  24.933  35.676  1.00  0.00     0.001 A 
ATOM     43  C   UNL A   1      42.799  23.933  35.397  1.00  0.00     0.000 A 
ENDBRANCH  24  38
BRANCH  25  44
ATOM     44  C   UNL A   1      41.555  23.231  26.684  1.00  0.00    -0.014 A 
ATOM     45  C   UNL A   1      42.387  22.149  26.287  1.00  0.00     0.009 A 
ATOM     46  C   UNL A   1      40.181  22.959  26.742  1.00  0.00     0.009 A 
ATOM     47  C   UNL A   1      41.865  20.862  26.016  1.00  0.00     0.001 A 
ATOM     48  C   UNL A   1      39.662  21.676  26.482  1.00  0.00     0.001 A 
ATOM     49  C   UNL A   1      40.501  20.623  26.136  1.00  0.00     0.000 A 
ENDBRANCH  25  44
BRANCH  37  50
ATOM     50  C   UNL A   1      45.801  27.460  28.188  1.00  0.00    -0.014 A 
ATOM     51  C   UNL A   1      45.128  28.384  27.365  1.00  0.00     0.009 A 
ATOM     52  C   UNL A   1      47.165  27.235  27.955  1.00  0.00     0.009 A 
ATOM     53  C   UNL A   1      45.810  29.040  26.328  1.00  0.00     0.001 A 
ATOM     54  C   UNL A   1      47.846  27.903  26.939  1.00  0.00     0.001 A 
ATOM     55  C   UNL A   1      47.168  28.801  26.119  1.00  0.00     0.000 A 
ENDBRANCH  37  50
ENDBRANCH  11  12
ENDBRANCH   4   6
ENDBRANCH   3   4
ENDBRANCH   2   3
ENDBRANCH   1   2
BRANCH   1  56
ATOM     56  O   UNL A   1      31.809  29.577  27.108  1.00  0.00    -0.457 OA
BRANCH  56  57
ATOM     57  C   UNL A   1      31.421  29.430  25.791  1.00  0.00     0.368 C 
ATOM     58  O   UNL A   1      31.163  30.397  25.085  1.00  0.00    -0.245 OA
BRANCH  57  59
ATOM     59  C   UNL A   1      31.481  27.885  25.272  1.00  0.00     0.197 C 
ATOM     60  C   UNL A   1      31.220  26.801  26.341  1.00  0.00     0.081 C 
ATOM     61  C   UNL A   1      30.255  27.161  23.998  1.00  0.00     0.064 C 
ATOM     62  C   UNL A   1      31.360  25.450  25.646  1.00  0.00     0.008 C 
ATOM     63  C   UNL A   1      30.738  25.554  24.261  1.00  0.00     0.011 C 
BRANCH  59  64
ATOM     64  N   UNL A   1      32.974  27.758  24.977  1.00  0.00    -0.329 N 
ATOM     65  H   UNL A   1      33.140  26.790  24.697  1.00  0.00     0.347 HD
ATOM     66  H   UNL A   1      33.417  28.071  25.841  1.00  0.00     0.347 HD
BRANCH  64  67
ATOM     67  C   UNL A   1      33.601  28.640  23.911  1.00  0.00     0.183 C 
ATOM     68  C   UNL A   1      34.292  28.181  22.639  1.00  0.00     0.071 C 
ATOM     69  C   UNL A   1      32.971  28.860  22.548  1.00  0.00     0.071 C 
ENDBRANCH  64  67
ENDBRANCH  59  64
BRANCH  61  70
ATOM     70  C   UNL A   1      28.459  28.068  23.036  1.00  0.00     0.032 C 
BRANCH  70  71
ATOM     71  C   UNL A   1      27.720  29.789  23.305  1.00  0.00     0.123 C 
BRANCH  71  72
ATOM     72  N   UNL A   1      28.018  31.022  22.531  1.00  0.00    -0.337 N 
ATOM     73  C   UNL A   1      27.999  31.178  21.154  1.00  0.00     0.107 A 
ATOM     74  C   UNL A   1      28.265  32.279  23.018  1.00  0.00     0.199 A 
ATOM     75  C   UNL A   1      28.006  32.531  20.912  1.00  0.00     0.130 A 
ATOM     76  N   UNL A   1      28.201  33.203  22.079  1.00  0.00    -0.245 NA
ENDBRANCH  71  72
ENDBRANCH  70  71
ENDBRANCH  61  70
ENDBRANCH  57  59
ENDBRANCH  56  57
ENDBRANCH   1  56
TORSDOF 16
ENDMDL
MODEL 2
REMARK VINA RESULT:     -11.5      4.218      8.864
REMARK SMILES O=C(OCCOC(=O)[C@@]1([NH2+]C2CC2)CCC[C@H]1CCn1ccnc1)c1ccc(-c2c3nc(c(-c4ccccc4)c4ccc([nH]4)c(-c4ccccc4)c4nc(c(-c5ccccc5)c5ccc2[nH]5)C=C4)C=C3)cc1
REMARK SMILES IDX 5 1 4 2 3 3 2 4 1 5 25 6 26 7 72 8 27 9 71 10 28 11 29 12
REMARK SMILES IDX 30 13 65 14 31 15 70 16 64 17 66 18 32 19 69 20 63 21 62 22
REMARK SMILES IDX 33 24 55 25 40 26 54 27 41 28 44 29 53 30 67 31 42 32 43 33
REMARK SMILES IDX 52 35 68 36 45 37 34 38 35 39 39 40 36 41 38 42 37 43 56 44
REMARK SMILES IDX 57 45 61 46 58 47 60 48 59 49 46 50 47 51 51 52 48 53 50 54
REMARK SMILES IDX 49 55 6 56 7 57 8 58 9 59 14 60 17 61 15 62 16 63 10 64
REMARK SMILES IDX 11 67 12 68 13 69 18 70 19 71 20 72 21 73 24 74 22 75 23 76
REMARK H PARENT 66 23 44 34 10 65 10 66
REMARK Flexibility Score: inf
ROOT
ATOM      1  C   UNL A   1      37.896  21.902  25.558  1.00  0.00     0.274 C 
ENDROOT
BRANCH   1   2
ATOM      2  C   UNL A   1      38.501  23.203  26.121  1.00  0.00     0.275 C 
BRANCH   2   3
ATOM      3  O   UNL A   1      39.456  23.190  27.171  1.00  0.00    -0.458 OA
BRANCH   3   4
ATOM      4  C   UNL A   1      40.752  23.275  26.909  1.00  0.00     0.338 C 
ATOM      5  O   UNL A   1      41.265  22.633  26.001  1.00  0.00    -0.246 OA
BRANCH   4   6
ATOM      6  C   UNL A   1      41.473  24.466  27.479  1.00  0.00     0.060 A 
ATOM      7  C   UNL A   1      42.544  24.838  28.946  1.00  0.00     0.016 A 
ATOM      8  C   UNL A   1      40.831  25.804  26.529  1.00  0.00     0.016 A 
ATOM      9  C   UNL A   1      42.629  26.627  29.492  1.00  0.00     0.010 A 
ATOM     10  C   UNL A   1      40.948  27.390  27.034  1.00  0.00     0.010 A 
ATOM     11  C   UNL A   1      41.742  27.865  28.483  1.00  0.00    -0.014 A 
BRANCH  11  12
ATOM     12  C   UNL A   1      41.253  29.254  28.907  1.00  0.00     0.031 A 
ATOM     13  C   UNL A   1      42.436  30.121  28.875  1.00  0.00     0.074 A 
ATOM     14  C   UNL A   1      39.977  29.711  29.236  1.00  0.00     0.049 A 
ATOM     15  N   UNL A   1      43.131  30.492  29.899  1.00  0.00    -0.248 NA
ATOM     16  C   UNL A   1      43.125  30.281  27.583  1.00  0.00     0.031 C 
ATOM     17  C   UNL A   1      38.690  28.975  29.322  1.00  0.00     0.029 A 
ATOM     18  N   UNL A   1      39.504  31.001  29.530  1.00  0.00    -0.354 N 
ATOM     19  C   UNL A   1      44.175  31.217  29.343  1.00  0.00     0.074 A 
ATOM     20  C   UNL A   1      44.305  30.747  27.992  1.00  0.00     0.031 C 
ATOM     21  C   UNL A   1      37.618  29.811  29.320  1.00  0.00     0.029 A 
ATOM     22  C   UNL A   1      38.081  31.177  29.415  1.00  0.00     0.049 A 
ATOM     23  H   UNL A   1      40.105  31.734  29.796  1.00  0.00     0.167 HD
ATOM     24  C   UNL A   1      44.451  32.454  29.842  1.00  0.00     0.031 A 
ATOM     25  C   UNL A   1      37.327  32.334  29.463  1.00  0.00     0.031 A 
ATOM     26  C   UNL A   1      43.957  32.579  31.194  1.00  0.00     0.049 A 
ATOM     27  C   UNL A   1      38.146  33.360  30.137  1.00  0.00     0.074 A 
ATOM     28  C   UNL A   1      44.145  31.878  32.369  1.00  0.00     0.029 A 
ATOM     29  N   UNL A   1      42.783  33.273  31.340  1.00  0.00    -0.354 N 
ATOM     30  N   UNL A   1      38.436  33.295  31.402  1.00  0.00    -0.248 NA
ATOM     31  C   UNL A   1      39.075  34.077  29.287  1.00  0.00     0.031 C 
ATOM     32  C   UNL A   1      42.873  31.863  33.009  1.00  0.00     0.029 A 
ATOM     33  C   UNL A   1      41.998  32.671  32.284  1.00  0.00     0.049 A 
ATOM     34  H   UNL A   1      42.540  34.085  30.839  1.00  0.00     0.167 HD
ATOM     35  C   UNL A   1      39.809  33.467  31.416  1.00  0.00     0.074 A 
ATOM     36  C   UNL A   1      40.145  33.966  30.077  1.00  0.00     0.031 C 
ATOM     37  C   UNL A   1      40.572  32.874  32.377  1.00  0.00     0.031 A 
BRANCH  24  38
ATOM     38  C   UNL A   1      44.608  33.655  28.925  1.00  0.00    -0.014 A 
ATOM     39  C   UNL A   1      45.781  34.415  29.026  1.00  0.00     0.009 A 
ATOM     40  C   UNL A   1      43.550  34.233  28.187  1.00  0.00     0.009 A 
ATOM     41  C   UNL A   1      45.859  35.703  28.480  1.00  0.00     0.001 A 
ATOM     42  C   UNL A   1      43.634  35.502  27.615  1.00  0.00     0.001 A 
ATOM     43  C   UNL A   1      44.785  36.249  27.783  1.00  0.00     0.000 A 
ENDBRANCH  24  38
BRANCH  25  44
ATOM     44  C   UNL A   1      36.095  32.786  28.714  1.00  0.00    -0.014 A 
ATOM     45  C   UNL A   1      35.233  31.887  28.030  1.00  0.00     0.009 A 
ATOM     46  C   UNL A   1      35.573  34.062  28.967  1.00  0.00     0.009 A 
ATOM     47  C   UNL A   1      33.911  32.241  27.672  1.00  0.00     0.001 A 
ATOM     48  C   UNL A   1      34.254  34.413  28.620  1.00  0.00     0.001 A 
ATOM     49  C   UNL A   1      33.416  33.501  27.988  1.00  0.00     0.000 A 
ENDBRANCH  25  44
BRANCH  37  50
ATOM     50  C   UNL A   1      39.875  32.269  33.574  1.00  0.00    -0.014 A 
ATOM     51  C   UNL A   1      39.637  32.935  34.792  1.00  0.00     0.009 A 
ATOM     52  C   UNL A   1      39.308  30.999  33.390  1.00  0.00     0.009 A 
ATOM     53  C   UNL A   1      38.869  32.325  35.797  1.00  0.00     0.001 A 
ATOM     54  C   UNL A   1      38.529  30.405  34.380  1.00  0.00     0.001 A 
ATOM     55  C   UNL A   1      38.315  31.062  35.588  1.00  0.00     0.000 A 
ENDBRANCH  37  50
ENDBRANCH  11  12
ENDBRANCH   4   6
ENDBRANCH   3   4
ENDBRANCH   2   3
ENDBRANCH   1   2
BRANCH   1  56
ATOM     56  O   UNL A   1      36.580  21.546  26.037  1.00  0.00    -0.457 OA
BRANCH  56  57
ATOM     57  C   UNL A   1      35.508  21.910  25.246  1.00  0.00     0.368 C 
ATOM     58  O   UNL A   1      35.622  22.059  24.036  1.00  0.00    -0.245 OA
BRANCH  57  59
ATOM     59  C   UNL A   1      34.100  21.978  26.067  1.00  0.00     0.197 C 
ATOM     60  C   UNL A   1      34.185  22.503  27.517  1.00  0.00     0.081 C 
ATOM     61  C   UNL A   1      32.650  23.116  25.563  1.00  0.00     0.064 C 
ATOM     62  C   UNL A   1      32.774  22.445  28.093  1.00  0.00     0.008 C 
ATOM     63  C   UNL A   1      31.794  22.872  27.010  1.00  0.00     0.011 C 
BRANCH  59  64
ATOM     64  N   UNL A   1      33.812  20.487  26.231  1.00  0.00    -0.329 N 
ATOM     65  H   UNL A   1      33.115  20.399  26.972  1.00  0.00     0.347 HD
ATOM     66  H   UNL A   1      34.732  20.084  26.414  1.00  0.00     0.347 HD
BRANCH  64  67
ATOM     67  C   UNL A   1      33.299  19.691  25.044  1.00  0.00     0.183 C 
ATOM     68  C   UNL A   1      33.980  18.509  24.377  1.00  0.00     0.071 C 
ATOM     69  C   UNL A   1      32.743  18.286  25.173  1.00  0.00     0.071 C 
ENDBRANCH  64  67
ENDBRANCH  59  64
BRANCH  61  70
ATOM     70  C   UNL A   1      32.504  24.651  23.952  1.00  0.00     0.032 C 
BRANCH  70  71
ATOM     71  C   UNL A   1      32.623  26.533  24.102  1.00  0.00     0.123 C 
BRANCH  71  72
ATOM     72  N   UNL A   1      32.478  27.343  25.339  1.00  0.00    -0.337 N 
ATOM     73  C   UNL A   1      31.405  27.359  26.215  1.00  0.00     0.107 A 
ATOM     74  C   UNL A   1      33.414  28.156  25.924  1.00  0.00     0.199 A 
ATOM     75  C   UNL A   1      31.841  27.981  27.360  1.00  0.00     0.130 A 
ATOM     76  N   UNL A   1      33.083  28.498  27.155  1.00  0.00    -0.245 NA
ENDBRANCH  71  72
ENDBRANCH  70  71
ENDBRANCH  61  70
ENDBRANCH  57  59
ENDBRANCH  56  57
ENDBRANCH   1  56
TORSDOF 16
ENDMDL
MODEL 3
REMARK VINA RESULT:     -11.4      4.482      9.578
REMARK SMILES O=C(OCCOC(=O)[C@@]1([NH2+]C2CC2)CCC[C@H]1CCn1ccnc1)c1ccc(-c2c3nc(c(-c4ccccc4)c4ccc([nH]4)c(-c4ccccc4)c4nc(c(-c5ccccc5)c5ccc2[nH]5)C=C4)C=C3)cc1
REMARK SMILES IDX 5 1 4 2 3 3 2 4 1 5 25 6 26 7 72 8 27 9 71 10 28 11 29 12
REMARK SMILES IDX 30 13 65 14 31 15 70 16 64 17 66 18 32 19 69 20 63 21 62 22
REMARK SMILES IDX 33 24 55 25 40 26 54 27 41 28 44 29 53 30 67 31 42 32 43 33
REMARK SMILES IDX 52 35 68 36 45 37 34 38 35 39 39 40 36 41 38 42 37 43 56 44
REMARK SMILES IDX 57 45 61 46 58 47 60 48 59 49 46 50 47 51 51 52 48 53 50 54
REMARK SMILES IDX 49 55 6 56 7 57 8 58 9 59 14 60 17 61 15 62 16 63 10 64
REMARK SMILES IDX 11 67 12 68 13 69 18 70 19 71 20 72 21 73 24 74 22 75 23 76
REMARK H PARENT 66 23 44 34 10 65 10 66
REMARK Flexibility Score: inf
ROOT
ATOM      1  C   UNL A   1      36.762  21.825  25.743  1.00  0.00     0.274 C 
ENDROOT
BRANCH   1   2
ATOM      2  C   UNL A   1      38.304  21.849  25.739  1.00  0.00     0.275 C 
BRANCH   2   3
ATOM      3  O   UNL A   1      39.036  22.944  26.268  1.00  0.00    -0.458 OA
BRANCH   3   4
ATOM      4  C   UNL A   1      40.000  22.750  27.155  1.00  0.00     0.338 C 
ATOM      5  O   UNL A   1      40.405  21.626  27.424  1.00  0.00    -0.246 OA
BRANCH   4   6
ATOM      6  C   UNL A   1      40.842  23.948  27.501  1.00  0.00     0.060 A 
ATOM      7  C   UNL A   1      42.222  24.353  28.670  1.00  0.00     0.016 A 
ATOM      8  C   UNL A   1      40.009  25.262  26.674  1.00  0.00     0.016 A 
ATOM      9  C   UNL A   1      42.444  26.158  29.116  1.00  0.00     0.010 A 
ATOM     10  C   UNL A   1      40.251  26.863  27.080  1.00  0.00     0.010 A 
ATOM     11  C   UNL A   1      41.358  27.375  28.292  1.00  0.00    -0.014 A 
BRANCH  11  12
ATOM     12  C   UNL A   1      40.990  28.785  28.764  1.00  0.00     0.031 A 
ATOM     13  C   UNL A   1      42.106  29.647  28.359  1.00  0.00     0.074 A 
ATOM     14  C   UNL A   1      39.851  29.261  29.413  1.00  0.00     0.049 A 
ATOM     15  N   UNL A   1      43.054  30.069  29.127  1.00  0.00    -0.248 NA
ATOM     16  C   UNL A   1      42.404  29.737  26.919  1.00  0.00     0.031 C 
ATOM     17  C   UNL A   1      38.649  28.534  29.893  1.00  0.00     0.029 A 
ATOM     18  N   UNL A   1      39.463  30.566  29.762  1.00  0.00    -0.354 N 
ATOM     19  C   UNL A   1      43.893  30.762  28.266  1.00  0.00     0.074 A 
ATOM     20  C   UNL A   1      43.646  30.222  26.958  1.00  0.00     0.031 C 
ATOM     21  C   UNL A   1      37.609  29.370  30.148  1.00  0.00     0.029 A 
ATOM     22  C   UNL A   1      38.062  30.739  30.041  1.00  0.00     0.049 A 
ATOM     23  H   UNL A   1      40.105  31.310  29.812  1.00  0.00     0.167 HD
ATOM     24  C   UNL A   1      44.281  32.023  28.604  1.00  0.00     0.031 A 
ATOM     25  C   UNL A   1      37.337  31.898  30.239  1.00  0.00     0.031 A 
ATOM     26  C   UNL A   1      44.182  32.219  30.033  1.00  0.00     0.049 A 
ATOM     27  C   UNL A   1      38.298  32.956  30.605  1.00  0.00     0.074 A 
ATOM     28  C   UNL A   1      44.700  31.580  31.142  1.00  0.00     0.029 A 
ATOM     29  N   UNL A   1      43.087  32.922  30.466  1.00  0.00    -0.354 N 
ATOM     30  N   UNL A   1      38.931  32.956  31.740  1.00  0.00    -0.248 NA
ATOM     31  C   UNL A   1      38.944  33.625  29.493  1.00  0.00     0.031 C 
ATOM     32  C   UNL A   1      43.658  31.601  32.112  1.00  0.00     0.029 A 
ATOM     33  C   UNL A   1      42.605  32.371  31.621  1.00  0.00     0.049 A 
ATOM     34  H   UNL A   1      42.704  33.708  30.012  1.00  0.00     0.167 HD
ATOM     35  C   UNL A   1      40.251  33.126  31.361  1.00  0.00     0.074 A 
ATOM     36  C   UNL A   1      40.193  33.554  29.957  1.00  0.00     0.031 C 
ATOM     37  C   UNL A   1      41.259  32.582  32.099  1.00  0.00     0.031 A 
BRANCH  24  38
ATOM     38  C   UNL A   1      44.160  33.174  27.621  1.00  0.00    -0.014 A 
ATOM     39  C   UNL A   1      43.427  34.303  28.011  1.00  0.00     0.009 A 
ATOM     40  C   UNL A   1      44.478  33.080  26.248  1.00  0.00     0.009 A 
ATOM     41  C   UNL A   1      42.983  35.241  27.069  1.00  0.00     0.001 A 
ATOM     42  C   UNL A   1      44.066  34.027  25.310  1.00  0.00     0.001 A 
ATOM     43  C   UNL A   1      43.295  35.098  25.720  1.00  0.00     0.000 A 
ENDBRANCH  24  38
BRANCH  25  44
ATOM     44  C   UNL A   1      35.939  32.313  29.842  1.00  0.00    -0.014 A 
ATOM     45  C   UNL A   1      35.164  33.235  30.597  1.00  0.00     0.009 A 
ATOM     46  C   UNL A   1      35.501  32.071  28.533  1.00  0.00     0.009 A 
ATOM     47  C   UNL A   1      34.048  33.907  30.043  1.00  0.00     0.001 A 
ATOM     48  C   UNL A   1      34.397  32.746  27.978  1.00  0.00     0.001 A 
ATOM     49  C   UNL A   1      33.679  33.675  28.724  1.00  0.00     0.000 A 
ENDBRANCH  25  44
BRANCH  37  50
ATOM     50  C   UNL A   1      40.932  32.042  33.471  1.00  0.00    -0.014 A 
ATOM     51  C   UNL A   1      40.816  32.820  34.639  1.00  0.00     0.009 A 
ATOM     52  C   UNL A   1      40.585  30.684  33.541  1.00  0.00     0.009 A 
ATOM     53  C   UNL A   1      40.384  32.237  35.841  1.00  0.00     0.001 A 
ATOM     54  C   UNL A   1      40.136  30.113  34.730  1.00  0.00     0.001 A 
ATOM     55  C   UNL A   1      40.043  30.886  35.884  1.00  0.00     0.000 A 
ENDBRANCH  37  50
ENDBRANCH  11  12
ENDBRANCH   4   6
ENDBRANCH   3   4
ENDBRANCH   2   3
ENDBRANCH   1   2
BRANCH   1  56
ATOM     56  O   UNL A   1      36.101  23.071  26.053  1.00  0.00    -0.457 OA
BRANCH  56  57
ATOM     57  C   UNL A   1      34.746  23.012  26.315  1.00  0.00     0.368 C 
ATOM     58  O   UNL A   1      34.318  22.680  27.414  1.00  0.00    -0.245 OA
BRANCH  57  59
ATOM     59  C   UNL A   1      33.829  23.548  25.078  1.00  0.00     0.197 C 
ATOM     60  C   UNL A   1      34.595  24.119  23.864  1.00  0.00     0.081 C 
ATOM     61  C   UNL A   1      32.701  22.407  24.041  1.00  0.00     0.064 C 
ATOM     62  C   UNL A   1      33.548  24.587  22.859  1.00  0.00     0.008 C 
ATOM     63  C   UNL A   1      32.410  23.577  22.844  1.00  0.00     0.011 C 
BRANCH  59  64
ATOM     64  N   UNL A   1      33.197  24.778  25.726  1.00  0.00    -0.329 N 
ATOM     65  H   UNL A   1      33.041  25.459  24.981  1.00  0.00     0.347 HD
ATOM     66  H   UNL A   1      33.863  25.036  26.454  1.00  0.00     0.347 HD
BRANCH  64  67
ATOM     67  C   UNL A   1      31.884  24.635  26.475  1.00  0.00     0.183 C 
ATOM     68  C   UNL A   1      30.488  24.849  25.917  1.00  0.00     0.071 C 
ATOM     69  C   UNL A   1      30.934  23.471  26.259  1.00  0.00     0.071 C 
ENDBRANCH  64  67
ENDBRANCH  59  64
BRANCH  61  70
ATOM     70  C   UNL A   1      32.430  20.194  24.100  1.00  0.00     0.032 C 
BRANCH  70  71
ATOM     71  C   UNL A   1      33.142  18.951  25.335  1.00  0.00     0.123 C 
BRANCH  71  72
ATOM     72  N   UNL A   1      33.575  17.558  25.054  1.00  0.00    -0.337 N 
ATOM     73  C   UNL A   1      34.872  17.092  24.908  1.00  0.00     0.107 A 
ATOM     74  C   UNL A   1      32.794  16.433  24.990  1.00  0.00     0.199 A 
ATOM     75  C   UNL A   1      34.810  15.722  24.994  1.00  0.00     0.130 A 
ATOM     76  N   UNL A   1      33.509  15.324  25.016  1.00  0.00    -0.245 NA
ENDBRANCH  71  72
ENDBRANCH  70  71
ENDBRANCH  61  70
ENDBRANCH  57  59
ENDBRANCH  56  57
ENDBRANCH   1  56
TORSDOF 16
ENDMDL
