MODEL 1
REMARK VINA RESULT:     -10.4      0.000      0.000
REMARK SMILES C[NH+](C)[C@@H]1CC[N@@H+](Cc2ccc(C(=O)OCCOC(=O)c3ccc(-c4c5nc(c(-c6ccccc6)c6ccc([nH]6)c(-c6ccccc6)c6nc(c(-c7ccccc7)c7ccc4[nH]7)C=C6)C=C5)cc3)cn2)C1
REMARK SMILES IDX 16 1 15 2 13 3 14 4 12 5 9 6 10 7 70 8 11 9 69 10 8 11 7 12
REMARK SMILES IDX 4 13 5 14 71 15 6 16 2 18 1 19 3 20 17 22 18 23 19 24 20 25
REMARK SMILES IDX 21 26 22 27 68 28 23 29 67 30 24 31 25 32 26 33 61 34 27 35
REMARK SMILES IDX 66 36 60 37 62 38 28 39 65 40 59 41 58 42 29 44 51 45 36 46
REMARK SMILES IDX 50 47 37 48 40 49 49 50 63 51 38 52 39 53 48 55 64 56 41 57
REMARK SMILES IDX 30 58 31 59 35 60 32 61 34 62 33 63 52 64 53 65 57 66 54 67
REMARK SMILES IDX 56 68 55 69 42 70 43 71 47 72 44 73 46 74 45 75
REMARK H PARENT 7 17 2 21 62 43 40 54
REMARK Flexibility Score: inf
ROOT
ATOM      1  C   UNL A   1      42.419  20.436  26.002  1.00  0.00     0.275 C 
ENDROOT
BRANCH   1   2
ATOM      2  O   UNL A   1      41.122  20.924  25.606  1.00  0.00    -0.458 OA
BRANCH   2   3
ATOM      3  C   UNL A   1      40.302  21.262  26.629  1.00  0.00     0.339 C 
ATOM      4  O   UNL A   1      40.549  21.156  27.816  1.00  0.00    -0.246 OA
BRANCH   3   5
ATOM      5  C   UNL A   1      39.043  21.853  26.140  1.00  0.00     0.078 A 
ATOM      6  C   UNL A   1      36.884  22.843  24.762  1.00  0.00     0.095 A 
ATOM      7  C   UNL A   1      37.567  23.682  25.645  1.00  0.00     0.031 A 
ATOM      8  N   UNL A   1      37.162  21.522  24.662  1.00  0.00    -0.254 NA
ATOM      9  C   UNL A   1      38.663  23.176  26.349  1.00  0.00     0.019 A 
ATOM     10  C   UNL A   1      38.247  21.071  25.319  1.00  0.00     0.127 A 
BRANCH   6  11
ATOM     11  C   UNL A   1      35.979  23.401  23.680  1.00  0.00     0.319 C 
BRANCH  11  12
ATOM     12  N   UNL A   1      34.522  23.246  23.894  1.00  0.00    -0.325 N 
ATOM     13  C   UNL A   1      33.251  25.292  23.537  1.00  0.00     0.245 C 
ATOM     14  C   UNL A   1      33.178  24.434  22.267  1.00  0.00     0.132 C 
ATOM     15  C   UNL A   1      33.872  24.357  24.600  1.00  0.00     0.328 C 
ATOM     16  C   UNL A   1      33.736  23.069  22.666  1.00  0.00     0.269 C 
ATOM     17  H   UNL A   1      34.515  22.401  24.466  1.00  0.00     0.348 HD
BRANCH  13  18
ATOM     18  N   UNL A   1      32.025  25.959  24.012  1.00  0.00    -0.333 N 
ATOM     19  C   UNL A   1      31.201  26.434  22.902  1.00  0.00     0.332 C 
ATOM     20  C   UNL A   1      31.225  25.151  24.930  1.00  0.00     0.332 C 
ATOM     21  H   UNL A   1      32.356  26.762  24.547  1.00  0.00     0.348 HD
ENDBRANCH  13  18
ENDBRANCH  11  12
ENDBRANCH   6  11
ENDBRANCH   3   5
ENDBRANCH   2   3
ENDBRANCH   1   2
BRANCH   1  22
ATOM     22  C   UNL A   1      43.512  21.440  25.631  1.00  0.00     0.275 C 
BRANCH  22  23
ATOM     23  O   UNL A   1      42.972  22.544  24.875  1.00  0.00    -0.458 OA
BRANCH  23  24
ATOM     24  C   UNL A   1      43.663  23.699  24.978  1.00  0.00     0.338 C 
ATOM     25  O   UNL A   1      44.690  24.006  24.393  1.00  0.00    -0.246 OA
BRANCH  24  26
ATOM     26  C   UNL A   1      42.964  24.644  25.861  1.00  0.00     0.060 A 
ATOM     27  C   UNL A   1      43.317  25.987  25.795  1.00  0.00     0.016 A 
ATOM     28  C   UNL A   1      42.138  24.192  26.885  1.00  0.00     0.016 A 
ATOM     29  C   UNL A   1      42.973  26.858  26.823  1.00  0.00     0.010 A 
ATOM     30  C   UNL A   1      41.679  25.101  27.847  1.00  0.00     0.010 A 
ATOM     31  C   UNL A   1      42.130  26.437  27.857  1.00  0.00    -0.014 A 
BRANCH  31  32
ATOM     32  C   UNL A   1      41.750  27.371  28.957  1.00  0.00     0.031 A 
ATOM     33  C   UNL A   1      42.560  27.417  30.230  1.00  0.00     0.074 A 
ATOM     34  C   UNL A   1      40.683  28.188  28.829  1.00  0.00     0.049 A 
ATOM     35  N   UNL A   1      42.277  27.992  31.373  1.00  0.00    -0.248 NA
ATOM     36  C   UNL A   1      43.849  26.708  30.221  1.00  0.00     0.031 C 
ATOM     37  C   UNL A   1      39.840  28.313  27.638  1.00  0.00     0.029 A 
ATOM     38  N   UNL A   1      40.125  29.077  29.717  1.00  0.00    -0.354 N 
ATOM     39  C   UNL A   1      43.318  27.659  32.233  1.00  0.00     0.074 A 
ATOM     40  C   UNL A   1      44.232  26.824  31.485  1.00  0.00     0.031 C 
ATOM     41  C   UNL A   1      38.906  29.250  27.851  1.00  0.00     0.029 A 
ATOM     42  C   UNL A   1      39.009  29.713  29.228  1.00  0.00     0.049 A 
ATOM     43  H   UNL A   1      40.489  29.242  30.616  1.00  0.00     0.167 HD
ATOM     44  C   UNL A   1      43.495  28.014  33.530  1.00  0.00     0.031 A 
ATOM     45  C   UNL A   1      38.129  30.536  29.828  1.00  0.00     0.031 A 
ATOM     46  C   UNL A   1      42.604  28.878  34.260  1.00  0.00     0.049 A 
ATOM     47  C   UNL A   1      38.305  30.860  31.282  1.00  0.00     0.074 A 
ATOM     48  C   UNL A   1      42.699  29.304  35.575  1.00  0.00     0.029 A 
ATOM     49  N   UNL A   1      41.462  29.461  33.734  1.00  0.00    -0.354 N 
ATOM     50  N   UNL A   1      39.258  30.489  32.102  1.00  0.00    -0.248 NA
ATOM     51  C   UNL A   1      37.274  31.707  31.899  1.00  0.00     0.031 C 
ATOM     52  C   UNL A   1      41.587  30.104  35.857  1.00  0.00     0.029 A 
ATOM     53  C   UNL A   1      40.834  30.228  34.701  1.00  0.00     0.049 A 
ATOM     54  H   UNL A   1      41.144  29.348  32.809  1.00  0.00     0.167 HD
ATOM     55  C   UNL A   1      38.957  31.076  33.323  1.00  0.00     0.074 A 
ATOM     56  C   UNL A   1      37.741  31.840  33.132  1.00  0.00     0.031 C 
ATOM     57  C   UNL A   1      39.628  30.988  34.497  1.00  0.00     0.031 A 
BRANCH  44  58
ATOM     58  C   UNL A   1      44.674  27.426  34.260  1.00  0.00    -0.014 A 
ATOM     59  C   UNL A   1      45.902  28.099  34.347  1.00  0.00     0.009 A 
ATOM     60  C   UNL A   1      44.539  26.182  34.898  1.00  0.00     0.009 A 
ATOM     61  C   UNL A   1      46.980  27.520  35.022  1.00  0.00     0.001 A 
ATOM     62  C   UNL A   1      45.607  25.621  35.600  1.00  0.00     0.001 A 
ATOM     63  C   UNL A   1      46.832  26.284  35.651  1.00  0.00     0.000 A 
ENDBRANCH  44  58
BRANCH  45  64
ATOM     64  C   UNL A   1      36.966  31.066  29.065  1.00  0.00    -0.014 A 
ATOM     65  C   UNL A   1      35.892  30.230  28.728  1.00  0.00     0.009 A 
ATOM     66  C   UNL A   1      36.923  32.415  28.672  1.00  0.00     0.009 A 
ATOM     67  C   UNL A   1      34.808  30.729  27.999  1.00  0.00     0.001 A 
ATOM     68  C   UNL A   1      35.823  32.919  27.976  1.00  0.00     0.001 A 
ATOM     69  C   UNL A   1      34.772  32.073  27.631  1.00  0.00     0.000 A 
ENDBRANCH  45  64
BRANCH  57  70
ATOM     70  C   UNL A   1      39.091  31.785  35.652  1.00  0.00    -0.014 A 
ATOM     71  C   UNL A   1      38.208  31.220  36.585  1.00  0.00     0.009 A 
ATOM     72  C   UNL A   1      39.504  33.115  35.824  1.00  0.00     0.009 A 
ATOM     73  C   UNL A   1      37.722  31.985  37.648  1.00  0.00     0.001 A 
ATOM     74  C   UNL A   1      39.041  33.867  36.905  1.00  0.00     0.001 A 
ATOM     75  C   UNL A   1      38.143  33.305  37.809  1.00  0.00     0.000 A 
ENDBRANCH  57  70
ENDBRANCH  31  32
ENDBRANCH  24  26
ENDBRANCH  23  24
ENDBRANCH  22  23
ENDBRANCH   1  22
TORSDOF 14
ENDMDL
MODEL 2
REMARK VINA RESULT:     -10.4      4.563      8.811
REMARK SMILES C[NH+](C)[C@@H]1CC[N@@H+](Cc2ccc(C(=O)OCCOC(=O)c3ccc(-c4c5nc(c(-c6ccccc6)c6ccc([nH]6)c(-c6ccccc6)c6nc(c(-c7ccccc7)c7ccc4[nH]7)C=C6)C=C5)cc3)cn2)C1
REMARK SMILES IDX 16 1 15 2 13 3 14 4 12 5 9 6 10 7 70 8 11 9 69 10 8 11 7 12
REMARK SMILES IDX 4 13 5 14 71 15 6 16 2 18 1 19 3 20 17 22 18 23 19 24 20 25
REMARK SMILES IDX 21 26 22 27 68 28 23 29 67 30 24 31 25 32 26 33 61 34 27 35
REMARK SMILES IDX 66 36 60 37 62 38 28 39 65 40 59 41 58 42 29 44 51 45 36 46
REMARK SMILES IDX 50 47 37 48 40 49 49 50 63 51 38 52 39 53 48 55 64 56 41 57
REMARK SMILES IDX 30 58 31 59 35 60 32 61 34 62 33 63 52 64 53 65 57 66 54 67
REMARK SMILES IDX 56 68 55 69 42 70 43 71 47 72 44 73 46 74 45 75
REMARK H PARENT 7 17 2 21 62 43 40 54
REMARK Flexibility Score: inf
ROOT
ATOM      1  C   UNL A   1      44.415  18.527  25.322  1.00  0.00     0.275 C 
ENDROOT
BRANCH   1   2
ATOM      2  O   UNL A   1      44.801  19.643  24.494  1.00  0.00    -0.458 OA
BRANCH   2   3
ATOM      3  C   UNL A   1      46.008  20.181  24.789  1.00  0.00     0.339 C 
ATOM      4  O   UNL A   1      47.072  19.590  24.828  1.00  0.00    -0.246 OA
BRANCH   3   5
ATOM      5  C   UNL A   1      45.911  21.635  25.011  1.00  0.00     0.078 A 
ATOM      6  C   UNL A   1      46.217  24.353  25.252  1.00  0.00     0.095 A 
ATOM      7  C   UNL A   1      45.851  23.611  26.377  1.00  0.00     0.031 A 
ATOM      8  N   UNL A   1      46.293  23.803  24.018  1.00  0.00    -0.254 NA
ATOM      9  C   UNL A   1      45.692  22.227  26.252  1.00  0.00     0.019 A 
ATOM     10  C   UNL A   1      46.176  22.465  23.933  1.00  0.00     0.127 A 
BRANCH   6  11
ATOM     11  C   UNL A   1      46.802  25.747  25.382  1.00  0.00     0.319 C 
BRANCH  11  12
ATOM     12  N   UNL A   1      45.912  26.873  25.018  1.00  0.00    -0.325 N 
ATOM     13  C   UNL A   1      45.633  28.519  26.790  1.00  0.00     0.245 C 
ATOM     14  C   UNL A   1      46.702  29.020  25.811  1.00  0.00     0.132 C 
ATOM     15  C   UNL A   1      44.991  27.308  26.075  1.00  0.00     0.328 C 
ATOM     16  C   UNL A   1      46.608  28.096  24.598  1.00  0.00     0.269 C 
ATOM     17  H   UNL A   1      45.400  26.452  24.243  1.00  0.00     0.348 HD
BRANCH  13  18
ATOM     18  N   UNL A   1      44.632  29.477  27.296  1.00  0.00    -0.333 N 
ATOM     19  C   UNL A   1      45.119  30.854  27.233  1.00  0.00     0.332 C 
ATOM     20  C   UNL A   1      43.325  29.370  26.651  1.00  0.00     0.332 C 
ATOM     21  H   UNL A   1      44.495  29.218  28.273  1.00  0.00     0.348 HD
ENDBRANCH  13  18
ENDBRANCH  11  12
ENDBRANCH   6  11
ENDBRANCH   3   5
ENDBRANCH   2   3
ENDBRANCH   1   2
BRANCH   1  22
ATOM     22  C   UNL A   1      43.121  18.837  26.076  1.00  0.00     0.275 C 
BRANCH  22  23
ATOM     23  O   UNL A   1      42.407  19.930  25.462  1.00  0.00    -0.458 OA
BRANCH  23  24
ATOM     24  C   UNL A   1      41.506  20.544  26.260  1.00  0.00     0.338 C 
ATOM     25  O   UNL A   1      40.404  20.135  26.587  1.00  0.00    -0.246 OA
BRANCH  24  26
ATOM     26  C   UNL A   1      42.057  21.796  26.795  1.00  0.00     0.060 A 
ATOM     27  C   UNL A   1      42.352  21.855  28.153  1.00  0.00     0.016 A 
ATOM     28  C   UNL A   1      42.079  22.956  26.028  1.00  0.00     0.016 A 
ATOM     29  C   UNL A   1      42.526  23.083  28.784  1.00  0.00     0.010 A 
ATOM     30  C   UNL A   1      42.390  24.177  26.641  1.00  0.00     0.010 A 
ATOM     31  C   UNL A   1      42.568  24.265  28.036  1.00  0.00    -0.014 A 
BRANCH  31  32
ATOM     32  C   UNL A   1      42.765  25.583  28.708  1.00  0.00     0.031 A 
ATOM     33  C   UNL A   1      41.603  26.530  28.878  1.00  0.00     0.074 A 
ATOM     34  C   UNL A   1      43.979  25.944  29.176  1.00  0.00     0.049 A 
ATOM     35  N   UNL A   1      41.605  27.792  29.234  1.00  0.00    -0.248 NA
ATOM     36  C   UNL A   1      40.263  25.993  28.592  1.00  0.00     0.031 C 
ATOM     37  C   UNL A   1      45.186  25.114  29.150  1.00  0.00     0.029 A 
ATOM     38  N   UNL A   1      44.398  27.110  29.770  1.00  0.00    -0.354 N 
ATOM     39  C   UNL A   1      40.282  28.212  29.151  1.00  0.00     0.074 A 
ATOM     40  C   UNL A   1      39.507  27.077  28.702  1.00  0.00     0.031 C 
ATOM     41  C   UNL A   1      46.191  25.776  29.739  1.00  0.00     0.029 A 
ATOM     42  C   UNL A   1      45.737  27.116  30.084  1.00  0.00     0.049 A 
ATOM     43  H   UNL A   1      43.798  27.869  29.953  1.00  0.00     0.167 HD
ATOM     44  C   UNL A   1      39.761  29.435  29.422  1.00  0.00     0.031 A 
ATOM     45  C   UNL A   1      46.530  28.100  30.545  1.00  0.00     0.031 A 
ATOM     46  C   UNL A   1      40.529  30.551  29.908  1.00  0.00     0.049 A 
ATOM     47  C   UNL A   1      45.947  29.463  30.773  1.00  0.00     0.074 A 
ATOM     48  C   UNL A   1      40.094  31.828  30.220  1.00  0.00     0.029 A 
ATOM     49  N   UNL A   1      41.891  30.520  30.167  1.00  0.00    -0.354 N 
ATOM     50  N   UNL A   1      44.708  29.867  30.631  1.00  0.00    -0.248 NA
ATOM     51  C   UNL A   1      46.877  30.514  31.210  1.00  0.00     0.031 C 
ATOM     52  C   UNL A   1      41.202  32.584  30.620  1.00  0.00     0.029 A 
ATOM     53  C   UNL A   1      42.315  31.759  30.618  1.00  0.00     0.049 A 
ATOM     54  H   UNL A   1      42.471  29.733  30.049  1.00  0.00     0.167 HD
ATOM     55  C   UNL A   1      44.703  31.208  30.986  1.00  0.00     0.074 A 
ATOM     56  C   UNL A   1      46.060  31.547  31.364  1.00  0.00     0.031 C 
ATOM     57  C   UNL A   1      43.667  32.081  30.996  1.00  0.00     0.031 A 
BRANCH  44  58
ATOM     58  C   UNL A   1      38.294  29.643  29.151  1.00  0.00    -0.014 A 
ATOM     59  C   UNL A   1      37.334  29.567  30.172  1.00  0.00     0.009 A 
ATOM     60  C   UNL A   1      37.871  29.953  27.848  1.00  0.00     0.009 A 
ATOM     61  C   UNL A   1      35.979  29.754  29.884  1.00  0.00     0.001 A 
ATOM     62  C   UNL A   1      36.521  30.172  27.569  1.00  0.00     0.001 A 
ATOM     63  C   UNL A   1      35.574  30.060  28.585  1.00  0.00     0.000 A 
ENDBRANCH  44  58
BRANCH  45  64
ATOM     64  C   UNL A   1      47.979  27.844  30.770  1.00  0.00    -0.014 A 
ATOM     65  C   UNL A   1      48.936  28.302  29.852  1.00  0.00     0.009 A 
ATOM     66  C   UNL A   1      48.414  27.142  31.907  1.00  0.00     0.009 A 
ATOM     67  C   UNL A   1      50.294  28.048  30.059  1.00  0.00     0.001 A 
ATOM     68  C   UNL A   1      49.774  26.921  32.130  1.00  0.00     0.001 A 
ATOM     69  C   UNL A   1      50.712  27.365  31.201  1.00  0.00     0.000 A 
ENDBRANCH  45  64
BRANCH  57  70
ATOM     70  C   UNL A   1      43.950  33.473  31.485  1.00  0.00    -0.014 A 
ATOM     71  C   UNL A   1      44.301  34.504  30.599  1.00  0.00     0.009 A 
ATOM     72  C   UNL A   1      43.833  33.761  32.853  1.00  0.00     0.009 A 
ATOM     73  C   UNL A   1      44.562  35.789  31.082  1.00  0.00     0.001 A 
ATOM     74  C   UNL A   1      44.065  35.053  33.329  1.00  0.00     0.001 A 
ATOM     75  C   UNL A   1      44.439  36.062  32.444  1.00  0.00     0.000 A 
ENDBRANCH  57  70
ENDBRANCH  31  32
ENDBRANCH  24  26
ENDBRANCH  23  24
ENDBRANCH  22  23
ENDBRANCH   1  22
TORSDOF 14
ENDMDL
MODEL 3
REMARK VINA RESULT:     -10.4      4.444      9.302
REMARK SMILES C[NH+](C)[C@@H]1CC[N@@H+](Cc2ccc(C(=O)OCCOC(=O)c3ccc(-c4c5nc(c(-c6ccccc6)c6ccc([nH]6)c(-c6ccccc6)c6nc(c(-c7ccccc7)c7ccc4[nH]7)C=C6)C=C5)cc3)cn2)C1
REMARK SMILES IDX 16 1 15 2 13 3 14 4 12 5 9 6 10 7 70 8 11 9 69 10 8 11 7 12
REMARK SMILES IDX 4 13 5 14 71 15 6 16 2 18 1 19 3 20 17 22 18 23 19 24 20 25
REMARK SMILES IDX 21 26 22 27 68 28 23 29 67 30 24 31 25 32 26 33 61 34 27 35
REMARK SMILES IDX 66 36 60 37 62 38 28 39 65 40 59 41 58 42 29 44 51 45 36 46
REMARK SMILES IDX 50 47 37 48 40 49 49 50 63 51 38 52 39 53 48 55 64 56 41 57
REMARK SMILES IDX 30 58 31 59 35 60 32 61 34 62 33 63 52 64 53 65 57 66 54 67
REMARK SMILES IDX 56 68 55 69 42 70 43 71 47 72 44 73 46 74 45 75
REMARK H PARENT 7 17 2 21 62 43 40 54
REMARK Flexibility Score: inf
ROOT
ATOM      1  C   UNL A   1      33.770  35.379  28.540  1.00  0.00     0.275 C 
ENDROOT
BRANCH   1   2
ATOM      2  O   UNL A   1      33.779  33.977  28.876  1.00  0.00    -0.458 OA
BRANCH   2   3
ATOM      3  C   UNL A   1      34.945  33.337  28.623  1.00  0.00     0.339 C 
ATOM      4  O   UNL A   1      36.060  33.729  28.914  1.00  0.00    -0.246 OA
BRANCH   3   5
ATOM      5  C   UNL A   1      34.716  32.029  27.984  1.00  0.00     0.078 A 
ATOM      6  C   UNL A   1      33.952  29.518  27.175  1.00  0.00     0.095 A 
ATOM      7  C   UNL A   1      35.304  29.768  27.422  1.00  0.00     0.031 A 
ATOM      8  N   UNL A   1      33.022  30.502  27.188  1.00  0.00    -0.254 NA
ATOM      9  C   UNL A   1      35.692  31.048  27.829  1.00  0.00     0.019 A 
ATOM     10  C   UNL A   1      33.415  31.713  27.623  1.00  0.00     0.127 A 
BRANCH   6  11
ATOM     11  C   UNL A   1      33.404  28.104  27.140  1.00  0.00     0.319 C 
BRANCH  11  12
ATOM     12  N   UNL A   1      32.630  27.727  25.934  1.00  0.00    -0.325 N 
ATOM     13  C   UNL A   1      33.812  26.208  24.442  1.00  0.00     0.245 C 
ATOM     14  C   UNL A   1      32.865  25.393  25.332  1.00  0.00     0.132 C 
ATOM     15  C   UNL A   1      33.402  27.679  24.686  1.00  0.00     0.328 C 
ATOM     16  C   UNL A   1      31.964  26.420  26.016  1.00  0.00     0.269 C 
ATOM     17  H   UNL A   1      31.953  28.489  25.912  1.00  0.00     0.348 HD
BRANCH  13  18
ATOM     18  N   UNL A   1      33.901  25.873  23.009  1.00  0.00    -0.333 N 
ATOM     19  C   UNL A   1      33.500  24.492  22.749  1.00  0.00     0.332 C 
ATOM     20  C   UNL A   1      33.169  26.788  22.136  1.00  0.00     0.332 C 
ATOM     21  H   UNL A   1      34.889  25.980  22.778  1.00  0.00     0.348 HD
ENDBRANCH  13  18
ENDBRANCH  11  12
ENDBRANCH   6  11
ENDBRANCH   3   5
ENDBRANCH   2   3
ENDBRANCH   1   2
BRANCH   1  22
ATOM     22  C   UNL A   1      32.959  36.175  29.563  1.00  0.00     0.275 C 
BRANCH  22  23
ATOM     23  O   UNL A   1      32.526  35.336  30.654  1.00  0.00    -0.458 OA
BRANCH  23  24
ATOM     24  C   UNL A   1      32.752  35.840  31.887  1.00  0.00     0.338 C 
ATOM     25  O   UNL A   1      32.133  36.727  32.451  1.00  0.00    -0.246 OA
BRANCH  24  26
ATOM     26  C   UNL A   1      33.836  35.107  32.555  1.00  0.00     0.060 A 
ATOM     27  C   UNL A   1      35.106  35.673  32.559  1.00  0.00     0.016 A 
ATOM     28  C   UNL A   1      33.660  33.793  32.976  1.00  0.00     0.016 A 
ATOM     29  C   UNL A   1      36.224  34.896  32.841  1.00  0.00     0.010 A 
ATOM     30  C   UNL A   1      34.775  33.051  33.392  1.00  0.00     0.010 A 
ATOM     31  C   UNL A   1      36.078  33.577  33.282  1.00  0.00    -0.014 A 
BRANCH  31  32
ATOM     32  C   UNL A   1      37.275  32.742  33.596  1.00  0.00     0.031 A 
ATOM     33  C   UNL A   1      37.993  32.908  34.913  1.00  0.00     0.074 A 
ATOM     34  C   UNL A   1      37.728  31.828  32.713  1.00  0.00     0.049 A 
ATOM     35  N   UNL A   1      39.160  32.443  35.287  1.00  0.00    -0.248 NA
ATOM     36  C   UNL A   1      37.318  33.720  35.938  1.00  0.00     0.031 C 
ATOM     37  C   UNL A   1      37.107  31.499  31.427  1.00  0.00     0.029 A 
ATOM     38  N   UNL A   1      38.824  31.000  32.765  1.00  0.00    -0.354 N 
ATOM     39  C   UNL A   1      39.385  32.958  36.559  1.00  0.00     0.074 A 
ATOM     40  C   UNL A   1      38.240  33.778  36.889  1.00  0.00     0.031 C 
ATOM     41  C   UNL A   1      37.800  30.516  30.838  1.00  0.00     0.029 A 
ATOM     42  C   UNL A   1      38.977  30.220  31.644  1.00  0.00     0.049 A 
ATOM     43  H   UNL A   1      39.441  30.968  33.532  1.00  0.00     0.167 HD
ATOM     44  C   UNL A   1      40.449  32.767  37.377  1.00  0.00     0.031 A 
ATOM     45  C   UNL A   1      39.975  29.397  31.270  1.00  0.00     0.031 A 
ATOM     46  C   UNL A   1      41.568  31.917  37.062  1.00  0.00     0.049 A 
ATOM     47  C   UNL A   1      41.175  29.254  32.159  1.00  0.00     0.074 A 
ATOM     48  C   UNL A   1      42.692  31.650  37.826  1.00  0.00     0.029 A 
ATOM     49  N   UNL A   1      41.698  31.183  35.892  1.00  0.00    -0.354 N 
ATOM     50  N   UNL A   1      41.406  29.795  33.331  1.00  0.00    -0.248 NA
ATOM     51  C   UNL A   1      42.263  28.397  31.666  1.00  0.00     0.031 C 
ATOM     52  C   UNL A   1      43.525  30.795  37.096  1.00  0.00     0.029 A 
ATOM     53  C   UNL A   1      42.890  30.478  35.907  1.00  0.00     0.049 A 
ATOM     54  H   UNL A   1      41.040  31.164  35.161  1.00  0.00     0.167 HD
ATOM     55  C   UNL A   1      42.650  29.324  33.726  1.00  0.00     0.074 A 
ATOM     56  C   UNL A   1      43.118  28.443  32.677  1.00  0.00     0.031 C 
ATOM     57  C   UNL A   1      43.342  29.600  34.858  1.00  0.00     0.031 A 
BRANCH  44  58
ATOM     58  C   UNL A   1      40.479  33.531  38.674  1.00  0.00    -0.014 A 
ATOM     59  C   UNL A   1      39.950  32.998  39.860  1.00  0.00     0.009 A 
ATOM     60  C   UNL A   1      41.077  34.801  38.713  1.00  0.00     0.009 A 
ATOM     61  C   UNL A   1      39.982  33.739  41.045  1.00  0.00     0.001 A 
ATOM     62  C   UNL A   1      41.138  35.525  39.904  1.00  0.00     0.001 A 
ATOM     63  C   UNL A   1      40.580  35.000  41.068  1.00  0.00     0.000 A 
ENDBRANCH  44  58
BRANCH  45  64
ATOM     64  C   UNL A   1      39.905  28.688  29.964  1.00  0.00    -0.014 A 
ATOM     65  C   UNL A   1      40.313  29.325  28.783  1.00  0.00     0.009 A 
ATOM     66  C   UNL A   1      39.433  27.366  29.892  1.00  0.00     0.009 A 
ATOM     67  C   UNL A   1      40.233  28.659  27.556  1.00  0.00     0.001 A 
ATOM     68  C   UNL A   1      39.388  26.692  28.671  1.00  0.00     0.001 A 
ATOM     69  C   UNL A   1      39.778  27.342  27.503  1.00  0.00     0.000 A 
ENDBRANCH  45  64
BRANCH  57  70
ATOM     70  C   UNL A   1      44.655  28.895  35.045  1.00  0.00    -0.014 A 
ATOM     71  C   UNL A   1      44.727  27.619  35.625  1.00  0.00     0.009 A 
ATOM     72  C   UNL A   1      45.837  29.509  34.602  1.00  0.00     0.009 A 
ATOM     73  C   UNL A   1      45.962  26.988  35.789  1.00  0.00     0.001 A 
ATOM     74  C   UNL A   1      47.067  28.863  34.740  1.00  0.00     0.001 A 
ATOM     75  C   UNL A   1      47.129  27.608  35.342  1.00  0.00     0.000 A 
ENDBRANCH  57  70
ENDBRANCH  31  32
ENDBRANCH  24  26
ENDBRANCH  23  24
ENDBRANCH  22  23
ENDBRANCH   1  22
TORSDOF 14
ENDMDL
