MODEL 1
REMARK VINA RESULT:     -10.7      0.000      0.000
REMARK SMILES O=C(Cc1csc(NC(=O)[C@H]2CC(=O)N(C3CC3)C2)n1)OCCOC(=O)c1ccc(-c2c3nc(c(-c4ccccc4)c4ccc([nH]4)c(-c4ccccc4)c4nc(c(-c5ccccc5)c5ccc2[nH]5)C=C4)C=C3)cc1
REMARK SMILES IDX 22 1 21 2 2 3 1 4 3 5 4 6 5 7 20 8 6 9 7 10 8 11 9 12 10 14
REMARK SMILES IDX 11 15 12 16 19 17 13 18 15 19 14 20 16 21 17 22 18 23 23 24
REMARK SMILES IDX 24 25 25 26 26 27 27 28 28 29 74 30 29 31 73 32 30 33 31 34
REMARK SMILES IDX 32 35 67 36 33 37 72 38 66 39 68 40 34 41 71 42 65 43 64 44
REMARK SMILES IDX 35 46 57 47 42 48 56 49 43 50 46 51 55 52 69 53 44 54 45 55
REMARK SMILES IDX 54 57 70 58 47 59 36 60 37 61 41 62 38 63 40 64 39 65 58 66
REMARK SMILES IDX 59 67 63 68 60 69 62 70 61 71 48 72 49 73 53 74 50 75 52 76
REMARK SMILES IDX 51 77
REMARK H PARENT 8 13 68 45 46 56
REMARK Flexibility Score: inf
ROOT
ATOM      1  C   UNL A   1      33.881  34.515  31.618  1.00  0.00     0.274 C 
ENDROOT
BRANCH   1   2
ATOM      2  O   UNL A   1      34.092  33.993  30.287  1.00  0.00    -0.462 OA
BRANCH   2   3
ATOM      3  C   UNL A   1      33.516  34.407  29.134  1.00  0.00     0.312 C 
ATOM      4  O   UNL A   1      32.534  35.149  29.182  1.00  0.00    -0.252 OA
BRANCH   3   5
ATOM      5  C   UNL A   1      33.994  33.867  27.815  1.00  0.00     0.179 C 
BRANCH   5   6
ATOM      6  C   UNL A   1      34.344  32.430  27.785  1.00  0.00     0.065 A 
ATOM      7  C   UNL A   1      35.630  31.923  27.815  1.00  0.00     0.093 A 
ATOM      8  N   UNL A   1      33.349  31.472  27.789  1.00  0.00    -0.224 NA
ATOM      9  S   UNL A   1      35.570  30.228  27.730  1.00  0.00    -0.105 S 
ATOM     10  C   UNL A   1      33.874  30.270  27.821  1.00  0.00     0.189 A 
BRANCH  10  11
ATOM     11  N   UNL A   1      33.068  29.166  27.878  1.00  0.00    -0.302 N 
ATOM     12  C   UNL A   1      32.225  28.565  26.996  1.00  0.00     0.231 C 
ATOM     13  H   UNL A   1      33.106  28.706  28.747  1.00  0.00     0.172 HD
ATOM     14  O   UNL A   1      31.566  27.603  27.405  1.00  0.00    -0.274 OA
BRANCH  12  15
ATOM     15  C   UNL A   1      32.108  29.008  25.561  1.00  0.00     0.107 C 
ATOM     16  C   UNL A   1      33.327  28.627  24.723  1.00  0.00     0.115 C 
ATOM     17  C   UNL A   1      30.990  28.319  24.797  1.00  0.00     0.133 C 
ATOM     18  C   UNL A   1      32.773  28.670  23.322  1.00  0.00     0.223 C 
ATOM     19  N   UNL A   1      31.386  28.534  23.426  1.00  0.00    -0.339 N 
ATOM     20  O   UNL A   1      33.458  28.795  22.320  1.00  0.00    -0.275 OA
BRANCH  19  21
ATOM     21  C   UNL A   1      30.418  28.597  22.379  1.00  0.00     0.085 C 
ATOM     22  C   UNL A   1      28.975  28.964  22.595  1.00  0.00     0.027 C 
ATOM     23  C   UNL A   1      29.895  29.913  21.879  1.00  0.00     0.027 C 
ENDBRANCH  19  21
ENDBRANCH  12  15
ENDBRANCH  10  11
ENDBRANCH   5   6
ENDBRANCH   3   5
ENDBRANCH   2   3
ENDBRANCH   1   2
BRANCH   1  24
ATOM     24  C   UNL A   1      34.194  33.475  32.694  1.00  0.00     0.275 C 
BRANCH  24  25
ATOM     25  O   UNL A   1      35.205  32.568  32.220  1.00  0.00    -0.458 OA
BRANCH  25  26
ATOM     26  C   UNL A   1      36.250  32.346  33.057  1.00  0.00     0.338 C 
ATOM     27  O   UNL A   1      36.259  32.455  34.268  1.00  0.00    -0.246 OA
BRANCH  26  28
ATOM     28  C   UNL A   1      37.336  31.713  32.274  1.00  0.00     0.060 A 
ATOM     29  C   UNL A   1      38.383  31.102  32.977  1.00  0.00     0.016 A 
ATOM     30  C   UNL A   1      37.278  31.633  30.879  1.00  0.00     0.016 A 
ATOM     31  C   UNL A   1      39.378  30.409  32.285  1.00  0.00     0.010 A 
ATOM     32  C   UNL A   1      38.284  30.958  30.187  1.00  0.00     0.010 A 
ATOM     33  C   UNL A   1      39.345  30.356  30.886  1.00  0.00    -0.014 A 
BRANCH  33  34
ATOM     34  C   UNL A   1      40.506  29.839  30.129  1.00  0.00     0.031 A 
ATOM     35  C   UNL A   1      41.618  30.793  29.801  1.00  0.00     0.074 A 
ATOM     36  C   UNL A   1      40.554  28.568  29.696  1.00  0.00     0.049 A 
ATOM     37  N   UNL A   1      42.696  30.595  29.089  1.00  0.00    -0.248 NA
ATOM     38  C   UNL A   1      41.488  32.155  30.343  1.00  0.00     0.031 C 
ATOM     39  C   UNL A   1      39.550  27.539  29.959  1.00  0.00     0.029 A 
ATOM     40  N   UNL A   1      41.489  27.936  28.914  1.00  0.00    -0.354 N 
ATOM     41  C   UNL A   1      43.371  31.808  29.094  1.00  0.00     0.074 A 
ATOM     42  C   UNL A   1      42.571  32.741  29.857  1.00  0.00     0.031 C 
ATOM     43  C   UNL A   1      39.911  26.409  29.325  1.00  0.00     0.029 A 
ATOM     44  C   UNL A   1      41.155  26.643  28.593  1.00  0.00     0.049 A 
ATOM     45  H   UNL A   1      42.320  28.368  28.610  1.00  0.00     0.167 HD
ATOM     46  C   UNL A   1      44.552  32.123  28.514  1.00  0.00     0.031 A 
ATOM     47  C   UNL A   1      41.770  25.762  27.782  1.00  0.00     0.031 A 
ATOM     48  C   UNL A   1      45.336  31.212  27.728  1.00  0.00     0.049 A 
ATOM     49  C   UNL A   1      43.049  26.154  27.086  1.00  0.00     0.074 A 
ATOM     50  C   UNL A   1      46.560  31.431  27.122  1.00  0.00     0.029 A 
ATOM     51  N   UNL A   1      44.958  29.915  27.421  1.00  0.00    -0.354 N 
ATOM     52  N   UNL A   1      43.711  27.284  27.150  1.00  0.00    -0.248 NA
ATOM     53  C   UNL A   1      43.665  25.146  26.209  1.00  0.00     0.031 C 
ATOM     54  C   UNL A   1      46.899  30.280  26.403  1.00  0.00     0.029 A 
ATOM     55  C   UNL A   1      45.909  29.331  26.604  1.00  0.00     0.049 A 
ATOM     56  H   UNL A   1      44.137  29.475  27.737  1.00  0.00     0.167 HD
ATOM     57  C   UNL A   1      44.832  27.114  26.346  1.00  0.00     0.074 A 
ATOM     58  C   UNL A   1      44.765  25.771  25.809  1.00  0.00     0.031 C 
ATOM     59  C   UNL A   1      45.830  27.991  26.081  1.00  0.00     0.031 A 
BRANCH  46  60
ATOM     60  C   UNL A   1      45.034  33.533  28.682  1.00  0.00    -0.014 A 
ATOM     61  C   UNL A   1      45.815  33.906  29.787  1.00  0.00     0.009 A 
ATOM     62  C   UNL A   1      44.695  34.501  27.726  1.00  0.00     0.009 A 
ATOM     63  C   UNL A   1      46.213  35.234  29.951  1.00  0.00     0.001 A 
ATOM     64  C   UNL A   1      45.115  35.823  27.879  1.00  0.00     0.001 A 
ATOM     65  C   UNL A   1      45.864  36.190  28.997  1.00  0.00     0.000 A 
ENDBRANCH  46  60
BRANCH  47  66
ATOM     66  C   UNL A   1      41.174  24.420  27.556  1.00  0.00    -0.014 A 
ATOM     67  C   UNL A   1      41.696  23.287  28.195  1.00  0.00     0.009 A 
ATOM     68  C   UNL A   1      40.083  24.267  26.684  1.00  0.00     0.009 A 
ATOM     69  C   UNL A   1      41.152  22.023  27.950  1.00  0.00     0.001 A 
ATOM     70  C   UNL A   1      39.527  23.006  26.460  1.00  0.00     0.001 A 
ATOM     71  C   UNL A   1      40.066  21.884  27.087  1.00  0.00     0.000 A 
ENDBRANCH  47  66
BRANCH  59  72
ATOM     72  C   UNL A   1      46.952  27.527  25.196  1.00  0.00    -0.014 A 
ATOM     73  C   UNL A   1      46.987  27.855  23.833  1.00  0.00     0.009 A 
ATOM     74  C   UNL A   1      48.029  26.822  25.756  1.00  0.00     0.009 A 
ATOM     75  C   UNL A   1      48.073  27.472  23.044  1.00  0.00     0.001 A 
ATOM     76  C   UNL A   1      49.125  26.461  24.970  1.00  0.00     0.001 A 
ATOM     77  C   UNL A   1      49.143  26.783  23.614  1.00  0.00     0.000 A 
ENDBRANCH  59  72
ENDBRANCH  33  34
ENDBRANCH  26  28
ENDBRANCH  25  26
ENDBRANCH  24  25
ENDBRANCH   1  24
TORSDOF 15
ENDMDL
MODEL 2
REMARK VINA RESULT:     -10.6      4.097      6.023
REMARK SMILES O=C(Cc1csc(NC(=O)[C@H]2CC(=O)N(C3CC3)C2)n1)OCCOC(=O)c1ccc(-c2c3nc(c(-c4ccccc4)c4ccc([nH]4)c(-c4ccccc4)c4nc(c(-c5ccccc5)c5ccc2[nH]5)C=C4)C=C3)cc1
REMARK SMILES IDX 22 1 21 2 2 3 1 4 3 5 4 6 5 7 20 8 6 9 7 10 8 11 9 12 10 14
REMARK SMILES IDX 11 15 12 16 19 17 13 18 15 19 14 20 16 21 17 22 18 23 23 24
REMARK SMILES IDX 24 25 25 26 26 27 27 28 28 29 74 30 29 31 73 32 30 33 31 34
REMARK SMILES IDX 32 35 67 36 33 37 72 38 66 39 68 40 34 41 71 42 65 43 64 44
REMARK SMILES IDX 35 46 57 47 42 48 56 49 43 50 46 51 55 52 69 53 44 54 45 55
REMARK SMILES IDX 54 57 70 58 47 59 36 60 37 61 41 62 38 63 40 64 39 65 58 66
REMARK SMILES IDX 59 67 63 68 60 69 62 70 61 71 48 72 49 73 53 74 50 75 52 76
REMARK SMILES IDX 51 77
REMARK H PARENT 8 13 68 45 46 56
REMARK Flexibility Score: inf
ROOT
ATOM      1  C   UNL A   1      32.110  31.246  26.896  1.00  0.00     0.274 C 
ENDROOT
BRANCH   1   2
ATOM      2  O   UNL A   1      32.339  29.858  27.225  1.00  0.00    -0.462 OA
BRANCH   2   3
ATOM      3  C   UNL A   1      32.876  28.896  26.438  1.00  0.00     0.312 C 
ATOM      4  O   UNL A   1      33.861  28.272  26.834  1.00  0.00    -0.252 OA
BRANCH   3   5
ATOM      5  C   UNL A   1      32.350  28.679  25.046  1.00  0.00     0.179 C 
BRANCH   5   6
ATOM      6  C   UNL A   1      31.316  27.631  24.895  1.00  0.00     0.065 A 
ATOM      7  C   UNL A   1      30.633  27.352  23.726  1.00  0.00     0.093 A 
ATOM      8  N   UNL A   1      31.013  26.797  25.953  1.00  0.00    -0.224 NA
ATOM      9  S   UNL A   1      29.519  26.102  24.010  1.00  0.00    -0.105 S 
ATOM     10  C   UNL A   1      30.119  25.908  25.589  1.00  0.00     0.189 A 
BRANCH  10  11
ATOM     11  N   UNL A   1      29.703  24.946  26.469  1.00  0.00    -0.302 N 
ATOM     12  C   UNL A   1      30.175  23.720  26.820  1.00  0.00     0.231 C 
ATOM     13  H   UNL A   1      28.884  25.195  26.952  1.00  0.00     0.172 HD
ATOM     14  O   UNL A   1      29.495  23.055  27.609  1.00  0.00    -0.274 OA
BRANCH  12  15
ATOM     15  C   UNL A   1      31.489  23.185  26.316  1.00  0.00     0.107 C 
ATOM     16  C   UNL A   1      32.443  22.798  27.444  1.00  0.00     0.115 C 
ATOM     17  C   UNL A   1      31.367  21.873  25.560  1.00  0.00     0.133 C 
ATOM     18  C   UNL A   1      33.382  21.844  26.751  1.00  0.00     0.223 C 
ATOM     19  N   UNL A   1      32.717  21.365  25.619  1.00  0.00    -0.339 N 
ATOM     20  O   UNL A   1      34.501  21.574  27.154  1.00  0.00    -0.275 OA
BRANCH  19  21
ATOM     21  C   UNL A   1      33.225  20.501  24.603  1.00  0.00     0.085 C 
ATOM     22  C   UNL A   1      32.773  19.079  24.411  1.00  0.00     0.027 C 
ATOM     23  C   UNL A   1      32.396  20.132  23.407  1.00  0.00     0.027 C 
ENDBRANCH  19  21
ENDBRANCH  12  15
ENDBRANCH  10  11
ENDBRANCH   5   6
ENDBRANCH   3   5
ENDBRANCH   2   3
ENDBRANCH   1   2
BRANCH   1  24
ATOM     24  C   UNL A   1      33.091  32.173  27.615  1.00  0.00     0.275 C 
BRANCH  24  25
ATOM     25  O   UNL A   1      32.583  33.518  27.615  1.00  0.00    -0.458 OA
BRANCH  25  26
ATOM     26  C   UNL A   1      33.139  34.367  28.515  1.00  0.00     0.338 C 
ATOM     27  O   UNL A   1      32.630  35.357  29.006  1.00  0.00    -0.246 OA
BRANCH  26  28
ATOM     28  C   UNL A   1      34.401  33.761  28.996  1.00  0.00     0.060 A 
ATOM     29  C   UNL A   1      35.530  33.850  28.170  1.00  0.00     0.016 A 
ATOM     30  C   UNL A   1      34.501  33.202  30.274  1.00  0.00     0.016 A 
ATOM     31  C   UNL A   1      36.764  33.379  28.621  1.00  0.00     0.010 A 
ATOM     32  C   UNL A   1      35.731  32.712  30.715  1.00  0.00     0.010 A 
ATOM     33  C   UNL A   1      36.863  32.786  29.886  1.00  0.00    -0.014 A 
BRANCH  33  34
ATOM     34  C   UNL A   1      38.096  32.070  30.283  1.00  0.00     0.031 A 
ATOM     35  C   UNL A   1      39.060  32.773  31.194  1.00  0.00     0.074 A 
ATOM     36  C   UNL A   1      38.382  30.846  29.808  1.00  0.00     0.049 A 
ATOM     37  N   UNL A   1      40.234  32.384  31.617  1.00  0.00    -0.248 NA
ATOM     38  C   UNL A   1      38.645  34.098  31.683  1.00  0.00     0.031 C 
ATOM     39  C   UNL A   1      37.525  30.050  28.931  1.00  0.00     0.029 A 
ATOM     40  N   UNL A   1      39.500  30.069  29.986  1.00  0.00    -0.354 N 
ATOM     41  C   UNL A   1      40.699  33.416  32.419  1.00  0.00     0.074 A 
ATOM     42  C   UNL A   1      39.695  34.457  32.404  1.00  0.00     0.031 C 
ATOM     43  C   UNL A   1      38.163  28.905  28.625  1.00  0.00     0.029 A 
ATOM     44  C   UNL A   1      39.479  28.902  29.262  1.00  0.00     0.049 A 
ATOM     45  H   UNL A   1      40.247  30.325  30.574  1.00  0.00     0.167 HD
ATOM     46  C   UNL A   1      41.861  33.496  33.109  1.00  0.00     0.031 A 
ATOM     47  C   UNL A   1      40.424  27.953  29.114  1.00  0.00     0.031 A 
ATOM     48  C   UNL A   1      42.876  32.482  33.103  1.00  0.00     0.049 A 
ATOM     49  C   UNL A   1      41.741  28.094  29.833  1.00  0.00     0.074 A 
ATOM     50  C   UNL A   1      44.076  32.460  33.792  1.00  0.00     0.029 A 
ATOM     51  N   UNL A   1      42.819  31.319  32.352  1.00  0.00    -0.354 N 
ATOM     52  N   UNL A   1      42.145  29.045  30.640  1.00  0.00    -0.248 NA
ATOM     53  C   UNL A   1      42.732  27.026  29.622  1.00  0.00     0.031 C 
ATOM     54  C   UNL A   1      44.770  31.305  33.416  1.00  0.00     0.029 A 
ATOM     55  C   UNL A   1      43.979  30.586  32.533  1.00  0.00     0.049 A 
ATOM     56  H   UNL A   1      42.067  31.053  31.777  1.00  0.00     0.167 HD
ATOM     57  C   UNL A   1      43.420  28.678  31.053  1.00  0.00     0.074 A 
ATOM     58  C   UNL A   1      43.723  27.416  30.413  1.00  0.00     0.031 C 
ATOM     59  C   UNL A   1      44.263  29.329  31.892  1.00  0.00     0.031 A 
BRANCH  46  60
ATOM     60  C   UNL A   1      42.099  34.754  33.890  1.00  0.00    -0.014 A 
ATOM     61  C   UNL A   1      42.725  35.865  33.303  1.00  0.00     0.009 A 
ATOM     62  C   UNL A   1      41.700  34.824  35.233  1.00  0.00     0.009 A 
ATOM     63  C   UNL A   1      42.982  37.009  34.060  1.00  0.00     0.001 A 
ATOM     64  C   UNL A   1      41.936  35.978  35.980  1.00  0.00     0.001 A 
ATOM     65  C   UNL A   1      42.587  37.065  35.396  1.00  0.00     0.000 A 
ENDBRANCH  46  60
BRANCH  47  66
ATOM     66  C   UNL A   1      40.175  26.791  28.224  1.00  0.00    -0.014 A 
ATOM     67  C   UNL A   1      39.461  25.675  28.685  1.00  0.00     0.009 A 
ATOM     68  C   UNL A   1      40.666  26.788  26.908  1.00  0.00     0.009 A 
ATOM     69  C   UNL A   1      39.261  24.571  27.853  1.00  0.00     0.001 A 
ATOM     70  C   UNL A   1      40.443  25.692  26.071  1.00  0.00     0.001 A 
ATOM     71  C   UNL A   1      39.748  24.581  26.546  1.00  0.00     0.000 A 
ENDBRANCH  47  66
BRANCH  59  72
ATOM     72  C   UNL A   1      45.584  28.680  32.197  1.00  0.00    -0.014 A 
ATOM     73  C   UNL A   1      45.716  27.757  33.245  1.00  0.00     0.009 A 
ATOM     74  C   UNL A   1      46.690  28.937  31.371  1.00  0.00     0.009 A 
ATOM     75  C   UNL A   1      46.935  27.115  33.468  1.00  0.00     0.001 A 
ATOM     76  C   UNL A   1      47.900  28.277  31.582  1.00  0.00     0.001 A 
ATOM     77  C   UNL A   1      48.023  27.369  32.633  1.00  0.00     0.000 A 
ENDBRANCH  59  72
ENDBRANCH  33  34
ENDBRANCH  26  28
ENDBRANCH  25  26
ENDBRANCH  24  25
ENDBRANCH   1  24
TORSDOF 15
ENDMDL
MODEL 3
REMARK VINA RESULT:     -10.5      4.003      7.044
REMARK SMILES O=C(Cc1csc(NC(=O)[C@H]2CC(=O)N(C3CC3)C2)n1)OCCOC(=O)c1ccc(-c2c3nc(c(-c4ccccc4)c4ccc([nH]4)c(-c4ccccc4)c4nc(c(-c5ccccc5)c5ccc2[nH]5)C=C4)C=C3)cc1
REMARK SMILES IDX 22 1 21 2 2 3 1 4 3 5 4 6 5 7 20 8 6 9 7 10 8 11 9 12 10 14
REMARK SMILES IDX 11 15 12 16 19 17 13 18 15 19 14 20 16 21 17 22 18 23 23 24
REMARK SMILES IDX 24 25 25 26 26 27 27 28 28 29 74 30 29 31 73 32 30 33 31 34
REMARK SMILES IDX 32 35 67 36 33 37 72 38 66 39 68 40 34 41 71 42 65 43 64 44
REMARK SMILES IDX 35 46 57 47 42 48 56 49 43 50 46 51 55 52 69 53 44 54 45 55
REMARK SMILES IDX 54 57 70 58 47 59 36 60 37 61 41 62 38 63 40 64 39 65 58 66
REMARK SMILES IDX 59 67 63 68 60 69 62 70 61 71 48 72 49 73 53 74 50 75 52 76
REMARK SMILES IDX 51 77
REMARK H PARENT 8 13 68 45 46 56
REMARK Flexibility Score: inf
ROOT
ATOM      1  C   UNL A   1      31.405  32.153  26.871  1.00  0.00     0.274 C 
ENDROOT
BRANCH   1   2
ATOM      2  O   UNL A   1      32.235  31.007  27.159  1.00  0.00    -0.462 OA
BRANCH   2   3
ATOM      3  C   UNL A   1      32.247  29.811  26.525  1.00  0.00     0.312 C 
ATOM      4  O   UNL A   1      31.861  28.806  27.124  1.00  0.00    -0.252 OA
BRANCH   3   5
ATOM      5  C   UNL A   1      32.841  29.692  25.149  1.00  0.00     0.179 C 
BRANCH   5   6
ATOM      6  C   UNL A   1      32.072  28.888  24.173  1.00  0.00     0.065 A 
ATOM      7  C   UNL A   1      30.705  28.968  23.979  1.00  0.00     0.093 A 
ATOM      8  N   UNL A   1      32.724  28.019  23.321  1.00  0.00    -0.224 NA
ATOM      9  S   UNL A   1      30.239  27.848  22.790  1.00  0.00    -0.105 S 
ATOM     10  C   UNL A   1      31.867  27.455  22.502  1.00  0.00     0.189 A 
BRANCH  10  11
ATOM     11  N   UNL A   1      32.302  26.589  21.537  1.00  0.00    -0.302 N 
ATOM     12  C   UNL A   1      32.835  25.339  21.560  1.00  0.00     0.231 C 
ATOM     13  H   UNL A   1      32.208  26.950  20.626  1.00  0.00     0.172 HD
ATOM     14  O   UNL A   1      33.207  24.860  20.483  1.00  0.00    -0.274 OA
BRANCH  12  15
ATOM     15  C   UNL A   1      32.945  24.531  22.826  1.00  0.00     0.107 C 
ATOM     16  C   UNL A   1      32.206  23.197  22.743  1.00  0.00     0.115 C 
ATOM     17  C   UNL A   1      34.360  24.074  23.140  1.00  0.00     0.133 C 
ATOM     18  C   UNL A   1      32.880  22.395  23.826  1.00  0.00     0.223 C 
ATOM     19  N   UNL A   1      34.127  22.984  24.058  1.00  0.00    -0.339 N 
ATOM     20  O   UNL A   1      32.385  21.417  24.360  1.00  0.00    -0.275 OA
BRANCH  19  21
ATOM     21  C   UNL A   1      35.093  22.631  25.046  1.00  0.00     0.085 C 
ATOM     22  C   UNL A   1      35.838  23.635  25.883  1.00  0.00     0.027 C 
ATOM     23  C   UNL A   1      34.791  22.759  26.512  1.00  0.00     0.027 C 
ENDBRANCH  19  21
ENDBRANCH  12  15
ENDBRANCH  10  11
ENDBRANCH   5   6
ENDBRANCH   3   5
ENDBRANCH   2   3
ENDBRANCH   1   2
BRANCH   1  24
ATOM     24  C   UNL A   1      32.207  33.454  26.872  1.00  0.00     0.275 C 
BRANCH  24  25
ATOM     25  O   UNL A   1      32.328  33.955  28.215  1.00  0.00    -0.458 OA
BRANCH  25  26
ATOM     26  C   UNL A   1      33.398  34.751  28.462  1.00  0.00     0.338 C 
ATOM     27  O   UNL A   1      33.421  35.967  28.491  1.00  0.00    -0.246 OA
BRANCH  26  28
ATOM     28  C   UNL A   1      34.508  33.892  28.932  1.00  0.00     0.060 A 
ATOM     29  C   UNL A   1      34.186  32.643  29.481  1.00  0.00     0.016 A 
ATOM     30  C   UNL A   1      35.845  34.260  28.749  1.00  0.00     0.016 A 
ATOM     31  C   UNL A   1      35.201  31.758  29.849  1.00  0.00     0.010 A 
ATOM     32  C   UNL A   1      36.859  33.384  29.137  1.00  0.00     0.010 A 
ATOM     33  C   UNL A   1      36.541  32.137  29.701  1.00  0.00    -0.014 A 
BRANCH  33  34
ATOM     34  C   UNL A   1      37.620  31.321  30.301  1.00  0.00     0.031 A 
ATOM     35  C   UNL A   1      37.952  31.543  31.749  1.00  0.00     0.074 A 
ATOM     36  C   UNL A   1      38.326  30.441  29.572  1.00  0.00     0.049 A 
ATOM     37  N   UNL A   1      38.900  31.008  32.473  1.00  0.00    -0.248 NA
ATOM     38  C   UNL A   1      37.105  32.507  32.470  1.00  0.00     0.031 C 
ATOM     39  C   UNL A   1      38.095  30.121  28.165  1.00  0.00     0.029 A 
ATOM     40  N   UNL A   1      39.407  29.669  29.922  1.00  0.00    -0.354 N 
ATOM     41  C   UNL A   1      38.765  31.572  33.734  1.00  0.00     0.074 A 
ATOM     42  C   UNL A   1      37.663  32.507  33.670  1.00  0.00     0.031 C 
ATOM     43  C   UNL A   1      39.027  29.237  27.762  1.00  0.00     0.029 A 
ATOM     44  C   UNL A   1      39.931  28.951  28.875  1.00  0.00     0.049 A 
ATOM     45  H   UNL A   1      39.773  29.636  30.835  1.00  0.00     0.167 HD
ATOM     46  C   UNL A   1      39.493  31.336  34.850  1.00  0.00     0.031 A 
ATOM     47  C   UNL A   1      41.028  28.172  28.819  1.00  0.00     0.031 A 
ATOM     48  C   UNL A   1      40.609  30.434  34.912  1.00  0.00     0.049 A 
ATOM     49  C   UNL A   1      41.870  27.978  30.054  1.00  0.00     0.074 A 
ATOM     50  C   UNL A   1      41.393  30.108  36.005  1.00  0.00     0.029 A 
ATOM     51  N   UNL A   1      41.111  29.732  33.829  1.00  0.00    -0.354 N 
ATOM     52  N   UNL A   1      41.696  28.467  31.258  1.00  0.00    -0.248 NA
ATOM     53  C   UNL A   1      43.059  27.121  29.921  1.00  0.00     0.031 C 
ATOM     54  C   UNL A   1      42.405  29.246  35.570  1.00  0.00     0.029 A 
ATOM     55  C   UNL A   1      42.218  28.999  34.219  1.00  0.00     0.049 A 
ATOM     56  H   UNL A   1      40.737  29.750  32.919  1.00  0.00     0.167 HD
ATOM     57  C   UNL A   1      42.733  27.957  32.030  1.00  0.00     0.074 A 
ATOM     58  C   UNL A   1      43.530  27.116  31.161  1.00  0.00     0.031 C 
ATOM     59  C   UNL A   1      42.998  28.163  33.343  1.00  0.00     0.031 A 
BRANCH  46  60
ATOM     60  C   UNL A   1      39.120  32.110  36.078  1.00  0.00    -0.014 A 
ATOM     61  C   UNL A   1      38.133  31.641  36.960  1.00  0.00     0.009 A 
ATOM     62  C   UNL A   1      39.758  33.329  36.352  1.00  0.00     0.009 A 
ATOM     63  C   UNL A   1      37.765  32.401  38.072  1.00  0.00     0.001 A 
ATOM     64  C   UNL A   1      39.405  34.074  37.478  1.00  0.00     0.001 A 
ATOM     65  C   UNL A   1      38.402  33.614  38.330  1.00  0.00     0.000 A 
ENDBRANCH  46  60
BRANCH  47  66
ATOM     66  C   UNL A   1      41.418  27.532  27.537  1.00  0.00    -0.014 A 
ATOM     67  C   UNL A   1      40.940  26.258  27.196  1.00  0.00     0.009 A 
ATOM     68  C   UNL A   1      42.286  28.191  26.650  1.00  0.00     0.009 A 
ATOM     69  C   UNL A   1      41.339  25.647  26.005  1.00  0.00     0.001 A 
ATOM     70  C   UNL A   1      42.664  27.588  25.449  1.00  0.00     0.001 A 
ATOM     71  C   UNL A   1      42.197  26.314  25.130  1.00  0.00     0.000 A 
ENDBRANCH  47  66
BRANCH  59  72
ATOM     72  C   UNL A   1      44.178  27.449  33.938  1.00  0.00    -0.014 A 
ATOM     73  C   UNL A   1      45.444  28.053  33.989  1.00  0.00     0.009 A 
ATOM     74  C   UNL A   1      44.000  26.189  34.530  1.00  0.00     0.009 A 
ATOM     75  C   UNL A   1      46.511  27.399  34.608  1.00  0.00     0.001 A 
ATOM     76  C   UNL A   1      45.062  25.548  35.169  1.00  0.00     0.001 A 
ATOM     77  C   UNL A   1      46.318  26.153  35.204  1.00  0.00     0.000 A 
ENDBRANCH  59  72
ENDBRANCH  33  34
ENDBRANCH  26  28
ENDBRANCH  25  26
ENDBRANCH  24  25
ENDBRANCH   1  24
TORSDOF 15
ENDMDL
