MODEL 1
REMARK VINA RESULT:     -11.4      0.000      0.000
REMARK SMILES Cc1cc(OC(F)(F)F)cc2c1O[C@H](C(F)(F)F)C(C(=O)OCCOC(=O)c1ccc(-c3c4nc(c(-c5ccccc5)c5ccc([nH]5)c(-c5ccccc5)c5nc(c(-c6ccccc6)c6ccc3[nH]6)C=C5)C=C4)cc1)=C2
REMARK SMILES IDX 23 1 22 2 20 3 21 4 19 5 1 6 2 7 3 8 12 9 4 10 11 11 13 12
REMARK SMILES IDX 10 13 76 14 14 15 5 16 6 17 7 18 8 19 9 20 15 21 16 22 17 23
REMARK SMILES IDX 18 24 24 25 25 26 26 27 27 28 28 29 29 30 75 31 30 32 74 33
REMARK SMILES IDX 31 34 32 35 33 36 68 37 34 38 73 39 67 40 69 41 35 42 72 43
REMARK SMILES IDX 66 44 65 45 36 47 58 48 43 49 57 50 44 51 47 52 56 53 70 54
REMARK SMILES IDX 45 55 46 56 55 58 71 59 48 60 37 61 38 62 42 63 39 64 41 65
REMARK SMILES IDX 40 66 59 67 60 68 64 69 61 70 63 71 62 72 49 73 50 74 54 75
REMARK SMILES IDX 51 76 53 77 52 78
REMARK H PARENT 69 46 47 57
REMARK Flexibility Score: inf
ROOT
ATOM      1  C   UNL A   1      35.243  21.114  24.963  1.00  0.00     0.275 C 
ENDROOT
BRANCH   1   2
ATOM      2  O   UNL A   1      35.485  22.536  24.985  1.00  0.00    -0.459 OA
BRANCH   2   3
ATOM      3  C   UNL A   1      35.242  23.192  23.824  1.00  0.00     0.338 C 
ATOM      4  O   UNL A   1      35.732  22.956  22.735  1.00  0.00    -0.246 OA
BRANCH   3   5
ATOM      5  C   UNL A   1      34.216  24.233  24.044  1.00  0.00     0.087 C 
ATOM      6  C   UNL A   1      29.955  27.083  24.077  1.00  0.00     0.048 C 
ATOM      7  C   UNL A   1      31.257  27.085  24.830  1.00  0.00    -0.005 A 
ATOM      8  C   UNL A   1      31.485  28.049  25.831  1.00  0.00     0.054 A 
ATOM      9  C   UNL A   1      32.254  26.142  24.536  1.00  0.00     0.131 A 
ATOM     10  C   UNL A   1      32.684  28.065  26.545  1.00  0.00     0.130 A 
ATOM     11  C   UNL A   1      33.436  26.133  25.273  1.00  0.00     0.021 A 
ATOM     12  O   UNL A   1      32.007  25.271  23.511  1.00  0.00    -0.475 OA
ATOM     13  C   UNL A   1      33.652  27.099  26.263  1.00  0.00     0.058 A 
ATOM     14  C   UNL A   1      34.435  25.112  25.027  1.00  0.00     0.027 C 
ATOM     15  C   UNL A   1      32.964  24.217  23.212  1.00  0.00     0.316 C 
BRANCH  10  16
ATOM     16  O   UNL A   1      33.039  28.944  27.526  1.00  0.00    -0.406 OA
BRANCH  16  17
ATOM     17  C   UNL A   1      33.759  30.105  27.151  1.00  0.00     0.573 C 
ATOM     18  F   UNL A   1      35.091  29.895  27.219  1.00  0.00    -0.132 F 
ATOM     19  F   UNL A   1      33.427  30.500  25.904  1.00  0.00    -0.132 F 
ATOM     20  F   UNL A   1      33.447  31.104  28.005  1.00  0.00    -0.132 F 
ENDBRANCH  16  17
ENDBRANCH  10  16
BRANCH  15  21
ATOM     21  C   UNL A   1      32.232  22.869  23.322  1.00  0.00     0.430 C 
ATOM     22  F   UNL A   1      30.920  22.993  23.008  1.00  0.00    -0.167 F 
ATOM     23  F   UNL A   1      32.745  21.945  22.477  1.00  0.00    -0.167 F 
ATOM     24  F   UNL A   1      32.303  22.354  24.572  1.00  0.00    -0.167 F 
ENDBRANCH  15  21
ENDBRANCH   3   5
ENDBRANCH   2   3
ENDBRANCH   1   2
BRANCH   1  25
ATOM     25  C   UNL A   1      36.560  20.341  25.003  1.00  0.00     0.275 C 
BRANCH  25  26
ATOM     26  O   UNL A   1      37.664  21.261  24.928  1.00  0.00    -0.458 OA
BRANCH  26  27
ATOM     27  C   UNL A   1      38.750  20.935  25.662  1.00  0.00     0.338 C 
ATOM     28  O   UNL A   1      39.266  19.836  25.782  1.00  0.00    -0.246 OA
BRANCH  27  29
ATOM     29  C   UNL A   1      39.295  22.139  26.309  1.00  0.00     0.060 A 
ATOM     30  C   UNL A   1      38.662  23.366  26.121  1.00  0.00     0.016 A 
ATOM     31  C   UNL A   1      40.518  22.076  26.974  1.00  0.00     0.016 A 
ATOM     32  C   UNL A   1      39.309  24.547  26.481  1.00  0.00     0.010 A 
ATOM     33  C   UNL A   1      41.112  23.255  27.434  1.00  0.00     0.010 A 
ATOM     34  C   UNL A   1      40.541  24.507  27.147  1.00  0.00    -0.014 A 
BRANCH  34  35
ATOM     35  C   UNL A   1      41.255  25.764  27.502  1.00  0.00     0.031 A 
ATOM     36  C   UNL A   1      40.614  26.760  28.434  1.00  0.00     0.074 A 
ATOM     37  C   UNL A   1      42.485  26.016  27.011  1.00  0.00     0.049 A 
ATOM     38  N   UNL A   1      40.989  27.981  28.720  1.00  0.00    -0.248 NA
ATOM     39  C   UNL A   1      39.390  26.330  29.133  1.00  0.00     0.031 C 
ATOM     40  C   UNL A   1      43.261  25.119  26.153  1.00  0.00     0.029 A 
ATOM     41  N   UNL A   1      43.304  27.108  27.174  1.00  0.00    -0.354 N 
ATOM     42  C   UNL A   1      40.025  28.480  29.588  1.00  0.00     0.074 A 
ATOM     43  C   UNL A   1      39.047  27.433  29.785  1.00  0.00     0.031 C 
ATOM     44  C   UNL A   1      44.456  25.675  25.902  1.00  0.00     0.029 A 
ATOM     45  C   UNL A   1      44.498  27.003  26.502  1.00  0.00     0.049 A 
ATOM     46  H   UNL A   1      43.059  27.889  27.720  1.00  0.00     0.167 HD
ATOM     47  C   UNL A   1      39.961  29.701  30.167  1.00  0.00     0.031 A 
ATOM     48  C   UNL A   1      45.502  27.887  26.346  1.00  0.00     0.031 A 
ATOM     49  C   UNL A   1      40.954  30.728  30.012  1.00  0.00     0.049 A 
ATOM     50  C   UNL A   1      45.381  29.256  26.946  1.00  0.00     0.074 A 
ATOM     51  C   UNL A   1      40.970  31.998  30.562  1.00  0.00     0.029 A 
ATOM     52  N   UNL A   1      42.117  30.595  29.272  1.00  0.00    -0.354 N 
ATOM     53  N   UNL A   1      44.421  29.743  27.694  1.00  0.00    -0.248 NA
ATOM     54  C   UNL A   1      46.466  30.207  26.661  1.00  0.00     0.031 C 
ATOM     55  C   UNL A   1      42.128  32.647  30.128  1.00  0.00     0.029 A 
ATOM     56  C   UNL A   1      42.851  31.766  29.341  1.00  0.00     0.049 A 
ATOM     57  H   UNL A   1      42.381  29.790  28.772  1.00  0.00     0.167 HD
ATOM     58  C   UNL A   1      44.786  31.053  27.971  1.00  0.00     0.074 A 
ATOM     59  C   UNL A   1      46.062  31.282  27.325  1.00  0.00     0.031 C 
ATOM     60  C   UNL A   1      44.117  31.982  28.693  1.00  0.00     0.031 A 
BRANCH  47  61
ATOM     61  C   UNL A   1      38.762  30.020  31.012  1.00  0.00    -0.014 A 
ATOM     62  C   UNL A   1      38.796  29.874  32.406  1.00  0.00     0.009 A 
ATOM     63  C   UNL A   1      37.619  30.569  30.409  1.00  0.00     0.009 A 
ATOM     64  C   UNL A   1      37.702  30.266  33.181  1.00  0.00     0.001 A 
ATOM     65  C   UNL A   1      36.534  30.977  31.188  1.00  0.00     0.001 A 
ATOM     66  C   UNL A   1      36.577  30.823  32.573  1.00  0.00     0.000 A 
ENDBRANCH  47  61
BRANCH  48  67
ATOM     67  C   UNL A   1      46.689  27.508  25.540  1.00  0.00    -0.014 A 
ATOM     68  C   UNL A   1      47.728  26.761  26.113  1.00  0.00     0.009 A 
ATOM     69  C   UNL A   1      46.766  27.850  24.179  1.00  0.00     0.009 A 
ATOM     70  C   UNL A   1      48.820  26.363  25.339  1.00  0.00     0.001 A 
ATOM     71  C   UNL A   1      47.847  27.430  23.403  1.00  0.00     0.001 A 
ATOM     72  C   UNL A   1      48.874  26.689  23.984  1.00  0.00     0.000 A 
ENDBRANCH  48  67
BRANCH  60  73
ATOM     73  C   UNL A   1      44.744  33.335  28.843  1.00  0.00    -0.014 A 
ATOM     74  C   UNL A   1      44.420  34.377  27.963  1.00  0.00     0.009 A 
ATOM     75  C   UNL A   1      45.584  33.596  29.937  1.00  0.00     0.009 A 
ATOM     76  C   UNL A   1      44.933  35.658  28.173  1.00  0.00     0.001 A 
ATOM     77  C   UNL A   1      46.080  34.881  30.153  1.00  0.00     0.001 A 
ATOM     78  C   UNL A   1      45.756  35.910  29.270  1.00  0.00     0.000 A 
ENDBRANCH  60  73
ENDBRANCH  34  35
ENDBRANCH  27  29
ENDBRANCH  26  27
ENDBRANCH  25  26
ENDBRANCH   1  25
TORSDOF 14
ENDMDL
MODEL 2
REMARK VINA RESULT:     -11.3      2.623      6.951
REMARK SMILES Cc1cc(OC(F)(F)F)cc2c1O[C@H](C(F)(F)F)C(C(=O)OCCOC(=O)c1ccc(-c3c4nc(c(-c5ccccc5)c5ccc([nH]5)c(-c5ccccc5)c5nc(c(-c6ccccc6)c6ccc3[nH]6)C=C5)C=C4)cc1)=C2
REMARK SMILES IDX 23 1 22 2 20 3 21 4 19 5 1 6 2 7 3 8 12 9 4 10 11 11 13 12
REMARK SMILES IDX 10 13 76 14 14 15 5 16 6 17 7 18 8 19 9 20 15 21 16 22 17 23
REMARK SMILES IDX 18 24 24 25 25 26 26 27 27 28 28 29 29 30 75 31 30 32 74 33
REMARK SMILES IDX 31 34 32 35 33 36 68 37 34 38 73 39 67 40 69 41 35 42 72 43
REMARK SMILES IDX 66 44 65 45 36 47 58 48 43 49 57 50 44 51 47 52 56 53 70 54
REMARK SMILES IDX 45 55 46 56 55 58 71 59 48 60 37 61 38 62 42 63 39 64 41 65
REMARK SMILES IDX 40 66 59 67 60 68 64 69 61 70 63 71 62 72 49 73 50 74 54 75
REMARK SMILES IDX 51 76 53 77 52 78
REMARK H PARENT 69 46 47 57
REMARK Flexibility Score: inf
ROOT
ATOM      1  C   UNL A   1      32.636  28.639  26.996  1.00  0.00     0.275 C 
ENDROOT
BRANCH   1   2
ATOM      2  O   UNL A   1      32.238  28.381  25.633  1.00  0.00    -0.459 OA
BRANCH   2   3
ATOM      3  C   UNL A   1      33.238  28.042  24.783  1.00  0.00     0.338 C 
ATOM      4  O   UNL A   1      34.046  28.794  24.269  1.00  0.00    -0.246 OA
BRANCH   3   5
ATOM      5  C   UNL A   1      33.264  26.576  24.601  1.00  0.00     0.087 C 
ATOM      6  C   UNL A   1      32.477  21.740  23.093  1.00  0.00     0.048 C 
ATOM      7  C   UNL A   1      33.482  22.447  23.959  1.00  0.00    -0.005 A 
ATOM      8  C   UNL A   1      34.529  21.717  24.555  1.00  0.00     0.054 A 
ATOM      9  C   UNL A   1      33.381  23.827  24.192  1.00  0.00     0.131 A 
ATOM     10  C   UNL A   1      35.476  22.354  25.358  1.00  0.00     0.130 A 
ATOM     11  C   UNL A   1      34.346  24.471  24.963  1.00  0.00     0.021 A 
ATOM     12  O   UNL A   1      32.309  24.476  23.644  1.00  0.00    -0.475 OA
ATOM     13  C   UNL A   1      35.379  23.734  25.552  1.00  0.00     0.058 A 
ATOM     14  C   UNL A   1      34.289  25.909  25.141  1.00  0.00     0.027 C 
ATOM     15  C   UNL A   1      32.191  25.918  23.778  1.00  0.00     0.316 C 
BRANCH  10  16
ATOM     16  O   UNL A   1      36.528  21.770  26.002  1.00  0.00    -0.406 OA
BRANCH  16  17
ATOM     17  C   UNL A   1      37.769  21.701  25.322  1.00  0.00     0.573 C 
ATOM     18  F   UNL A   1      38.698  22.473  25.927  1.00  0.00    -0.132 F 
ATOM     19  F   UNL A   1      38.215  20.429  25.252  1.00  0.00    -0.132 F 
ATOM     20  F   UNL A   1      37.601  22.157  24.062  1.00  0.00    -0.132 F 
ENDBRANCH  16  17
ENDBRANCH  10  16
BRANCH  15  21
ATOM     21  C   UNL A   1      32.119  26.521  22.365  1.00  0.00     0.430 C 
ATOM     22  F   UNL A   1      33.354  26.815  21.892  1.00  0.00    -0.167 F 
ATOM     23  F   UNL A   1      31.560  25.665  21.478  1.00  0.00    -0.167 F 
ATOM     24  F   UNL A   1      31.392  27.662  22.337  1.00  0.00    -0.167 F 
ENDBRANCH  15  21
ENDBRANCH   3   5
ENDBRANCH   2   3
ENDBRANCH   1   2
BRANCH   1  25
ATOM     25  C   UNL A   1      32.671  30.140  27.273  1.00  0.00     0.275 C 
BRANCH  25  26
ATOM     26  O   UNL A   1      34.008  30.637  27.080  1.00  0.00    -0.458 OA
BRANCH  26  27
ATOM     27  C   UNL A   1      34.671  30.989  28.203  1.00  0.00     0.338 C 
ATOM     28  O   UNL A   1      34.333  31.808  29.042  1.00  0.00    -0.246 OA
BRANCH  27  29
ATOM     29  C   UNL A   1      35.902  30.194  28.326  1.00  0.00     0.060 A 
ATOM     30  C   UNL A   1      36.251  29.653  29.561  1.00  0.00     0.016 A 
ATOM     31  C   UNL A   1      36.788  30.116  27.253  1.00  0.00     0.016 A 
ATOM     32  C   UNL A   1      37.534  29.148  29.765  1.00  0.00     0.010 A 
ATOM     33  C   UNL A   1      38.034  29.507  27.430  1.00  0.00     0.010 A 
ATOM     34  C   UNL A   1      38.442  29.064  28.700  1.00  0.00    -0.014 A 
BRANCH  34  35
ATOM     35  C   UNL A   1      39.825  28.560  28.918  1.00  0.00     0.031 A 
ATOM     36  C   UNL A   1      40.865  29.454  29.545  1.00  0.00     0.074 A 
ATOM     37  C   UNL A   1      40.158  27.299  28.577  1.00  0.00     0.049 A 
ATOM     38  N   UNL A   1      42.156  29.266  29.653  1.00  0.00    -0.248 NA
ATOM     39  C   UNL A   1      40.394  30.725  30.122  1.00  0.00     0.031 C 
ATOM     40  C   UNL A   1      39.246  26.296  28.025  1.00  0.00     0.029 A 
ATOM     41  N   UNL A   1      41.362  26.642  28.655  1.00  0.00    -0.354 N 
ATOM     42  C   UNL A   1      42.655  30.412  30.261  1.00  0.00     0.074 A 
ATOM     43  C   UNL A   1      41.532  31.291  30.500  1.00  0.00     0.031 C 
ATOM     44  C   UNL A   1      39.909  25.143  27.855  1.00  0.00     0.029 A 
ATOM     45  C   UNL A   1      41.311  25.347  28.199  1.00  0.00     0.049 A 
ATOM     46  H   UNL A   1      42.182  27.059  29.005  1.00  0.00     0.167 HD
ATOM     47  C   UNL A   1      43.935  30.705  30.589  1.00  0.00     0.031 A 
ATOM     48  C   UNL A   1      42.286  24.432  28.033  1.00  0.00     0.031 A 
ATOM     49  C   UNL A   1      45.047  29.816  30.396  1.00  0.00     0.049 A 
ATOM     50  C   UNL A   1      43.706  24.800  28.345  1.00  0.00     0.074 A 
ATOM     51  C   UNL A   1      46.381  30.031  30.698  1.00  0.00     0.029 A 
ATOM     52  N   UNL A   1      44.953  28.537  29.874  1.00  0.00    -0.354 N 
ATOM     53  N   UNL A   1      44.174  25.920  28.840  1.00  0.00    -0.248 NA
ATOM     54  C   UNL A   1      44.735  23.791  28.054  1.00  0.00     0.031 C 
ATOM     55  C   UNL A   1      47.101  28.893  30.328  1.00  0.00     0.029 A 
ATOM     56  C   UNL A   1      46.208  27.955  29.833  1.00  0.00     0.049 A 
ATOM     57  H   UNL A   1      44.121  28.106  29.576  1.00  0.00     0.167 HD
ATOM     58  C   UNL A   1      45.550  25.750  28.921  1.00  0.00     0.074 A 
ATOM     59  C   UNL A   1      45.840  24.416  28.441  1.00  0.00     0.031 C 
ATOM     60  C   UNL A   1      46.485  26.629  29.352  1.00  0.00     0.031 A 
BRANCH  47  61
ATOM     61  C   UNL A   1      44.222  32.057  31.173  1.00  0.00    -0.014 A 
ATOM     62  C   UNL A   1      44.266  32.255  32.560  1.00  0.00     0.009 A 
ATOM     63  C   UNL A   1      44.554  33.122  30.319  1.00  0.00     0.009 A 
ATOM     64  C   UNL A   1      44.627  33.499  33.082  1.00  0.00     0.001 A 
ATOM     65  C   UNL A   1      44.934  34.358  30.844  1.00  0.00     0.001 A 
ATOM     66  C   UNL A   1      44.969  34.546  32.225  1.00  0.00     0.000 A 
ENDBRANCH  47  61
BRANCH  48  67
ATOM     67  C   UNL A   1      41.943  23.092  27.496  1.00  0.00    -0.014 A 
ATOM     68  C   UNL A   1      42.168  22.788  26.146  1.00  0.00     0.009 A 
ATOM     69  C   UNL A   1      41.434  22.093  28.343  1.00  0.00     0.009 A 
ATOM     70  C   UNL A   1      41.892  21.510  25.655  1.00  0.00     0.001 A 
ATOM     71  C   UNL A   1      41.181  20.811  27.854  1.00  0.00     0.001 A 
ATOM     72  C   UNL A   1      41.408  20.522  26.510  1.00  0.00     0.000 A 
ENDBRANCH  48  67
BRANCH  60  73
ATOM     73  C   UNL A   1      47.917  26.185  29.341  1.00  0.00    -0.014 A 
ATOM     74  C   UNL A   1      48.714  26.366  28.202  1.00  0.00     0.009 A 
ATOM     75  C   UNL A   1      48.498  25.680  30.514  1.00  0.00     0.009 A 
ATOM     76  C   UNL A   1      50.071  26.042  28.237  1.00  0.00     0.001 A 
ATOM     77  C   UNL A   1      49.858  25.374  30.550  1.00  0.00     0.001 A 
ATOM     78  C   UNL A   1      50.643  25.553  29.412  1.00  0.00     0.000 A 
ENDBRANCH  60  73
ENDBRANCH  34  35
ENDBRANCH  27  29
ENDBRANCH  26  27
ENDBRANCH  25  26
ENDBRANCH   1  25
TORSDOF 14
ENDMDL
MODEL 3
REMARK VINA RESULT:     -11.3      2.846      6.307
REMARK SMILES Cc1cc(OC(F)(F)F)cc2c1O[C@H](C(F)(F)F)C(C(=O)OCCOC(=O)c1ccc(-c3c4nc(c(-c5ccccc5)c5ccc([nH]5)c(-c5ccccc5)c5nc(c(-c6ccccc6)c6ccc3[nH]6)C=C5)C=C4)cc1)=C2
REMARK SMILES IDX 23 1 22 2 20 3 21 4 19 5 1 6 2 7 3 8 12 9 4 10 11 11 13 12
REMARK SMILES IDX 10 13 76 14 14 15 5 16 6 17 7 18 8 19 9 20 15 21 16 22 17 23
REMARK SMILES IDX 18 24 24 25 25 26 26 27 27 28 28 29 29 30 75 31 30 32 74 33
REMARK SMILES IDX 31 34 32 35 33 36 68 37 34 38 73 39 67 40 69 41 35 42 72 43
REMARK SMILES IDX 66 44 65 45 36 47 58 48 43 49 57 50 44 51 47 52 56 53 70 54
REMARK SMILES IDX 45 55 46 56 55 58 71 59 48 60 37 61 38 62 42 63 39 64 41 65
REMARK SMILES IDX 40 66 59 67 60 68 64 69 61 70 63 71 62 72 49 73 50 74 54 75
REMARK SMILES IDX 51 76 53 77 52 78
REMARK H PARENT 69 46 47 57
REMARK Flexibility Score: inf
ROOT
ATOM      1  C   UNL A   1      36.751  21.616  24.956  1.00  0.00     0.275 C 
ENDROOT
BRANCH   1   2
ATOM      2  O   UNL A   1      36.405  23.017  24.938  1.00  0.00    -0.459 OA
BRANCH   2   3
ATOM      3  C   UNL A   1      35.660  23.425  23.881  1.00  0.00     0.338 C 
ATOM      4  O   UNL A   1      35.862  23.177  22.706  1.00  0.00    -0.246 OA
BRANCH   3   5
ATOM      5  C   UNL A   1      34.487  24.186  24.360  1.00  0.00     0.087 C 
ATOM      6  C   UNL A   1      29.798  25.775  25.690  1.00  0.00     0.048 C 
ATOM      7  C   UNL A   1      31.202  26.272  25.898  1.00  0.00    -0.005 A 
ATOM      8  C   UNL A   1      31.425  27.450  26.636  1.00  0.00     0.054 A 
ATOM      9  C   UNL A   1      32.294  25.580  25.351  1.00  0.00     0.131 A 
ATOM     10  C   UNL A   1      32.720  27.927  26.845  1.00  0.00     0.130 A 
ATOM     11  C   UNL A   1      33.590  26.033  25.590  1.00  0.00     0.021 A 
ATOM     12  O   UNL A   1      32.017  24.480  24.588  1.00  0.00    -0.475 OA
ATOM     13  C   UNL A   1      33.797  27.208  26.322  1.00  0.00     0.058 A 
ATOM     14  C   UNL A   1      34.723  25.278  25.094  1.00  0.00     0.027 C 
ATOM     15  C   UNL A   1      33.106  23.672  24.063  1.00  0.00     0.316 C 
BRANCH  10  16
ATOM     16  O   UNL A   1      33.076  29.053  27.526  1.00  0.00    -0.406 OA
BRANCH  16  17
ATOM     17  C   UNL A   1      33.311  30.236  26.781  1.00  0.00     0.573 C 
ATOM     18  F   UNL A   1      33.116  30.026  25.462  1.00  0.00    -0.132 F 
ATOM     19  F   UNL A   1      32.514  31.241  27.201  1.00  0.00    -0.132 F 
ATOM     20  F   UNL A   1      34.595  30.615  26.961  1.00  0.00    -0.132 F 
ENDBRANCH  16  17
ENDBRANCH  10  16
BRANCH  15  21
ATOM     21  C   UNL A   1      32.919  22.234  24.577  1.00  0.00     0.430 C 
ATOM     22  F   UNL A   1      33.487  21.334  23.738  1.00  0.00    -0.167 F 
ATOM     23  F   UNL A   1      33.496  22.050  25.787  1.00  0.00    -0.167 F 
ATOM     24  F   UNL A   1      31.612  21.905  24.700  1.00  0.00    -0.167 F 
ENDBRANCH  15  21
ENDBRANCH   3   5
ENDBRANCH   2   3
ENDBRANCH   1   2
BRANCH   1  25
ATOM     25  C   UNL A   1      38.225  21.430  25.312  1.00  0.00     0.275 C 
BRANCH  25  26
ATOM     26  O   UNL A   1      38.577  22.309  26.395  1.00  0.00    -0.458 OA
BRANCH  26  27
ATOM     27  C   UNL A   1      39.827  22.821  26.352  1.00  0.00     0.338 C 
ATOM     28  O   UNL A   1      40.836  22.286  25.924  1.00  0.00    -0.246 OA
BRANCH  27  29
ATOM     29  C   UNL A   1      39.822  24.195  26.878  1.00  0.00     0.060 A 
ATOM     30  C   UNL A   1      40.467  25.205  26.168  1.00  0.00     0.016 A 
ATOM     31  C   UNL A   1      39.311  24.449  28.149  1.00  0.00     0.016 A 
ATOM     32  C   UNL A   1      40.719  26.433  26.775  1.00  0.00     0.010 A 
ATOM     33  C   UNL A   1      39.467  25.719  28.712  1.00  0.00     0.010 A 
ATOM     34  C   UNL A   1      40.217  26.710  28.054  1.00  0.00    -0.014 A 
BRANCH  34  35
ATOM     35  C   UNL A   1      40.513  28.005  28.723  1.00  0.00     0.031 A 
ATOM     36  C   UNL A   1      41.876  28.255  29.318  1.00  0.00     0.074 A 
ATOM     37  C   UNL A   1      39.577  28.973  28.789  1.00  0.00     0.049 A 
ATOM     38  N   UNL A   1      42.271  29.235  30.091  1.00  0.00    -0.248 NA
ATOM     39  C   UNL A   1      42.931  27.275  29.006  1.00  0.00     0.031 C 
ATOM     40  C   UNL A   1      38.238  28.905  28.202  1.00  0.00     0.029 A 
ATOM     41  N   UNL A   1      39.616  30.215  29.377  1.00  0.00    -0.354 N 
ATOM     42  C   UNL A   1      43.599  28.964  30.398  1.00  0.00     0.074 A 
ATOM     43  C   UNL A   1      43.946  27.729  29.729  1.00  0.00     0.031 C 
ATOM     44  C   UNL A   1      37.601  30.065  28.421  1.00  0.00     0.029 A 
ATOM     45  C   UNL A   1      38.449  30.925  29.239  1.00  0.00     0.049 A 
ATOM     46  H   UNL A   1      40.406  30.562  29.850  1.00  0.00     0.167 HD
ATOM     47  C   UNL A   1      44.451  29.678  31.169  1.00  0.00     0.031 A 
ATOM     48  C   UNL A   1      38.077  32.116  29.745  1.00  0.00     0.031 A 
ATOM     49  C   UNL A   1      44.124  30.929  31.797  1.00  0.00     0.049 A 
ATOM     50  C   UNL A   1      39.015  32.862  30.647  1.00  0.00     0.074 A 
ATOM     51  C   UNL A   1      44.927  31.723  32.598  1.00  0.00     0.029 A 
ATOM     52  N   UNL A   1      42.907  31.578  31.676  1.00  0.00    -0.354 N 
ATOM     53  N   UNL A   1      40.239  32.549  30.997  1.00  0.00    -0.248 NA
ATOM     54  C   UNL A   1      38.515  34.109  31.244  1.00  0.00     0.031 C 
ATOM     55  C   UNL A   1      44.184  32.839  32.989  1.00  0.00     0.029 A 
ATOM     56  C   UNL A   1      42.933  32.758  32.399  1.00  0.00     0.049 A 
ATOM     57  H   UNL A   1      42.140  31.251  31.155  1.00  0.00     0.167 HD
ATOM     58  C   UNL A   1      40.656  33.560  31.853  1.00  0.00     0.074 A 
ATOM     59  C   UNL A   1      39.562  34.504  31.956  1.00  0.00     0.031 C 
ATOM     60  C   UNL A   1      41.839  33.687  32.496  1.00  0.00     0.031 A 
BRANCH  47  61
ATOM     61  C   UNL A   1      45.824  29.122  31.406  1.00  0.00    -0.014 A 
ATOM     62  C   UNL A   1      46.074  28.222  32.451  1.00  0.00     0.009 A 
ATOM     63  C   UNL A   1      46.857  29.428  30.504  1.00  0.00     0.009 A 
ATOM     64  C   UNL A   1      47.337  27.645  32.595  1.00  0.00     0.001 A 
ATOM     65  C   UNL A   1      48.114  28.835  30.640  1.00  0.00     0.001 A 
ATOM     66  C   UNL A   1      48.352  27.945  31.686  1.00  0.00     0.000 A 
ENDBRANCH  47  61
BRANCH  48  67
ATOM     67  C   UNL A   1      36.724  32.646  29.442  1.00  0.00    -0.014 A 
ATOM     68  C   UNL A   1      36.491  33.368  28.263  1.00  0.00     0.009 A 
ATOM     69  C   UNL A   1      35.647  32.392  30.309  1.00  0.00     0.009 A 
ATOM     70  C   UNL A   1      35.207  33.823  27.957  1.00  0.00     0.001 A 
ATOM     71  C   UNL A   1      34.361  32.828  29.988  1.00  0.00     0.001 A 
ATOM     72  C   UNL A   1      34.143  33.545  28.813  1.00  0.00     0.000 A 
ENDBRANCH  48  67
BRANCH  60  73
ATOM     73  C   UNL A   1      42.036  34.892  33.366  1.00  0.00    -0.014 A 
ATOM     74  C   UNL A   1      41.562  34.908  34.685  1.00  0.00     0.009 A 
ATOM     75  C   UNL A   1      42.793  35.975  32.894  1.00  0.00     0.009 A 
ATOM     76  C   UNL A   1      41.837  35.995  35.516  1.00  0.00     0.001 A 
ATOM     77  C   UNL A   1      43.081  37.051  33.733  1.00  0.00     0.001 A 
ATOM     78  C   UNL A   1      42.602  37.061  35.043  1.00  0.00     0.000 A 
ENDBRANCH  60  73
ENDBRANCH  34  35
ENDBRANCH  27  29
ENDBRANCH  26  27
ENDBRANCH  25  26
ENDBRANCH   1  25
TORSDOF 14
ENDMDL
