MODEL 1
REMARK VINA RESULT:     -12.5      0.000      0.000
REMARK SMILES CS(=O)(=O)c1ccc(C2=NN(c3ccc(C(=O)OCCOC(=O)c4ccc(-c5c6nc(c(-c7ccccc7)c7ccc([nH]7)c(-c7ccccc7)c7nc(c(-c8ccccc8)c8ccc5[nH]8)C=C7)C=C6)cc4)cc3)[C@H](c3ccc(F)cc3)C2)cc1
REMARK SMILES IDX 19 1 18 2 16 3 17 4 15 5 12 6 13 7 73 8 14 9 72 10 11 11
REMARK SMILES IDX 9 12 10 13 82 14 74 15 8 16 5 17 6 18 84 19 7 20 83 21 2 22
REMARK SMILES IDX 1 23 3 24 4 25 75 26 76 27 81 28 77 29 80 30 78 31 79 32
REMARK SMILES IDX 20 33 21 34 22 35 23 36 24 37 25 38 71 39 26 40 70 41 27 42
REMARK SMILES IDX 28 43 29 44 64 45 30 46 69 47 63 48 65 49 31 50 68 51 62 52
REMARK SMILES IDX 61 53 32 55 54 56 39 57 53 58 40 59 43 60 52 61 66 62 41 63
REMARK SMILES IDX 42 64 51 66 67 67 44 68 33 69 34 70 38 71 35 72 37 73 36 74
REMARK SMILES IDX 55 75 56 76 60 77 57 78 59 79 58 80 45 81 46 82 50 83 47 84
REMARK SMILES IDX 49 85 48 86
REMARK H PARENT 65 54 43 65
REMARK Flexibility Score: inf
ROOT
ATOM      1  C   UNL A   1      32.056  32.052  26.850  1.00  0.00     0.275 C 
ENDROOT
BRANCH   1   2
ATOM      2  O   UNL A   1      32.783  31.272  27.819  1.00  0.00    -0.458 OA
BRANCH   2   3
ATOM      3  C   UNL A   1      33.803  30.527  27.329  1.00  0.00     0.338 C 
ATOM      4  O   UNL A   1      34.990  30.810  27.363  1.00  0.00    -0.246 OA
BRANCH   3   5
ATOM      5  C   UNL A   1      33.309  29.233  26.791  1.00  0.00     0.060 A 
ATOM      6  C   UNL A   1      32.406  26.848  25.610  1.00  0.00     0.060 A 
ATOM      7  C   UNL A   1      33.593  27.444  25.175  1.00  0.00     0.029 A 
ATOM      8  C   UNL A   1      31.709  27.428  26.679  1.00  0.00     0.029 A 
ATOM      9  C   UNL A   1      34.022  28.645  25.737  1.00  0.00     0.018 A 
ATOM     10  C   UNL A   1      32.158  28.610  27.277  1.00  0.00     0.018 A 
BRANCH   6  11
ATOM     11  N   UNL A   1      31.832  25.790  24.894  1.00  0.00    -0.257 N 
ATOM     12  C   UNL A   1      32.125  23.853  24.044  1.00  0.00     0.071 C 
ATOM     13  N   UNL A   1      32.243  24.517  25.152  1.00  0.00    -0.176 NA
ATOM     14  C   UNL A   1      31.698  24.647  22.841  1.00  0.00     0.091 C 
ATOM     15  C   UNL A   1      31.543  26.033  23.472  1.00  0.00     0.144 C 
BRANCH  12  16
ATOM     16  C   UNL A   1      32.346  22.400  23.952  1.00  0.00    -0.002 A 
ATOM     17  C   UNL A   1      32.615  19.631  23.895  1.00  0.00     0.067 A 
ATOM     18  C   UNL A   1      32.759  20.311  25.106  1.00  0.00     0.021 A 
ATOM     19  C   UNL A   1      32.357  20.328  22.709  1.00  0.00     0.021 A 
ATOM     20  C   UNL A   1      32.641  21.702  25.129  1.00  0.00     0.011 A 
ATOM     21  C   UNL A   1      32.210  21.717  22.740  1.00  0.00     0.011 A 
BRANCH  17  22
ATOM     22  S   UNL A   1      32.704  17.854  23.868  1.00  0.00     0.175 S 
ATOM     23  C   UNL A   1      34.390  17.463  24.252  1.00  0.00     0.163 C 
ATOM     24  O   UNL A   1      32.464  17.429  22.502  1.00  0.00    -0.224 OA
ATOM     25  O   UNL A   1      31.867  17.387  24.955  1.00  0.00    -0.224 OA
ENDBRANCH  17  22
ENDBRANCH  12  16
BRANCH  15  26
ATOM     26  C   UNL A   1      30.205  26.742  23.335  1.00  0.00    -0.023 A 
ATOM     27  C   UNL A   1      29.009  26.231  23.861  1.00  0.00     0.009 A 
ATOM     28  C   UNL A   1      30.185  28.030  22.758  1.00  0.00     0.009 A 
ATOM     29  C   UNL A   1      27.830  26.980  23.804  1.00  0.00     0.039 A 
ATOM     30  C   UNL A   1      29.014  28.787  22.723  1.00  0.00     0.039 A 
ATOM     31  C   UNL A   1      27.846  28.252  23.245  1.00  0.00     0.123 A 
ATOM     32  F   UNL A   1      26.723  28.981  23.229  1.00  0.00    -0.207 F 
ENDBRANCH  15  26
ENDBRANCH   6  11
ENDBRANCH   3   5
ENDBRANCH   2   3
ENDBRANCH   1   2
BRANCH   1  33
ATOM     33  C   UNL A   1      32.320  33.543  27.054  1.00  0.00     0.275 C 
BRANCH  33  34
ATOM     34  O   UNL A   1      32.289  33.858  28.459  1.00  0.00    -0.458 OA
BRANCH  34  35
ATOM     35  C   UNL A   1      33.224  34.736  28.887  1.00  0.00     0.338 C 
ATOM     36  O   UNL A   1      33.105  35.938  29.049  1.00  0.00    -0.246 OA
BRANCH  35  37
ATOM     37  C   UNL A   1      34.475  34.015  29.167  1.00  0.00     0.060 A 
ATOM     38  C   UNL A   1      34.495  33.069  30.188  1.00  0.00     0.016 A 
ATOM     39  C   UNL A   1      35.653  34.366  28.514  1.00  0.00     0.016 A 
ATOM     40  C   UNL A   1      35.701  32.517  30.612  1.00  0.00     0.010 A 
ATOM     41  C   UNL A   1      36.855  33.752  28.887  1.00  0.00     0.010 A 
ATOM     42  C   UNL A   1      36.899  32.845  29.964  1.00  0.00    -0.014 A 
BRANCH  42  43
ATOM     43  C   UNL A   1      38.194  32.289  30.445  1.00  0.00     0.031 A 
ATOM     44  C   UNL A   1      38.755  31.036  29.823  1.00  0.00     0.074 A 
ATOM     45  C   UNL A   1      38.887  32.906  31.422  1.00  0.00     0.049 A 
ATOM     46  N   UNL A   1      39.777  30.309  30.202  1.00  0.00    -0.248 NA
ATOM     47  C   UNL A   1      38.072  30.529  28.622  1.00  0.00     0.031 C 
ATOM     48  C   UNL A   1      38.501  34.156  32.082  1.00  0.00     0.029 A 
ATOM     49  N   UNL A   1      40.073  32.567  32.027  1.00  0.00    -0.354 N 
ATOM     50  C   UNL A   1      39.823  29.232  29.325  1.00  0.00     0.074 A 
ATOM     51  C   UNL A   1      38.727  29.398  28.395  1.00  0.00     0.031 C 
ATOM     52  C   UNL A   1      39.449  34.495  32.970  1.00  0.00     0.029 A 
ATOM     53  C   UNL A   1      40.465  33.450  33.004  1.00  0.00     0.049 A 
ATOM     54  H   UNL A   1      40.593  31.767  31.784  1.00  0.00     0.167 HD
ATOM     55  C   UNL A   1      40.695  28.196  29.299  1.00  0.00     0.031 A 
ATOM     56  C   UNL A   1      41.503  33.410  33.861  1.00  0.00     0.031 A 
ATOM     57  C   UNL A   1      41.813  28.049  30.193  1.00  0.00     0.049 A 
ATOM     58  C   UNL A   1      42.434  32.231  33.837  1.00  0.00     0.074 A 
ATOM     59  C   UNL A   1      42.756  27.035  30.235  1.00  0.00     0.029 A 
ATOM     60  N   UNL A   1      42.147  28.948  31.192  1.00  0.00    -0.354 N 
ATOM     61  N   UNL A   1      42.431  31.191  33.040  1.00  0.00    -0.248 NA
ATOM     62  C   UNL A   1      43.503  32.214  34.848  1.00  0.00     0.031 C 
ATOM     63  C   UNL A   1      43.641  27.305  31.284  1.00  0.00     0.029 A 
ATOM     64  C   UNL A   1      43.275  28.508  31.864  1.00  0.00     0.049 A 
ATOM     65  H   UNL A   1      41.655  29.777  31.393  1.00  0.00     0.167 HD
ATOM     66  C   UNL A   1      43.498  30.401  33.445  1.00  0.00     0.074 A 
ATOM     67  C   UNL A   1      44.142  31.092  34.542  1.00  0.00     0.031 C 
ATOM     68  C   UNL A   1      43.902  29.205  32.955  1.00  0.00     0.031 A 
BRANCH  55  69
ATOM     69  C   UNL A   1      40.451  27.109  28.289  1.00  0.00    -0.014 A 
ATOM     70  C   UNL A   1      41.030  27.147  27.012  1.00  0.00     0.009 A 
ATOM     71  C   UNL A   1      39.655  26.007  28.641  1.00  0.00     0.009 A 
ATOM     72  C   UNL A   1      40.792  26.117  26.098  1.00  0.00     0.001 A 
ATOM     73  C   UNL A   1      39.441  24.967  27.736  1.00  0.00     0.001 A 
ATOM     74  C   UNL A   1      40.002  25.027  26.462  1.00  0.00     0.000 A 
ENDBRANCH  55  69
BRANCH  56  75
ATOM     75  C   UNL A   1      41.687  34.498  34.857  1.00  0.00    -0.014 A 
ATOM     76  C   UNL A   1      41.074  34.426  36.117  1.00  0.00     0.009 A 
ATOM     77  C   UNL A   1      42.477  35.617  34.549  1.00  0.00     0.009 A 
ATOM     78  C   UNL A   1      41.236  35.460  37.042  1.00  0.00     0.001 A 
ATOM     79  C   UNL A   1      42.661  36.635  35.486  1.00  0.00     0.001 A 
ATOM     80  C   UNL A   1      42.035  36.560  36.728  1.00  0.00     0.000 A 
ENDBRANCH  56  75
BRANCH  68  81
ATOM     81  C   UNL A   1      45.115  28.584  33.587  1.00  0.00    -0.014 A 
ATOM     82  C   UNL A   1      44.996  27.706  34.675  1.00  0.00     0.009 A 
ATOM     83  C   UNL A   1      46.389  28.862  33.069  1.00  0.00     0.009 A 
ATOM     84  C   UNL A   1      46.135  27.142  35.252  1.00  0.00     0.001 A 
ATOM     85  C   UNL A   1      47.524  28.277  33.634  1.00  0.00     0.001 A 
ATOM     86  C   UNL A   1      47.396  27.425  34.729  1.00  0.00     0.000 A 
ENDBRANCH  68  81
ENDBRANCH  42  43
ENDBRANCH  35  37
ENDBRANCH  34  35
ENDBRANCH  33  34
ENDBRANCH   1  33
TORSDOF 15
ENDMDL
MODEL 2
REMARK VINA RESULT:     -12.4      0.654      5.630
REMARK SMILES CS(=O)(=O)c1ccc(C2=NN(c3ccc(C(=O)OCCOC(=O)c4ccc(-c5c6nc(c(-c7ccccc7)c7ccc([nH]7)c(-c7ccccc7)c7nc(c(-c8ccccc8)c8ccc5[nH]8)C=C7)C=C6)cc4)cc3)[C@H](c3ccc(F)cc3)C2)cc1
REMARK SMILES IDX 19 1 18 2 16 3 17 4 15 5 12 6 13 7 73 8 14 9 72 10 11 11
REMARK SMILES IDX 9 12 10 13 82 14 74 15 8 16 5 17 6 18 84 19 7 20 83 21 2 22
REMARK SMILES IDX 1 23 3 24 4 25 75 26 76 27 81 28 77 29 80 30 78 31 79 32
REMARK SMILES IDX 20 33 21 34 22 35 23 36 24 37 25 38 71 39 26 40 70 41 27 42
REMARK SMILES IDX 28 43 29 44 64 45 30 46 69 47 63 48 65 49 31 50 68 51 62 52
REMARK SMILES IDX 61 53 32 55 54 56 39 57 53 58 40 59 43 60 52 61 66 62 41 63
REMARK SMILES IDX 42 64 51 66 67 67 44 68 33 69 34 70 38 71 35 72 37 73 36 74
REMARK SMILES IDX 55 75 56 76 60 77 57 78 59 79 58 80 45 81 46 82 50 83 47 84
REMARK SMILES IDX 49 85 48 86
REMARK H PARENT 65 54 43 65
REMARK Flexibility Score: inf
ROOT
ATOM      1  C   UNL A   1      32.425  32.544  27.239  1.00  0.00     0.275 C 
ENDROOT
BRANCH   1   2
ATOM      2  O   UNL A   1      32.956  31.451  28.013  1.00  0.00    -0.458 OA
BRANCH   2   3
ATOM      3  C   UNL A   1      33.915  30.710  27.405  1.00  0.00     0.338 C 
ATOM      4  O   UNL A   1      35.103  30.981  27.333  1.00  0.00    -0.246 OA
BRANCH   3   5
ATOM      5  C   UNL A   1      33.356  29.439  26.881  1.00  0.00     0.060 A 
ATOM      6  C   UNL A   1      32.351  27.082  25.725  1.00  0.00     0.060 A 
ATOM      7  C   UNL A   1      33.629  27.539  25.394  1.00  0.00     0.029 A 
ATOM      8  C   UNL A   1      31.607  27.785  26.683  1.00  0.00     0.029 A 
ATOM      9  C   UNL A   1      34.113  28.727  25.940  1.00  0.00     0.018 A 
ATOM     10  C   UNL A   1      32.104  28.953  27.268  1.00  0.00     0.018 A 
BRANCH   6  11
ATOM     11  N   UNL A   1      31.753  26.041  25.004  1.00  0.00    -0.257 N 
ATOM     12  C   UNL A   1      31.964  24.058  24.239  1.00  0.00     0.071 C 
ATOM     13  N   UNL A   1      32.052  24.753  25.331  1.00  0.00    -0.176 NA
ATOM     14  C   UNL A   1      31.681  24.835  22.983  1.00  0.00     0.091 C 
ATOM     15  C   UNL A   1      31.584  26.251  23.557  1.00  0.00     0.144 C 
BRANCH  12  16
ATOM     16  C   UNL A   1      32.085  22.590  24.210  1.00  0.00    -0.002 A 
ATOM     17  C   UNL A   1      32.467  19.839  24.044  1.00  0.00     0.067 A 
ATOM     18  C   UNL A   1      32.204  20.569  22.883  1.00  0.00     0.021 A 
ATOM     19  C   UNL A   1      32.520  20.473  25.291  1.00  0.00     0.021 A 
ATOM     20  C   UNL A   1      31.996  21.946  22.971  1.00  0.00     0.011 A 
ATOM     21  C   UNL A   1      32.340  21.857  25.373  1.00  0.00     0.011 A 
BRANCH  17  22
ATOM     22  S   UNL A   1      32.793  18.094  23.932  1.00  0.00     0.175 S 
ATOM     23  C   UNL A   1      34.528  17.919  24.254  1.00  0.00     0.163 C 
ATOM     24  O   UNL A   1      32.569  17.700  22.555  1.00  0.00    -0.224 OA
ATOM     25  O   UNL A   1      32.061  17.471  25.017  1.00  0.00    -0.224 OA
ENDBRANCH  17  22
ENDBRANCH  12  16
BRANCH  15  26
ATOM     26  C   UNL A   1      30.314  27.046  23.301  1.00  0.00    -0.023 A 
ATOM     27  C   UNL A   1      29.056  26.663  23.791  1.00  0.00     0.009 A 
ATOM     28  C   UNL A   1      30.424  28.290  22.641  1.00  0.00     0.009 A 
ATOM     29  C   UNL A   1      27.944  27.493  23.621  1.00  0.00     0.039 A 
ATOM     30  C   UNL A   1      29.318  29.127  22.493  1.00  0.00     0.039 A 
ATOM     31  C   UNL A   1      28.087  28.719  22.982  1.00  0.00     0.123 A 
ATOM     32  F   UNL A   1      27.027  29.526  22.856  1.00  0.00    -0.207 F 
ENDBRANCH  15  26
ENDBRANCH   6  11
ENDBRANCH   3   5
ENDBRANCH   2   3
ENDBRANCH   1   2
BRANCH   1  33
ATOM     33  C   UNL A   1      33.117  33.853  27.613  1.00  0.00     0.275 C 
BRANCH  33  34
ATOM     34  O   UNL A   1      32.553  34.373  28.832  1.00  0.00    -0.458 OA
BRANCH  34  35
ATOM     35  C   UNL A   1      33.427  34.954  29.685  1.00  0.00     0.338 C 
ATOM     36  O   UNL A   1      33.319  36.026  30.253  1.00  0.00    -0.246 OA
BRANCH  35  37
ATOM     37  C   UNL A   1      34.588  34.069  29.868  1.00  0.00     0.060 A 
ATOM     38  C   UNL A   1      34.547  33.098  30.865  1.00  0.00     0.016 A 
ATOM     39  C   UNL A   1      35.759  34.285  29.148  1.00  0.00     0.016 A 
ATOM     40  C   UNL A   1      35.693  32.382  31.198  1.00  0.00     0.010 A 
ATOM     41  C   UNL A   1      36.891  33.510  29.429  1.00  0.00     0.010 A 
ATOM     42  C   UNL A   1      36.882  32.573  30.480  1.00  0.00    -0.014 A 
BRANCH  42  43
ATOM     43  C   UNL A   1      38.120  31.839  30.864  1.00  0.00     0.031 A 
ATOM     44  C   UNL A   1      38.985  32.353  31.987  1.00  0.00     0.074 A 
ATOM     45  C   UNL A   1      38.470  30.702  30.231  1.00  0.00     0.049 A 
ATOM     46  N   UNL A   1      40.174  31.954  32.365  1.00  0.00    -0.248 NA
ATOM     47  C   UNL A   1      38.447  33.469  32.781  1.00  0.00     0.031 C 
ATOM     48  C   UNL A   1      37.706  30.051  29.165  1.00  0.00     0.029 A 
ATOM     49  N   UNL A   1      39.561  29.884  30.401  1.00  0.00    -0.354 N 
ATOM     50  C   UNL A   1      40.548  32.804  33.399  1.00  0.00     0.074 A 
ATOM     51  C   UNL A   1      39.462  33.741  33.589  1.00  0.00     0.031 C 
ATOM     52  C   UNL A   1      38.331  28.919  28.804  1.00  0.00     0.029 A 
ATOM     53  C   UNL A   1      39.578  28.806  29.551  1.00  0.00     0.049 A 
ATOM     54  H   UNL A   1      40.264  30.055  31.069  1.00  0.00     0.167 HD
ATOM     55  C   UNL A   1      41.693  32.807  34.123  1.00  0.00     0.031 A 
ATOM     56  C   UNL A   1      40.509  27.851  29.360  1.00  0.00     0.031 A 
ATOM     57  C   UNL A   1      42.757  31.850  33.969  1.00  0.00     0.049 A 
ATOM     58  C   UNL A   1      41.787  27.898  30.148  1.00  0.00     0.074 A 
ATOM     59  C   UNL A   1      43.952  31.770  34.664  1.00  0.00     0.029 A 
ATOM     60  N   UNL A   1      42.747  30.799  33.067  1.00  0.00    -0.354 N 
ATOM     61  N   UNL A   1      42.151  28.742  31.082  1.00  0.00    -0.248 NA
ATOM     62  C   UNL A   1      42.791  26.869  29.839  1.00  0.00     0.031 C 
ATOM     63  C   UNL A   1      44.681  30.688  34.158  1.00  0.00     0.029 A 
ATOM     64  C   UNL A   1      43.920  30.071  33.179  1.00  0.00     0.049 A 
ATOM     65  H   UNL A   1      42.015  30.599  32.440  1.00  0.00     0.167 HD
ATOM     66  C   UNL A   1      43.420  28.342  31.479  1.00  0.00     0.074 A 
ATOM     67  C   UNL A   1      43.753  27.166  30.703  1.00  0.00     0.031 C 
ATOM     68  C   UNL A   1      44.239  28.905  32.399  1.00  0.00     0.031 A 
BRANCH  55  69
ATOM     69  C   UNL A   1      41.876  33.910  35.127  1.00  0.00    -0.014 A 
ATOM     70  C   UNL A   1      42.450  35.140  34.774  1.00  0.00     0.009 A 
ATOM     71  C   UNL A   1      41.425  33.725  36.445  1.00  0.00     0.009 A 
ATOM     72  C   UNL A   1      42.598  36.151  35.727  1.00  0.00     0.001 A 
ATOM     73  C   UNL A   1      41.549  34.745  37.388  1.00  0.00     0.001 A 
ATOM     74  C   UNL A   1      42.144  35.954  37.032  1.00  0.00     0.000 A 
ENDBRANCH  55  69
BRANCH  56  75
ATOM     75  C   UNL A   1      40.291  26.794  28.337  1.00  0.00    -0.014 A 
ATOM     76  C   UNL A   1      40.861  26.906  27.060  1.00  0.00     0.009 A 
ATOM     77  C   UNL A   1      39.507  25.668  28.635  1.00  0.00     0.009 A 
ATOM     78  C   UNL A   1      40.637  25.918  26.098  1.00  0.00     0.001 A 
ATOM     79  C   UNL A   1      39.309  24.669  27.681  1.00  0.00     0.001 A 
ATOM     80  C   UNL A   1      39.868  24.798  26.411  1.00  0.00     0.000 A 
ENDBRANCH  56  75
BRANCH  68  81
ATOM     81  C   UNL A   1      45.562  28.237  32.634  1.00  0.00    -0.014 A 
ATOM     82  C   UNL A   1      45.711  27.251  33.622  1.00  0.00     0.009 A 
ATOM     83  C   UNL A   1      46.667  28.580  31.840  1.00  0.00     0.009 A 
ATOM     84  C   UNL A   1      46.950  26.644  33.830  1.00  0.00     0.001 A 
ATOM     85  C   UNL A   1      47.899  27.953  32.034  1.00  0.00     0.001 A 
ATOM     86  C   UNL A   1      48.041  26.992  33.034  1.00  0.00     0.000 A 
ENDBRANCH  68  81
ENDBRANCH  42  43
ENDBRANCH  35  37
ENDBRANCH  34  35
ENDBRANCH  33  34
ENDBRANCH   1  33
TORSDOF 15
ENDMDL
MODEL 3
REMARK VINA RESULT:     -12.4      3.581      6.956
REMARK SMILES CS(=O)(=O)c1ccc(C2=NN(c3ccc(C(=O)OCCOC(=O)c4ccc(-c5c6nc(c(-c7ccccc7)c7ccc([nH]7)c(-c7ccccc7)c7nc(c(-c8ccccc8)c8ccc5[nH]8)C=C7)C=C6)cc4)cc3)[C@H](c3ccc(F)cc3)C2)cc1
REMARK SMILES IDX 19 1 18 2 16 3 17 4 15 5 12 6 13 7 73 8 14 9 72 10 11 11
REMARK SMILES IDX 9 12 10 13 82 14 74 15 8 16 5 17 6 18 84 19 7 20 83 21 2 22
REMARK SMILES IDX 1 23 3 24 4 25 75 26 76 27 81 28 77 29 80 30 78 31 79 32
REMARK SMILES IDX 20 33 21 34 22 35 23 36 24 37 25 38 71 39 26 40 70 41 27 42
REMARK SMILES IDX 28 43 29 44 64 45 30 46 69 47 63 48 65 49 31 50 68 51 62 52
REMARK SMILES IDX 61 53 32 55 54 56 39 57 53 58 40 59 43 60 52 61 66 62 41 63
REMARK SMILES IDX 42 64 51 66 67 67 44 68 33 69 34 70 38 71 35 72 37 73 36 74
REMARK SMILES IDX 55 75 56 76 60 77 57 78 59 79 58 80 45 81 46 82 50 83 47 84
REMARK SMILES IDX 49 85 48 86
REMARK H PARENT 65 54 43 65
REMARK Flexibility Score: inf
ROOT
ATOM      1  C   UNL A   1      34.021  33.741  29.268  1.00  0.00     0.275 C 
ENDROOT
BRANCH   1   2
ATOM      2  O   UNL A   1      33.623  32.433  28.814  1.00  0.00    -0.458 OA
BRANCH   2   3
ATOM      3  C   UNL A   1      34.337  31.928  27.779  1.00  0.00     0.338 C 
ATOM      4  O   UNL A   1      35.393  32.362  27.346  1.00  0.00    -0.246 OA
BRANCH   3   5
ATOM      5  C   UNL A   1      33.712  30.688  27.252  1.00  0.00     0.060 A 
ATOM      6  C   UNL A   1      32.670  28.323  26.149  1.00  0.00     0.060 A 
ATOM      7  C   UNL A   1      34.007  28.384  26.547  1.00  0.00     0.029 A 
ATOM      8  C   UNL A   1      31.847  29.438  26.363  1.00  0.00     0.029 A 
ATOM      9  C   UNL A   1      34.533  29.568  27.061  1.00  0.00     0.018 A 
ATOM     10  C   UNL A   1      32.357  30.615  26.919  1.00  0.00     0.018 A 
BRANCH   6  11
ATOM     11  N   UNL A   1      32.193  27.237  25.404  1.00  0.00    -0.257 N 
ATOM     12  C   UNL A   1      32.522  25.216  24.798  1.00  0.00     0.071 C 
ATOM     13  N   UNL A   1      32.437  25.972  25.848  1.00  0.00    -0.176 NA
ATOM     14  C   UNL A   1      32.440  25.917  23.470  1.00  0.00     0.091 C 
ATOM     15  C   UNL A   1      32.253  27.363  23.939  1.00  0.00     0.144 C 
BRANCH  12  16
ATOM     16  C   UNL A   1      32.646  23.750  24.872  1.00  0.00    -0.002 A 
ATOM     17  C   UNL A   1      32.960  20.985  24.841  1.00  0.00     0.067 A 
ATOM     18  C   UNL A   1      32.139  21.596  23.889  1.00  0.00     0.021 A 
ATOM     19  C   UNL A   1      33.609  21.746  25.820  1.00  0.00     0.021 A 
ATOM     20  C   UNL A   1      31.970  22.981  23.918  1.00  0.00     0.011 A 
ATOM     21  C   UNL A   1      33.461  23.136  25.829  1.00  0.00     0.011 A 
BRANCH  17  22
ATOM     22  S   UNL A   1      33.227  19.228  24.773  1.00  0.00     0.175 S 
ATOM     23  C   UNL A   1      32.475  18.697  23.258  1.00  0.00     0.163 C 
ATOM     24  O   UNL A   1      32.474  18.633  25.859  1.00  0.00    -0.224 OA
ATOM     25  O   UNL A   1      34.660  19.037  24.663  1.00  0.00    -0.224 OA
ENDBRANCH  17  22
ENDBRANCH  12  16
BRANCH  15  26
ATOM     26  C   UNL A   1      31.040  28.130  23.441  1.00  0.00    -0.023 A 
ATOM     27  C   UNL A   1      31.134  29.283  22.646  1.00  0.00     0.009 A 
ATOM     28  C   UNL A   1      29.758  27.592  23.687  1.00  0.00     0.009 A 
ATOM     29  C   UNL A   1      29.984  29.882  22.123  1.00  0.00     0.039 A 
ATOM     30  C   UNL A   1      28.614  28.176  23.145  1.00  0.00     0.039 A 
ATOM     31  C   UNL A   1      28.738  29.318  22.369  1.00  0.00     0.123 A 
ATOM     32  F   UNL A   1      27.644  29.873  21.833  1.00  0.00    -0.207 F 
ENDBRANCH  15  26
ENDBRANCH   6  11
ENDBRANCH   3   5
ENDBRANCH   2   3
ENDBRANCH   1   2
BRANCH   1  33
ATOM     33  C   UNL A   1      34.404  33.704  30.747  1.00  0.00     0.275 C 
BRANCH  33  34
ATOM     34  O   UNL A   1      34.556  32.338  31.178  1.00  0.00    -0.458 OA
BRANCH  34  35
ATOM     35  C   UNL A   1      35.517  32.116  32.103  1.00  0.00     0.338 C 
ATOM     36  O   UNL A   1      35.507  32.423  33.282  1.00  0.00    -0.246 OA
BRANCH  35  37
ATOM     37  C   UNL A   1      36.637  31.397  31.477  1.00  0.00     0.060 A 
ATOM     38  C   UNL A   1      37.589  30.790  32.290  1.00  0.00     0.016 A 
ATOM     39  C   UNL A   1      36.817  31.438  30.097  1.00  0.00     0.016 A 
ATOM     40  C   UNL A   1      38.761  30.278  31.741  1.00  0.00     0.010 A 
ATOM     41  C   UNL A   1      37.959  30.853  29.536  1.00  0.00     0.010 A 
ATOM     42  C   UNL A   1      38.961  30.296  30.354  1.00  0.00    -0.014 A 
BRANCH  42  43
ATOM     43  C   UNL A   1      40.234  29.789  29.769  1.00  0.00     0.031 A 
ATOM     44  C   UNL A   1      41.428  30.701  29.652  1.00  0.00     0.074 A 
ATOM     45  C   UNL A   1      40.340  28.510  29.357  1.00  0.00     0.049 A 
ATOM     46  N   UNL A   1      42.565  30.501  29.033  1.00  0.00    -0.248 NA
ATOM     47  C   UNL A   1      41.326  32.013  30.309  1.00  0.00     0.031 C 
ATOM     48  C   UNL A   1      39.290  27.493  29.457  1.00  0.00     0.029 A 
ATOM     49  N   UNL A   1      41.392  27.842  28.778  1.00  0.00    -0.354 N 
ATOM     50  C   UNL A   1      43.287  31.680  29.177  1.00  0.00     0.074 A 
ATOM     51  C   UNL A   1      42.461  32.591  29.940  1.00  0.00     0.031 C 
ATOM     52  C   UNL A   1      39.763  26.326  28.992  1.00  0.00     0.029 A 
ATOM     53  C   UNL A   1      41.115  26.528  28.486  1.00  0.00     0.049 A 
ATOM     54  H   UNL A   1      42.261  28.264  28.591  1.00  0.00     0.167 HD
ATOM     55  C   UNL A   1      44.524  31.980  28.712  1.00  0.00     0.031 A 
ATOM     56  C   UNL A   1      41.848  25.596  27.846  1.00  0.00     0.031 A 
ATOM     57  C   UNL A   1      45.367  31.064  27.991  1.00  0.00     0.049 A 
ATOM     58  C   UNL A   1      43.201  25.965  27.307  1.00  0.00     0.074 A 
ATOM     59  C   UNL A   1      46.640  31.277  27.489  1.00  0.00     0.029 A 
ATOM     60  N   UNL A   1      45.029  29.756  27.684  1.00  0.00    -0.354 N 
ATOM     61  N   UNL A   1      43.847  27.101  27.401  1.00  0.00    -0.248 NA
ATOM     62  C   UNL A   1      43.918  24.923  26.556  1.00  0.00     0.031 C 
ATOM     63  C   UNL A   1      47.058  30.106  26.846  1.00  0.00     0.029 A 
ATOM     64  C   UNL A   1      46.064  29.153  26.988  1.00  0.00     0.049 A 
ATOM     65  H   UNL A   1      44.180  29.321  27.925  1.00  0.00     0.167 HD
ATOM     66  C   UNL A   1      45.048  26.910  26.730  1.00  0.00     0.074 A 
ATOM     67  C   UNL A   1      45.052  25.542  26.256  1.00  0.00     0.031 C 
ATOM     68  C   UNL A   1      46.053  27.793  26.520  1.00  0.00     0.031 A 
BRANCH  55  69
ATOM     69  C   UNL A   1      45.029  33.378  28.935  1.00  0.00    -0.014 A 
ATOM     70  C   UNL A   1      44.744  34.416  28.035  1.00  0.00     0.009 A 
ATOM     71  C   UNL A   1      45.770  33.667  30.092  1.00  0.00     0.009 A 
ATOM     72  C   UNL A   1      45.219  35.708  28.273  1.00  0.00     0.001 A 
ATOM     73  C   UNL A   1      46.220  34.964  30.342  1.00  0.00     0.001 A 
ATOM     74  C   UNL A   1      45.952  35.982  29.428  1.00  0.00     0.000 A 
ENDBRANCH  55  69
BRANCH  56  75
ATOM     75  C   UNL A   1      41.294  24.234  27.631  1.00  0.00    -0.014 A 
ATOM     76  C   UNL A   1      41.793  23.138  28.351  1.00  0.00     0.009 A 
ATOM     77  C   UNL A   1      40.265  24.024  26.700  1.00  0.00     0.009 A 
ATOM     78  C   UNL A   1      41.281  21.857  28.131  1.00  0.00     0.001 A 
ATOM     79  C   UNL A   1      39.735  22.748  26.504  1.00  0.00     0.001 A 
ATOM     80  C   UNL A   1      40.248  21.664  27.213  1.00  0.00     0.000 A 
ENDBRANCH  56  75
BRANCH  68  81
ATOM     81  C   UNL A   1      47.252  27.294  25.767  1.00  0.00    -0.014 A 
ATOM     82  C   UNL A   1      47.359  27.466  24.379  1.00  0.00     0.009 A 
ATOM     83  C   UNL A   1      48.300  26.668  26.460  1.00  0.00     0.009 A 
ATOM     84  C   UNL A   1      48.480  26.992  23.694  1.00  0.00     0.001 A 
ATOM     85  C   UNL A   1      49.430  26.217  25.776  1.00  0.00     0.001 A 
ATOM     86  C   UNL A   1      49.514  26.372  24.394  1.00  0.00     0.000 A 
ENDBRANCH  68  81
ENDBRANCH  42  43
ENDBRANCH  35  37
ENDBRANCH  34  35
ENDBRANCH  33  34
ENDBRANCH   1  33
TORSDOF 15
ENDMDL
