MODEL 1
REMARK VINA RESULT:     -10.4      0.000      0.000
REMARK SMILES C[C@@H]1CN(C(=O)C[N@H+]2CCO[C@H](CC(=O)OCCOC(=O)c3ccc(-c4c5nc(c(-c6ccccc6)c6ccc([nH]6)c(-c6ccccc6)c6nc(c(-c7ccccc7)c7ccc4[nH]7)C=C6)C=C5)cc3)C2)C[C@H](C)O1
REMARK SMILES IDX 17 1 16 2 14 3 15 4 13 5 12 6 8 7 9 8 70 9 10 11 11 12 7 13
REMARK SMILES IDX 5 14 6 15 4 16 1 17 2 18 3 19 74 20 72 21 71 22 73 23 18 24
REMARK SMILES IDX 19 25 20 26 21 27 22 28 23 29 69 30 24 31 68 32 25 33 26 34
REMARK SMILES IDX 27 35 62 36 28 37 67 38 61 39 63 40 29 41 66 42 60 43 59 44
REMARK SMILES IDX 30 46 52 47 37 48 51 49 38 50 41 51 50 52 64 53 39 54 40 55
REMARK SMILES IDX 49 57 65 58 42 59 31 60 32 61 36 62 33 63 35 64 34 65 53 66
REMARK SMILES IDX 54 67 58 68 55 69 57 70 56 71 43 72 44 73 48 74 45 75 47 76
REMARK SMILES IDX 46 77
REMARK H PARENT 8 10 63 45 41 56
REMARK Flexibility Score: inf
ROOT
ATOM      1  C   UNL A   1      31.470  32.049  26.779  1.00  0.00     0.274 C 
ENDROOT
BRANCH   1   2
ATOM      2  O   UNL A   1      32.408  31.050  27.217  1.00  0.00    -0.462 OA
BRANCH   2   3
ATOM      3  C   UNL A   1      32.249  29.791  26.743  1.00  0.00     0.308 C 
ATOM      4  O   UNL A   1      31.812  28.849  27.396  1.00  0.00    -0.252 OA
BRANCH   3   5
ATOM      5  C   UNL A   1      32.716  29.632  25.314  1.00  0.00     0.160 C 
BRANCH   5   6
ATOM      6  C   UNL A   1      31.829  28.709  24.480  1.00  0.00     0.184 C 
ATOM      7  N   UNL A   1      31.631  27.651  22.152  1.00  0.00    -0.323 N 
ATOM      8  C   UNL A   1      30.330  28.346  22.096  1.00  0.00     0.291 C 
ATOM      9  C   UNL A   1      32.512  28.329  23.134  1.00  0.00     0.295 C 
ATOM     10  H   UNL A   1      32.078  27.707  21.237  1.00  0.00     0.348 HD
ATOM     11  C   UNL A   1      29.708  28.608  23.466  1.00  0.00     0.222 C 
ATOM     12  O   UNL A   1      30.598  29.414  24.237  1.00  0.00    -0.366 OA
BRANCH   7  13
ATOM     13  C   UNL A   1      31.474  26.209  22.424  1.00  0.00     0.363 C 
BRANCH  13  14
ATOM     14  C   UNL A   1      32.774  25.446  22.108  1.00  0.00     0.277 C 
ATOM     15  O   UNL A   1      33.290  25.551  20.990  1.00  0.00    -0.268 OA
BRANCH  14  16
ATOM     16  N   UNL A   1      33.369  24.706  23.121  1.00  0.00    -0.333 N 
ATOM     17  C   UNL A   1      31.026  23.799  25.141  1.00  0.00     0.040 C 
ATOM     18  C   UNL A   1      32.546  23.773  25.260  1.00  0.00     0.135 C 
ATOM     19  C   UNL A   1      33.252  24.947  24.556  1.00  0.00     0.151 C 
ATOM     20  O   UNL A   1      33.090  22.491  24.899  1.00  0.00    -0.372 OA
ATOM     21  C   UNL A   1      33.365  22.268  23.501  1.00  0.00     0.135 C 
ATOM     22  C   UNL A   1      34.062  23.458  22.823  1.00  0.00     0.151 C 
ATOM     23  C   UNL A   1      32.134  21.804  22.730  1.00  0.00     0.040 C 
ENDBRANCH  14  16
ENDBRANCH  13  14
ENDBRANCH   7  13
ENDBRANCH   5   6
ENDBRANCH   3   5
ENDBRANCH   2   3
ENDBRANCH   1   2
BRANCH   1  24
ATOM     24  C   UNL A   1      32.105  33.441  26.797  1.00  0.00     0.275 C 
BRANCH  24  25
ATOM     25  O   UNL A   1      32.223  33.932  28.144  1.00  0.00    -0.458 OA
BRANCH  25  26
ATOM     26  C   UNL A   1      33.315  34.690  28.394  1.00  0.00     0.338 C 
ATOM     27  O   UNL A   1      33.407  35.903  28.365  1.00  0.00    -0.246 OA
BRANCH  26  28
ATOM     28  C   UNL A   1      34.413  33.816  28.822  1.00  0.00     0.060 A 
ATOM     29  C   UNL A   1      34.106  32.582  29.403  1.00  0.00     0.016 A 
ATOM     30  C   UNL A   1      35.735  34.254  28.728  1.00  0.00     0.016 A 
ATOM     31  C   UNL A   1      35.125  31.779  29.909  1.00  0.00     0.010 A 
ATOM     32  C   UNL A   1      36.755  33.448  29.234  1.00  0.00     0.010 A 
ATOM     33  C   UNL A   1      36.455  32.215  29.841  1.00  0.00    -0.014 A 
BRANCH  33  34
ATOM     34  C   UNL A   1      37.536  31.426  30.473  1.00  0.00     0.031 A 
ATOM     35  C   UNL A   1      37.855  31.644  31.924  1.00  0.00     0.074 A 
ATOM     36  C   UNL A   1      38.239  30.536  29.751  1.00  0.00     0.049 A 
ATOM     37  N   UNL A   1      38.849  31.174  32.632  1.00  0.00    -0.248 NA
ATOM     38  C   UNL A   1      36.932  32.511  32.675  1.00  0.00     0.031 C 
ATOM     39  C   UNL A   1      37.990  30.195  28.350  1.00  0.00     0.029 A 
ATOM     40  N   UNL A   1      39.319  29.766  30.099  1.00  0.00    -0.354 N 
ATOM     41  C   UNL A   1      38.689  31.709  33.904  1.00  0.00     0.074 A 
ATOM     42  C   UNL A   1      37.509  32.546  33.868  1.00  0.00     0.031 C 
ATOM     43  C   UNL A   1      38.899  29.289  27.955  1.00  0.00     0.029 A 
ATOM     44  C   UNL A   1      39.820  29.024  29.058  1.00  0.00     0.049 A 
ATOM     45  H   UNL A   1      39.699  29.747  31.007  1.00  0.00     0.167 HD
ATOM     46  C   UNL A   1      39.459  31.520  35.001  1.00  0.00     0.031 A 
ATOM     47  C   UNL A   1      40.915  28.244  28.994  1.00  0.00     0.031 A 
ATOM     48  C   UNL A   1      40.628  30.682  35.036  1.00  0.00     0.049 A 
ATOM     49  C   UNL A   1      41.790  28.099  30.208  1.00  0.00     0.074 A 
ATOM     50  C   UNL A   1      41.474  30.426  36.100  1.00  0.00     0.029 A 
ATOM     51  N   UNL A   1      41.108  29.959  33.956  1.00  0.00    -0.354 N 
ATOM     52  N   UNL A   1      41.642  28.626  31.401  1.00  0.00    -0.248 NA
ATOM     53  C   UNL A   1      42.985  27.255  30.066  1.00  0.00     0.031 C 
ATOM     54  C   UNL A   1      42.491  29.576  35.653  1.00  0.00     0.029 A 
ATOM     55  C   UNL A   1      42.249  29.266  34.324  1.00  0.00     0.049 A 
ATOM     56  H   UNL A   1      40.701  29.941  33.060  1.00  0.00     0.167 HD
ATOM     57  C   UNL A   1      42.706  28.153  32.157  1.00  0.00     0.074 A 
ATOM     58  C   UNL A   1      43.489  27.295  31.293  1.00  0.00     0.031 C 
ATOM     59  C   UNL A   1      43.006  28.407  33.454  1.00  0.00     0.031 A 
BRANCH  46  60
ATOM     60  C   UNL A   1      39.077  32.264  36.247  1.00  0.00    -0.014 A 
ATOM     61  C   UNL A   1      39.642  33.512  36.553  1.00  0.00     0.009 A 
ATOM     62  C   UNL A   1      38.114  31.722  37.112  1.00  0.00     0.009 A 
ATOM     63  C   UNL A   1      39.271  34.187  37.718  1.00  0.00     0.001 A 
ATOM     64  C   UNL A   1      37.728  32.410  38.263  1.00  0.00     0.001 A 
ATOM     65  C   UNL A   1      38.312  33.638  38.569  1.00  0.00     0.000 A 
ENDBRANCH  46  60
BRANCH  47  66
ATOM     66  C   UNL A   1      41.266  27.561  27.724  1.00  0.00    -0.014 A 
ATOM     67  C   UNL A   1      41.927  28.256  26.700  1.00  0.00     0.009 A 
ATOM     68  C   UNL A   1      40.934  26.211  27.526  1.00  0.00     0.009 A 
ATOM     69  C   UNL A   1      42.230  27.617  25.495  1.00  0.00     0.001 A 
ATOM     70  C   UNL A   1      41.261  25.569  26.330  1.00  0.00     0.001 A 
ATOM     71  C   UNL A   1      41.901  26.276  25.313  1.00  0.00     0.000 A 
ENDBRANCH  47  66
BRANCH  59  72
ATOM     72  C   UNL A   1      44.202  27.708  34.032  1.00  0.00    -0.014 A 
ATOM     73  C   UNL A   1      44.111  26.403  34.536  1.00  0.00     0.009 A 
ATOM     74  C   UNL A   1      45.449  28.351  34.020  1.00  0.00     0.009 A 
ATOM     75  C   UNL A   1      45.244  25.763  35.041  1.00  0.00     0.001 A 
ATOM     76  C   UNL A   1      46.585  27.701  34.505  1.00  0.00     0.001 A 
ATOM     77  C   UNL A   1      46.480  26.411  35.021  1.00  0.00     0.000 A 
ENDBRANCH  59  72
ENDBRANCH  33  34
ENDBRANCH  26  28
ENDBRANCH  25  26
ENDBRANCH  24  25
ENDBRANCH   1  24
TORSDOF 15
ENDMDL
MODEL 2
REMARK VINA RESULT:     -10.4      3.962      9.306
REMARK SMILES C[C@@H]1CN(C(=O)C[N@H+]2CCO[C@H](CC(=O)OCCOC(=O)c3ccc(-c4c5nc(c(-c6ccccc6)c6ccc([nH]6)c(-c6ccccc6)c6nc(c(-c7ccccc7)c7ccc4[nH]7)C=C6)C=C5)cc3)C2)C[C@H](C)O1
REMARK SMILES IDX 17 1 16 2 14 3 15 4 13 5 12 6 8 7 9 8 70 9 10 11 11 12 7 13
REMARK SMILES IDX 5 14 6 15 4 16 1 17 2 18 3 19 74 20 72 21 71 22 73 23 18 24
REMARK SMILES IDX 19 25 20 26 21 27 22 28 23 29 69 30 24 31 68 32 25 33 26 34
REMARK SMILES IDX 27 35 62 36 28 37 67 38 61 39 63 40 29 41 66 42 60 43 59 44
REMARK SMILES IDX 30 46 52 47 37 48 51 49 38 50 41 51 50 52 64 53 39 54 40 55
REMARK SMILES IDX 49 57 65 58 42 59 31 60 32 61 36 62 33 63 35 64 34 65 53 66
REMARK SMILES IDX 54 67 58 68 55 69 57 70 56 71 43 72 44 73 48 74 45 75 47 76
REMARK SMILES IDX 46 77
REMARK H PARENT 8 10 63 45 41 56
REMARK Flexibility Score: inf
ROOT
ATOM      1  C   UNL A   1      38.526  21.010  25.754  1.00  0.00     0.274 C 
ENDROOT
BRANCH   1   2
ATOM      2  O   UNL A   1      37.546  21.303  24.742  1.00  0.00    -0.462 OA
BRANCH   2   3
ATOM      3  C   UNL A   1      37.038  22.559  24.708  1.00  0.00     0.308 C 
ATOM      4  O   UNL A   1      36.953  23.304  25.678  1.00  0.00    -0.252 OA
BRANCH   3   5
ATOM      5  C   UNL A   1      36.524  22.954  23.341  1.00  0.00     0.160 C 
BRANCH   5   6
ATOM      6  C   UNL A   1      35.001  23.061  23.270  1.00  0.00     0.184 C 
ATOM      7  N   UNL A   1      33.040  24.539  24.009  1.00  0.00    -0.323 N 
ATOM      8  C   UNL A   1      32.554  23.321  24.687  1.00  0.00     0.291 C 
ATOM      9  C   UNL A   1      34.505  24.438  23.799  1.00  0.00     0.295 C 
ATOM     10  H   UNL A   1      32.862  25.346  24.607  1.00  0.00     0.348 HD
ATOM     11  C   UNL A   1      33.039  22.021  24.048  1.00  0.00     0.222 C 
ATOM     12  O   UNL A   1      34.465  21.993  24.071  1.00  0.00    -0.366 OA
BRANCH   7  13
ATOM     13  C   UNL A   1      32.300  24.806  22.760  1.00  0.00     0.363 C 
BRANCH  13  14
ATOM     14  C   UNL A   1      32.786  26.110  22.102  1.00  0.00     0.277 C 
ATOM     15  O   UNL A   1      33.653  26.068  21.222  1.00  0.00    -0.268 OA
BRANCH  14  16
ATOM     16  N   UNL A   1      32.183  27.303  22.477  1.00  0.00    -0.333 N 
ATOM     17  C   UNL A   1      30.597  26.747  25.228  1.00  0.00     0.040 C 
ATOM     18  C   UNL A   1      30.565  27.915  24.247  1.00  0.00     0.135 C 
ATOM     19  C   UNL A   1      30.769  27.505  22.776  1.00  0.00     0.151 C 
ATOM     20  O   UNL A   1      31.435  28.984  24.659  1.00  0.00    -0.372 OA
ATOM     21  C   UNL A   1      32.815  28.899  24.250  1.00  0.00     0.135 C 
ATOM     22  C   UNL A   1      32.988  28.481  22.781  1.00  0.00     0.151 C 
ATOM     23  C   UNL A   1      33.653  28.045  25.195  1.00  0.00     0.040 C 
ENDBRANCH  14  16
ENDBRANCH  13  14
ENDBRANCH   7  13
ENDBRANCH   5   6
ENDBRANCH   3   5
ENDBRANCH   2   3
ENDBRANCH   1   2
BRANCH   1  24
ATOM     24  C   UNL A   1      39.343  19.772  25.381  1.00  0.00     0.275 C 
BRANCH  24  25
ATOM     25  O   UNL A   1      40.305  19.466  26.405  1.00  0.00    -0.458 OA
BRANCH  25  26
ATOM     26  C   UNL A   1      41.600  19.628  26.054  1.00  0.00     0.338 C 
ATOM     27  O   UNL A   1      42.298  18.877  25.398  1.00  0.00    -0.246 OA
BRANCH  26  28
ATOM     28  C   UNL A   1      42.056  20.946  26.510  1.00  0.00     0.060 A 
ATOM     29  C   UNL A   1      41.870  21.297  27.851  1.00  0.00     0.016 A 
ATOM     30  C   UNL A   1      42.584  21.861  25.597  1.00  0.00     0.016 A 
ATOM     31  C   UNL A   1      42.201  22.577  28.287  1.00  0.00     0.010 A 
ATOM     32  C   UNL A   1      42.917  23.143  26.036  1.00  0.00     0.010 A 
ATOM     33  C   UNL A   1      42.713  23.513  27.378  1.00  0.00    -0.014 A 
BRANCH  33  34
ATOM     34  C   UNL A   1      42.964  24.909  27.800  1.00  0.00     0.031 A 
ATOM     35  C   UNL A   1      44.365  25.340  28.124  1.00  0.00     0.074 A 
ATOM     36  C   UNL A   1      41.944  25.779  27.910  1.00  0.00     0.049 A 
ATOM     37  N   UNL A   1      44.785  26.460  28.651  1.00  0.00    -0.248 NA
ATOM     38  C   UNL A   1      45.434  24.375  27.820  1.00  0.00     0.031 C 
ATOM     39  C   UNL A   1      40.549  25.498  27.571  1.00  0.00     0.029 A 
ATOM     40  N   UNL A   1      41.930  27.077  28.353  1.00  0.00    -0.354 N 
ATOM     41  C   UNL A   1      46.162  26.328  28.766  1.00  0.00     0.074 A 
ATOM     42  C   UNL A   1      46.506  25.015  28.265  1.00  0.00     0.031 C 
ATOM     43  C   UNL A   1      39.811  26.590  27.828  1.00  0.00     0.029 A 
ATOM     44  C   UNL A   1      40.672  27.627  28.392  1.00  0.00     0.049 A 
ATOM     45  H   UNL A   1      42.741  27.567  28.618  1.00  0.00     0.167 HD
ATOM     46  C   UNL A   1      47.058  27.220  29.249  1.00  0.00     0.031 A 
ATOM     47  C   UNL A   1      40.259  28.820  28.860  1.00  0.00     0.031 A 
ATOM     48  C   UNL A   1      46.714  28.528  29.741  1.00  0.00     0.049 A 
ATOM     49  C   UNL A   1      41.265  29.769  29.450  1.00  0.00     0.074 A 
ATOM     50  C   UNL A   1      47.551  29.505  30.251  1.00  0.00     0.029 A 
ATOM     51  N   UNL A   1      45.428  29.040  29.777  1.00  0.00    -0.354 N 
ATOM     52  N   UNL A   1      42.563  29.626  29.574  1.00  0.00    -0.248 NA
ATOM     53  C   UNL A   1      40.747  31.045  29.966  1.00  0.00     0.031 C 
ATOM     54  C   UNL A   1      46.764  30.598  30.630  1.00  0.00     0.029 A 
ATOM     55  C   UNL A   1      45.445  30.317  30.313  1.00  0.00     0.049 A 
ATOM     56  H   UNL A   1      44.621  28.568  29.467  1.00  0.00     0.167 HD
ATOM     57  C   UNL A   1      43.019  30.802  30.154  1.00  0.00     0.074 A 
ATOM     58  C   UNL A   1      41.862  31.650  30.354  1.00  0.00     0.031 C 
ATOM     59  C   UNL A   1      44.285  31.149  30.490  1.00  0.00     0.031 A 
BRANCH  46  60
ATOM     60  C   UNL A   1      48.496  26.794  29.301  1.00  0.00    -0.014 A 
ATOM     61  C   UNL A   1      49.006  26.079  30.395  1.00  0.00     0.009 A 
ATOM     62  C   UNL A   1      49.346  27.086  28.223  1.00  0.00     0.009 A 
ATOM     63  C   UNL A   1      50.348  25.692  30.422  1.00  0.00     0.001 A 
ATOM     64  C   UNL A   1      50.680  26.677  28.240  1.00  0.00     0.001 A 
ATOM     65  C   UNL A   1      51.182  25.987  29.343  1.00  0.00     0.000 A 
ENDBRANCH  46  60
BRANCH  47  66
ATOM     66  C   UNL A   1      38.818  29.174  28.819  1.00  0.00    -0.014 A 
ATOM     67  C   UNL A   1      38.248  29.703  27.652  1.00  0.00     0.009 A 
ATOM     68  C   UNL A   1      38.007  28.991  29.951  1.00  0.00     0.009 A 
ATOM     69  C   UNL A   1      36.898  30.063  27.627  1.00  0.00     0.001 A 
ATOM     70  C   UNL A   1      36.653  29.328  29.914  1.00  0.00     0.001 A 
ATOM     71  C   UNL A   1      36.102  29.871  28.754  1.00  0.00     0.000 A 
ENDBRANCH  47  66
BRANCH  59  72
ATOM     72  C   UNL A   1      44.493  32.522  31.059  1.00  0.00    -0.014 A 
ATOM     73  C   UNL A   1      44.475  32.748  32.443  1.00  0.00     0.009 A 
ATOM     74  C   UNL A   1      44.765  33.594  30.194  1.00  0.00     0.009 A 
ATOM     75  C   UNL A   1      44.702  34.030  32.950  1.00  0.00     0.001 A 
ATOM     76  C   UNL A   1      45.013  34.868  30.704  1.00  0.00     0.001 A 
ATOM     77  C   UNL A   1      44.975  35.087  32.080  1.00  0.00     0.000 A 
ENDBRANCH  59  72
ENDBRANCH  33  34
ENDBRANCH  26  28
ENDBRANCH  25  26
ENDBRANCH  24  25
ENDBRANCH   1  24
TORSDOF 15
ENDMDL
MODEL 3
REMARK VINA RESULT:     -10.3      5.902     11.263
REMARK SMILES C[C@@H]1CN(C(=O)C[N@H+]2CCO[C@H](CC(=O)OCCOC(=O)c3ccc(-c4c5nc(c(-c6ccccc6)c6ccc([nH]6)c(-c6ccccc6)c6nc(c(-c7ccccc7)c7ccc4[nH]7)C=C6)C=C5)cc3)C2)C[C@H](C)O1
REMARK SMILES IDX 17 1 16 2 14 3 15 4 13 5 12 6 8 7 9 8 70 9 10 11 11 12 7 13
REMARK SMILES IDX 5 14 6 15 4 16 1 17 2 18 3 19 74 20 72 21 71 22 73 23 18 24
REMARK SMILES IDX 19 25 20 26 21 27 22 28 23 29 69 30 24 31 68 32 25 33 26 34
REMARK SMILES IDX 27 35 62 36 28 37 67 38 61 39 63 40 29 41 66 42 60 43 59 44
REMARK SMILES IDX 30 46 52 47 37 48 51 49 38 50 41 51 50 52 64 53 39 54 40 55
REMARK SMILES IDX 49 57 65 58 42 59 31 60 32 61 36 62 33 63 35 64 34 65 53 66
REMARK SMILES IDX 54 67 58 68 55 69 57 70 56 71 43 72 44 73 48 74 45 75 47 76
REMARK SMILES IDX 46 77
REMARK H PARENT 8 10 63 45 41 56
REMARK Flexibility Score: inf
ROOT
ATOM      1  C   UNL A   1      42.259  19.020  26.761  1.00  0.00     0.274 C 
ENDROOT
BRANCH   1   2
ATOM      2  O   UNL A   1      42.512  20.403  27.066  1.00  0.00    -0.462 OA
BRANCH   2   3
ATOM      3  C   UNL A   1      41.438  21.215  27.224  1.00  0.00     0.308 C 
ATOM      4  O   UNL A   1      41.169  21.823  28.254  1.00  0.00    -0.252 OA
BRANCH   3   5
ATOM      5  C   UNL A   1      40.550  21.268  26.001  1.00  0.00     0.160 C 
BRANCH   5   6
ATOM      6  C   UNL A   1      39.194  21.921  26.260  1.00  0.00     0.184 C 
ATOM      7  N   UNL A   1      36.894  22.302  25.190  1.00  0.00    -0.323 N 
ATOM      8  C   UNL A   1      37.204  23.736  25.360  1.00  0.00     0.291 C 
ATOM      9  C   UNL A   1      38.156  21.523  25.171  1.00  0.00     0.295 C 
ATOM     10  H   UNL A   1      36.426  22.167  24.294  1.00  0.00     0.348 HD
ATOM     11  C   UNL A   1      38.176  24.029  26.501  1.00  0.00     0.222 C 
ATOM     12  O   UNL A   1      39.403  23.345  26.256  1.00  0.00    -0.366 OA
BRANCH   7  13
ATOM     13  C   UNL A   1      35.939  21.821  26.208  1.00  0.00     0.363 C 
BRANCH  13  14
ATOM     14  C   UNL A   1      34.623  21.365  25.552  1.00  0.00     0.277 C 
ATOM     15  O   UNL A   1      34.567  20.268  24.986  1.00  0.00    -0.268 OA
BRANCH  14  16
ATOM     16  N   UNL A   1      33.507  22.181  25.675  1.00  0.00    -0.333 N 
ATOM     17  C   UNL A   1      34.014  24.774  23.826  1.00  0.00     0.040 C 
ATOM     18  C   UNL A   1      32.975  24.471  24.902  1.00  0.00     0.135 C 
ATOM     19  C   UNL A   1      33.499  23.591  26.053  1.00  0.00     0.151 C 
ATOM     20  O   UNL A   1      31.745  23.984  24.336  1.00  0.00    -0.372 OA
ATOM     21  C   UNL A   1      31.655  22.567  24.091  1.00  0.00     0.135 C 
ATOM     22  C   UNL A   1      32.192  21.714  25.251  1.00  0.00     0.151 C 
ATOM     23  C   UNL A   1      32.263  22.166  22.751  1.00  0.00     0.040 C 
ENDBRANCH  14  16
ENDBRANCH  13  14
ENDBRANCH   7  13
ENDBRANCH   5   6
ENDBRANCH   3   5
ENDBRANCH   2   3
ENDBRANCH   1   2
BRANCH   1  24
ATOM     24  C   UNL A   1      43.340  18.458  25.836  1.00  0.00     0.275 C 
BRANCH  24  25
ATOM     25  O   UNL A   1      43.449  19.247  24.638  1.00  0.00    -0.458 OA
BRANCH  25  26
ATOM     26  C   UNL A   1      44.710  19.549  24.253  1.00  0.00     0.338 C 
ATOM     27  O   UNL A   1      45.504  18.837  23.665  1.00  0.00    -0.246 OA
BRANCH  26  28
ATOM     28  C   UNL A   1      44.981  20.956  24.570  1.00  0.00     0.060 A 
ATOM     29  C   UNL A   1      45.641  21.262  25.764  1.00  0.00     0.016 A 
ATOM     30  C   UNL A   1      44.508  21.967  23.733  1.00  0.00     0.016 A 
ATOM     31  C   UNL A   1      45.821  22.592  26.136  1.00  0.00     0.010 A 
ATOM     32  C   UNL A   1      44.691  23.299  24.107  1.00  0.00     0.010 A 
ATOM     33  C   UNL A   1      45.333  23.618  25.317  1.00  0.00    -0.014 A 
BRANCH  33  34
ATOM     34  C   UNL A   1      45.417  25.030  25.752  1.00  0.00     0.031 A 
ATOM     35  C   UNL A   1      46.744  25.732  25.723  1.00  0.00     0.074 A 
ATOM     36  C   UNL A   1      44.319  25.673  26.187  1.00  0.00     0.049 A 
ATOM     37  N   UNL A   1      47.068  26.908  26.195  1.00  0.00    -0.248 NA
ATOM     38  C   UNL A   1      47.854  25.010  25.081  1.00  0.00     0.031 C 
ATOM     39  C   UNL A   1      42.965  25.119  26.211  1.00  0.00     0.029 A 
ATOM     40  N   UNL A   1      44.177  26.935  26.706  1.00  0.00    -0.354 N 
ATOM     41  C   UNL A   1      48.423  27.057  25.933  1.00  0.00     0.074 A 
ATOM     42  C   UNL A   1      48.863  25.848  25.270  1.00  0.00     0.031 C 
ATOM     43  C   UNL A   1      42.130  26.034  26.728  1.00  0.00     0.029 A 
ATOM     44  C   UNL A   1      42.897  27.217  27.114  1.00  0.00     0.049 A 
ATOM     45  H   UNL A   1      44.920  27.575  26.779  1.00  0.00     0.167 HD
ATOM     46  C   UNL A   1      49.228  28.106  26.221  1.00  0.00     0.031 A 
ATOM     47  C   UNL A   1      42.406  28.294  27.755  1.00  0.00     0.031 A 
ATOM     48  C   UNL A   1      48.787  29.309  26.875  1.00  0.00     0.049 A 
ATOM     49  C   UNL A   1      43.332  29.420  28.121  1.00  0.00     0.074 A 
ATOM     50  C   UNL A   1      49.528  30.429  27.211  1.00  0.00     0.029 A 
ATOM     51  N   UNL A   1      47.486  29.549  27.284  1.00  0.00    -0.354 N 
ATOM     52  N   UNL A   1      44.617  29.542  27.888  1.00  0.00    -0.248 NA
ATOM     53  C   UNL A   1      42.740  30.556  28.843  1.00  0.00     0.031 C 
ATOM     54  C   UNL A   1      48.679  31.333  27.859  1.00  0.00     0.029 A 
ATOM     55  C   UNL A   1      47.403  30.794  27.883  1.00  0.00     0.049 A 
ATOM     56  H   UNL A   1      46.732  28.926  27.168  1.00  0.00     0.167 HD
ATOM     57  C   UNL A   1      44.980  30.779  28.406  1.00  0.00     0.074 A 
ATOM     58  C   UNL A   1      43.781  31.370  28.962  1.00  0.00     0.031 C 
ATOM     59  C   UNL A   1      46.198  31.371  28.418  1.00  0.00     0.031 A 
BRANCH  46  60
ATOM     60  C   UNL A   1      50.680  27.981  25.861  1.00  0.00    -0.014 A 
ATOM     61  C   UNL A   1      51.163  28.416  24.617  1.00  0.00     0.009 A 
ATOM     62  C   UNL A   1      51.583  27.447  26.793  1.00  0.00     0.009 A 
ATOM     63  C   UNL A   1      52.518  28.291  24.304  1.00  0.00     0.001 A 
ATOM     64  C   UNL A   1      52.941  27.345  26.487  1.00  0.00     0.001 A 
ATOM     65  C   UNL A   1      53.405  27.760  25.239  1.00  0.00     0.000 A 
ENDBRANCH  46  60
BRANCH  47  66
ATOM     66  C   UNL A   1      40.968  28.348  28.121  1.00  0.00    -0.014 A 
ATOM     67  C   UNL A   1      40.040  28.965  27.271  1.00  0.00     0.009 A 
ATOM     68  C   UNL A   1      40.519  27.789  29.328  1.00  0.00     0.009 A 
ATOM     69  C   UNL A   1      38.692  29.040  27.632  1.00  0.00     0.001 A 
ATOM     70  C   UNL A   1      39.168  27.842  29.674  1.00  0.00     0.001 A 
ATOM     71  C   UNL A   1      38.257  28.476  28.830  1.00  0.00     0.000 A 
ENDBRANCH  47  66
BRANCH  59  72
ATOM     72  C   UNL A   1      46.286  32.750  29.004  1.00  0.00    -0.014 A 
ATOM     73  C   UNL A   1      46.600  32.948  30.356  1.00  0.00     0.009 A 
ATOM     74  C   UNL A   1      46.104  33.866  28.173  1.00  0.00     0.009 A 
ATOM     75  C   UNL A   1      46.706  34.242  30.871  1.00  0.00     0.001 A 
ATOM     76  C   UNL A   1      46.232  35.157  28.685  1.00  0.00     0.001 A 
ATOM     77  C   UNL A   1      46.527  35.344  30.034  1.00  0.00     0.000 A 
ENDBRANCH  59  72
ENDBRANCH  33  34
ENDBRANCH  26  28
ENDBRANCH  25  26
ENDBRANCH  24  25
ENDBRANCH   1  24
TORSDOF 15
ENDMDL
