MODEL 1
REMARK VINA RESULT:     -11.5      0.000      0.000
REMARK SMILES Cc1nc(N2CCN(c3ccccc3)CC2)nc(OCC(=O)OCCOC(=O)c2ccc(-c3c4nc(c(-c5ccccc5)c5ccc([nH]5)c(-c5ccccc5)c5nc(c(-c6ccccc6)c6ccc3[nH]6)C=C5)C=C4)cc2)c1C
REMARK SMILES IDX 24 1 23 2 21 3 22 4 20 5 19 6 18 7 1 8 2 9 3 10 77 11 4 12
REMARK SMILES IDX 78 13 17 14 5 15 6 16 16 17 7 18 15 19 8 20 9 21 10 22 14 23
REMARK SMILES IDX 11 24 13 25 12 26 25 27 26 28 27 29 28 30 29 31 30 32 76 33
REMARK SMILES IDX 31 34 75 35 32 36 33 37 34 38 69 39 35 40 74 41 68 42 70 43
REMARK SMILES IDX 36 44 73 45 67 46 66 47 37 49 59 50 44 51 58 52 45 53 48 54
REMARK SMILES IDX 57 55 71 56 46 57 47 58 56 60 72 61 49 62 38 63 39 64 43 65
REMARK SMILES IDX 40 66 42 67 41 68 60 69 61 70 65 71 62 72 64 73 63 74 50 75
REMARK SMILES IDX 51 76 55 77 52 78 54 79 53 80
REMARK H PARENT 70 48 48 59
REMARK Flexibility Score: inf
ROOT
ATOM      1  C   UNL A   1      31.830  28.548  27.328  1.00  0.00     0.274 C 
ENDROOT
BRANCH   1   2
ATOM      2  O   UNL A   1      31.068  27.532  26.639  1.00  0.00    -0.460 OA
BRANCH   2   3
ATOM      3  C   UNL A   1      31.700  26.338  26.492  1.00  0.00     0.344 C 
ATOM      4  O   UNL A   1      31.158  25.242  26.606  1.00  0.00    -0.248 OA
BRANCH   3   5
ATOM      5  C   UNL A   1      33.212  26.460  26.286  1.00  0.00     0.353 C 
BRANCH   5   6
ATOM      6  O   UNL A   1      33.870  26.698  25.073  1.00  0.00    -0.465 OA
BRANCH   6   7
ATOM      7  C   UNL A   1      33.615  26.003  23.941  1.00  0.00     0.221 A 
ATOM      8  C   UNL A   1      32.522  25.788  20.353  1.00  0.00     0.067 C 
ATOM      9  C   UNL A   1      32.987  25.479  21.746  1.00  0.00     0.050 A 
ATOM     10  N   UNL A   1      33.318  24.187  21.943  1.00  0.00    -0.218 NA
ATOM     11  C   UNL A   1      33.032  26.433  22.765  1.00  0.00     0.033 A 
ATOM     12  C   UNL A   1      33.667  23.839  23.177  1.00  0.00     0.229 A 
ATOM     13  C   UNL A   1      32.340  27.746  22.643  1.00  0.00     0.052 C 
ATOM     14  N   UNL A   1      33.876  24.712  24.158  1.00  0.00    -0.177 NA
BRANCH  12  15
ATOM     15  N   UNL A   1      33.679  22.531  23.541  1.00  0.00    -0.337 N 
ATOM     16  C   UNL A   1      34.844  21.899  24.128  1.00  0.00     0.141 C 
ATOM     17  C   UNL A   1      32.750  21.660  22.823  1.00  0.00     0.141 C 
ATOM     18  C   UNL A   1      34.347  20.811  25.118  1.00  0.00     0.138 C 
ATOM     19  C   UNL A   1      32.255  20.551  23.768  1.00  0.00     0.138 C 
ATOM     20  N   UNL A   1      33.401  19.912  24.436  1.00  0.00    -0.368 N 
BRANCH  20  21
ATOM     21  C   UNL A   1      33.403  18.556  24.652  1.00  0.00     0.037 A 
ATOM     22  C   UNL A   1      32.686  17.968  25.698  1.00  0.00     0.026 A 
ATOM     23  C   UNL A   1      34.168  17.721  23.827  1.00  0.00     0.026 A 
ATOM     24  C   UNL A   1      32.737  16.589  25.919  1.00  0.00     0.002 A 
ATOM     25  C   UNL A   1      34.240  16.347  24.052  1.00  0.00     0.002 A 
ATOM     26  C   UNL A   1      33.522  15.781  25.100  1.00  0.00     0.000 A 
ENDBRANCH  20  21
ENDBRANCH  12  15
ENDBRANCH   6   7
ENDBRANCH   5   6
ENDBRANCH   3   5
ENDBRANCH   2   3
ENDBRANCH   1   2
BRANCH   1  27
ATOM     27  C   UNL A   1      31.665  29.927  26.689  1.00  0.00     0.275 C 
BRANCH  27  28
ATOM     28  O   UNL A   1      32.947  30.442  26.293  1.00  0.00    -0.458 OA
BRANCH  28  29
ATOM     29  C   UNL A   1      33.463  31.404  27.089  1.00  0.00     0.338 C 
ATOM     30  O   UNL A   1      32.932  32.468  27.382  1.00  0.00    -0.246 OA
BRANCH  29  31
ATOM     31  C   UNL A   1      34.781  31.001  27.637  1.00  0.00     0.060 A 
ATOM     32  C   UNL A   1      35.100  29.668  27.900  1.00  0.00     0.016 A 
ATOM     33  C   UNL A   1      35.676  32.007  28.019  1.00  0.00     0.016 A 
ATOM     34  C   UNL A   1      36.237  29.358  28.653  1.00  0.00     0.010 A 
ATOM     35  C   UNL A   1      36.861  31.686  28.687  1.00  0.00     0.010 A 
ATOM     36  C   UNL A   1      37.139  30.361  29.049  1.00  0.00    -0.014 A 
BRANCH  36  37
ATOM     37  C   UNL A   1      38.374  30.033  29.814  1.00  0.00     0.031 A 
ATOM     38  C   UNL A   1      39.496  29.236  29.194  1.00  0.00     0.074 A 
ATOM     39  C   UNL A   1      38.496  30.444  31.092  1.00  0.00     0.049 A 
ATOM     40  N   UNL A   1      40.561  28.725  29.763  1.00  0.00    -0.248 NA
ATOM     41  C   UNL A   1      39.415  28.982  27.748  1.00  0.00     0.031 C 
ATOM     42  C   UNL A   1      37.522  31.261  31.816  1.00  0.00     0.029 A 
ATOM     43  N   UNL A   1      39.500  30.235  32.004  1.00  0.00    -0.354 N 
ATOM     44  C   UNL A   1      41.252  28.060  28.757  1.00  0.00     0.074 A 
ATOM     45  C   UNL A   1      40.488  28.230  27.540  1.00  0.00     0.031 C 
ATOM     46  C   UNL A   1      38.003  31.536  33.036  1.00  0.00     0.029 A 
ATOM     47  C   UNL A   1      39.266  30.832  33.217  1.00  0.00     0.049 A 
ATOM     48  H   UNL A   1      40.308  29.709  31.807  1.00  0.00     0.167 HD
ATOM     49  C   UNL A   1      42.413  27.364  28.839  1.00  0.00     0.031 A 
ATOM     50  C   UNL A   1      39.959  30.790  34.369  1.00  0.00     0.031 A 
ATOM     51  C   UNL A   1      43.183  27.198  30.043  1.00  0.00     0.049 A 
ATOM     52  C   UNL A   1      41.185  29.938  34.465  1.00  0.00     0.074 A 
ATOM     53  C   UNL A   1      44.369  26.505  30.221  1.00  0.00     0.029 A 
ATOM     54  N   UNL A   1      42.849  27.736  31.275  1.00  0.00    -0.354 N 
ATOM     55  N   UNL A   1      41.775  29.241  33.527  1.00  0.00    -0.248 NA
ATOM     56  C   UNL A   1      41.815  29.837  35.788  1.00  0.00     0.031 C 
ATOM     57  C   UNL A   1      44.730  26.591  31.571  1.00  0.00     0.029 A 
ATOM     58  C   UNL A   1      43.792  27.373  32.221  1.00  0.00     0.049 A 
ATOM     59  H   UNL A   1      42.056  28.293  31.451  1.00  0.00     0.167 HD
ATOM     60  C   UNL A   1      42.844  28.609  34.145  1.00  0.00     0.074 A 
ATOM     61  C   UNL A   1      42.833  29.023  35.535  1.00  0.00     0.031 C 
ATOM     62  C   UNL A   1      43.752  27.761  33.607  1.00  0.00     0.031 A 
BRANCH  49  63
ATOM     63  C   UNL A   1      42.913  26.692  27.590  1.00  0.00    -0.014 A 
ATOM     64  C   UNL A   1      42.453  25.423  27.210  1.00  0.00     0.009 A 
ATOM     65  C   UNL A   1      43.809  27.371  26.748  1.00  0.00     0.009 A 
ATOM     66  C   UNL A   1      42.898  24.836  26.023  1.00  0.00     0.001 A 
ATOM     67  C   UNL A   1      44.236  26.792  25.552  1.00  0.00     0.001 A 
ATOM     68  C   UNL A   1      43.786  25.522  25.193  1.00  0.00     0.000 A 
ENDBRANCH  49  63
BRANCH  50  69
ATOM     69  C   UNL A   1      39.459  31.561  35.532  1.00  0.00    -0.014 A 
ATOM     70  C   UNL A   1      39.943  32.852  35.779  1.00  0.00     0.009 A 
ATOM     71  C   UNL A   1      38.430  31.048  36.339  1.00  0.00     0.009 A 
ATOM     72  C   UNL A   1      39.396  33.623  36.806  1.00  0.00     0.001 A 
ATOM     73  C   UNL A   1      37.870  31.830  37.349  1.00  0.00     0.001 A 
ATOM     74  C   UNL A   1      38.352  33.117  37.582  1.00  0.00     0.000 A 
ENDBRANCH  50  69
BRANCH  62  75
ATOM     75  C   UNL A   1      44.802  27.216  34.526  1.00  0.00    -0.014 A 
ATOM     76  C   UNL A   1      44.602  26.007  35.209  1.00  0.00     0.009 A 
ATOM     77  C   UNL A   1      46.015  27.902  34.690  1.00  0.00     0.009 A 
ATOM     78  C   UNL A   1      45.588  25.506  36.060  1.00  0.00     0.001 A 
ATOM     79  C   UNL A   1      47.007  27.389  35.528  1.00  0.00     0.001 A 
ATOM     80  C   UNL A   1      46.791  26.197  36.216  1.00  0.00     0.000 A 
ENDBRANCH  62  75
ENDBRANCH  36  37
ENDBRANCH  29  31
ENDBRANCH  28  29
ENDBRANCH  27  28
ENDBRANCH   1  27
TORSDOF 15
ENDMDL
MODEL 2
REMARK VINA RESULT:     -11.0      1.867      3.597
REMARK SMILES Cc1nc(N2CCN(c3ccccc3)CC2)nc(OCC(=O)OCCOC(=O)c2ccc(-c3c4nc(c(-c5ccccc5)c5ccc([nH]5)c(-c5ccccc5)c5nc(c(-c6ccccc6)c6ccc3[nH]6)C=C5)C=C4)cc2)c1C
REMARK SMILES IDX 24 1 23 2 21 3 22 4 20 5 19 6 18 7 1 8 2 9 3 10 77 11 4 12
REMARK SMILES IDX 78 13 17 14 5 15 6 16 16 17 7 18 15 19 8 20 9 21 10 22 14 23
REMARK SMILES IDX 11 24 13 25 12 26 25 27 26 28 27 29 28 30 29 31 30 32 76 33
REMARK SMILES IDX 31 34 75 35 32 36 33 37 34 38 69 39 35 40 74 41 68 42 70 43
REMARK SMILES IDX 36 44 73 45 67 46 66 47 37 49 59 50 44 51 58 52 45 53 48 54
REMARK SMILES IDX 57 55 71 56 46 57 47 58 56 60 72 61 49 62 38 63 39 64 43 65
REMARK SMILES IDX 40 66 42 67 41 68 60 69 61 70 65 71 62 72 64 73 63 74 50 75
REMARK SMILES IDX 51 76 55 77 52 78 54 79 53 80
REMARK H PARENT 70 48 48 59
REMARK Flexibility Score: inf
ROOT
ATOM      1  C   UNL A   1      31.433  28.438  24.413  1.00  0.00     0.274 C 
ENDROOT
BRANCH   1   2
ATOM      2  O   UNL A   1      30.678  27.518  25.234  1.00  0.00    -0.460 OA
BRANCH   2   3
ATOM      3  C   UNL A   1      31.303  27.113  26.370  1.00  0.00     0.344 C 
ATOM      4  O   UNL A   1      31.047  27.531  27.496  1.00  0.00    -0.248 OA
BRANCH   3   5
ATOM      5  C   UNL A   1      32.471  26.154  26.125  1.00  0.00     0.353 C 
BRANCH   5   6
ATOM      6  O   UNL A   1      32.575  24.835  26.585  1.00  0.00    -0.465 OA
BRANCH   6   7
ATOM      7  C   UNL A   1      33.016  23.813  25.818  1.00  0.00     0.221 A 
ATOM      8  C   UNL A   1      32.445  20.961  23.439  1.00  0.00     0.067 C 
ATOM      9  C   UNL A   1      33.051  21.979  24.360  1.00  0.00     0.050 A 
ATOM     10  N   UNL A   1      34.398  21.946  24.409  1.00  0.00    -0.218 NA
ATOM     11  C   UNL A   1      32.290  22.857  25.136  1.00  0.00     0.033 A 
ATOM     12  C   UNL A   1      34.988  22.776  25.264  1.00  0.00     0.229 A 
ATOM     13  C   UNL A   1      30.829  22.653  25.347  1.00  0.00     0.052 C 
ATOM     14  N   UNL A   1      34.344  23.736  25.922  1.00  0.00    -0.177 NA
BRANCH  12  15
ATOM     15  N   UNL A   1      36.280  22.577  25.628  1.00  0.00    -0.337 N 
ATOM     16  C   UNL A   1      36.881  21.257  25.667  1.00  0.00     0.141 C 
ATOM     17  C   UNL A   1      36.859  23.589  26.509  1.00  0.00     0.141 C 
ATOM     18  C   UNL A   1      38.382  21.408  25.300  1.00  0.00     0.138 C 
ATOM     19  C   UNL A   1      38.355  23.747  26.192  1.00  0.00     0.138 C 
ATOM     20  N   UNL A   1      39.006  22.427  26.163  1.00  0.00    -0.368 N 
BRANCH  20  21
ATOM     21  C   UNL A   1      40.271  22.271  26.674  1.00  0.00     0.037 A 
ATOM     22  C   UNL A   1      40.614  22.706  27.957  1.00  0.00     0.026 A 
ATOM     23  C   UNL A   1      41.272  21.687  25.886  1.00  0.00     0.026 A 
ATOM     24  C   UNL A   1      41.919  22.569  28.437  1.00  0.00     0.002 A 
ATOM     25  C   UNL A   1      42.581  21.565  26.350  1.00  0.00     0.002 A 
ATOM     26  C   UNL A   1      42.904  22.006  27.629  1.00  0.00     0.000 A 
ENDBRANCH  20  21
ENDBRANCH  12  15
ENDBRANCH   6   7
ENDBRANCH   5   6
ENDBRANCH   3   5
ENDBRANCH   2   3
ENDBRANCH   1   2
BRANCH   1  27
ATOM     27  C   UNL A   1      31.435  29.855  24.985  1.00  0.00     0.275 C 
BRANCH  27  28
ATOM     28  O   UNL A   1      32.699  30.132  25.611  1.00  0.00    -0.458 OA
BRANCH  28  29
ATOM     29  C   UNL A   1      32.674  31.050  26.601  1.00  0.00     0.338 C 
ATOM     30  O   UNL A   1      31.810  31.900  26.783  1.00  0.00    -0.246 OA
BRANCH  29  31
ATOM     31  C   UNL A   1      33.828  30.888  27.518  1.00  0.00     0.060 A 
ATOM     32  C   UNL A   1      34.568  31.977  27.980  1.00  0.00     0.016 A 
ATOM     33  C   UNL A   1      34.257  29.591  27.821  1.00  0.00     0.016 A 
ATOM     34  C   UNL A   1      35.794  31.767  28.621  1.00  0.00     0.010 A 
ATOM     35  C   UNL A   1      35.434  29.385  28.547  1.00  0.00     0.010 A 
ATOM     36  C   UNL A   1      36.239  30.469  28.923  1.00  0.00    -0.014 A 
BRANCH  36  37
ATOM     37  C   UNL A   1      37.522  30.239  29.645  1.00  0.00     0.031 A 
ATOM     38  C   UNL A   1      38.680  29.531  28.984  1.00  0.00     0.074 A 
ATOM     39  C   UNL A   1      37.656  30.659  30.918  1.00  0.00     0.049 A 
ATOM     40  N   UNL A   1      39.801  29.105  29.514  1.00  0.00    -0.248 NA
ATOM     41  C   UNL A   1      38.568  29.270  27.541  1.00  0.00     0.031 C 
ATOM     42  C   UNL A   1      36.648  31.398  31.677  1.00  0.00     0.029 A 
ATOM     43  N   UNL A   1      38.704  30.529  31.794  1.00  0.00    -0.354 N 
ATOM     44  C   UNL A   1      40.506  28.495  28.483  1.00  0.00     0.074 A 
ATOM     45  C   UNL A   1      39.689  28.604  27.294  1.00  0.00     0.031 C 
ATOM     46  C   UNL A   1      37.147  31.711  32.880  1.00  0.00     0.029 A 
ATOM     47  C   UNL A   1      38.467  31.108  33.016  1.00  0.00     0.049 A 
ATOM     48  H   UNL A   1      39.544  30.068  31.568  1.00  0.00     0.167 HD
ATOM     49  C   UNL A   1      41.720  27.891  28.523  1.00  0.00     0.031 A 
ATOM     50  C   UNL A   1      39.201  31.121  34.142  1.00  0.00     0.031 A 
ATOM     51  C   UNL A   1      42.542  27.787  29.700  1.00  0.00     0.049 A 
ATOM     52  C   UNL A   1      40.493  30.366  34.194  1.00  0.00     0.074 A 
ATOM     53  C   UNL A   1      43.784  27.188  29.835  1.00  0.00     0.029 A 
ATOM     54  N   UNL A   1      42.210  28.298  30.943  1.00  0.00    -0.354 N 
ATOM     55  N   UNL A   1      41.102  29.717  33.235  1.00  0.00    -0.248 NA
ATOM     56  C   UNL A   1      41.175  30.316  35.494  1.00  0.00     0.031 C 
ATOM     57  C   UNL A   1      44.184  27.304  31.171  1.00  0.00     0.029 A 
ATOM     58  C   UNL A   1      43.212  28.011  31.855  1.00  0.00     0.049 A 
ATOM     59  H   UNL A   1      41.384  28.792  31.148  1.00  0.00     0.167 HD
ATOM     60  C   UNL A   1      42.238  29.171  33.814  1.00  0.00     0.074 A 
ATOM     61  C   UNL A   1      42.243  29.583  35.203  1.00  0.00     0.031 C 
ATOM     62  C   UNL A   1      43.190  28.395  33.242  1.00  0.00     0.031 A 
BRANCH  49  63
ATOM     63  C   UNL A   1      42.226  27.260  27.257  1.00  0.00    -0.014 A 
ATOM     64  C   UNL A   1      42.989  27.987  26.332  1.00  0.00     0.009 A 
ATOM     65  C   UNL A   1      41.988  25.896  27.018  1.00  0.00     0.009 A 
ATOM     66  C   UNL A   1      43.486  27.368  25.182  1.00  0.00     0.001 A 
ATOM     67  C   UNL A   1      42.503  25.274  25.880  1.00  0.00     0.001 A 
ATOM     68  C   UNL A   1      43.247  26.011  24.959  1.00  0.00     0.000 A 
ENDBRANCH  49  63
BRANCH  50  69
ATOM     69  C   UNL A   1      38.684  31.851  35.324  1.00  0.00    -0.014 A 
ATOM     70  C   UNL A   1      38.690  33.252  35.341  1.00  0.00     0.009 A 
ATOM     71  C   UNL A   1      38.096  31.154  36.392  1.00  0.00     0.009 A 
ATOM     72  C   UNL A   1      38.103  33.944  36.402  1.00  0.00     0.001 A 
ATOM     73  C   UNL A   1      37.491  31.849  37.439  1.00  0.00     0.001 A 
ATOM     74  C   UNL A   1      37.493  33.243  37.443  1.00  0.00     0.000 A 
ENDBRANCH  50  69
BRANCH  62  75
ATOM     75  C   UNL A   1      44.311  27.935  34.123  1.00  0.00    -0.014 A 
ATOM     76  C   UNL A   1      44.238  26.705  34.794  1.00  0.00     0.009 A 
ATOM     77  C   UNL A   1      45.463  28.723  34.262  1.00  0.00     0.009 A 
ATOM     78  C   UNL A   1      45.290  26.283  35.608  1.00  0.00     0.001 A 
ATOM     79  C   UNL A   1      46.520  28.291  35.064  1.00  0.00     0.001 A 
ATOM     80  C   UNL A   1      46.431  27.075  35.741  1.00  0.00     0.000 A 
ENDBRANCH  62  75
ENDBRANCH  36  37
ENDBRANCH  29  31
ENDBRANCH  28  29
ENDBRANCH  27  28
ENDBRANCH   1  27
TORSDOF 15
ENDMDL
MODEL 3
REMARK VINA RESULT:     -11.0      2.621      8.187
REMARK SMILES Cc1nc(N2CCN(c3ccccc3)CC2)nc(OCC(=O)OCCOC(=O)c2ccc(-c3c4nc(c(-c5ccccc5)c5ccc([nH]5)c(-c5ccccc5)c5nc(c(-c6ccccc6)c6ccc3[nH]6)C=C5)C=C4)cc2)c1C
REMARK SMILES IDX 24 1 23 2 21 3 22 4 20 5 19 6 18 7 1 8 2 9 3 10 77 11 4 12
REMARK SMILES IDX 78 13 17 14 5 15 6 16 16 17 7 18 15 19 8 20 9 21 10 22 14 23
REMARK SMILES IDX 11 24 13 25 12 26 25 27 26 28 27 29 28 30 29 31 30 32 76 33
REMARK SMILES IDX 31 34 75 35 32 36 33 37 34 38 69 39 35 40 74 41 68 42 70 43
REMARK SMILES IDX 36 44 73 45 67 46 66 47 37 49 59 50 44 51 58 52 45 53 48 54
REMARK SMILES IDX 57 55 71 56 46 57 47 58 56 60 72 61 49 62 38 63 39 64 43 65
REMARK SMILES IDX 40 66 42 67 41 68 60 69 61 70 65 71 62 72 64 73 63 74 50 75
REMARK SMILES IDX 51 76 55 77 52 78 54 79 53 80
REMARK H PARENT 70 48 48 59
REMARK Flexibility Score: inf
ROOT
ATOM      1  C   UNL A   1      40.536  20.875  26.648  1.00  0.00     0.274 C 
ENDROOT
BRANCH   1   2
ATOM      2  O   UNL A   1      39.434  20.835  25.714  1.00  0.00    -0.460 OA
BRANCH   2   3
ATOM      3  C   UNL A   1      38.555  21.866  25.814  1.00  0.00     0.344 C 
ATOM      4  O   UNL A   1      38.749  22.889  26.465  1.00  0.00    -0.248 OA
BRANCH   3   5
ATOM      5  C   UNL A   1      37.209  21.599  25.135  1.00  0.00     0.353 C 
BRANCH   5   6
ATOM      6  O   UNL A   1      36.583  20.355  24.988  1.00  0.00    -0.465 OA
BRANCH   6   7
ATOM      7  C   UNL A   1      35.240  20.199  24.956  1.00  0.00     0.221 A 
ATOM      8  C   UNL A   1      32.149  18.068  24.822  1.00  0.00     0.067 C 
ATOM      9  C   UNL A   1      33.117  19.214  24.865  1.00  0.00     0.050 A 
ATOM     10  N   UNL A   1      32.533  20.424  24.975  1.00  0.00    -0.218 NA
ATOM     11  C   UNL A   1      34.500  19.050  24.757  1.00  0.00     0.033 A 
ATOM     12  C   UNL A   1      33.337  21.483  24.943  1.00  0.00     0.229 A 
ATOM     13  C   UNL A   1      35.105  17.774  24.286  1.00  0.00     0.052 C 
ATOM     14  N   UNL A   1      34.664  21.402  24.993  1.00  0.00    -0.177 NA
BRANCH  12  15
ATOM     15  N   UNL A   1      32.831  22.718  24.701  1.00  0.00    -0.337 N 
ATOM     16  C   UNL A   1      32.228  23.075  23.432  1.00  0.00     0.141 C 
ATOM     17  C   UNL A   1      33.407  23.810  25.485  1.00  0.00     0.141 C 
ATOM     18  C   UNL A   1      31.102  24.107  23.714  1.00  0.00     0.138 C 
ATOM     19  C   UNL A   1      32.325  24.866  25.762  1.00  0.00     0.138 C 
ATOM     20  N   UNL A   1      31.639  25.224  24.509  1.00  0.00    -0.368 N 
BRANCH  20  21
ATOM     21  C   UNL A   1      31.273  26.527  24.272  1.00  0.00     0.037 A 
ATOM     22  C   UNL A   1      31.896  27.603  24.911  1.00  0.00     0.026 A 
ATOM     23  C   UNL A   1      30.223  26.804  23.388  1.00  0.00     0.026 A 
ATOM     24  C   UNL A   1      31.477  28.915  24.680  1.00  0.00     0.002 A 
ATOM     25  C   UNL A   1      29.786  28.109  23.167  1.00  0.00     0.002 A 
ATOM     26  C   UNL A   1      30.417  29.167  23.814  1.00  0.00     0.000 A 
ENDBRANCH  20  21
ENDBRANCH  12  15
ENDBRANCH   6   7
ENDBRANCH   5   6
ENDBRANCH   3   5
ENDBRANCH   2   3
ENDBRANCH   1   2
BRANCH   1  27
ATOM     27  C   UNL A   1      41.890  20.942  25.942  1.00  0.00     0.275 C 
BRANCH  27  28
ATOM     28  O   UNL A   1      42.053  22.223  25.311  1.00  0.00    -0.458 OA
BRANCH  28  29
ATOM     29  C   UNL A   1      43.216  22.861  25.571  1.00  0.00     0.338 C 
ATOM     30  O   UNL A   1      44.283  22.691  24.994  1.00  0.00    -0.246 OA
BRANCH  29  31
ATOM     31  C   UNL A   1      43.050  23.868  26.646  1.00  0.00     0.060 A 
ATOM     32  C   UNL A   1      42.564  23.532  27.911  1.00  0.00     0.016 A 
ATOM     33  C   UNL A   1      43.269  25.214  26.333  1.00  0.00     0.016 A 
ATOM     34  C   UNL A   1      42.177  24.540  28.800  1.00  0.00     0.010 A 
ATOM     35  C   UNL A   1      42.973  26.216  27.262  1.00  0.00     0.010 A 
ATOM     36  C   UNL A   1      42.385  25.896  28.493  1.00  0.00    -0.014 A 
BRANCH  36  37
ATOM     37  C   UNL A   1      42.015  26.973  29.454  1.00  0.00     0.031 A 
ATOM     38  C   UNL A   1      42.853  27.260  30.676  1.00  0.00     0.074 A 
ATOM     39  C   UNL A   1      40.904  27.704  29.240  1.00  0.00     0.049 A 
ATOM     40  N   UNL A   1      42.592  28.042  31.694  1.00  0.00    -0.248 NA
ATOM     41  C   UNL A   1      44.155  26.582  30.767  1.00  0.00     0.031 C 
ATOM     42  C   UNL A   1      40.017  27.581  28.083  1.00  0.00     0.029 A 
ATOM     43  N   UNL A   1      40.338  28.706  29.989  1.00  0.00    -0.354 N 
ATOM     44  C   UNL A   1      43.673  27.922  32.559  1.00  0.00     0.074 A 
ATOM     45  C   UNL A   1      44.597  26.990  31.949  1.00  0.00     0.031 C 
ATOM     46  C   UNL A   1      39.057  28.511  28.166  1.00  0.00     0.029 A 
ATOM     47  C   UNL A   1      39.198  29.226  29.428  1.00  0.00     0.049 A 
ATOM     48  H   UNL A   1      40.713  29.020  30.842  1.00  0.00     0.167 HD
ATOM     49  C   UNL A   1      43.877  28.526  33.757  1.00  0.00     0.031 A 
ATOM     50  C   UNL A   1      38.329  30.143  29.888  1.00  0.00     0.031 A 
ATOM     51  C   UNL A   1      42.967  29.460  34.365  1.00  0.00     0.049 A 
ATOM     52  C   UNL A   1      38.520  30.725  31.254  1.00  0.00     0.074 A 
ATOM     53  C   UNL A   1      43.088  30.118  35.578  1.00  0.00     0.029 A 
ATOM     54  N   UNL A   1      41.771  29.877  33.805  1.00  0.00    -0.354 N 
ATOM     55  N   UNL A   1      39.501  30.532  32.098  1.00  0.00    -0.248 NA
ATOM     56  C   UNL A   1      37.463  31.621  31.742  1.00  0.00     0.031 C 
ATOM     57  C   UNL A   1      41.944  30.902  35.770  1.00  0.00     0.029 A 
ATOM     58  C   UNL A   1      41.134  30.765  34.656  1.00  0.00     0.049 A 
ATOM     59  H   UNL A   1      41.424  29.584  32.931  1.00  0.00     0.167 HD
ATOM     60  C   UNL A   1      39.180  31.274  33.224  1.00  0.00     0.074 A 
ATOM     61  C   UNL A   1      37.922  31.939  32.947  1.00  0.00     0.031 C 
ATOM     62  C   UNL A   1      39.867  31.392  34.385  1.00  0.00     0.031 A 
BRANCH  49  63
ATOM     63  C   UNL A   1      45.124  28.168  34.514  1.00  0.00    -0.014 A 
ATOM     64  C   UNL A   1      46.303  28.916  34.375  1.00  0.00     0.009 A 
ATOM     65  C   UNL A   1      45.098  27.104  35.431  1.00  0.00     0.009 A 
ATOM     66  C   UNL A   1      47.438  28.591  35.122  1.00  0.00     0.001 A 
ATOM     67  C   UNL A   1      46.227  26.795  36.192  1.00  0.00     0.001 A 
ATOM     68  C   UNL A   1      47.398  27.534  36.033  1.00  0.00     0.000 A 
ENDBRANCH  49  63
BRANCH  50  69
ATOM     69  C   UNL A   1      37.174  30.522  29.040  1.00  0.00    -0.014 A 
ATOM     70  C   UNL A   1      36.161  29.589  28.779  1.00  0.00     0.009 A 
ATOM     71  C   UNL A   1      37.033  31.838  28.573  1.00  0.00     0.009 A 
ATOM     72  C   UNL A   1      35.018  29.974  28.075  1.00  0.00     0.001 A 
ATOM     73  C   UNL A   1      35.879  32.224  27.890  1.00  0.00     0.001 A 
ATOM     74  C   UNL A   1      34.872  31.292  27.642  1.00  0.00     0.000 A 
ENDBRANCH  50  69
BRANCH  62  75
ATOM     75  C   UNL A   1      39.267  32.264  35.446  1.00  0.00    -0.014 A 
ATOM     76  C   UNL A   1      39.555  33.637  35.493  1.00  0.00     0.009 A 
ATOM     77  C   UNL A   1      38.386  31.717  36.390  1.00  0.00     0.009 A 
ATOM     78  C   UNL A   1      38.988  34.442  36.482  1.00  0.00     0.001 A 
ATOM     79  C   UNL A   1      37.807  32.528  37.367  1.00  0.00     0.001 A 
ATOM     80  C   UNL A   1      38.113  33.887  37.416  1.00  0.00     0.000 A 
ENDBRANCH  62  75
ENDBRANCH  36  37
ENDBRANCH  29  31
ENDBRANCH  28  29
ENDBRANCH  27  28
ENDBRANCH   1  27
TORSDOF 15
ENDMDL
