MODEL 1
REMARK VINA RESULT:      -9.8      0.000      0.000
REMARK SMILES O=C(OCCOC(=O)c1cnc(OCC2CC2)c(Cl)c1)c1ccc(-c2c3nc(c(-c4ccccc4)c4ccc([nH]4)c(-c4ccccc4)c4nc(c(-c5ccccc5)c5ccc2[nH]5)C=C4)C=C3)cc1
REMARK SMILES IDX 5 1 4 2 3 3 2 4 1 5 21 6 22 7 68 8 23 9 67 10 24 11 25 12
REMARK SMILES IDX 26 13 61 14 27 15 66 16 60 17 62 18 28 19 65 20 59 21 58 22
REMARK SMILES IDX 29 24 51 25 36 26 50 27 37 28 40 29 49 30 63 31 38 32 39 33
REMARK SMILES IDX 48 35 64 36 41 37 30 38 31 39 35 40 32 41 34 42 33 43 52 44
REMARK SMILES IDX 53 45 57 46 54 47 56 48 55 49 42 50 43 51 47 52 44 53 46 54
REMARK SMILES IDX 45 55 6 56 7 57 8 58 9 59 10 60 20 61 11 62 18 63 12 64
REMARK SMILES IDX 19 65 13 66 14 67 15 68 16 69 17 70
REMARK H PARENT 62 23 40 34
REMARK Flexibility Score: inf
ROOT
ATOM      1  C   UNL A   1      42.578  20.137  26.135  1.00  0.00     0.275 C 
ENDROOT
BRANCH   1   2
ATOM      2  C   UNL A   1      43.597  21.098  25.507  1.00  0.00     0.275 C 
BRANCH   2   3
ATOM      3  O   UNL A   1      43.034  22.325  25.011  1.00  0.00    -0.458 OA
BRANCH   3   4
ATOM      4  C   UNL A   1      43.448  23.604  25.155  1.00  0.00     0.338 C 
ATOM      5  O   UNL A   1      44.271  24.045  24.354  1.00  0.00    -0.246 OA
BRANCH   4   6
ATOM      6  C   UNL A   1      43.078  24.482  26.316  1.00  0.00     0.060 A 
ATOM      7  C   UNL A   1      42.350  24.100  27.447  1.00  0.00     0.016 A 
ATOM      8  C   UNL A   1      43.540  25.811  26.263  1.00  0.00     0.016 A 
ATOM      9  C   UNL A   1      42.132  24.979  28.509  1.00  0.00     0.010 A 
ATOM     10  C   UNL A   1      43.335  26.697  27.327  1.00  0.00     0.010 A 
ATOM     11  C   UNL A   1      42.611  26.286  28.453  1.00  0.00    -0.014 A 
BRANCH  11  12
ATOM     12  C   UNL A   1      42.105  27.284  29.420  1.00  0.00     0.031 A 
ATOM     13  C   UNL A   1      42.810  27.343  30.748  1.00  0.00     0.074 A 
ATOM     14  C   UNL A   1      41.134  28.166  29.113  1.00  0.00     0.049 A 
ATOM     15  N   UNL A   1      42.513  28.028  31.816  1.00  0.00    -0.248 NA
ATOM     16  C   UNL A   1      44.045  26.541  30.869  1.00  0.00     0.031 C 
ATOM     17  C   UNL A   1      40.512  28.334  27.798  1.00  0.00     0.029 A 
ATOM     18  N   UNL A   1      40.474  29.077  29.905  1.00  0.00    -0.354 N 
ATOM     19  C   UNL A   1      43.541  27.773  32.716  1.00  0.00     0.074 A 
ATOM     20  C   UNL A   1      44.423  26.807  32.107  1.00  0.00     0.031 C 
ATOM     21  C   UNL A   1      39.513  29.233  27.893  1.00  0.00     0.029 A 
ATOM     22  C   UNL A   1      39.379  29.646  29.285  1.00  0.00     0.049 A 
ATOM     23  H   UNL A   1      40.753  29.299  30.823  1.00  0.00     0.167 HD
ATOM     24  C   UNL A   1      43.748  28.331  33.928  1.00  0.00     0.031 A 
ATOM     25  C   UNL A   1      38.341  30.321  29.826  1.00  0.00     0.031 A 
ATOM     26  C   UNL A   1      42.823  29.248  34.527  1.00  0.00     0.049 A 
ATOM     27  C   UNL A   1      38.392  30.617  31.298  1.00  0.00     0.074 A 
ATOM     28  C   UNL A   1      42.898  29.892  35.746  1.00  0.00     0.029 A 
ATOM     29  N   UNL A   1      41.622  29.627  33.939  1.00  0.00    -0.354 N 
ATOM     30  N   UNL A   1      39.327  30.320  32.166  1.00  0.00    -0.248 NA
ATOM     31  C   UNL A   1      37.261  31.370  31.853  1.00  0.00     0.031 C 
ATOM     32  C   UNL A   1      41.708  30.604  35.927  1.00  0.00     0.029 A 
ATOM     33  C   UNL A   1      40.928  30.465  34.787  1.00  0.00     0.049 A 
ATOM     34  H   UNL A   1      41.313  29.339  33.050  1.00  0.00     0.167 HD
ATOM     35  C   UNL A   1      38.948  30.935  33.350  1.00  0.00     0.074 A 
ATOM     36  C   UNL A   1      37.655  31.546  33.106  1.00  0.00     0.031 C 
ATOM     37  C   UNL A   1      39.640  31.050  34.508  1.00  0.00     0.031 A 
BRANCH  24  38
ATOM     38  C   UNL A   1      44.991  27.919  34.668  1.00  0.00    -0.014 A 
ATOM     39  C   UNL A   1      46.225  28.553  34.431  1.00  0.00     0.009 A 
ATOM     40  C   UNL A   1      44.942  26.855  35.578  1.00  0.00     0.009 A 
ATOM     41  C   UNL A   1      47.389  28.089  35.047  1.00  0.00     0.001 A 
ATOM     42  C   UNL A   1      46.103  26.414  36.217  1.00  0.00     0.001 A 
ATOM     43  C   UNL A   1      47.328  27.020  35.938  1.00  0.00     0.000 A 
ENDBRANCH  24  38
BRANCH  25  44
ATOM     44  C   UNL A   1      37.112  30.653  29.047  1.00  0.00    -0.014 A 
ATOM     45  C   UNL A   1      36.820  31.951  28.617  1.00  0.00     0.009 A 
ATOM     46  C   UNL A   1      36.176  29.640  28.769  1.00  0.00     0.009 A 
ATOM     47  C   UNL A   1      35.651  32.207  27.884  1.00  0.00     0.001 A 
ATOM     48  C   UNL A   1      35.040  29.882  27.993  1.00  0.00     0.001 A 
ATOM     49  C   UNL A   1      34.778  31.171  27.549  1.00  0.00     0.000 A 
ENDBRANCH  25  44
BRANCH  37  50
ATOM     50  C   UNL A   1      39.077  31.977  35.540  1.00  0.00    -0.014 A 
ATOM     51  C   UNL A   1      39.322  33.355  35.522  1.00  0.00     0.009 A 
ATOM     52  C   UNL A   1      38.228  31.439  36.523  1.00  0.00     0.009 A 
ATOM     53  C   UNL A   1      38.737  34.178  36.486  1.00  0.00     0.001 A 
ATOM     54  C   UNL A   1      37.619  32.267  37.462  1.00  0.00     0.001 A 
ATOM     55  C   UNL A   1      37.881  33.635  37.446  1.00  0.00     0.000 A 
ENDBRANCH  37  50
ENDBRANCH  11  12
ENDBRANCH   4   6
ENDBRANCH   3   4
ENDBRANCH   2   3
ENDBRANCH   1   2
BRANCH   1  56
ATOM     56  O   UNL A   1      41.389  20.783  26.624  1.00  0.00    -0.458 OA
BRANCH  56  57
ATOM     57  C   UNL A   1      40.234  20.351  26.058  1.00  0.00     0.339 C 
ATOM     58  O   UNL A   1      39.950  19.200  25.763  1.00  0.00    -0.246 OA
BRANCH  57  59
ATOM     59  C   UNL A   1      39.269  21.450  25.976  1.00  0.00     0.080 A 
ATOM     60  C   UNL A   1      38.166  21.292  25.162  1.00  0.00     0.131 A 
ATOM     61  C   UNL A   1      39.424  22.661  26.636  1.00  0.00     0.043 A 
ATOM     62  N   UNL A   1      37.186  22.217  25.053  1.00  0.00    -0.220 NA
ATOM     63  C   UNL A   1      38.468  23.678  26.453  1.00  0.00     0.104 A 
ATOM     64  C   UNL A   1      37.318  23.403  25.702  1.00  0.00     0.232 A 
ATOM     65  Cl  UNL A   1      38.925  25.205  27.104  1.00  0.00    -0.078 Cl
BRANCH  64  66
ATOM     66  O   UNL A   1      36.200  24.131  25.480  1.00  0.00    -0.476 OA
BRANCH  66  67
ATOM     67  C   UNL A   1      35.307  23.946  24.396  1.00  0.00     0.235 C 
BRANCH  67  68
ATOM     68  C   UNL A   1      34.029  24.701  24.568  1.00  0.00     0.027 C 
ATOM     69  C   UNL A   1      34.055  25.720  25.666  1.00  0.00     0.007 C 
ATOM     70  C   UNL A   1      33.849  26.174  24.259  1.00  0.00     0.007 C 
ENDBRANCH  67  68
ENDBRANCH  66  67
ENDBRANCH  64  66
ENDBRANCH  57  59
ENDBRANCH  56  57
ENDBRANCH   1  56
TORSDOF 14
ENDMDL
MODEL 2
REMARK VINA RESULT:      -9.3      3.926      9.076
REMARK SMILES O=C(OCCOC(=O)c1cnc(OCC2CC2)c(Cl)c1)c1ccc(-c2c3nc(c(-c4ccccc4)c4ccc([nH]4)c(-c4ccccc4)c4nc(c(-c5ccccc5)c5ccc2[nH]5)C=C4)C=C3)cc1
REMARK SMILES IDX 5 1 4 2 3 3 2 4 1 5 21 6 22 7 68 8 23 9 67 10 24 11 25 12
REMARK SMILES IDX 26 13 61 14 27 15 66 16 60 17 62 18 28 19 65 20 59 21 58 22
REMARK SMILES IDX 29 24 51 25 36 26 50 27 37 28 40 29 49 30 63 31 38 32 39 33
REMARK SMILES IDX 48 35 64 36 41 37 30 38 31 39 35 40 32 41 34 42 33 43 52 44
REMARK SMILES IDX 53 45 57 46 54 47 56 48 55 49 42 50 43 51 47 52 44 53 46 54
REMARK SMILES IDX 45 55 6 56 7 57 8 58 9 59 10 60 20 61 11 62 18 63 12 64
REMARK SMILES IDX 19 65 13 66 14 67 15 68 16 69 17 70
REMARK H PARENT 62 23 40 34
REMARK Flexibility Score: inf
ROOT
ATOM      1  C   UNL A   1      32.490  31.207  26.729  1.00  0.00     0.275 C 
ENDROOT
BRANCH   1   2
ATOM      2  C   UNL A   1      31.516  32.338  27.090  1.00  0.00     0.275 C 
BRANCH   2   3
ATOM      3  O   UNL A   1      32.131  33.629  27.242  1.00  0.00    -0.458 OA
BRANCH   3   4
ATOM      4  C   UNL A   1      32.872  34.136  28.253  1.00  0.00     0.338 C 
ATOM      5  O   UNL A   1      32.577  35.247  28.691  1.00  0.00    -0.246 OA
BRANCH   4   6
ATOM      6  C   UNL A   1      34.124  33.497  28.783  1.00  0.00     0.060 A 
ATOM      7  C   UNL A   1      34.232  32.716  29.937  1.00  0.00     0.016 A 
ATOM      8  C   UNL A   1      35.290  33.685  28.017  1.00  0.00     0.016 A 
ATOM      9  C   UNL A   1      35.432  32.100  30.294  1.00  0.00     0.010 A 
ATOM     10  C   UNL A   1      36.496  33.064  28.361  1.00  0.00     0.010 A 
ATOM     11  C   UNL A   1      36.575  32.279  29.518  1.00  0.00    -0.014 A 
BRANCH  11  12
ATOM     12  C   UNL A   1      37.892  31.895  30.071  1.00  0.00     0.031 A 
ATOM     13  C   UNL A   1      38.449  30.575  29.613  1.00  0.00     0.074 A 
ATOM     14  C   UNL A   1      38.613  32.712  30.864  1.00  0.00     0.049 A 
ATOM     15  N   UNL A   1      39.512  29.937  30.017  1.00  0.00    -0.248 NA
ATOM     16  C   UNL A   1      37.719  29.900  28.521  1.00  0.00     0.031 C 
ATOM     17  C   UNL A   1      38.266  34.090  31.217  1.00  0.00     0.029 A 
ATOM     18  N   UNL A   1      39.786  32.486  31.546  1.00  0.00    -0.354 N 
ATOM     19  C   UNL A   1      39.599  28.814  29.203  1.00  0.00     0.074 A 
ATOM     20  C   UNL A   1      38.441  28.808  28.343  1.00  0.00     0.031 C 
ATOM     21  C   UNL A   1      39.163  34.558  32.106  1.00  0.00     0.029 A 
ATOM     22  C   UNL A   1      40.100  33.491  32.439  1.00  0.00     0.049 A 
ATOM     23  H   UNL A   1      40.345  31.686  31.412  1.00  0.00     0.167 HD
ATOM     24  C   UNL A   1      40.585  27.891  29.154  1.00  0.00     0.031 A 
ATOM     25  C   UNL A   1      40.970  33.480  33.473  1.00  0.00     0.031 A 
ATOM     26  C   UNL A   1      41.696  27.897  30.060  1.00  0.00     0.049 A 
ATOM     27  C   UNL A   1      41.824  32.257  33.653  1.00  0.00     0.074 A 
ATOM     28  C   UNL A   1      42.768  27.030  30.131  1.00  0.00     0.029 A 
ATOM     29  N   UNL A   1      41.852  28.823  31.084  1.00  0.00    -0.354 N 
ATOM     30  N   UNL A   1      41.864  31.166  32.929  1.00  0.00    -0.248 NA
ATOM     31  C   UNL A   1      42.774  32.282  34.771  1.00  0.00     0.031 C 
ATOM     32  C   UNL A   1      43.535  27.389  31.244  1.00  0.00     0.029 A 
ATOM     33  C   UNL A   1      42.982  28.526  31.819  1.00  0.00     0.049 A 
ATOM     34  H   UNL A   1      41.246  29.578  31.260  1.00  0.00     0.167 HD
ATOM     35  C   UNL A   1      42.911  30.415  33.441  1.00  0.00     0.074 A 
ATOM     36  C   UNL A   1      43.420  31.139  34.591  1.00  0.00     0.031 C 
ATOM     37  C   UNL A   1      43.452  29.270  32.959  1.00  0.00     0.031 A 
BRANCH  24  38
ATOM     38  C   UNL A   1      40.457  26.808  28.120  1.00  0.00    -0.014 A 
ATOM     39  C   UNL A   1      39.805  25.595  28.410  1.00  0.00     0.009 A 
ATOM     40  C   UNL A   1      41.034  26.978  26.855  1.00  0.00     0.009 A 
ATOM     41  C   UNL A   1      39.788  24.558  27.475  1.00  0.00     0.001 A 
ATOM     42  C   UNL A   1      40.988  25.950  25.910  1.00  0.00     0.001 A 
ATOM     43  C   UNL A   1      40.379  24.736  26.226  1.00  0.00     0.000 A 
ENDBRANCH  24  38
BRANCH  25  44
ATOM     44  C   UNL A   1      41.008  34.566  34.496  1.00  0.00    -0.014 A 
ATOM     45  C   UNL A   1      41.881  35.654  34.407  1.00  0.00     0.009 A 
ATOM     46  C   UNL A   1      40.174  34.480  35.626  1.00  0.00     0.009 A 
ATOM     47  C   UNL A   1      41.873  36.650  35.396  1.00  0.00     0.001 A 
ATOM     48  C   UNL A   1      40.125  35.497  36.582  1.00  0.00     0.001 A 
ATOM     49  C   UNL A   1      40.978  36.586  36.465  1.00  0.00     0.000 A 
ENDBRANCH  25  44
BRANCH  37  50
ATOM     50  C   UNL A   1      44.732  28.814  33.589  1.00  0.00    -0.014 A 
ATOM     51  C   UNL A   1      44.762  27.870  34.622  1.00  0.00     0.009 A 
ATOM     52  C   UNL A   1      45.940  29.318  33.078  1.00  0.00     0.009 A 
ATOM     53  C   UNL A   1      45.987  27.451  35.144  1.00  0.00     0.001 A 
ATOM     54  C   UNL A   1      47.160  28.871  33.577  1.00  0.00     0.001 A 
ATOM     55  C   UNL A   1      47.182  27.943  34.615  1.00  0.00     0.000 A 
ENDBRANCH  37  50
ENDBRANCH  11  12
ENDBRANCH   4   6
ENDBRANCH   3   4
ENDBRANCH   2   3
ENDBRANCH   1   2
BRANCH   1  56
ATOM     56  O   UNL A   1      31.938  30.222  25.836  1.00  0.00    -0.458 OA
BRANCH  56  57
ATOM     57  C   UNL A   1      32.713  29.124  25.652  1.00  0.00     0.339 C 
ATOM     58  O   UNL A   1      33.930  29.097  25.544  1.00  0.00    -0.246 OA
BRANCH  57  59
ATOM     59  C   UNL A   1      31.901  27.909  25.751  1.00  0.00     0.080 A 
ATOM     60  C   UNL A   1      32.215  26.990  26.731  1.00  0.00     0.131 A 
ATOM     61  C   UNL A   1      30.860  27.608  24.885  1.00  0.00     0.043 A 
ATOM     62  N   UNL A   1      31.500  25.864  26.948  1.00  0.00    -0.220 NA
ATOM     63  C   UNL A   1      30.170  26.390  25.027  1.00  0.00     0.104 A 
ATOM     64  C   UNL A   1      30.471  25.561  26.116  1.00  0.00     0.232 A 
ATOM     65  Cl  UNL A   1      29.099  26.026  23.729  1.00  0.00    -0.078 Cl
BRANCH  64  66
ATOM     66  O   UNL A   1      29.888  24.425  26.562  1.00  0.00    -0.476 OA
BRANCH  66  67
ATOM     67  C   UNL A   1      30.516  23.157  26.630  1.00  0.00     0.235 C 
BRANCH  67  68
ATOM     68  C   UNL A   1      31.156  22.762  25.338  1.00  0.00     0.027 C 
ATOM     69  C   UNL A   1      32.653  22.733  25.372  1.00  0.00     0.007 C 
ATOM     70  C   UNL A   1      31.908  21.466  25.110  1.00  0.00     0.007 C 
ENDBRANCH  67  68
ENDBRANCH  66  67
ENDBRANCH  64  66
ENDBRANCH  57  59
ENDBRANCH  56  57
ENDBRANCH   1  56
TORSDOF 14
ENDMDL
MODEL 3
REMARK VINA RESULT:      -9.2      4.215     10.396
REMARK SMILES O=C(OCCOC(=O)c1cnc(OCC2CC2)c(Cl)c1)c1ccc(-c2c3nc(c(-c4ccccc4)c4ccc([nH]4)c(-c4ccccc4)c4nc(c(-c5ccccc5)c5ccc2[nH]5)C=C4)C=C3)cc1
REMARK SMILES IDX 5 1 4 2 3 3 2 4 1 5 21 6 22 7 68 8 23 9 67 10 24 11 25 12
REMARK SMILES IDX 26 13 61 14 27 15 66 16 60 17 62 18 28 19 65 20 59 21 58 22
REMARK SMILES IDX 29 24 51 25 36 26 50 27 37 28 40 29 49 30 63 31 38 32 39 33
REMARK SMILES IDX 48 35 64 36 41 37 30 38 31 39 35 40 32 41 34 42 33 43 52 44
REMARK SMILES IDX 53 45 57 46 54 47 56 48 55 49 42 50 43 51 47 52 44 53 46 54
REMARK SMILES IDX 45 55 6 56 7 57 8 58 9 59 10 60 20 61 11 62 18 63 12 64
REMARK SMILES IDX 19 65 13 66 14 67 15 68 16 69 17 70
REMARK H PARENT 62 23 40 34
REMARK Flexibility Score: inf
ROOT
ATOM      1  C   UNL A   1      32.967  34.588  28.367  1.00  0.00     0.275 C 
ENDROOT
BRANCH   1   2
ATOM      2  C   UNL A   1      33.144  33.187  27.764  1.00  0.00     0.275 C 
BRANCH   2   3
ATOM      3  O   UNL A   1      34.443  32.607  27.972  1.00  0.00    -0.458 OA
BRANCH   3   4
ATOM      4  C   UNL A   1      34.832  31.313  28.009  1.00  0.00     0.338 C 
ATOM      5  O   UNL A   1      34.021  30.450  27.675  1.00  0.00    -0.246 OA
BRANCH   4   6
ATOM      6  C   UNL A   1      36.145  30.844  28.569  1.00  0.00     0.060 A 
ATOM      7  C   UNL A   1      37.405  31.375  28.284  1.00  0.00     0.016 A 
ATOM      8  C   UNL A   1      36.084  29.784  29.494  1.00  0.00     0.016 A 
ATOM      9  C   UNL A   1      38.557  30.915  28.925  1.00  0.00     0.010 A 
ATOM     10  C   UNL A   1      37.230  29.322  30.150  1.00  0.00     0.010 A 
ATOM     11  C   UNL A   1      38.481  29.878  29.852  1.00  0.00    -0.014 A 
BRANCH  11  12
ATOM     12  C   UNL A   1      39.722  29.194  30.276  1.00  0.00     0.031 A 
ATOM     13  C   UNL A   1      40.452  29.799  31.443  1.00  0.00     0.074 A 
ATOM     14  C   UNL A   1      40.138  28.037  29.723  1.00  0.00     0.049 A 
ATOM     15  N   UNL A   1      41.612  29.486  31.950  1.00  0.00    -0.248 NA
ATOM     16  C   UNL A   1      39.755  30.887  32.159  1.00  0.00     0.031 C 
ATOM     17  C   UNL A   1      39.412  27.256  28.720  1.00  0.00     0.029 A 
ATOM     18  N   UNL A   1      41.302  27.328  29.911  1.00  0.00    -0.354 N 
ATOM     19  C   UNL A   1      41.762  30.307  33.062  1.00  0.00     0.074 A 
ATOM     20  C   UNL A   1      40.621  31.189  33.109  1.00  0.00     0.031 C 
ATOM     21  C   UNL A   1      40.179  26.220  28.328  1.00  0.00     0.029 A 
ATOM     22  C   UNL A   1      41.473  26.309  28.996  1.00  0.00     0.049 A 
ATOM     23  H   UNL A   1      41.949  27.529  30.625  1.00  0.00     0.167 HD
ATOM     24  C   UNL A   1      42.749  30.292  33.984  1.00  0.00     0.031 A 
ATOM     25  C   UNL A   1      42.591  25.622  28.675  1.00  0.00     0.031 A 
ATOM     26  C   UNL A   1      43.896  29.438  33.876  1.00  0.00     0.049 A 
ATOM     27  C   UNL A   1      43.831  25.893  29.477  1.00  0.00     0.074 A 
ATOM     28  C   UNL A   1      44.974  29.314  34.731  1.00  0.00     0.029 A 
ATOM     29  N   UNL A   1      44.117  28.573  32.813  1.00  0.00    -0.354 N 
ATOM     30  N   UNL A   1      43.998  26.715  30.483  1.00  0.00    -0.248 NA
ATOM     31  C   UNL A   1      45.025  25.117  29.119  1.00  0.00     0.031 C 
ATOM     32  C   UNL A   1      45.882  28.426  34.146  1.00  0.00     0.029 A 
ATOM     33  C   UNL A   1      45.334  27.939  32.967  1.00  0.00     0.049 A 
ATOM     34  H   UNL A   1      43.499  28.433  32.060  1.00  0.00     0.167 HD
ATOM     35  C   UNL A   1      45.285  26.484  30.946  1.00  0.00     0.074 A 
ATOM     36  C   UNL A   1      45.880  25.509  30.052  1.00  0.00     0.031 C 
ATOM     37  C   UNL A   1      45.892  26.976  32.052  1.00  0.00     0.031 A 
BRANCH  24  38
ATOM     38  C   UNL A   1      42.625  31.252  35.134  1.00  0.00    -0.014 A 
ATOM     39  C   UNL A   1      43.053  32.588  35.019  1.00  0.00     0.009 A 
ATOM     40  C   UNL A   1      42.118  30.810  36.362  1.00  0.00     0.009 A 
ATOM     41  C   UNL A   1      43.030  33.438  36.127  1.00  0.00     0.001 A 
ATOM     42  C   UNL A   1      42.066  31.671  37.461  1.00  0.00     0.001 A 
ATOM     43  C   UNL A   1      42.537  32.979  37.346  1.00  0.00     0.000 A 
ENDBRANCH  24  38
BRANCH  25  44
ATOM     44  C   UNL A   1      42.661  24.723  27.484  1.00  0.00    -0.014 A 
ATOM     45  C   UNL A   1      43.095  25.166  26.231  1.00  0.00     0.009 A 
ATOM     46  C   UNL A   1      42.229  23.389  27.599  1.00  0.00     0.009 A 
ATOM     47  C   UNL A   1      43.145  24.278  25.146  1.00  0.00     0.001 A 
ATOM     48  C   UNL A   1      42.330  22.490  26.535  1.00  0.00     0.001 A 
ATOM     49  C   UNL A   1      42.790  22.938  25.304  1.00  0.00     0.000 A 
ENDBRANCH  25  44
BRANCH  37  50
ATOM     50  C   UNL A   1      47.205  26.363  32.428  1.00  0.00    -0.014 A 
ATOM     51  C   UNL A   1      47.298  25.254  33.277  1.00  0.00     0.009 A 
ATOM     52  C   UNL A   1      48.374  26.895  31.857  1.00  0.00     0.009 A 
ATOM     53  C   UNL A   1      48.546  24.699  33.561  1.00  0.00     0.001 A 
ATOM     54  C   UNL A   1      49.614  26.317  32.115  1.00  0.00     0.001 A 
ATOM     55  C   UNL A   1      49.699  25.223  32.973  1.00  0.00     0.000 A 
ENDBRANCH  37  50
ENDBRANCH  11  12
ENDBRANCH   4   6
ENDBRANCH   3   4
ENDBRANCH   2   3
ENDBRANCH   1   2
BRANCH   1  56
ATOM     56  O   UNL A   1      32.548  34.584  29.744  1.00  0.00    -0.458 OA
BRANCH  56  57
ATOM     57  C   UNL A   1      32.931  35.672  30.457  1.00  0.00     0.339 C 
ATOM     58  O   UNL A   1      32.408  36.776  30.446  1.00  0.00    -0.246 OA
BRANCH  57  59
ATOM     59  C   UNL A   1      33.999  35.313  31.394  1.00  0.00     0.080 A 
ATOM     60  C   UNL A   1      34.175  36.095  32.516  1.00  0.00     0.131 A 
ATOM     61  C   UNL A   1      34.874  34.255  31.193  1.00  0.00     0.043 A 
ATOM     62  N   UNL A   1      35.091  35.824  33.473  1.00  0.00    -0.220 NA
ATOM     63  C   UNL A   1      35.902  34.019  32.124  1.00  0.00     0.104 A 
ATOM     64  C   UNL A   1      35.947  34.785  33.296  1.00  0.00     0.232 A 
ATOM     65  Cl  UNL A   1      37.069  32.861  31.613  1.00  0.00    -0.078 Cl
BRANCH  64  66
ATOM     66  O   UNL A   1      36.725  34.688  34.398  1.00  0.00    -0.476 OA
BRANCH  66  67
ATOM     67  C   UNL A   1      36.765  33.577  35.275  1.00  0.00     0.235 C 
BRANCH  67  68
ATOM     68  C   UNL A   1      38.145  33.029  35.447  1.00  0.00     0.027 C 
ATOM     69  C   UNL A   1      38.540  32.781  36.870  1.00  0.00     0.007 C 
ATOM     70  C   UNL A   1      38.462  31.626  35.927  1.00  0.00     0.007 C 
ENDBRANCH  67  68
ENDBRANCH  66  67
ENDBRANCH  64  66
ENDBRANCH  57  59
ENDBRANCH  56  57
ENDBRANCH   1  56
TORSDOF 14
ENDMDL
