MODEL 1
REMARK VINA RESULT:     -10.4      0.000      0.000
REMARK SMILES COc1ccc2c(c1)C=C(C(=O)OCCOC(=O)c1ccc(-c3c4nc(c(-c5ccccc5)c5ccc([nH]5)c(-c5ccccc5)c5nc(c(-c6ccccc6)c6ccc3[nH]6)C=C5)C=C4)cc1)[C@H](C(F)(F)F)O2
REMARK SMILES IDX 15 1 14 2 13 3 11 4 12 5 10 6 3 7 4 8 8 9 5 10 7 11 6 12
REMARK SMILES IDX 9 13 72 14 67 15 2 16 1 17 68 18 69 19 70 20 71 21 16 22
REMARK SMILES IDX 17 23 18 24 19 25 20 26 66 27 21 28 65 29 22 30 23 31 24 32
REMARK SMILES IDX 59 33 25 34 64 35 58 36 60 37 26 38 63 39 57 40 56 41 27 43
REMARK SMILES IDX 49 44 34 45 48 46 35 47 38 48 47 49 61 50 36 51 37 52 46 54
REMARK SMILES IDX 62 55 39 56 28 57 29 58 33 59 30 60 32 61 31 62 50 63 51 64
REMARK SMILES IDX 55 65 52 66 54 67 53 68 40 69 41 70 45 71 42 72 44 73 43 74
REMARK H PARENT 60 42 38 53
REMARK Flexibility Score: inf
ROOT
ATOM      1  C   UNL A   1      34.919  33.115  28.004  1.00  0.00     0.275 C 
ENDROOT
BRANCH   1   2
ATOM      2  C   UNL A   1      34.088  34.393  28.154  1.00  0.00     0.275 C 
BRANCH   2   3
ATOM      3  O   UNL A   1      34.452  35.136  29.337  1.00  0.00    -0.459 OA
BRANCH   3   4
ATOM      4  C   UNL A   1      33.642  34.970  30.417  1.00  0.00     0.338 C 
ATOM      5  O   UNL A   1      32.435  35.089  30.412  1.00  0.00    -0.246 OA
BRANCH   4   6
ATOM      6  C   UNL A   1      34.410  34.572  31.624  1.00  0.00     0.087 C 
ATOM      7  C   UNL A   1      37.524  31.752  34.016  1.00  0.00     0.119 A 
ATOM      8  C   UNL A   1      37.400  32.578  35.135  1.00  0.00     0.050 A 
ATOM      9  C   UNL A   1      36.853  32.083  32.830  1.00  0.00     0.058 A 
ATOM     10  C   UNL A   1      36.617  33.731  35.066  1.00  0.00     0.051 A 
ATOM     11  C   UNL A   1      36.042  33.220  32.765  1.00  0.00     0.021 A 
ATOM     12  C   UNL A   1      35.943  34.043  33.888  1.00  0.00     0.128 A 
ATOM     13  C   UNL A   1      35.329  33.592  31.545  1.00  0.00     0.027 C 
ATOM     14  O   UNL A   1      35.255  35.223  33.867  1.00  0.00    -0.475 OA
ATOM     15  C   UNL A   1      34.128  35.272  32.946  1.00  0.00     0.316 C 
BRANCH   7  16
ATOM     16  O   UNL A   1      38.315  30.638  33.944  1.00  0.00    -0.497 OA
ATOM     17  C   UNL A   1      39.366  30.550  34.901  1.00  0.00     0.278 C 
ENDBRANCH   7  16
BRANCH  15  18
ATOM     18  C   UNL A   1      33.626  36.729  32.925  1.00  0.00     0.430 C 
ATOM     19  F   UNL A   1      32.275  36.804  32.908  1.00  0.00    -0.167 F 
ATOM     20  F   UNL A   1      34.004  37.368  34.067  1.00  0.00    -0.167 F 
ATOM     21  F   UNL A   1      34.122  37.442  31.893  1.00  0.00    -0.167 F 
ENDBRANCH  15  18
ENDBRANCH   4   6
ENDBRANCH   3   4
ENDBRANCH   2   3
ENDBRANCH   1   2
BRANCH   1  22
ATOM     22  O   UNL A   1      34.295  32.003  28.673  1.00  0.00    -0.458 OA
BRANCH  22  23
ATOM     23  C   UNL A   1      34.428  30.813  28.041  1.00  0.00     0.338 C 
ATOM     24  O   UNL A   1      33.646  30.307  27.253  1.00  0.00    -0.246 OA
BRANCH  23  25
ATOM     25  C   UNL A   1      35.777  30.265  28.282  1.00  0.00     0.060 A 
ATOM     26  C   UNL A   1      36.043  29.801  29.574  1.00  0.00     0.016 A 
ATOM     27  C   UNL A   1      36.768  30.212  27.300  1.00  0.00     0.016 A 
ATOM     28  C   UNL A   1      37.273  29.221  29.877  1.00  0.00     0.010 A 
ATOM     29  C   UNL A   1      38.024  29.678  27.617  1.00  0.00     0.010 A 
ATOM     30  C   UNL A   1      38.278  29.171  28.904  1.00  0.00    -0.014 A 
BRANCH  30  31
ATOM     31  C   UNL A   1      39.626  28.695  29.288  1.00  0.00     0.031 A 
ATOM     32  C   UNL A   1      40.478  29.555  30.177  1.00  0.00     0.074 A 
ATOM     33  C   UNL A   1      40.069  27.486  28.898  1.00  0.00     0.049 A 
ATOM     34  N   UNL A   1      41.679  29.331  30.643  1.00  0.00    -0.248 NA
ATOM     35  C   UNL A   1      39.886  30.831  30.609  1.00  0.00     0.031 C 
ATOM     36  C   UNL A   1      39.309  26.519  28.108  1.00  0.00     0.029 A 
ATOM     37  N   UNL A   1      41.274  26.868  29.124  1.00  0.00    -0.354 N 
ATOM     38  C   UNL A   1      41.985  30.432  31.431  1.00  0.00     0.074 A 
ATOM     39  C   UNL A   1      40.853  31.331  31.365  1.00  0.00     0.031 C 
ATOM     40  C   UNL A   1      40.073  25.431  27.903  1.00  0.00     0.029 A 
ATOM     41  C   UNL A   1      41.384  25.640  28.520  1.00  0.00     0.049 A 
ATOM     42  H   UNL A   1      41.991  27.266  29.669  1.00  0.00     0.167 HD
ATOM     43  C   UNL A   1      43.111  30.677  32.144  1.00  0.00     0.031 A 
ATOM     44  C   UNL A   1      42.430  24.794  28.453  1.00  0.00     0.031 A 
ATOM     45  C   UNL A   1      44.260  29.812  32.171  1.00  0.00     0.049 A 
ATOM     46  C   UNL A   1      43.720  25.152  29.145  1.00  0.00     0.074 A 
ATOM     47  C   UNL A   1      45.457  29.990  32.843  1.00  0.00     0.029 A 
ATOM     48  N   UNL A   1      44.362  28.614  31.481  1.00  0.00    -0.354 N 
ATOM     49  N   UNL A   1      43.997  26.189  29.898  1.00  0.00    -0.248 NA
ATOM     50  C   UNL A   1      44.843  24.216  28.980  1.00  0.00     0.031 C 
ATOM     51  C   UNL A   1      46.306  28.930  32.510  1.00  0.00     0.029 A 
ATOM     52  C   UNL A   1      45.613  28.058  31.685  1.00  0.00     0.049 A 
ATOM     53  H   UNL A   1      43.650  28.218  30.929  1.00  0.00     0.167 HD
ATOM     54  C   UNL A   1      45.309  26.014  30.322  1.00  0.00     0.074 A 
ATOM     55  C   UNL A   1      45.770  24.766  29.752  1.00  0.00     0.031 C 
ATOM     56  C   UNL A   1      46.062  26.813  31.117  1.00  0.00     0.031 A 
BRANCH  43  57
ATOM     57  C   UNL A   1      43.168  31.970  32.906  1.00  0.00    -0.014 A 
ATOM     58  C   UNL A   1      43.622  33.152  32.302  1.00  0.00     0.009 A 
ATOM     59  C   UNL A   1      42.750  32.004  34.244  1.00  0.00     0.009 A 
ATOM     60  C   UNL A   1      43.688  34.339  33.036  1.00  0.00     0.001 A 
ATOM     61  C   UNL A   1      42.792  33.197  34.967  1.00  0.00     0.001 A 
ATOM     62  C   UNL A   1      43.271  34.360  34.367  1.00  0.00     0.000 A 
ENDBRANCH  43  57
BRANCH  44  63
ATOM     63  C   UNL A   1      42.329  23.533  27.669  1.00  0.00    -0.014 A 
ATOM     64  C   UNL A   1      41.892  22.344  28.271  1.00  0.00     0.009 A 
ATOM     65  C   UNL A   1      42.719  23.505  26.320  1.00  0.00     0.009 A 
ATOM     66  C   UNL A   1      41.877  21.148  27.548  1.00  0.00     0.001 A 
ATOM     67  C   UNL A   1      42.675  22.315  25.592  1.00  0.00     0.001 A 
ATOM     68  C   UNL A   1      42.266  21.134  26.210  1.00  0.00     0.000 A 
ENDBRANCH  44  63
BRANCH  56  69
ATOM     69  C   UNL A   1      47.451  26.345  31.459  1.00  0.00    -0.014 A 
ATOM     70  C   UNL A   1      47.720  25.645  32.644  1.00  0.00     0.009 A 
ATOM     71  C   UNL A   1      48.498  26.567  30.549  1.00  0.00     0.009 A 
ATOM     72  C   UNL A   1      49.015  25.205  32.927  1.00  0.00     0.001 A 
ATOM     73  C   UNL A   1      49.785  26.099  30.819  1.00  0.00     0.001 A 
ATOM     74  C   UNL A   1      50.045  25.427  32.012  1.00  0.00     0.000 A 
ENDBRANCH  56  69
ENDBRANCH  30  31
ENDBRANCH  23  25
ENDBRANCH  22  23
ENDBRANCH   1  22
TORSDOF 13
ENDMDL
MODEL 2
REMARK VINA RESULT:     -10.3      1.851      2.549
REMARK SMILES COc1ccc2c(c1)C=C(C(=O)OCCOC(=O)c1ccc(-c3c4nc(c(-c5ccccc5)c5ccc([nH]5)c(-c5ccccc5)c5nc(c(-c6ccccc6)c6ccc3[nH]6)C=C5)C=C4)cc1)[C@H](C(F)(F)F)O2
REMARK SMILES IDX 15 1 14 2 13 3 11 4 12 5 10 6 3 7 4 8 8 9 5 10 7 11 6 12
REMARK SMILES IDX 9 13 72 14 67 15 2 16 1 17 68 18 69 19 70 20 71 21 16 22
REMARK SMILES IDX 17 23 18 24 19 25 20 26 66 27 21 28 65 29 22 30 23 31 24 32
REMARK SMILES IDX 59 33 25 34 64 35 58 36 60 37 26 38 63 39 57 40 56 41 27 43
REMARK SMILES IDX 49 44 34 45 48 46 35 47 38 48 47 49 61 50 36 51 37 52 46 54
REMARK SMILES IDX 62 55 39 56 28 57 29 58 33 59 30 60 32 61 31 62 50 63 51 64
REMARK SMILES IDX 55 65 52 66 54 67 53 68 40 69 41 70 45 71 42 72 44 73 43 74
REMARK H PARENT 60 42 38 53
REMARK Flexibility Score: inf
ROOT
ATOM      1  C   UNL A   1      33.544  33.565  27.842  1.00  0.00     0.275 C 
ENDROOT
BRANCH   1   2
ATOM      2  C   UNL A   1      33.524  34.375  29.140  1.00  0.00     0.275 C 
BRANCH   2   3
ATOM      3  O   UNL A   1      34.822  34.413  29.771  1.00  0.00    -0.459 OA
BRANCH   3   4
ATOM      4  C   UNL A   1      35.006  33.552  30.808  1.00  0.00     0.338 C 
ATOM      5  O   UNL A   1      34.254  32.649  31.110  1.00  0.00    -0.246 OA
BRANCH   4   6
ATOM      6  C   UNL A   1      36.282  33.814  31.520  1.00  0.00     0.087 C 
ATOM      7  C   UNL A   1      41.071  34.447  31.691  1.00  0.00     0.119 A 
ATOM      8  C   UNL A   1      40.981  34.705  33.061  1.00  0.00     0.050 A 
ATOM      9  C   UNL A   1      39.905  34.223  30.948  1.00  0.00     0.058 A 
ATOM     10  C   UNL A   1      39.731  34.745  33.680  1.00  0.00     0.051 A 
ATOM     11  C   UNL A   1      38.652  34.231  31.569  1.00  0.00     0.021 A 
ATOM     12  C   UNL A   1      38.578  34.506  32.935  1.00  0.00     0.128 A 
ATOM     13  C   UNL A   1      37.417  33.999  30.823  1.00  0.00     0.027 C 
ATOM     14  O   UNL A   1      37.386  34.634  33.589  1.00  0.00    -0.475 OA
ATOM     15  C   UNL A   1      36.287  33.849  33.042  1.00  0.00     0.316 C 
BRANCH   7  16
ATOM     16  O   UNL A   1      42.232  34.451  30.966  1.00  0.00    -0.497 OA
ATOM     17  C   UNL A   1      42.177  35.090  29.695  1.00  0.00     0.278 C 
ENDBRANCH   7  16
BRANCH  15  18
ATOM     18  C   UNL A   1      35.009  34.287  33.782  1.00  0.00     0.430 C 
ATOM     19  F   UNL A   1      34.286  35.180  33.068  1.00  0.00    -0.167 F 
ATOM     20  F   UNL A   1      34.183  33.219  33.959  1.00  0.00    -0.167 F 
ATOM     21  F   UNL A   1      35.258  34.796  35.007  1.00  0.00    -0.167 F 
ENDBRANCH  15  18
ENDBRANCH   4   6
ENDBRANCH   3   4
ENDBRANCH   2   3
ENDBRANCH   1   2
BRANCH   1  22
ATOM     22  O   UNL A   1      34.752  32.789  27.725  1.00  0.00    -0.458 OA
BRANCH  22  23
ATOM     23  C   UNL A   1      34.577  31.450  27.813  1.00  0.00     0.338 C 
ATOM     24  O   UNL A   1      33.665  30.794  27.335  1.00  0.00    -0.246 OA
BRANCH  23  25
ATOM     25  C   UNL A   1      35.769  30.826  28.420  1.00  0.00     0.060 A 
ATOM     26  C   UNL A   1      37.010  31.331  28.022  1.00  0.00     0.016 A 
ATOM     27  C   UNL A   1      35.700  29.773  29.334  1.00  0.00     0.016 A 
ATOM     28  C   UNL A   1      38.186  30.837  28.582  1.00  0.00     0.010 A 
ATOM     29  C   UNL A   1      36.884  29.238  29.858  1.00  0.00     0.010 A 
ATOM     30  C   UNL A   1      38.131  29.775  29.492  1.00  0.00    -0.014 A 
BRANCH  30  31
ATOM     31  C   UNL A   1      39.396  29.160  29.956  1.00  0.00     0.031 A 
ATOM     32  C   UNL A   1      40.061  29.701  31.189  1.00  0.00     0.074 A 
ATOM     33  C   UNL A   1      39.920  28.096  29.322  1.00  0.00     0.049 A 
ATOM     34  N   UNL A   1      41.162  29.311  31.776  1.00  0.00    -0.248 NA
ATOM     35  C   UNL A   1      39.382  30.824  31.855  1.00  0.00     0.031 C 
ATOM     36  C   UNL A   1      39.329  27.420  28.168  1.00  0.00     0.029 A 
ATOM     37  N   UNL A   1      41.074  27.395  29.572  1.00  0.00    -0.354 N 
ATOM     38  C   UNL A   1      41.305  30.131  32.887  1.00  0.00     0.074 A 
ATOM     39  C   UNL A   1      40.190  31.054  32.881  1.00  0.00     0.031 C 
ATOM     40  C   UNL A   1      40.134  26.408  27.800  1.00  0.00     0.029 A 
ATOM     41  C   UNL A   1      41.309  26.385  28.671  1.00  0.00     0.049 A 
ATOM     42  H   UNL A   1      41.675  27.595  30.325  1.00  0.00     0.167 HD
ATOM     43  C   UNL A   1      42.280  30.123  33.826  1.00  0.00     0.031 A 
ATOM     44  C   UNL A   1      42.363  25.554  28.552  1.00  0.00     0.031 A 
ATOM     45  C   UNL A   1      43.419  29.244  33.808  1.00  0.00     0.049 A 
ATOM     46  C   UNL A   1      43.502  25.653  29.534  1.00  0.00     0.074 A 
ATOM     47  C   UNL A   1      44.473  29.180  34.704  1.00  0.00     0.029 A 
ATOM     48  N   UNL A   1      43.661  28.287  32.835  1.00  0.00    -0.354 N 
ATOM     49  N   UNL A   1      43.623  26.425  30.588  1.00  0.00    -0.248 NA
ATOM     50  C   UNL A   1      44.650  24.763  29.310  1.00  0.00     0.031 C 
ATOM     51  C   UNL A   1      45.384  28.226  34.237  1.00  0.00     0.029 A 
ATOM     52  C   UNL A   1      44.864  27.650  33.090  1.00  0.00     0.049 A 
ATOM     53  H   UNL A   1      43.066  28.090  32.076  1.00  0.00     0.167 HD
ATOM     54  C   UNL A   1      44.840  26.088  31.169  1.00  0.00     0.074 A 
ATOM     55  C   UNL A   1      45.415  25.036  30.358  1.00  0.00     0.031 C 
ATOM     56  C   UNL A   1      45.427  26.601  32.279  1.00  0.00     0.031 A 
BRANCH  43  57
ATOM     57  C   UNL A   1      42.180  31.144  34.923  1.00  0.00    -0.014 A 
ATOM     58  C   UNL A   1      41.352  30.940  36.036  1.00  0.00     0.009 A 
ATOM     59  C   UNL A   1      42.938  32.322  34.843  1.00  0.00     0.009 A 
ATOM     60  C   UNL A   1      41.258  31.914  37.033  1.00  0.00     0.001 A 
ATOM     61  C   UNL A   1      42.862  33.281  35.853  1.00  0.00     0.001 A 
ATOM     62  C   UNL A   1      42.015  33.082  36.942  1.00  0.00     0.000 A 
ENDBRANCH  43  57
BRANCH  44  63
ATOM     63  C   UNL A   1      42.423  24.571  27.437  1.00  0.00    -0.014 A 
ATOM     64  C   UNL A   1      41.914  23.274  27.592  1.00  0.00     0.009 A 
ATOM     65  C   UNL A   1      43.039  24.916  26.222  1.00  0.00     0.009 A 
ATOM     66  C   UNL A   1      42.048  22.333  26.566  1.00  0.00     0.001 A 
ATOM     67  C   UNL A   1      43.145  23.983  25.188  1.00  0.00     0.001 A 
ATOM     68  C   UNL A   1      42.661  22.689  25.366  1.00  0.00     0.000 A 
ENDBRANCH  44  63
BRANCH  56  69
ATOM     69  C   UNL A   1      46.738  26.005  32.712  1.00  0.00    -0.014 A 
ATOM     70  C   UNL A   1      47.962  26.491  32.229  1.00  0.00     0.009 A 
ATOM     71  C   UNL A   1      46.747  24.970  33.662  1.00  0.00     0.009 A 
ATOM     72  C   UNL A   1      49.166  25.932  32.664  1.00  0.00     0.001 A 
ATOM     73  C   UNL A   1      47.952  24.433  34.118  1.00  0.00     0.001 A 
ATOM     74  C   UNL A   1      49.160  24.908  33.612  1.00  0.00     0.000 A 
ENDBRANCH  56  69
ENDBRANCH  30  31
ENDBRANCH  23  25
ENDBRANCH  22  23
ENDBRANCH   1  22
TORSDOF 13
ENDMDL
MODEL 3
REMARK VINA RESULT:     -10.2      0.435      6.069
REMARK SMILES COc1ccc2c(c1)C=C(C(=O)OCCOC(=O)c1ccc(-c3c4nc(c(-c5ccccc5)c5ccc([nH]5)c(-c5ccccc5)c5nc(c(-c6ccccc6)c6ccc3[nH]6)C=C5)C=C4)cc1)[C@H](C(F)(F)F)O2
REMARK SMILES IDX 15 1 14 2 13 3 11 4 12 5 10 6 3 7 4 8 8 9 5 10 7 11 6 12
REMARK SMILES IDX 9 13 72 14 67 15 2 16 1 17 68 18 69 19 70 20 71 21 16 22
REMARK SMILES IDX 17 23 18 24 19 25 20 26 66 27 21 28 65 29 22 30 23 31 24 32
REMARK SMILES IDX 59 33 25 34 64 35 58 36 60 37 26 38 63 39 57 40 56 41 27 43
REMARK SMILES IDX 49 44 34 45 48 46 35 47 38 48 47 49 61 50 36 51 37 52 46 54
REMARK SMILES IDX 62 55 39 56 28 57 29 58 33 59 30 60 32 61 31 62 50 63 51 64
REMARK SMILES IDX 55 65 52 66 54 67 53 68 40 69 41 70 45 71 42 72 44 73 43 74
REMARK H PARENT 60 42 38 53
REMARK Flexibility Score: inf
ROOT
ATOM      1  C   UNL A   1      34.957  33.117  27.955  1.00  0.00     0.275 C 
ENDROOT
BRANCH   1   2
ATOM      2  C   UNL A   1      34.135  34.401  28.096  1.00  0.00     0.275 C 
BRANCH   2   3
ATOM      3  O   UNL A   1      34.475  35.129  29.295  1.00  0.00    -0.459 OA
BRANCH   3   4
ATOM      4  C   UNL A   1      33.657  34.932  30.364  1.00  0.00     0.338 C 
ATOM      5  O   UNL A   1      32.448  35.019  30.345  1.00  0.00    -0.246 OA
BRANCH   4   6
ATOM      6  C   UNL A   1      34.421  34.545  31.577  1.00  0.00     0.087 C 
ATOM      7  C   UNL A   1      37.544  31.761  33.999  1.00  0.00     0.119 A 
ATOM      8  C   UNL A   1      37.407  32.590  35.113  1.00  0.00     0.050 A 
ATOM      9  C   UNL A   1      36.878  32.082  32.808  1.00  0.00     0.058 A 
ATOM     10  C   UNL A   1      36.615  33.736  35.035  1.00  0.00     0.051 A 
ATOM     11  C   UNL A   1      36.058  33.212  32.734  1.00  0.00     0.021 A 
ATOM     12  C   UNL A   1      35.945  34.038  33.852  1.00  0.00     0.128 A 
ATOM     13  C   UNL A   1      35.349  33.573  31.508  1.00  0.00     0.027 C 
ATOM     14  O   UNL A   1      35.247  35.212  33.823  1.00  0.00    -0.475 OA
ATOM     15  C   UNL A   1      34.125  35.248  32.894  1.00  0.00     0.316 C 
BRANCH   7  16
ATOM     16  O   UNL A   1      38.344  30.653  33.936  1.00  0.00    -0.497 OA
ATOM     17  C   UNL A   1      39.450  30.625  34.833  1.00  0.00     0.278 C 
ENDBRANCH   7  16
BRANCH  15  18
ATOM     18  C   UNL A   1      33.612  36.701  32.865  1.00  0.00     0.430 C 
ATOM     19  F   UNL A   1      34.073  37.427  33.910  1.00  0.00    -0.167 F 
ATOM     20  F   UNL A   1      34.076  37.338  31.755  1.00  0.00    -0.167 F 
ATOM     21  F   UNL A   1      32.265  36.782  32.829  1.00  0.00    -0.167 F 
ENDBRANCH  15  18
ENDBRANCH   4   6
ENDBRANCH   3   4
ENDBRANCH   2   3
ENDBRANCH   1   2
BRANCH   1  22
ATOM     22  O   UNL A   1      34.284  31.994  28.556  1.00  0.00    -0.458 OA
BRANCH  22  23
ATOM     23  C   UNL A   1      34.492  30.809  27.934  1.00  0.00     0.338 C 
ATOM     24  O   UNL A   1      33.777  30.283  27.096  1.00  0.00    -0.246 OA
BRANCH  23  25
ATOM     25  C   UNL A   1      35.837  30.298  28.263  1.00  0.00     0.060 A 
ATOM     26  C   UNL A   1      36.045  29.888  29.584  1.00  0.00     0.016 A 
ATOM     27  C   UNL A   1      36.877  30.230  27.335  1.00  0.00     0.016 A 
ATOM     28  C   UNL A   1      37.268  29.345  29.970  1.00  0.00     0.010 A 
ATOM     29  C   UNL A   1      38.125  29.734  27.735  1.00  0.00     0.010 A 
ATOM     30  C   UNL A   1      38.322  29.280  29.052  1.00  0.00    -0.014 A 
BRANCH  30  31
ATOM     31  C   UNL A   1      39.658  28.846  29.521  1.00  0.00     0.031 A 
ATOM     32  C   UNL A   1      40.197  27.521  29.065  1.00  0.00     0.074 A 
ATOM     33  C   UNL A   1      40.410  29.646  30.299  1.00  0.00     0.049 A 
ATOM     34  N   UNL A   1      41.340  26.951  29.342  1.00  0.00    -0.248 NA
ATOM     35  C   UNL A   1      39.334  26.743  28.162  1.00  0.00     0.031 C 
ATOM     36  C   UNL A   1      40.042  30.989  30.740  1.00  0.00     0.029 A 
ATOM     37  N   UNL A   1      41.649  29.435  30.851  1.00  0.00    -0.354 N 
ATOM     38  C   UNL A   1      41.342  25.753  28.642  1.00  0.00     0.074 A 
ATOM     39  C   UNL A   1      40.077  25.668  27.943  1.00  0.00     0.031 C 
ATOM     40  C   UNL A   1      41.031  31.480  31.509  1.00  0.00     0.029 A 
ATOM     41  C   UNL A   1      42.084  30.473  31.638  1.00  0.00     0.049 A 
ATOM     42  H   UNL A   1      42.177  28.618  30.697  1.00  0.00     0.167 HD
ATOM     43  C   UNL A   1      42.306  24.803  28.589  1.00  0.00     0.031 A 
ATOM     44  C   UNL A   1      43.194  30.585  32.393  1.00  0.00     0.031 A 
ATOM     45  C   UNL A   1      43.541  24.858  29.323  1.00  0.00     0.049 A 
ATOM     46  C   UNL A   1      44.191  29.455  32.422  1.00  0.00     0.074 A 
ATOM     47  C   UNL A   1      44.568  23.929  29.352  1.00  0.00     0.029 A 
ATOM     48  N   UNL A   1      43.910  25.890  30.171  1.00  0.00    -0.354 N 
ATOM     49  N   UNL A   1      44.189  28.330  31.747  1.00  0.00    -0.248 NA
ATOM     50  C   UNL A   1      45.348  29.614  33.316  1.00  0.00     0.031 C 
ATOM     51  C   UNL A   1      45.529  24.371  30.267  1.00  0.00     0.029 A 
ATOM     52  C   UNL A   1      45.133  25.606  30.755  1.00  0.00     0.049 A 
ATOM     53  H   UNL A   1      43.381  26.703  30.334  1.00  0.00     0.167 HD
ATOM     54  C   UNL A   1      45.356  27.667  32.109  1.00  0.00     0.074 A 
ATOM     55  C   UNL A   1      46.047  28.519  33.053  1.00  0.00     0.031 C 
ATOM     56  C   UNL A   1      45.816  26.462  31.691  1.00  0.00     0.031 A 
BRANCH  43  57
ATOM     57  C   UNL A   1      42.025  23.592  27.746  1.00  0.00    -0.014 A 
ATOM     58  C   UNL A   1      41.371  22.470  28.276  1.00  0.00     0.009 A 
ATOM     59  C   UNL A   1      42.411  23.583  26.397  1.00  0.00     0.009 A 
ATOM     60  C   UNL A   1      41.141  21.346  27.479  1.00  0.00     0.001 A 
ATOM     61  C   UNL A   1      42.156  22.469  25.597  1.00  0.00     0.001 A 
ATOM     62  C   UNL A   1      41.531  21.348  26.141  1.00  0.00     0.000 A 
ENDBRANCH  43  57
BRANCH  44  63
ATOM     63  C   UNL A   1      43.417  31.798  33.226  1.00  0.00    -0.014 A 
ATOM     64  C   UNL A   1      42.942  31.864  34.544  1.00  0.00     0.009 A 
ATOM     65  C   UNL A   1      44.067  32.919  32.684  1.00  0.00     0.009 A 
ATOM     66  C   UNL A   1      43.085  33.037  35.291  1.00  0.00     0.001 A 
ATOM     67  C   UNL A   1      44.234  34.080  33.443  1.00  0.00     0.001 A 
ATOM     68  C   UNL A   1      43.732  34.142  34.741  1.00  0.00     0.000 A 
ENDBRANCH  44  63
BRANCH  56  69
ATOM     69  C   UNL A   1      47.151  26.006  32.215  1.00  0.00    -0.014 A 
ATOM     70  C   UNL A   1      48.346  26.316  31.549  1.00  0.00     0.009 A 
ATOM     71  C   UNL A   1      47.213  25.298  33.426  1.00  0.00     0.009 A 
ATOM     72  C   UNL A   1      49.574  25.898  32.069  1.00  0.00     0.001 A 
ATOM     73  C   UNL A   1      48.442  24.907  33.959  1.00  0.00     0.001 A 
ATOM     74  C   UNL A   1      49.621  25.200  33.275  1.00  0.00     0.000 A 
ENDBRANCH  56  69
ENDBRANCH  30  31
ENDBRANCH  23  25
ENDBRANCH  22  23
ENDBRANCH   1  22
TORSDOF 13
ENDMDL
