MODEL 1
REMARK VINA RESULT:     -12.6      0.000      0.000
REMARK SMILES Cc1oc2c(C)c3oc(=O)c(CCC(=O)N[C@H](Cc4ccc(Cl)cc4)C(=O)OCCOC(=O)c4ccc(-c5c6nc(c(-c7ccccc7)c7ccc([nH]7)c(-c7ccccc7)c7nc(c(-c8ccccc8)c8ccc5[nH]8)C=C7)C=C6)cc4)c(C)c3cc2c1C
REMARK SMILES IDX 29 1 28 2 26 3 27 4 17 5 16 6 14 7 15 8 13 10 12 11 11 12
REMARK SMILES IDX 1 13 2 14 3 15 87 16 4 17 86 18 88 19 5 20 85 21 6 22 7 23
REMARK SMILES IDX 84 24 8 25 82 26 9 27 83 28 10 29 18 30 19 31 20 32 25 33
REMARK SMILES IDX 21 34 24 35 22 36 23 37 30 38 31 39 32 40 33 41 34 42 35 43
REMARK SMILES IDX 81 44 36 45 80 46 37 47 38 48 39 49 74 50 40 51 79 52 73 53
REMARK SMILES IDX 75 54 41 55 78 56 72 57 71 58 42 60 64 61 49 62 63 63 50 64
REMARK SMILES IDX 53 65 62 66 76 67 51 68 52 69 61 71 77 72 54 73 43 74 44 75
REMARK SMILES IDX 48 76 45 77 47 78 46 79 65 80 66 81 70 82 67 83 69 84 68 85
REMARK SMILES IDX 55 86 56 87 60 88 57 89 59 90 58 91
REMARK H PARENT 16 9 75 59 53 70
REMARK Flexibility Score: inf
ROOT
ATOM      1  C   UNL A   1      33.666  29.372  26.239  1.00  0.00     0.274 C 
ENDROOT
BRANCH   1   2
ATOM      2  O   UNL A   1      32.862  28.329  26.857  1.00  0.00    -0.461 OA
BRANCH   2   3
ATOM      3  C   UNL A   1      32.786  27.064  26.350  1.00  0.00     0.329 C 
ATOM      4  O   UNL A   1      33.765  26.410  26.015  1.00  0.00    -0.250 OA
BRANCH   3   5
ATOM      5  C   UNL A   1      31.295  26.605  26.080  1.00  0.00     0.196 C 
BRANCH   5   6
ATOM      6  N   UNL A   1      31.074  25.285  26.758  1.00  0.00    -0.342 N 
ATOM      7  C   UNL A   1      30.580  24.067  26.415  1.00  0.00     0.221 C 
ATOM      8  O   UNL A   1      29.946  23.534  27.340  1.00  0.00    -0.275 OA
ATOM      9  H   UNL A   1      31.363  25.306  27.698  1.00  0.00     0.164 HD
BRANCH   7  10
ATOM     10  C   UNL A   1      30.946  23.194  25.193  1.00  0.00     0.105 C 
BRANCH  10  11
ATOM     11  C   UNL A   1      32.161  23.228  24.220  1.00  0.00     0.053 C 
BRANCH  11  12
ATOM     12  C   UNL A   1      33.526  22.678  24.595  1.00  0.00     0.042 A 
ATOM     13  C   UNL A   1      41.632  23.330  26.425  1.00  0.00     0.088 C 
ATOM     14  C   UNL A   1      40.171  23.089  26.449  1.00  0.00     0.105 A 
ATOM     15  O   UNL A   1      39.716  21.901  25.938  1.00  0.00    -0.461 OA
ATOM     16  C   UNL A   1      39.113  23.902  26.811  1.00  0.00    -0.002 A 
ATOM     17  C   UNL A   1      38.356  22.009  25.803  1.00  0.00     0.141 A 
ATOM     18  C   UNL A   1      37.963  23.246  26.276  1.00  0.00     0.025 A 
ATOM     19  C   UNL A   1      39.206  25.256  27.423  1.00  0.00     0.049 C 
ATOM     20  C   UNL A   1      37.457  21.072  25.258  1.00  0.00     0.036 A 
ATOM     21  C   UNL A   1      36.634  23.629  26.049  1.00  0.00     0.024 A 
ATOM     22  C   UNL A   1      37.843  19.653  25.021  1.00  0.00     0.052 C 
ATOM     23  C   UNL A   1      36.183  21.599  24.919  1.00  0.00     0.145 A 
ATOM     24  C   UNL A   1      35.836  22.915  25.149  1.00  0.00     0.022 A 
ATOM     25  O   UNL A   1      35.156  20.780  24.387  1.00  0.00    -0.422 OA
ATOM     26  C   UNL A   1      34.623  23.438  24.497  1.00  0.00    -0.030 A 
ATOM     27  C   UNL A   1      33.804  21.206  24.391  1.00  0.00     0.339 A 
ATOM     28  C   UNL A   1      34.614  24.325  23.264  1.00  0.00     0.046 C 
ATOM     29  O   UNL A   1      32.895  20.445  24.069  1.00  0.00    -0.246 OA
ENDBRANCH  11  12
ENDBRANCH  10  11
ENDBRANCH   7  10
ENDBRANCH   5   6
BRANCH   5  30
ATOM     30  C   UNL A   1      30.202  26.688  24.867  1.00  0.00     0.072 C 
BRANCH  30  31
ATOM     31  C   UNL A   1      29.687  27.611  23.720  1.00  0.00    -0.045 A 
ATOM     32  C   UNL A   1      30.553  28.530  23.102  1.00  0.00     0.005 A 
ATOM     33  C   UNL A   1      28.325  27.860  23.442  1.00  0.00     0.005 A 
ATOM     34  C   UNL A   1      30.080  29.579  22.271  1.00  0.00     0.021 A 
ATOM     35  C   UNL A   1      27.835  28.863  22.589  1.00  0.00     0.021 A 
ATOM     36  C   UNL A   1      28.723  29.736  22.011  1.00  0.00     0.041 A 
ATOM     37  Cl  UNL A   1      28.142  31.006  21.012  1.00  0.00    -0.084 Cl
ENDBRANCH  30  31
ENDBRANCH   5  30
ENDBRANCH   3   5
ENDBRANCH   2   3
ENDBRANCH   1   2
BRANCH   1  38
ATOM     38  C   UNL A   1      33.525  30.731  26.921  1.00  0.00     0.275 C 
BRANCH  38  39
ATOM     39  O   UNL A   1      34.442  30.724  28.014  1.00  0.00    -0.458 OA
BRANCH  39  40
ATOM     40  C   UNL A   1      35.440  31.607  27.948  1.00  0.00     0.338 C 
ATOM     41  O   UNL A   1      35.377  32.771  27.533  1.00  0.00    -0.246 OA
BRANCH  40  42
ATOM     42  C   UNL A   1      36.665  31.001  28.459  1.00  0.00     0.060 A 
ATOM     43  C   UNL A   1      37.690  31.790  29.000  1.00  0.00     0.016 A 
ATOM     44  C   UNL A   1      36.805  29.620  28.351  1.00  0.00     0.016 A 
ATOM     45  C   UNL A   1      38.860  31.195  29.441  1.00  0.00     0.010 A 
ATOM     46  C   UNL A   1      37.966  29.022  28.811  1.00  0.00     0.010 A 
ATOM     47  C   UNL A   1      38.983  29.807  29.378  1.00  0.00    -0.014 A 
BRANCH  47  48
ATOM     48  C   UNL A   1      40.085  29.192  30.132  1.00  0.00     0.031 A 
ATOM     49  C   UNL A   1      41.416  29.643  29.623  1.00  0.00     0.074 A 
ATOM     50  C   UNL A   1      39.988  28.870  31.435  1.00  0.00     0.049 A 
ATOM     51  N   UNL A   1      41.937  30.781  29.979  1.00  0.00    -0.248 NA
ATOM     52  C   UNL A   1      42.029  29.051  28.434  1.00  0.00     0.031 C 
ATOM     53  C   UNL A   1      39.145  29.598  32.384  1.00  0.00     0.029 A 
ATOM     54  N   UNL A   1      40.792  28.078  32.219  1.00  0.00    -0.354 N 
ATOM     55  C   UNL A   1      42.848  31.126  29.002  1.00  0.00     0.074 A 
ATOM     56  C   UNL A   1      42.913  30.002  28.093  1.00  0.00     0.031 C 
ATOM     57  C   UNL A   1      39.617  29.377  33.628  1.00  0.00     0.029 A 
ATOM     58  C   UNL A   1      40.673  28.373  33.573  1.00  0.00     0.049 A 
ATOM     59  H   UNL A   1      41.386  27.378  31.863  1.00  0.00     0.167 HD
ATOM     60  C   UNL A   1      43.445  32.344  28.943  1.00  0.00     0.031 A 
ATOM     61  C   UNL A   1      41.681  28.242  34.476  1.00  0.00     0.031 A 
ATOM     62  C   UNL A   1      43.079  33.283  29.960  1.00  0.00     0.049 A 
ATOM     63  C   UNL A   1      42.518  29.455  34.162  1.00  0.00     0.074 A 
ATOM     64  C   UNL A   1      42.246  34.376  30.080  1.00  0.00     0.029 A 
ATOM     65  N   UNL A   1      43.628  33.128  31.209  1.00  0.00    -0.354 N 
ATOM     66  N   UNL A   1      42.310  30.678  34.567  1.00  0.00    -0.248 NA
ATOM     67  C   UNL A   1      43.472  29.334  33.056  1.00  0.00     0.031 C 
ATOM     68  C   UNL A   1      42.015  34.534  31.483  1.00  0.00     0.029 A 
ATOM     69  C   UNL A   1      42.676  33.490  32.127  1.00  0.00     0.049 A 
ATOM     70  H   UNL A   1      44.539  32.814  31.410  1.00  0.00     0.167 HD
ATOM     71  C   UNL A   1      42.857  31.493  33.572  1.00  0.00     0.074 A 
ATOM     72  C   UNL A   1      43.606  30.605  32.706  1.00  0.00     0.031 C 
ATOM     73  C   UNL A   1      42.504  32.800  33.388  1.00  0.00     0.031 A 
BRANCH  60  74
ATOM     74  C   UNL A   1      44.498  32.685  27.972  1.00  0.00    -0.014 A 
ATOM     75  C   UNL A   1      45.828  32.458  28.355  1.00  0.00     0.009 A 
ATOM     76  C   UNL A   1      44.229  33.357  26.776  1.00  0.00     0.009 A 
ATOM     77  C   UNL A   1      46.880  32.925  27.573  1.00  0.00     0.001 A 
ATOM     78  C   UNL A   1      45.289  33.819  25.988  1.00  0.00     0.001 A 
ATOM     79  C   UNL A   1      46.609  33.612  26.392  1.00  0.00     0.000 A 
ENDBRANCH  60  74
BRANCH  61  80
ATOM     80  C   UNL A   1      42.255  26.864  34.604  1.00  0.00    -0.014 A 
ATOM     81  C   UNL A   1      41.562  25.933  35.406  1.00  0.00     0.009 A 
ATOM     82  C   UNL A   1      43.443  26.431  34.000  1.00  0.00     0.009 A 
ATOM     83  C   UNL A   1      41.984  24.605  35.520  1.00  0.00     0.001 A 
ATOM     84  C   UNL A   1      43.852  25.094  34.089  1.00  0.00     0.001 A 
ATOM     85  C   UNL A   1      43.118  24.180  34.840  1.00  0.00     0.000 A 
ENDBRANCH  61  80
BRANCH  73  86
ATOM     86  C   UNL A   1      41.680  33.420  34.470  1.00  0.00    -0.014 A 
ATOM     87  C   UNL A   1      42.298  34.197  35.460  1.00  0.00     0.009 A 
ATOM     88  C   UNL A   1      40.283  33.283  34.492  1.00  0.00     0.009 A 
ATOM     89  C   UNL A   1      41.534  34.843  36.434  1.00  0.00     0.001 A 
ATOM     90  C   UNL A   1      39.518  33.946  35.455  1.00  0.00     0.001 A 
ATOM     91  C   UNL A   1      40.145  34.728  36.422  1.00  0.00     0.000 A 
ENDBRANCH  73  86
ENDBRANCH  47  48
ENDBRANCH  40  42
ENDBRANCH  39  40
ENDBRANCH  38  39
ENDBRANCH   1  38
TORSDOF 17
ENDMDL
MODEL 2
REMARK VINA RESULT:     -12.3      2.689      6.004
REMARK SMILES Cc1oc2c(C)c3oc(=O)c(CCC(=O)N[C@H](Cc4ccc(Cl)cc4)C(=O)OCCOC(=O)c4ccc(-c5c6nc(c(-c7ccccc7)c7ccc([nH]7)c(-c7ccccc7)c7nc(c(-c8ccccc8)c8ccc5[nH]8)C=C7)C=C6)cc4)c(C)c3cc2c1C
REMARK SMILES IDX 29 1 28 2 26 3 27 4 17 5 16 6 14 7 15 8 13 10 12 11 11 12
REMARK SMILES IDX 1 13 2 14 3 15 87 16 4 17 86 18 88 19 5 20 85 21 6 22 7 23
REMARK SMILES IDX 84 24 8 25 82 26 9 27 83 28 10 29 18 30 19 31 20 32 25 33
REMARK SMILES IDX 21 34 24 35 22 36 23 37 30 38 31 39 32 40 33 41 34 42 35 43
REMARK SMILES IDX 81 44 36 45 80 46 37 47 38 48 39 49 74 50 40 51 79 52 73 53
REMARK SMILES IDX 75 54 41 55 78 56 72 57 71 58 42 60 64 61 49 62 63 63 50 64
REMARK SMILES IDX 53 65 62 66 76 67 51 68 52 69 61 71 77 72 54 73 43 74 44 75
REMARK SMILES IDX 48 76 45 77 47 78 46 79 65 80 66 81 70 82 67 83 69 84 68 85
REMARK SMILES IDX 55 86 56 87 60 88 57 89 59 90 58 91
REMARK H PARENT 16 9 75 59 53 70
REMARK Flexibility Score: inf
ROOT
ATOM      1  C   UNL A   1      32.998  30.782  26.731  1.00  0.00     0.274 C 
ENDROOT
BRANCH   1   2
ATOM      2  O   UNL A   1      32.689  29.894  25.621  1.00  0.00    -0.461 OA
BRANCH   2   3
ATOM      3  C   UNL A   1      31.813  28.854  25.735  1.00  0.00     0.329 C 
ATOM      4  O   UNL A   1      31.388  28.443  26.807  1.00  0.00    -0.250 OA
BRANCH   3   5
ATOM      5  C   UNL A   1      31.546  28.129  24.354  1.00  0.00     0.196 C 
BRANCH   5   6
ATOM      6  N   UNL A   1      30.063  28.053  24.136  1.00  0.00    -0.342 N 
ATOM      7  C   UNL A   1      29.136  27.075  23.969  1.00  0.00     0.221 C 
ATOM      8  O   UNL A   1      28.246  27.395  23.165  1.00  0.00    -0.275 OA
ATOM      9  H   UNL A   1      29.655  28.948  24.105  1.00  0.00     0.164 HD
BRANCH   7  10
ATOM     10  C   UNL A   1      28.909  25.814  24.834  1.00  0.00     0.105 C 
BRANCH  10  11
ATOM     11  C   UNL A   1      29.659  25.261  26.081  1.00  0.00     0.053 C 
BRANCH  11  12
ATOM     12  C   UNL A   1      30.842  24.315  25.973  1.00  0.00     0.042 A 
ATOM     13  C   UNL A   1      34.464  16.993  24.313  1.00  0.00     0.088 C 
ATOM     14  C   UNL A   1      34.032  18.410  24.325  1.00  0.00     0.105 A 
ATOM     15  O   UNL A   1      34.653  19.254  25.208  1.00  0.00    -0.461 OA
ATOM     16  C   UNL A   1      33.010  19.063  23.661  1.00  0.00    -0.002 A 
ATOM     17  C   UNL A   1      33.922  20.412  25.249  1.00  0.00     0.141 A 
ATOM     18  C   UNL A   1      32.875  20.304  24.354  1.00  0.00     0.025 A 
ATOM     19  C   UNL A   1      32.125  18.486  22.613  1.00  0.00     0.049 C 
ATOM     20  C   UNL A   1      34.128  21.546  26.059  1.00  0.00     0.036 A 
ATOM     21  C   UNL A   1      31.897  21.308  24.385  1.00  0.00     0.024 A 
ATOM     22  C   UNL A   1      35.402  21.767  26.798  1.00  0.00     0.052 C 
ATOM     23  C   UNL A   1      33.016  22.424  26.145  1.00  0.00     0.145 A 
ATOM     24  C   UNL A   1      31.842  22.211  25.452  1.00  0.00     0.022 A 
ATOM     25  O   UNL A   1      33.072  23.625  26.897  1.00  0.00    -0.422 OA
ATOM     26  C   UNL A   1      30.657  22.997  25.832  1.00  0.00    -0.030 A 
ATOM     27  C   UNL A   1      32.124  24.660  26.696  1.00  0.00     0.339 A 
ATOM     28  C   UNL A   1      29.501  22.474  26.669  1.00  0.00     0.046 C 
ATOM     29  O   UNL A   1      32.253  25.756  27.235  1.00  0.00    -0.246 OA
ENDBRANCH  11  12
ENDBRANCH  10  11
ENDBRANCH   7  10
ENDBRANCH   5   6
BRANCH   5  30
ATOM     30  C   UNL A   1      32.203  26.917  23.473  1.00  0.00     0.072 C 
BRANCH  30  31
ATOM     31  C   UNL A   1      33.109  25.653  23.581  1.00  0.00    -0.045 A 
ATOM     32  C   UNL A   1      34.247  25.661  24.408  1.00  0.00     0.005 A 
ATOM     33  C   UNL A   1      33.095  24.576  22.668  1.00  0.00     0.005 A 
ATOM     34  C   UNL A   1      35.253  24.663  24.324  1.00  0.00     0.021 A 
ATOM     35  C   UNL A   1      34.055  23.553  22.596  1.00  0.00     0.021 A 
ATOM     36  C   UNL A   1      35.148  23.608  23.424  1.00  0.00     0.041 A 
ATOM     37  Cl  UNL A   1      36.363  22.400  23.313  1.00  0.00    -0.084 Cl
ENDBRANCH  30  31
ENDBRANCH   5  30
ENDBRANCH   3   5
ENDBRANCH   2   3
ENDBRANCH   1   2
BRANCH   1  38
ATOM     38  C   UNL A   1      34.271  30.398  27.480  1.00  0.00     0.275 C 
BRANCH  38  39
ATOM     39  O   UNL A   1      35.076  31.576  27.526  1.00  0.00    -0.458 OA
BRANCH  39  40
ATOM     40  C   UNL A   1      35.160  32.183  28.712  1.00  0.00     0.338 C 
ATOM     41  O   UNL A   1      34.386  33.034  29.168  1.00  0.00    -0.246 OA
BRANCH  40  42
ATOM     42  C   UNL A   1      36.325  31.686  29.434  1.00  0.00     0.060 A 
ATOM     43  C   UNL A   1      36.304  31.544  30.829  1.00  0.00     0.016 A 
ATOM     44  C   UNL A   1      37.475  31.400  28.703  1.00  0.00     0.016 A 
ATOM     45  C   UNL A   1      37.437  31.109  31.496  1.00  0.00     0.010 A 
ATOM     46  C   UNL A   1      38.601  30.944  29.367  1.00  0.00     0.010 A 
ATOM     47  C   UNL A   1      38.574  30.776  30.760  1.00  0.00    -0.014 A 
BRANCH  47  48
ATOM     48  C   UNL A   1      39.633  30.029  31.455  1.00  0.00     0.031 A 
ATOM     49  C   UNL A   1      39.809  28.662  30.878  1.00  0.00     0.074 A 
ATOM     50  C   UNL A   1      40.713  30.625  31.995  1.00  0.00     0.049 A 
ATOM     51  N   UNL A   1      40.507  28.456  29.799  1.00  0.00    -0.248 NA
ATOM     52  C   UNL A   1      38.927  27.553  31.239  1.00  0.00     0.031 C 
ATOM     53  C   UNL A   1      41.302  31.857  31.468  1.00  0.00     0.029 A 
ATOM     54  N   UNL A   1      41.647  30.142  32.880  1.00  0.00    -0.354 N 
ATOM     55  C   UNL A   1      40.070  27.262  29.262  1.00  0.00     0.074 A 
ATOM     56  C   UNL A   1      39.131  26.710  30.214  1.00  0.00     0.031 C 
ATOM     57  C   UNL A   1      42.584  31.924  31.879  1.00  0.00     0.029 A 
ATOM     58  C   UNL A   1      42.847  30.843  32.822  1.00  0.00     0.049 A 
ATOM     59  H   UNL A   1      41.485  29.386  33.488  1.00  0.00     0.167 HD
ATOM     60  C   UNL A   1      40.441  26.825  28.031  1.00  0.00     0.031 A 
ATOM     61  C   UNL A   1      44.066  30.294  33.069  1.00  0.00     0.031 A 
ATOM     62  C   UNL A   1      41.323  27.675  27.291  1.00  0.00     0.049 A 
ATOM     63  C   UNL A   1      44.310  29.533  31.791  1.00  0.00     0.074 A 
ATOM     64  C   UNL A   1      41.226  28.590  26.264  1.00  0.00     0.029 A 
ATOM     65  N   UNL A   1      42.652  27.682  27.636  1.00  0.00    -0.354 N 
ATOM     66  N   UNL A   1      44.752  30.015  30.663  1.00  0.00    -0.248 NA
ATOM     67  C   UNL A   1      43.713  28.198  31.690  1.00  0.00     0.031 C 
ATOM     68  C   UNL A   1      42.403  29.398  26.353  1.00  0.00     0.029 A 
ATOM     69  C   UNL A   1      43.116  28.961  27.467  1.00  0.00     0.049 A 
ATOM     70  H   UNL A   1      43.177  26.909  27.947  1.00  0.00     0.167 HD
ATOM     71  C   UNL A   1      44.209  29.191  29.673  1.00  0.00     0.074 A 
ATOM     72  C   UNL A   1      43.633  28.063  30.374  1.00  0.00     0.031 C 
ATOM     73  C   UNL A   1      44.075  29.569  28.366  1.00  0.00     0.031 A 
BRANCH  60  74
ATOM     74  C   UNL A   1      40.069  25.504  27.495  1.00  0.00    -0.014 A 
ATOM     75  C   UNL A   1      38.808  25.381  26.894  1.00  0.00     0.009 A 
ATOM     76  C   UNL A   1      40.849  24.363  27.703  1.00  0.00     0.009 A 
ATOM     77  C   UNL A   1      38.312  24.133  26.535  1.00  0.00     0.001 A 
ATOM     78  C   UNL A   1      40.351  23.108  27.333  1.00  0.00     0.001 A 
ATOM     79  C   UNL A   1      39.083  22.994  26.761  1.00  0.00     0.000 A 
ENDBRANCH  60  74
BRANCH  61  80
ATOM     80  C   UNL A   1      44.235  29.687  34.427  1.00  0.00    -0.014 A 
ATOM     81  C   UNL A   1      43.843  30.452  35.546  1.00  0.00     0.009 A 
ATOM     82  C   UNL A   1      44.771  28.416  34.677  1.00  0.00     0.009 A 
ATOM     83  C   UNL A   1      43.896  29.935  36.844  1.00  0.00     0.001 A 
ATOM     84  C   UNL A   1      44.798  27.885  35.973  1.00  0.00     0.001 A 
ATOM     85  C   UNL A   1      44.350  28.640  37.053  1.00  0.00     0.000 A 
ENDBRANCH  61  80
BRANCH  73  86
ATOM     86  C   UNL A   1      44.776  30.828  27.967  1.00  0.00    -0.014 A 
ATOM     87  C   UNL A   1      46.110  30.778  27.540  1.00  0.00     0.009 A 
ATOM     88  C   UNL A   1      44.109  32.063  27.962  1.00  0.00     0.009 A 
ATOM     89  C   UNL A   1      46.756  31.933  27.094  1.00  0.00     0.001 A 
ATOM     90  C   UNL A   1      44.750  33.215  27.497  1.00  0.00     0.001 A 
ATOM     91  C   UNL A   1      46.070  33.147  27.060  1.00  0.00     0.000 A 
ENDBRANCH  73  86
ENDBRANCH  47  48
ENDBRANCH  40  42
ENDBRANCH  39  40
ENDBRANCH  38  39
ENDBRANCH   1  38
TORSDOF 17
ENDMDL
MODEL 3
REMARK VINA RESULT:     -12.0      2.224      5.598
REMARK SMILES Cc1oc2c(C)c3oc(=O)c(CCC(=O)N[C@H](Cc4ccc(Cl)cc4)C(=O)OCCOC(=O)c4ccc(-c5c6nc(c(-c7ccccc7)c7ccc([nH]7)c(-c7ccccc7)c7nc(c(-c8ccccc8)c8ccc5[nH]8)C=C7)C=C6)cc4)c(C)c3cc2c1C
REMARK SMILES IDX 29 1 28 2 26 3 27 4 17 5 16 6 14 7 15 8 13 10 12 11 11 12
REMARK SMILES IDX 1 13 2 14 3 15 87 16 4 17 86 18 88 19 5 20 85 21 6 22 7 23
REMARK SMILES IDX 84 24 8 25 82 26 9 27 83 28 10 29 18 30 19 31 20 32 25 33
REMARK SMILES IDX 21 34 24 35 22 36 23 37 30 38 31 39 32 40 33 41 34 42 35 43
REMARK SMILES IDX 81 44 36 45 80 46 37 47 38 48 39 49 74 50 40 51 79 52 73 53
REMARK SMILES IDX 75 54 41 55 78 56 72 57 71 58 42 60 64 61 49 62 63 63 50 64
REMARK SMILES IDX 53 65 62 66 76 67 51 68 52 69 61 71 77 72 54 73 43 74 44 75
REMARK SMILES IDX 48 76 45 77 47 78 46 79 65 80 66 81 70 82 67 83 69 84 68 85
REMARK SMILES IDX 55 86 56 87 60 88 57 89 59 90 58 91
REMARK H PARENT 16 9 75 59 53 70
REMARK Flexibility Score: inf
ROOT
ATOM      1  C   UNL A   1      31.924  28.188  27.173  1.00  0.00     0.274 C 
ENDROOT
BRANCH   1   2
ATOM      2  O   UNL A   1      30.774  27.401  26.754  1.00  0.00    -0.461 OA
BRANCH   2   3
ATOM      3  C   UNL A   1      30.886  26.115  26.314  1.00  0.00     0.329 C 
ATOM      4  O   UNL A   1      31.414  25.222  26.963  1.00  0.00    -0.250 OA
BRANCH   3   5
ATOM      5  C   UNL A   1      30.419  25.943  24.811  1.00  0.00     0.196 C 
BRANCH   5   6
ATOM      6  N   UNL A   1      31.522  25.276  24.044  1.00  0.00    -0.342 N 
ATOM      7  C   UNL A   1      32.826  25.531  23.761  1.00  0.00     0.221 C 
ATOM      8  O   UNL A   1      33.144  25.170  22.617  1.00  0.00    -0.275 OA
ATOM      9  H   UNL A   1      31.223  24.431  23.637  1.00  0.00     0.164 HD
BRANCH   7  10
ATOM     10  C   UNL A   1      33.960  25.916  24.740  1.00  0.00     0.105 C 
BRANCH  10  11
ATOM     11  C   UNL A   1      34.789  25.072  25.752  1.00  0.00     0.053 C 
BRANCH  11  12
ATOM     12  C   UNL A   1      35.251  23.657  25.453  1.00  0.00     0.042 A 
ATOM     13  C   UNL A   1      34.290  15.389  25.000  1.00  0.00     0.088 C 
ATOM     14  C   UNL A   1      34.497  16.827  24.712  1.00  0.00     0.105 A 
ATOM     15  O   UNL A   1      35.767  17.325  24.852  1.00  0.00    -0.461 OA
ATOM     16  C   UNL A   1      33.606  17.840  24.410  1.00  0.00    -0.002 A 
ATOM     17  C   UNL A   1      35.676  18.692  24.816  1.00  0.00     0.141 A 
ATOM     18  C   UNL A   1      34.356  19.040  24.603  1.00  0.00     0.025 A 
ATOM     19  C   UNL A   1      32.147  17.690  24.161  1.00  0.00     0.049 C 
ATOM     20  C   UNL A   1      36.704  19.639  24.986  1.00  0.00     0.036 A 
ATOM     21  C   UNL A   1      34.021  20.395  24.725  1.00  0.00     0.024 A 
ATOM     22  C   UNL A   1      38.144  19.261  24.927  1.00  0.00     0.052 C 
ATOM     23  C   UNL A   1      36.256  20.958  25.258  1.00  0.00     0.145 A 
ATOM     24  C   UNL A   1      34.920  21.297  25.305  1.00  0.00     0.022 A 
ATOM     25  O   UNL A   1      37.166  22.033  25.426  1.00  0.00    -0.422 OA
ATOM     26  C   UNL A   1      34.553  22.600  25.884  1.00  0.00    -0.030 A 
ATOM     27  C   UNL A   1      36.733  23.380  25.334  1.00  0.00     0.339 A 
ATOM     28  C   UNL A   1      33.988  22.801  27.281  1.00  0.00     0.046 C 
ATOM     29  O   UNL A   1      37.536  24.309  25.331  1.00  0.00    -0.246 OA
ENDBRANCH  11  12
ENDBRANCH  10  11
ENDBRANCH   7  10
ENDBRANCH   5   6
BRANCH   5  30
ATOM     30  C   UNL A   1      29.531  26.770  23.715  1.00  0.00     0.072 C 
BRANCH  30  31
ATOM     31  C   UNL A   1      29.231  28.207  23.189  1.00  0.00    -0.045 A 
ATOM     32  C   UNL A   1      27.913  28.700  23.178  1.00  0.00     0.005 A 
ATOM     33  C   UNL A   1      30.116  28.973  22.400  1.00  0.00     0.005 A 
ATOM     34  C   UNL A   1      27.545  29.864  22.455  1.00  0.00     0.021 A 
ATOM     35  C   UNL A   1      29.785  30.152  21.711  1.00  0.00     0.021 A 
ATOM     36  C   UNL A   1      28.485  30.591  21.731  1.00  0.00     0.041 A 
ATOM     37  Cl  UNL A   1      28.046  31.998  20.849  1.00  0.00    -0.084 Cl
ENDBRANCH  30  31
ENDBRANCH   5  30
ENDBRANCH   3   5
ENDBRANCH   2   3
ENDBRANCH   1   2
BRANCH   1  38
ATOM     38  C   UNL A   1      31.779  29.679  26.882  1.00  0.00     0.275 C 
BRANCH  38  39
ATOM     39  O   UNL A   1      32.995  30.288  27.316  1.00  0.00    -0.458 OA
BRANCH  39  40
ATOM     40  C   UNL A   1      34.111  29.854  26.726  1.00  0.00     0.338 C 
ATOM     41  O   UNL A   1      34.226  29.439  25.566  1.00  0.00    -0.246 OA
BRANCH  40  42
ATOM     42  C   UNL A   1      35.226  29.944  27.662  1.00  0.00     0.060 A 
ATOM     43  C   UNL A   1      35.075  30.570  28.908  1.00  0.00     0.016 A 
ATOM     44  C   UNL A   1      36.457  29.430  27.263  1.00  0.00     0.016 A 
ATOM     45  C   UNL A   1      36.160  30.678  29.763  1.00  0.00     0.010 A 
ATOM     46  C   UNL A   1      37.536  29.519  28.126  1.00  0.00     0.010 A 
ATOM     47  C   UNL A   1      37.381  30.121  29.385  1.00  0.00    -0.014 A 
BRANCH  47  48
ATOM     48  C   UNL A   1      38.408  29.976  30.427  1.00  0.00     0.031 A 
ATOM     49  C   UNL A   1      39.129  28.672  30.308  1.00  0.00     0.074 A 
ATOM     50  C   UNL A   1      39.083  31.022  30.938  1.00  0.00     0.049 A 
ATOM     51  N   UNL A   1      40.104  28.502  29.462  1.00  0.00    -0.248 NA
ATOM     52  C   UNL A   1      38.566  27.427  30.828  1.00  0.00     0.031 C 
ATOM     53  C   UNL A   1      39.382  32.237  30.178  1.00  0.00     0.029 A 
ATOM     54  N   UNL A   1      39.867  31.113  32.063  1.00  0.00    -0.354 N 
ATOM     55  C   UNL A   1      40.200  27.145  29.231  1.00  0.00     0.074 A 
ATOM     56  C   UNL A   1      39.266  26.513  30.138  1.00  0.00     0.031 C 
ATOM     57  C   UNL A   1      40.437  32.848  30.753  1.00  0.00     0.029 A 
ATOM     58  C   UNL A   1      40.772  32.167  31.998  1.00  0.00     0.049 A 
ATOM     59  H   UNL A   1      39.796  30.500  32.831  1.00  0.00     0.167 HD
ATOM     60  C   UNL A   1      40.982  26.613  28.257  1.00  0.00     0.031 A 
ATOM     61  C   UNL A   1      41.997  32.161  32.587  1.00  0.00     0.031 A 
ATOM     62  C   UNL A   1      41.720  27.541  27.455  1.00  0.00     0.049 A 
ATOM     63  C   UNL A   1      42.773  31.280  31.642  1.00  0.00     0.074 A 
ATOM     64  C   UNL A   1      41.609  28.113  26.205  1.00  0.00     0.029 A 
ATOM     65  N   UNL A   1      42.853  28.100  27.992  1.00  0.00    -0.354 N 
ATOM     66  N   UNL A   1      43.316  31.631  30.509  1.00  0.00    -0.248 NA
ATOM     67  C   UNL A   1      42.655  29.832  31.837  1.00  0.00     0.031 C 
ATOM     68  C   UNL A   1      42.423  29.289  26.244  1.00  0.00     0.029 A 
ATOM     69  C   UNL A   1      42.933  29.391  27.536  1.00  0.00     0.049 A 
ATOM     70  H   UNL A   1      43.492  27.656  28.594  1.00  0.00     0.167 HD
ATOM     71  C   UNL A   1      43.315  30.473  29.726  1.00  0.00     0.074 A 
ATOM     72  C   UNL A   1      42.952  29.395  30.622  1.00  0.00     0.031 C 
ATOM     73  C   UNL A   1      43.404  30.483  28.362  1.00  0.00     0.031 A 
BRANCH  60  74
ATOM     74  C   UNL A   1      41.177  25.165  28.074  1.00  0.00    -0.014 A 
ATOM     75  C   UNL A   1      40.167  24.456  27.407  1.00  0.00     0.009 A 
ATOM     76  C   UNL A   1      42.232  24.468  28.669  1.00  0.00     0.009 A 
ATOM     77  C   UNL A   1      40.189  23.066  27.361  1.00  0.00     0.001 A 
ATOM     78  C   UNL A   1      42.256  23.070  28.614  1.00  0.00     0.001 A 
ATOM     79  C   UNL A   1      41.232  22.373  27.971  1.00  0.00     0.000 A 
ENDBRANCH  60  74
BRANCH  61  80
ATOM     80  C   UNL A   1      41.997  31.966  34.072  1.00  0.00    -0.014 A 
ATOM     81  C   UNL A   1      41.423  32.978  34.870  1.00  0.00     0.009 A 
ATOM     82  C   UNL A   1      42.542  30.859  34.736  1.00  0.00     0.009 A 
ATOM     83  C   UNL A   1      41.312  32.844  36.258  1.00  0.00     0.001 A 
ATOM     84  C   UNL A   1      42.406  30.708  36.122  1.00  0.00     0.001 A 
ATOM     85  C   UNL A   1      41.782  31.695  36.880  1.00  0.00     0.000 A 
ENDBRANCH  61  80
BRANCH  73  86
ATOM     86  C   UNL A   1      43.765  31.791  27.734  1.00  0.00    -0.014 A 
ATOM     87  C   UNL A   1      43.542  32.985  28.432  1.00  0.00     0.009 A 
ATOM     88  C   UNL A   1      44.372  31.849  26.469  1.00  0.00     0.009 A 
ATOM     89  C   UNL A   1      43.941  34.209  27.890  1.00  0.00     0.001 A 
ATOM     90  C   UNL A   1      44.789  33.071  25.937  1.00  0.00     0.001 A 
ATOM     91  C   UNL A   1      44.577  34.249  26.649  1.00  0.00     0.000 A 
ENDBRANCH  73  86
ENDBRANCH  47  48
ENDBRANCH  40  42
ENDBRANCH  39  40
ENDBRANCH  38  39
ENDBRANCH   1  38
TORSDOF 17
ENDMDL
