MODEL 1
REMARK VINA RESULT:     -12.0      0.000      0.000
REMARK SMILES Cc1oc2cc(OCC(=O)OCCOC(=O)c3ccc(-c4c5nc(c(-c6ccccc6)c6ccc([nH]6)c(-c6ccccc6)c6nc(c(-c7ccccc7)c7ccc4[nH]7)C=C6)C=C5)cc3)ccc2c(=O)c1Oc1ccc(Cl)cc1Cl
REMARK SMILES IDX 12 1 11 2 9 3 10 4 8 5 7 6 6 7 1 8 2 9 3 10 70 11 4 12 68 13
REMARK SMILES IDX 5 14 67 15 69 16 66 17 65 18 71 19 72 20 73 21 78 22 74 23
REMARK SMILES IDX 77 24 79 25 75 26 76 27 13 28 14 29 15 30 16 31 17 32 18 33
REMARK SMILES IDX 64 34 19 35 63 36 20 37 21 38 22 39 57 40 23 41 62 42 56 43
REMARK SMILES IDX 58 44 24 45 61 46 55 47 54 48 25 50 47 51 32 52 46 53 33 54
REMARK SMILES IDX 36 55 45 56 59 57 34 58 35 59 44 61 60 62 37 63 26 64 27 65
REMARK SMILES IDX 31 66 28 67 30 68 29 69 48 70 49 71 53 72 50 73 52 74 51 75
REMARK SMILES IDX 38 76 39 77 43 78 40 79 42 80 41 81
REMARK H PARENT 58 49 36 60
REMARK Flexibility Score: inf
ROOT
ATOM      1  C   UNL A   1      42.695  20.263  26.028  1.00  0.00     0.274 C 
ENDROOT
BRANCH   1   2
ATOM      2  O   UNL A   1      41.356  20.522  25.553  1.00  0.00    -0.460 OA
BRANCH   2   3
ATOM      3  C   UNL A   1      40.441  20.844  26.505  1.00  0.00     0.344 C 
ATOM      4  O   UNL A   1      40.544  20.578  27.698  1.00  0.00    -0.248 OA
BRANCH   3   5
ATOM      5  C   UNL A   1      39.216  21.558  25.937  1.00  0.00     0.351 C 
BRANCH   5   6
ATOM      6  O   UNL A   1      38.053  20.804  25.639  1.00  0.00    -0.482 OA
BRANCH   6   7
ATOM      7  C   UNL A   1      36.959  21.433  25.116  1.00  0.00     0.123 A 
ATOM      8  C   UNL A   1      31.110  22.231  25.786  1.00  0.00     0.092 C 
ATOM      9  C   UNL A   1      32.319  22.556  24.964  1.00  0.00     0.148 A 
ATOM     10  O   UNL A   1      33.320  21.612  25.188  1.00  0.00    -0.457 OA
ATOM     11  C   UNL A   1      32.456  23.617  24.128  1.00  0.00     0.213 A 
ATOM     12  C   UNL A   1      34.605  21.920  24.840  1.00  0.00     0.142 A 
ATOM     13  C   UNL A   1      33.793  23.786  23.475  1.00  0.00     0.235 A 
ATOM     14  C   UNL A   1      35.626  21.130  25.379  1.00  0.00     0.094 A 
ATOM     15  C   UNL A   1      34.902  22.975  23.996  1.00  0.00     0.069 A 
ATOM     16  O   UNL A   1      33.981  24.587  22.566  1.00  0.00    -0.285 OA
ATOM     17  C   UNL A   1      36.230  23.260  23.683  1.00  0.00     0.020 A 
ATOM     18  C   UNL A   1      37.253  22.495  24.256  1.00  0.00     0.047 A 
BRANCH  11  19
ATOM     19  O   UNL A   1      31.550  24.629  23.824  1.00  0.00    -0.448 OA
BRANCH  19  20
ATOM     20  C   UNL A   1      31.548  25.813  24.513  1.00  0.00     0.146 A 
ATOM     21  C   UNL A   1      31.689  25.783  25.903  1.00  0.00     0.050 A 
ATOM     22  C   UNL A   1      31.369  27.033  23.848  1.00  0.00     0.085 A 
ATOM     23  C   UNL A   1      31.747  26.982  26.617  1.00  0.00     0.024 A 
ATOM     24  C   UNL A   1      31.431  28.230  24.561  1.00  0.00     0.045 A 
ATOM     25  Cl  UNL A   1      31.137  27.099  22.139  1.00  0.00    -0.080 Cl
ATOM     26  C   UNL A   1      31.633  28.198  25.940  1.00  0.00     0.042 A 
ATOM     27  Cl  UNL A   1      31.753  29.674  26.817  1.00  0.00    -0.084 Cl
ENDBRANCH  19  20
ENDBRANCH  11  19
ENDBRANCH   6   7
ENDBRANCH   5   6
ENDBRANCH   3   5
ENDBRANCH   2   3
ENDBRANCH   1   2
BRANCH   1  28
ATOM     28  C   UNL A   1      43.609  21.451  25.751  1.00  0.00     0.275 C 
BRANCH  28  29
ATOM     29  O   UNL A   1      42.846  22.512  25.147  1.00  0.00    -0.458 OA
BRANCH  29  30
ATOM     30  C   UNL A   1      43.512  23.672  24.975  1.00  0.00     0.338 C 
ATOM     31  O   UNL A   1      44.449  23.885  24.218  1.00  0.00    -0.246 OA
BRANCH  30  32
ATOM     32  C   UNL A   1      42.957  24.726  25.843  1.00  0.00     0.060 A 
ATOM     33  C   UNL A   1      43.440  26.036  25.791  1.00  0.00     0.016 A 
ATOM     34  C   UNL A   1      42.065  24.345  26.846  1.00  0.00     0.016 A 
ATOM     35  C   UNL A   1      43.140  26.930  26.821  1.00  0.00     0.010 A 
ATOM     36  C   UNL A   1      41.714  25.258  27.843  1.00  0.00     0.010 A 
ATOM     37  C   UNL A   1      42.297  26.533  27.868  1.00  0.00    -0.014 A 
BRANCH  37  38
ATOM     38  C   UNL A   1      41.955  27.461  28.967  1.00  0.00     0.031 A 
ATOM     39  C   UNL A   1      42.718  27.463  30.258  1.00  0.00     0.074 A 
ATOM     40  C   UNL A   1      40.888  28.260  28.810  1.00  0.00     0.049 A 
ATOM     41  N   UNL A   1      42.387  27.977  31.414  1.00  0.00    -0.248 NA
ATOM     42  C   UNL A   1      44.022  26.789  30.255  1.00  0.00     0.031 C 
ATOM     43  C   UNL A   1      40.098  28.375  27.585  1.00  0.00     0.029 A 
ATOM     44  N   UNL A   1      40.277  29.104  29.696  1.00  0.00    -0.354 N 
ATOM     45  C   UNL A   1      43.407  27.629  32.293  1.00  0.00     0.074 A 
ATOM     46  C   UNL A   1      44.374  26.866  31.533  1.00  0.00     0.031 C 
ATOM     47  C   UNL A   1      39.093  29.235  27.800  1.00  0.00     0.029 A 
ATOM     48  C   UNL A   1      39.143  29.681  29.188  1.00  0.00     0.049 A 
ATOM     49  H   UNL A   1      40.617  29.279  30.603  1.00  0.00     0.167 HD
ATOM     50  C   UNL A   1      43.519  27.929  33.610  1.00  0.00     0.031 A 
ATOM     51  C   UNL A   1      38.220  30.451  29.788  1.00  0.00     0.031 A 
ATOM     52  C   UNL A   1      42.591  28.763  34.331  1.00  0.00     0.049 A 
ATOM     53  C   UNL A   1      38.375  30.787  31.238  1.00  0.00     0.074 A 
ATOM     54  C   UNL A   1      42.636  29.164  35.656  1.00  0.00     0.029 A 
ATOM     55  N   UNL A   1      41.467  29.352  33.774  1.00  0.00    -0.354 N 
ATOM     56  N   UNL A   1      39.300  30.394  32.079  1.00  0.00    -0.248 NA
ATOM     57  C   UNL A   1      37.358  31.671  31.820  1.00  0.00     0.031 C 
ATOM     58  C   UNL A   1      41.527  29.985  35.903  1.00  0.00     0.029 A 
ATOM     59  C   UNL A   1      40.813  30.119  34.724  1.00  0.00     0.049 A 
ATOM     60  H   UNL A   1      41.175  29.242  32.840  1.00  0.00     0.167 HD
ATOM     61  C   UNL A   1      38.984  30.990  33.290  1.00  0.00     0.074 A 
ATOM     62  C   UNL A   1      37.791  31.783  33.069  1.00  0.00     0.031 C 
ATOM     63  C   UNL A   1      39.623  30.890  34.481  1.00  0.00     0.031 A 
BRANCH  50  64
ATOM     64  C   UNL A   1      44.677  27.344  34.371  1.00  0.00    -0.014 A 
ATOM     65  C   UNL A   1      44.595  26.080  34.976  1.00  0.00     0.009 A 
ATOM     66  C   UNL A   1      45.897  28.038  34.414  1.00  0.00     0.009 A 
ATOM     67  C   UNL A   1      45.707  25.534  35.625  1.00  0.00     0.001 A 
ATOM     68  C   UNL A   1      47.012  27.480  35.043  1.00  0.00     0.001 A 
ATOM     69  C   UNL A   1      46.915  26.231  35.652  1.00  0.00     0.000 A 
ENDBRANCH  50  64
BRANCH  51  70
ATOM     70  C   UNL A   1      37.065  30.930  28.996  1.00  0.00    -0.014 A 
ATOM     71  C   UNL A   1      36.016  30.057  28.679  1.00  0.00     0.009 A 
ATOM     72  C   UNL A   1      36.974  32.280  28.622  1.00  0.00     0.009 A 
ATOM     73  C   UNL A   1      34.894  30.527  27.997  1.00  0.00     0.001 A 
ATOM     74  C   UNL A   1      35.841  32.751  27.960  1.00  0.00     0.001 A 
ATOM     75  C   UNL A   1      34.803  31.875  27.645  1.00  0.00     0.000 A 
ENDBRANCH  51  70
BRANCH  63  76
ATOM     76  C   UNL A   1      39.048  31.681  35.617  1.00  0.00    -0.014 A 
ATOM     77  C   UNL A   1      39.367  33.037  35.785  1.00  0.00     0.009 A 
ATOM     78  C   UNL A   1      38.181  31.062  36.529  1.00  0.00     0.009 A 
ATOM     79  C   UNL A   1      38.851  33.751  36.867  1.00  0.00     0.001 A 
ATOM     80  C   UNL A   1      37.654  31.783  37.600  1.00  0.00     0.001 A 
ATOM     81  C   UNL A   1      37.996  33.124  37.773  1.00  0.00     0.000 A 
ENDBRANCH  63  76
ENDBRANCH  37  38
ENDBRANCH  30  32
ENDBRANCH  29  30
ENDBRANCH  28  29
ENDBRANCH   1  28
TORSDOF 15
ENDMDL
MODEL 2
REMARK VINA RESULT:     -11.7      1.625      2.706
REMARK SMILES Cc1oc2cc(OCC(=O)OCCOC(=O)c3ccc(-c4c5nc(c(-c6ccccc6)c6ccc([nH]6)c(-c6ccccc6)c6nc(c(-c7ccccc7)c7ccc4[nH]7)C=C6)C=C5)cc3)ccc2c(=O)c1Oc1ccc(Cl)cc1Cl
REMARK SMILES IDX 12 1 11 2 9 3 10 4 8 5 7 6 6 7 1 8 2 9 3 10 70 11 4 12 68 13
REMARK SMILES IDX 5 14 67 15 69 16 66 17 65 18 71 19 72 20 73 21 78 22 74 23
REMARK SMILES IDX 77 24 79 25 75 26 76 27 13 28 14 29 15 30 16 31 17 32 18 33
REMARK SMILES IDX 64 34 19 35 63 36 20 37 21 38 22 39 57 40 23 41 62 42 56 43
REMARK SMILES IDX 58 44 24 45 61 46 55 47 54 48 25 50 47 51 32 52 46 53 33 54
REMARK SMILES IDX 36 55 45 56 59 57 34 58 35 59 44 61 60 62 37 63 26 64 27 65
REMARK SMILES IDX 31 66 28 67 30 68 29 69 48 70 49 71 53 72 50 73 52 74 51 75
REMARK SMILES IDX 38 76 39 77 43 78 40 79 42 80 41 81
REMARK H PARENT 58 49 36 60
REMARK Flexibility Score: inf
ROOT
ATOM      1  C   UNL A   1      44.916  20.852  24.183  1.00  0.00     0.274 C 
ENDROOT
BRANCH   1   2
ATOM      2  O   UNL A   1      43.789  19.951  24.234  1.00  0.00    -0.460 OA
BRANCH   2   3
ATOM      3  C   UNL A   1      43.796  19.050  25.251  1.00  0.00     0.344 C 
ATOM      4  O   UNL A   1      44.607  18.137  25.375  1.00  0.00    -0.248 OA
BRANCH   3   5
ATOM      5  C   UNL A   1      42.651  19.256  26.240  1.00  0.00     0.351 C 
BRANCH   5   6
ATOM      6  O   UNL A   1      41.345  18.840  25.880  1.00  0.00    -0.482 OA
BRANCH   6   7
ATOM      7  C   UNL A   1      40.343  19.766  25.797  1.00  0.00     0.123 A 
ATOM      8  C   UNL A   1      34.470  20.435  25.197  1.00  0.00     0.092 C 
ATOM      9  C   UNL A   1      35.788  21.131  25.340  1.00  0.00     0.148 A 
ATOM     10  O   UNL A   1      36.826  20.270  24.985  1.00  0.00    -0.457 OA
ATOM     11  C   UNL A   1      35.978  22.406  25.766  1.00  0.00     0.213 A 
ATOM     12  C   UNL A   1      38.096  20.568  25.391  1.00  0.00     0.142 A 
ATOM     13  C   UNL A   1      37.398  22.860  25.911  1.00  0.00     0.235 A 
ATOM     14  C   UNL A   1      39.048  19.545  25.335  1.00  0.00     0.094 A 
ATOM     15  C   UNL A   1      38.441  21.826  25.853  1.00  0.00     0.069 A 
ATOM     16  O   UNL A   1      37.695  24.033  26.105  1.00  0.00    -0.285 OA
ATOM     17  C   UNL A   1      39.747  22.077  26.271  1.00  0.00     0.020 A 
ATOM     18  C   UNL A   1      40.689  21.041  26.254  1.00  0.00     0.047 A 
BRANCH  11  19
ATOM     19  O   UNL A   1      35.042  23.359  26.157  1.00  0.00    -0.448 OA
BRANCH  19  20
ATOM     20  C   UNL A   1      34.186  23.930  25.252  1.00  0.00     0.146 A 
ATOM     21  C   UNL A   1      34.716  24.500  24.091  1.00  0.00     0.050 A 
ATOM     22  C   UNL A   1      32.808  23.979  25.497  1.00  0.00     0.085 A 
ATOM     23  C   UNL A   1      33.856  25.035  23.130  1.00  0.00     0.024 A 
ATOM     24  C   UNL A   1      31.949  24.510  24.534  1.00  0.00     0.045 A 
ATOM     25  Cl  UNL A   1      32.129  23.333  26.945  1.00  0.00    -0.080 Cl
ATOM     26  C   UNL A   1      32.477  25.023  23.350  1.00  0.00     0.042 A 
ATOM     27  Cl  UNL A   1      31.417  25.639  22.143  1.00  0.00    -0.084 Cl
ENDBRANCH  19  20
ENDBRANCH  11  19
ENDBRANCH   6   7
ENDBRANCH   5   6
ENDBRANCH   3   5
ENDBRANCH   2   3
ENDBRANCH   1   2
BRANCH   1  28
ATOM     28  C   UNL A   1      44.459  22.277  23.882  1.00  0.00     0.275 C 
BRANCH  28  29
ATOM     29  O   UNL A   1      43.600  22.737  24.940  1.00  0.00    -0.458 OA
BRANCH  29  30
ATOM     30  C   UNL A   1      44.207  22.930  26.129  1.00  0.00     0.338 C 
ATOM     31  O   UNL A   1      45.159  22.313  26.586  1.00  0.00    -0.246 OA
BRANCH  30  32
ATOM     32  C   UNL A   1      43.570  24.036  26.867  1.00  0.00     0.060 A 
ATOM     33  C   UNL A   1      43.945  25.364  26.649  1.00  0.00     0.016 A 
ATOM     34  C   UNL A   1      42.714  23.712  27.921  1.00  0.00     0.016 A 
ATOM     35  C   UNL A   1      43.576  26.351  27.565  1.00  0.00     0.010 A 
ATOM     36  C   UNL A   1      42.293  24.709  28.802  1.00  0.00     0.010 A 
ATOM     37  C   UNL A   1      42.771  26.021  28.663  1.00  0.00    -0.014 A 
BRANCH  37  38
ATOM     38  C   UNL A   1      42.358  27.047  29.644  1.00  0.00     0.031 A 
ATOM     39  C   UNL A   1      43.074  27.215  30.951  1.00  0.00     0.074 A 
ATOM     40  C   UNL A   1      41.270  27.782  29.368  1.00  0.00     0.049 A 
ATOM     41  N   UNL A   1      42.683  27.837  32.034  1.00  0.00    -0.248 NA
ATOM     42  C   UNL A   1      44.399  26.596  31.063  1.00  0.00     0.031 C 
ATOM     43  C   UNL A   1      40.521  27.736  28.112  1.00  0.00     0.029 A 
ATOM     44  N   UNL A   1      40.599  28.692  30.137  1.00  0.00    -0.354 N 
ATOM     45  C   UNL A   1      43.682  27.624  32.977  1.00  0.00     0.074 A 
ATOM     46  C   UNL A   1      44.702  26.822  32.335  1.00  0.00     0.031 C 
ATOM     47  C   UNL A   1      39.479  28.575  28.201  1.00  0.00     0.029 A 
ATOM     48  C   UNL A   1      39.464  29.168  29.534  1.00  0.00     0.049 A 
ATOM     49  H   UNL A   1      40.899  28.977  31.030  1.00  0.00     0.167 HD
ATOM     50  C   UNL A   1      43.737  28.067  34.257  1.00  0.00     0.031 A 
ATOM     51  C   UNL A   1      38.495  29.962  30.017  1.00  0.00     0.031 A 
ATOM     52  C   UNL A   1      42.755  28.937  34.853  1.00  0.00     0.049 A 
ATOM     53  C   UNL A   1      38.585  30.456  31.426  1.00  0.00     0.074 A 
ATOM     54  C   UNL A   1      42.738  29.479  36.128  1.00  0.00     0.029 A 
ATOM     55  N   UNL A   1      41.631  29.420  34.200  1.00  0.00    -0.354 N 
ATOM     56  N   UNL A   1      39.492  30.191  32.334  1.00  0.00    -0.248 NA
ATOM     57  C   UNL A   1      37.518  31.358  31.876  1.00  0.00     0.031 C 
ATOM     58  C   UNL A   1      41.593  30.278  36.249  1.00  0.00     0.029 A 
ATOM     59  C   UNL A   1      40.918  30.258  35.040  1.00  0.00     0.049 A 
ATOM     60  H   UNL A   1      41.378  29.200  33.274  1.00  0.00     0.167 HD
ATOM     61  C   UNL A   1      39.113  30.900  33.463  1.00  0.00     0.074 A 
ATOM     62  C   UNL A   1      37.901  31.619  33.119  1.00  0.00     0.031 C 
ATOM     63  C   UNL A   1      39.711  30.952  34.678  1.00  0.00     0.031 A 
BRANCH  50  64
ATOM     64  C   UNL A   1      44.885  27.611  35.114  1.00  0.00    -0.014 A 
ATOM     65  C   UNL A   1      46.061  28.369  35.231  1.00  0.00     0.009 A 
ATOM     66  C   UNL A   1      44.753  26.441  35.880  1.00  0.00     0.009 A 
ATOM     67  C   UNL A   1      47.088  27.951  36.084  1.00  0.00     0.001 A 
ATOM     68  C   UNL A   1      45.772  26.039  36.747  1.00  0.00     0.001 A 
ATOM     69  C   UNL A   1      46.940  26.791  36.844  1.00  0.00     0.000 A 
ENDBRANCH  50  64
BRANCH  51  70
ATOM     70  C   UNL A   1      37.353  30.309  29.141  1.00  0.00    -0.014 A 
ATOM     71  C   UNL A   1      36.430  29.325  28.763  1.00  0.00     0.009 A 
ATOM     72  C   UNL A   1      37.143  31.639  28.746  1.00  0.00     0.009 A 
ATOM     73  C   UNL A   1      35.314  29.668  27.998  1.00  0.00     0.001 A 
ATOM     74  C   UNL A   1      36.014  31.982  28.001  1.00  0.00     0.001 A 
ATOM     75  C   UNL A   1      35.102  30.996  27.626  1.00  0.00     0.000 A 
ENDBRANCH  51  70
BRANCH  63  76
ATOM     76  C   UNL A   1      39.069  31.838  35.702  1.00  0.00    -0.014 A 
ATOM     77  C   UNL A   1      38.150  31.321  36.628  1.00  0.00     0.009 A 
ATOM     78  C   UNL A   1      39.385  33.204  35.739  1.00  0.00     0.009 A 
ATOM     79  C   UNL A   1      37.535  32.164  37.554  1.00  0.00     0.001 A 
ATOM     80  C   UNL A   1      38.781  34.041  36.677  1.00  0.00     0.001 A 
ATOM     81  C   UNL A   1      37.850  33.523  37.576  1.00  0.00     0.000 A 
ENDBRANCH  63  76
ENDBRANCH  37  38
ENDBRANCH  30  32
ENDBRANCH  29  30
ENDBRANCH  28  29
ENDBRANCH   1  28
TORSDOF 15
ENDMDL
MODEL 3
REMARK VINA RESULT:     -11.5      4.339      9.294
REMARK SMILES Cc1oc2cc(OCC(=O)OCCOC(=O)c3ccc(-c4c5nc(c(-c6ccccc6)c6ccc([nH]6)c(-c6ccccc6)c6nc(c(-c7ccccc7)c7ccc4[nH]7)C=C6)C=C5)cc3)ccc2c(=O)c1Oc1ccc(Cl)cc1Cl
REMARK SMILES IDX 12 1 11 2 9 3 10 4 8 5 7 6 6 7 1 8 2 9 3 10 70 11 4 12 68 13
REMARK SMILES IDX 5 14 67 15 69 16 66 17 65 18 71 19 72 20 73 21 78 22 74 23
REMARK SMILES IDX 77 24 79 25 75 26 76 27 13 28 14 29 15 30 16 31 17 32 18 33
REMARK SMILES IDX 64 34 19 35 63 36 20 37 21 38 22 39 57 40 23 41 62 42 56 43
REMARK SMILES IDX 58 44 24 45 61 46 55 47 54 48 25 50 47 51 32 52 46 53 33 54
REMARK SMILES IDX 36 55 45 56 59 57 34 58 35 59 44 61 60 62 37 63 26 64 27 65
REMARK SMILES IDX 31 66 28 67 30 68 29 69 48 70 49 71 53 72 50 73 52 74 51 75
REMARK SMILES IDX 38 76 39 77 43 78 40 79 42 80 41 81
REMARK H PARENT 58 49 36 60
REMARK Flexibility Score: inf
ROOT
ATOM      1  C   UNL A   1      31.991  30.280  26.595  1.00  0.00     0.274 C 
ENDROOT
BRANCH   1   2
ATOM      2  O   UNL A   1      32.031  29.429  25.431  1.00  0.00    -0.460 OA
BRANCH   2   3
ATOM      3  C   UNL A   1      31.103  29.690  24.472  1.00  0.00     0.344 C 
ATOM      4  O   UNL A   1      30.264  30.584  24.531  1.00  0.00    -0.248 OA
BRANCH   3   5
ATOM      5  C   UNL A   1      31.175  28.723  23.292  1.00  0.00     0.351 C 
BRANCH   5   6
ATOM      6  O   UNL A   1      30.897  27.350  23.506  1.00  0.00    -0.482 OA
BRANCH   6   7
ATOM      7  C   UNL A   1      31.927  26.484  23.742  1.00  0.00     0.123 A 
ATOM      8  C   UNL A   1      34.143  22.624  27.677  1.00  0.00     0.092 C 
ATOM      9  C   UNL A   1      34.332  23.282  26.346  1.00  0.00     0.148 A 
ATOM     10  O   UNL A   1      33.579  24.453  26.278  1.00  0.00    -0.457 OA
ATOM     11  C   UNL A   1      35.104  22.822  25.329  1.00  0.00     0.213 A 
ATOM     12  C   UNL A   1      33.315  24.995  25.052  1.00  0.00     0.142 A 
ATOM     13  C   UNL A   1      35.071  23.607  24.054  1.00  0.00     0.235 A 
ATOM     14  C   UNL A   1      32.289  25.944  24.973  1.00  0.00     0.094 A 
ATOM     15  C   UNL A   1      34.018  24.623  23.919  1.00  0.00     0.069 A 
ATOM     16  O   UNL A   1      35.858  23.402  23.137  1.00  0.00    -0.285 OA
ATOM     17  C   UNL A   1      33.701  25.194  22.687  1.00  0.00     0.020 A 
ATOM     18  C   UNL A   1      32.648  26.112  22.603  1.00  0.00     0.047 A 
BRANCH  11  19
ATOM     19  O   UNL A   1      35.891  21.675  25.261  1.00  0.00    -0.448 OA
BRANCH  19  20
ATOM     20  C   UNL A   1      35.343  20.452  24.975  1.00  0.00     0.146 A 
ATOM     21  C   UNL A   1      33.952  20.342  24.883  1.00  0.00     0.050 A 
ATOM     22  C   UNL A   1      36.153  19.321  24.814  1.00  0.00     0.085 A 
ATOM     23  C   UNL A   1      33.378  19.117  24.536  1.00  0.00     0.024 A 
ATOM     24  C   UNL A   1      35.578  18.098  24.463  1.00  0.00     0.045 A 
ATOM     25  Cl  UNL A   1      37.868  19.413  24.975  1.00  0.00    -0.080 Cl
ATOM     26  C   UNL A   1      34.195  18.007  24.313  1.00  0.00     0.042 A 
ATOM     27  Cl  UNL A   1      33.488  16.512  23.838  1.00  0.00    -0.084 Cl
ENDBRANCH  19  20
ENDBRANCH  11  19
ENDBRANCH   6   7
ENDBRANCH   5   6
ENDBRANCH   3   5
ENDBRANCH   2   3
ENDBRANCH   1   2
BRANCH   1  28
ATOM     28  C   UNL A   1      33.370  30.862  26.891  1.00  0.00     0.275 C 
BRANCH  28  29
ATOM     29  O   UNL A   1      33.952  30.168  28.009  1.00  0.00    -0.458 OA
BRANCH  29  30
ATOM     30  C   UNL A   1      34.906  30.850  28.675  1.00  0.00     0.338 C 
ATOM     31  O   UNL A   1      34.808  31.959  29.182  1.00  0.00    -0.246 OA
BRANCH  30  32
ATOM     32  C   UNL A   1      36.156  30.072  28.739  1.00  0.00     0.060 A 
ATOM     33  C   UNL A   1      36.615  29.537  29.946  1.00  0.00     0.016 A 
ATOM     34  C   UNL A   1      36.966  30.039  27.603  1.00  0.00     0.016 A 
ATOM     35  C   UNL A   1      37.934  29.093  30.053  1.00  0.00     0.010 A 
ATOM     36  C   UNL A   1      38.265  29.536  27.694  1.00  0.00     0.010 A 
ATOM     37  C   UNL A   1      38.774  29.118  28.932  1.00  0.00    -0.014 A 
BRANCH  37  38
ATOM     38  C   UNL A   1      40.173  28.645  29.014  1.00  0.00     0.031 A 
ATOM     39  C   UNL A   1      41.303  29.586  29.311  1.00  0.00     0.074 A 
ATOM     40  C   UNL A   1      40.420  27.355  28.741  1.00  0.00     0.049 A 
ATOM     41  N   UNL A   1      42.587  29.417  29.131  1.00  0.00    -0.248 NA
ATOM     42  C   UNL A   1      40.943  30.892  29.874  1.00  0.00     0.031 C 
ATOM     43  C   UNL A   1      39.398  26.340  28.483  1.00  0.00     0.029 A 
ATOM     44  N   UNL A   1      41.608  26.689  28.615  1.00  0.00    -0.354 N 
ATOM     45  C   UNL A   1      43.183  30.621  29.493  1.00  0.00     0.074 A 
ATOM     46  C   UNL A   1      42.118  31.508  29.911  1.00  0.00     0.031 C 
ATOM     47  C   UNL A   1      40.006  25.176  28.214  1.00  0.00     0.029 A 
ATOM     48  C   UNL A   1      41.450  25.384  28.229  1.00  0.00     0.049 A 
ATOM     49  H   UNL A   1      42.484  27.103  28.784  1.00  0.00     0.167 HD
ATOM     50  C   UNL A   1      44.500  30.944  29.480  1.00  0.00     0.031 A 
ATOM     51  C   UNL A   1      42.368  24.466  27.884  1.00  0.00     0.031 A 
ATOM     52  C   UNL A   1      45.554  30.021  29.143  1.00  0.00     0.049 A 
ATOM     53  C   UNL A   1      43.818  24.837  27.896  1.00  0.00     0.074 A 
ATOM     54  C   UNL A   1      46.923  30.233  29.141  1.00  0.00     0.029 A 
ATOM     55  N   UNL A   1      45.356  28.696  28.784  1.00  0.00    -0.354 N 
ATOM     56  N   UNL A   1      44.368  25.996  28.166  1.00  0.00    -0.248 NA
ATOM     57  C   UNL A   1      44.771  23.775  27.555  1.00  0.00     0.031 C 
ATOM     58  C   UNL A   1      47.551  29.039  28.763  1.00  0.00     0.029 A 
ATOM     59  C   UNL A   1      46.574  28.077  28.563  1.00  0.00     0.049 A 
ATOM     60  H   UNL A   1      44.477  28.260  28.698  1.00  0.00     0.167 HD
ATOM     61  C   UNL A   1      45.734  25.802  28.038  1.00  0.00     0.074 A 
ATOM     62  C   UNL A   1      45.929  24.410  27.680  1.00  0.00     0.031 C 
ATOM     63  C   UNL A   1      46.740  26.696  28.199  1.00  0.00     0.031 A 
BRANCH  50  64
ATOM     64  C   UNL A   1      44.884  32.356  29.823  1.00  0.00    -0.014 A 
ATOM     65  C   UNL A   1      45.233  32.726  31.130  1.00  0.00     0.009 A 
ATOM     66  C   UNL A   1      44.976  33.314  28.799  1.00  0.00     0.009 A 
ATOM     67  C   UNL A   1      45.647  34.033  31.409  1.00  0.00     0.001 A 
ATOM     68  C   UNL A   1      45.410  34.613  29.077  1.00  0.00     0.001 A 
ATOM     69  C   UNL A   1      45.740  34.972  30.381  1.00  0.00     0.000 A 
ENDBRANCH  50  64
BRANCH  51  70
ATOM     70  C   UNL A   1      41.913  23.115  27.484  1.00  0.00    -0.014 A 
ATOM     71  C   UNL A   1      41.658  22.828  26.136  1.00  0.00     0.009 A 
ATOM     72  C   UNL A   1      41.807  22.092  28.438  1.00  0.00     0.009 A 
ATOM     73  C   UNL A   1      41.300  21.536  25.750  1.00  0.00     0.001 A 
ATOM     74  C   UNL A   1      41.471  20.796  28.045  1.00  0.00     0.001 A 
ATOM     75  C   UNL A   1      41.216  20.519  26.703  1.00  0.00     0.000 A 
ENDBRANCH  51  70
BRANCH  63  76
ATOM     76  C   UNL A   1      48.133  26.175  28.013  1.00  0.00    -0.014 A 
ATOM     77  C   UNL A   1      48.727  26.143  26.743  1.00  0.00     0.009 A 
ATOM     78  C   UNL A   1      48.857  25.710  29.121  1.00  0.00     0.009 A 
ATOM     79  C   UNL A   1      50.012  25.624  26.580  1.00  0.00     0.001 A 
ATOM     80  C   UNL A   1      50.148  25.206  28.958  1.00  0.00     0.001 A 
ATOM     81  C   UNL A   1      50.720  25.155  27.687  1.00  0.00     0.000 A 
ENDBRANCH  63  76
ENDBRANCH  37  38
ENDBRANCH  30  32
ENDBRANCH  29  30
ENDBRANCH  28  29
ENDBRANCH   1  28
TORSDOF 15
ENDMDL
