MODEL 1
REMARK VINA RESULT:     -13.5      0.000      0.000
REMARK SMILES Cc1ccc(NC(=O)[C@H]2CC(Cl)=CC[C@@H]2C(=O)OCCOC(=O)c2ccc(-c3c4nc(c(-c5ccccc5)c5ccc([nH]5)c(-c5ccccc5)c5nc(c(-c6ccccc6)c6ccc3[nH]6)C=C5)C=C4)cc2)cc1[N+](=O)[O-]
REMARK SMILES IDX 19 1 18 2 16 3 17 4 15 5 9 6 10 7 11 8 14 9 12 10 13 11 7 12
REMARK SMILES IDX 6 13 8 15 5 16 1 17 2 18 3 19 73 20 4 21 72 22 74 23 75 24
REMARK SMILES IDX 76 25 20 26 21 27 22 28 23 29 24 30 25 31 71 32 26 33 70 34
REMARK SMILES IDX 27 35 28 36 29 37 64 38 30 39 69 40 63 41 65 42 31 43 68 44
REMARK SMILES IDX 62 45 61 46 32 48 54 49 39 50 53 51 40 52 43 53 52 54 66 55
REMARK SMILES IDX 41 56 42 57 51 59 67 60 44 61 33 62 34 63 38 64 35 65 37 66
REMARK SMILES IDX 36 67 55 68 56 69 60 70 57 71 59 72 58 73 45 74 46 75 50 76
REMARK SMILES IDX 47 77 49 78 48 79
REMARK H PARENT 6 14 65 47 43 58
REMARK Flexibility Score: inf
ROOT
ATOM      1  C   UNL A   1      38.854  21.465  25.711  1.00  0.00     0.274 C 
ENDROOT
BRANCH   1   2
ATOM      2  O   UNL A   1      37.447  22.494  25.258  1.00  0.00    -0.462 OA
BRANCH   2   3
ATOM      3  C   UNL A   1      36.307  23.228  25.436  1.00  0.00     0.310 C 
ATOM      4  O   UNL A   1      36.476  24.416  25.746  1.00  0.00    -0.252 OA
BRANCH   3   5
ATOM      5  C   UNL A   1      34.771  22.817  25.350  1.00  0.00     0.116 C 
ATOM      6  C   UNL A   1      33.623  23.673  24.770  1.00  0.00     0.098 C 
ATOM      7  C   UNL A   1      32.218  23.062  24.885  1.00  0.00     0.062 C 
ATOM      8  C   UNL A   1      31.935  22.693  26.301  1.00  0.00     0.015 C 
ATOM      9  C   UNL A   1      34.301  21.983  26.597  1.00  0.00     0.044 C 
ATOM     10  Cl  UNL A   1      30.335  22.948  26.884  1.00  0.00    -0.089 Cl
ATOM     11  C   UNL A   1      32.892  22.198  27.090  1.00  0.00    -0.010 C 
BRANCH   6  12
ATOM     12  C   UNL A   1      33.971  23.896  23.337  1.00  0.00     0.228 C 
ATOM     13  N   UNL A   1      33.780  25.144  22.851  1.00  0.00    -0.326 N 
ATOM     14  H   UNL A   1      34.021  25.267  21.903  1.00  0.00     0.169 HD
ATOM     15  O   UNL A   1      34.476  23.034  22.624  1.00  0.00    -0.274 OA
BRANCH  13  16
ATOM     16  C   UNL A   1      33.295  26.276  23.491  1.00  0.00     0.048 A 
ATOM     17  C   UNL A   1      31.029  30.445  25.380  1.00  0.00     0.052 C 
ATOM     18  C   UNL A   1      31.723  29.377  24.560  1.00  0.00     0.027 A 
ATOM     19  C   UNL A   1      33.272  28.913  25.205  1.00  0.00     0.012 A 
ATOM     20  C   UNL A   1      30.982  28.330  23.435  1.00  0.00     0.274 A 
ATOM     21  C   UNL A   1      34.158  27.344  24.697  1.00  0.00     0.027 A 
ATOM     22  C   UNL A   1      31.696  26.806  22.921  1.00  0.00     0.112 A 
BRANCH  20  23
ATOM     23  N   UNL A   1      29.914  28.900  22.617  1.00  0.00     0.063 N 
ATOM     24  O   UNL A   1      28.759  28.615  22.947  1.00  0.00    -0.258 OA
ATOM     25  O   UNL A   1      30.237  29.559  21.625  1.00  0.00    -0.258 OA
ENDBRANCH  20  23
ENDBRANCH  13  16
ENDBRANCH   6  12
ENDBRANCH   3   5
ENDBRANCH   2   3
ENDBRANCH   1   2
BRANCH   1  26
ATOM     26  C   UNL A   1      40.663  22.249  26.704  1.00  0.00     0.275 C 
BRANCH  26  27
ATOM     27  O   UNL A   1      41.193  24.004  26.403  1.00  0.00    -0.458 OA
BRANCH  27  28
ATOM     28  C   UNL A   1      40.762  25.422  26.424  1.00  0.00     0.338 C 
ATOM     29  O   UNL A   1      41.176  26.179  25.550  1.00  0.00    -0.246 OA
BRANCH  28  30
ATOM     30  C   UNL A   1      39.773  26.085  27.496  1.00  0.00     0.060 A 
ATOM     31  C   UNL A   1      39.658  25.821  28.878  1.00  0.00     0.016 A 
ATOM     32  C   UNL A   1      39.114  27.218  27.132  1.00  0.00     0.016 A 
ATOM     33  C   UNL A   1      39.295  26.865  29.820  1.00  0.00     0.010 A 
ATOM     34  C   UNL A   1      39.302  28.279  28.003  1.00  0.00     0.010 A 
ATOM     35  C   UNL A   1      39.250  28.179  29.378  1.00  0.00    -0.014 A 
BRANCH  35  36
ATOM     36  C   UNL A   1      38.931  29.500  30.015  1.00  0.00     0.031 A 
ATOM     37  C   UNL A   1      37.885  30.450  29.531  1.00  0.00     0.074 A 
ATOM     38  C   UNL A   1      39.688  29.754  31.130  1.00  0.00     0.049 A 
ATOM     39  N   UNL A   1      38.099  31.652  29.097  1.00  0.00    -0.248 NA
ATOM     40  C   UNL A   1      36.454  30.119  29.533  1.00  0.00     0.031 C 
ATOM     41  C   UNL A   1      39.795  30.838  32.087  1.00  0.00     0.029 A 
ATOM     42  N   UNL A   1      40.754  28.924  31.562  1.00  0.00    -0.354 N 
ATOM     43  C   UNL A   1      36.861  32.294  29.109  1.00  0.00     0.074 A 
ATOM     44  C   UNL A   1      35.873  31.250  29.105  1.00  0.00     0.031 C 
ATOM     45  C   UNL A   1      41.049  30.798  32.615  1.00  0.00     0.029 A 
ATOM     46  C   UNL A   1      41.797  29.718  31.961  1.00  0.00     0.049 A 
ATOM     47  H   UNL A   1      40.746  27.940  31.573  1.00  0.00     0.167 HD
ATOM     48  C   UNL A   1      36.728  33.577  29.568  1.00  0.00     0.031 A 
ATOM     49  C   UNL A   1      42.855  29.753  31.098  1.00  0.00     0.031 A 
ATOM     50  C   UNL A   1      37.963  33.976  30.223  1.00  0.00     0.049 A 
ATOM     51  C   UNL A   1      42.938  31.111  30.464  1.00  0.00     0.074 A 
ATOM     52  C   UNL A   1      38.326  34.012  31.557  1.00  0.00     0.029 A 
ATOM     53  N   UNL A   1      39.130  34.022  29.495  1.00  0.00    -0.354 N 
ATOM     54  N   UNL A   1      41.950  31.957  30.429  1.00  0.00    -0.248 NA
ATOM     55  C   UNL A   1      44.117  31.586  29.757  1.00  0.00     0.031 C 
ATOM     56  C   UNL A   1      39.743  34.091  31.619  1.00  0.00     0.029 A 
ATOM     57  C   UNL A   1      40.226  34.107  30.324  1.00  0.00     0.049 A 
ATOM     58  H   UNL A   1      39.174  33.997  28.512  1.00  0.00     0.167 HD
ATOM     59  C   UNL A   1      42.342  33.091  29.788  1.00  0.00     0.074 A 
ATOM     60  C   UNL A   1      43.683  32.780  29.319  1.00  0.00     0.031 C 
ATOM     61  C   UNL A   1      41.537  34.187  29.707  1.00  0.00     0.031 A 
BRANCH  48  62
ATOM     62  C   UNL A   1      35.442  34.362  29.780  1.00  0.00    -0.014 A 
ATOM     63  C   UNL A   1      34.735  34.841  28.653  1.00  0.00     0.009 A 
ATOM     64  C   UNL A   1      34.830  34.590  31.024  1.00  0.00     0.009 A 
ATOM     65  C   UNL A   1      33.533  35.555  28.752  1.00  0.00     0.001 A 
ATOM     66  C   UNL A   1      33.623  35.313  31.132  1.00  0.00     0.001 A 
ATOM     67  C   UNL A   1      32.980  35.801  29.998  1.00  0.00     0.000 A 
ENDBRANCH  48  62
BRANCH  49  68
ATOM     68  C   UNL A   1      43.166  28.465  30.346  1.00  0.00    -0.014 A 
ATOM     69  C   UNL A   1      43.399  27.260  31.054  1.00  0.00     0.009 A 
ATOM     70  C   UNL A   1      43.012  28.356  28.952  1.00  0.00     0.009 A 
ATOM     71  C   UNL A   1      43.419  26.009  30.409  1.00  0.00     0.001 A 
ATOM     72  C   UNL A   1      43.047  27.106  28.304  1.00  0.00     0.001 A 
ATOM     73  C   UNL A   1      43.232  25.932  29.032  1.00  0.00     0.000 A 
ENDBRANCH  49  68
BRANCH  61  74
ATOM     74  C   UNL A   1      41.905  35.452  28.990  1.00  0.00    -0.014 A 
ATOM     75  C   UNL A   1      41.537  35.710  27.671  1.00  0.00     0.009 A 
ATOM     76  C   UNL A   1      42.718  36.416  29.626  1.00  0.00     0.009 A 
ATOM     77  C   UNL A   1      41.828  36.937  27.070  1.00  0.00     0.001 A 
ATOM     78  C   UNL A   1      43.041  37.626  29.022  1.00  0.00     0.001 A 
ATOM     79  C   UNL A   1      42.565  37.899  27.752  1.00  0.00     0.000 A 
ENDBRANCH  61  74
ENDBRANCH  35  36
ENDBRANCH  28  30
ENDBRANCH  27  28
ENDBRANCH  26  27
ENDBRANCH   1  26
TORSDOF 14
ENDMDL
MODEL 2
REMARK VINA RESULT:     -12.8      2.000      3.170
REMARK SMILES Cc1ccc(NC(=O)[C@H]2CC(Cl)=CC[C@@H]2C(=O)OCCOC(=O)c2ccc(-c3c4nc(c(-c5ccccc5)c5ccc([nH]5)c(-c5ccccc5)c5nc(c(-c6ccccc6)c6ccc3[nH]6)C=C5)C=C4)cc2)cc1[N+](=O)[O-]
REMARK SMILES IDX 19 1 18 2 16 3 17 4 15 5 9 6 10 7 11 8 14 9 12 10 13 11 7 12
REMARK SMILES IDX 6 13 8 15 5 16 1 17 2 18 3 19 73 20 4 21 72 22 74 23 75 24
REMARK SMILES IDX 76 25 20 26 21 27 22 28 23 29 24 30 25 31 71 32 26 33 70 34
REMARK SMILES IDX 27 35 28 36 29 37 64 38 30 39 69 40 63 41 65 42 31 43 68 44
REMARK SMILES IDX 62 45 61 46 32 48 54 49 39 50 53 51 40 52 43 53 52 54 66 55
REMARK SMILES IDX 41 56 42 57 51 59 67 60 44 61 33 62 34 63 38 64 35 65 37 66
REMARK SMILES IDX 36 67 55 68 56 69 60 70 57 71 59 72 58 73 45 74 46 75 50 76
REMARK SMILES IDX 47 77 49 78 48 79
REMARK H PARENT 6 14 65 47 43 58
REMARK Flexibility Score: inf
ROOT
ATOM      1  C   UNL A   1      38.111  23.645  25.821  1.00  0.00     0.274 C 
ENDROOT
BRANCH   1   2
ATOM      2  O   UNL A   1      36.766  23.619  24.624  1.00  0.00    -0.462 OA
BRANCH   2   3
ATOM      3  C   UNL A   1      35.894  23.093  23.712  1.00  0.00     0.310 C 
ATOM      4  O   UNL A   1      36.338  22.952  22.563  1.00  0.00    -0.252 OA
BRANCH   3   5
ATOM      5  C   UNL A   1      34.370  22.654  23.849  1.00  0.00     0.116 C 
ATOM      6  C   UNL A   1      33.132  23.534  23.568  1.00  0.00     0.098 C 
ATOM      7  C   UNL A   1      31.773  22.878  23.858  1.00  0.00     0.062 C 
ATOM      8  C   UNL A   1      31.743  22.360  25.256  1.00  0.00     0.015 C 
ATOM      9  C   UNL A   1      34.130  21.685  25.064  1.00  0.00     0.044 C 
ATOM     10  Cl  UNL A   1      30.266  22.513  26.128  1.00  0.00    -0.089 Cl
ATOM     11  C   UNL A   1      32.827  21.812  25.812  1.00  0.00    -0.010 C 
BRANCH   6  12
ATOM     12  C   UNL A   1      33.223  23.911  22.128  1.00  0.00     0.228 C 
ATOM     13  N   UNL A   1      33.034  25.215  21.826  1.00  0.00    -0.326 N 
ATOM     14  H   UNL A   1      33.103  25.440  20.869  1.00  0.00     0.169 HD
ATOM     15  O   UNL A   1      33.526  23.116  21.242  1.00  0.00    -0.274 OA
BRANCH  13  16
ATOM     16  C   UNL A   1      32.756  26.284  22.667  1.00  0.00     0.048 A 
ATOM     17  C   UNL A   1      31.202  30.329  25.370  1.00  0.00     0.052 C 
ATOM     18  C   UNL A   1      31.670  29.330  24.331  1.00  0.00     0.027 A 
ATOM     19  C   UNL A   1      33.231  28.647  24.687  1.00  0.00     0.012 A 
ATOM     20  C   UNL A   1      30.684  28.520  23.198  1.00  0.00     0.274 A 
ATOM     21  C   UNL A   1      33.874  27.094  23.865  1.00  0.00     0.027 A 
ATOM     22  C   UNL A   1      31.162  27.026  22.399  1.00  0.00     0.112 A 
BRANCH  20  23
ATOM     23  N   UNL A   1      29.587  29.290  22.617  1.00  0.00     0.063 N 
ATOM     24  O   UNL A   1      28.472  29.119  23.118  1.00  0.00    -0.258 OA
ATOM     25  O   UNL A   1      29.833  29.994  21.634  1.00  0.00    -0.258 OA
ENDBRANCH  20  23
ENDBRANCH  13  16
ENDBRANCH   6  12
ENDBRANCH   3   5
ENDBRANCH   2   3
ENDBRANCH   1   2
BRANCH   1  26
ATOM     26  C   UNL A   1      39.316  21.867  26.332  1.00  0.00     0.275 C 
BRANCH  26  27
ATOM     27  O   UNL A   1      41.163  21.917  26.137  1.00  0.00    -0.458 OA
BRANCH  27  28
ATOM     28  C   UNL A   1      42.311  22.727  25.667  1.00  0.00     0.338 C 
ATOM     29  O   UNL A   1      43.133  22.208  24.915  1.00  0.00    -0.246 OA
BRANCH  28  30
ATOM     30  C   UNL A   1      42.593  24.260  26.042  1.00  0.00     0.060 A 
ATOM     31  C   UNL A   1      42.156  25.428  25.382  1.00  0.00     0.016 A 
ATOM     32  C   UNL A   1      43.104  24.524  27.275  1.00  0.00     0.016 A 
ATOM     33  C   UNL A   1      41.865  26.648  26.116  1.00  0.00     0.010 A 
ATOM     34  C   UNL A   1      42.354  25.430  28.008  1.00  0.00     0.010 A 
ATOM     35  C   UNL A   1      41.832  26.603  27.501  1.00  0.00    -0.014 A 
BRANCH  35  36
ATOM     36  C   UNL A   1      41.578  27.607  28.587  1.00  0.00     0.031 A 
ATOM     37  C   UNL A   1      40.332  28.420  28.723  1.00  0.00     0.074 A 
ATOM     38  C   UNL A   1      42.610  27.698  29.486  1.00  0.00     0.049 A 
ATOM     39  N   UNL A   1      40.262  29.712  28.656  1.00  0.00    -0.248 NA
ATOM     40  C   UNL A   1      39.020  27.816  28.993  1.00  0.00     0.031 C 
ATOM     41  C   UNL A   1      42.884  28.478  30.677  1.00  0.00     0.029 A 
ATOM     42  N   UNL A   1      43.845  27.017  29.336  1.00  0.00    -0.354 N 
ATOM     43  C   UNL A   1      39.024  30.060  29.196  1.00  0.00     0.074 A 
ATOM     44  C   UNL A   1      38.209  28.879  29.117  1.00  0.00     0.031 C 
ATOM     45  C   UNL A   1      44.236  28.552  30.817  1.00  0.00     0.029 A 
ATOM     46  C   UNL A   1      44.862  27.867  29.680  1.00  0.00     0.049 A 
ATOM     47  H   UNL A   1      43.953  26.086  29.033  1.00  0.00     0.167 HD
ATOM     48  C   UNL A   1      38.894  31.115  30.060  1.00  0.00     0.031 A 
ATOM     49  C   UNL A   1      45.588  28.351  28.630  1.00  0.00     0.031 A 
ATOM     50  C   UNL A   1      40.217  31.564  30.461  1.00  0.00     0.049 A 
ATOM     51  C   UNL A   1      45.315  29.817  28.465  1.00  0.00     0.074 A 
ATOM     52  C   UNL A   1      40.970  31.308  31.594  1.00  0.00     0.029 A 
ATOM     53  N   UNL A   1      41.086  32.043  29.508  1.00  0.00    -0.354 N 
ATOM     54  N   UNL A   1      44.274  30.420  28.963  1.00  0.00    -0.248 NA
ATOM     55  C   UNL A   1      46.153  30.696  27.666  1.00  0.00     0.031 C 
ATOM     56  C   UNL A   1      42.318  31.654  31.305  1.00  0.00     0.029 A 
ATOM     57  C   UNL A   1      42.369  32.121  30.004  1.00  0.00     0.049 A 
ATOM     58  H   UNL A   1      40.826  32.295  28.593  1.00  0.00     0.167 HD
ATOM     59  C   UNL A   1      44.316  31.741  28.639  1.00  0.00     0.074 A 
ATOM     60  C   UNL A   1      45.471  31.850  27.762  1.00  0.00     0.031 C 
ATOM     61  C   UNL A   1      43.406  32.630  29.126  1.00  0.00     0.031 A 
BRANCH  48  62
ATOM     62  C   UNL A   1      37.657  31.534  30.839  1.00  0.00    -0.014 A 
ATOM     63  C   UNL A   1      36.556  32.081  30.141  1.00  0.00     0.009 A 
ATOM     64  C   UNL A   1      37.468  31.345  32.219  1.00  0.00     0.009 A 
ATOM     65  C   UNL A   1      35.369  32.475  30.773  1.00  0.00     0.001 A 
ATOM     66  C   UNL A   1      36.278  31.744  32.864  1.00  0.00     0.001 A 
ATOM     67  C   UNL A   1      35.233  32.316  32.143  1.00  0.00     0.000 A 
ENDBRANCH  48  62
BRANCH  49  68
ATOM     68  C   UNL A   1      45.796  27.407  27.452  1.00  0.00    -0.014 A 
ATOM     69  C   UNL A   1      45.219  27.696  26.191  1.00  0.00     0.009 A 
ATOM     70  C   UNL A   1      46.734  26.359  27.490  1.00  0.00     0.009 A 
ATOM     71  C   UNL A   1      45.603  27.011  25.022  1.00  0.00     0.001 A 
ATOM     72  C   UNL A   1      47.106  25.663  26.323  1.00  0.00     0.001 A 
ATOM     73  C   UNL A   1      46.556  26.000  25.088  1.00  0.00     0.000 A 
ENDBRANCH  49  68
BRANCH  61  74
ATOM     74  C   UNL A   1      43.385  34.090  28.782  1.00  0.00    -0.014 A 
ATOM     75  C   UNL A   1      43.283  35.094  29.744  1.00  0.00     0.009 A 
ATOM     76  C   UNL A   1      43.398  34.499  27.431  1.00  0.00     0.009 A 
ATOM     77  C   UNL A   1      43.352  36.442  29.385  1.00  0.00     0.001 A 
ATOM     78  C   UNL A   1      43.432  35.840  27.063  1.00  0.00     0.001 A 
ATOM     79  C   UNL A   1      43.444  36.813  28.048  1.00  0.00     0.000 A 
ENDBRANCH  61  74
ENDBRANCH  35  36
ENDBRANCH  28  30
ENDBRANCH  27  28
ENDBRANCH  26  27
ENDBRANCH   1  26
TORSDOF 14
ENDMDL
MODEL 3
REMARK VINA RESULT:     -12.7      2.127      4.161
REMARK SMILES Cc1ccc(NC(=O)[C@H]2CC(Cl)=CC[C@@H]2C(=O)OCCOC(=O)c2ccc(-c3c4nc(c(-c5ccccc5)c5ccc([nH]5)c(-c5ccccc5)c5nc(c(-c6ccccc6)c6ccc3[nH]6)C=C5)C=C4)cc2)cc1[N+](=O)[O-]
REMARK SMILES IDX 19 1 18 2 16 3 17 4 15 5 9 6 10 7 11 8 14 9 12 10 13 11 7 12
REMARK SMILES IDX 6 13 8 15 5 16 1 17 2 18 3 19 73 20 4 21 72 22 74 23 75 24
REMARK SMILES IDX 76 25 20 26 21 27 22 28 23 29 24 30 25 31 71 32 26 33 70 34
REMARK SMILES IDX 27 35 28 36 29 37 64 38 30 39 69 40 63 41 65 42 31 43 68 44
REMARK SMILES IDX 62 45 61 46 32 48 54 49 39 50 53 51 40 52 43 53 52 54 66 55
REMARK SMILES IDX 41 56 42 57 51 59 67 60 44 61 33 62 34 63 38 64 35 65 37 66
REMARK SMILES IDX 36 67 55 68 56 69 60 70 57 71 59 72 58 73 45 74 46 75 50 76
REMARK SMILES IDX 47 77 49 78 48 79
REMARK H PARENT 6 14 65 47 43 58
REMARK Flexibility Score: inf
ROOT
ATOM      1  C   UNL A   1      34.365  23.098  27.209  1.00  0.00     0.274 C 
ENDROOT
BRANCH   1   2
ATOM      2  O   UNL A   1      32.661  23.566  26.866  1.00  0.00    -0.462 OA
BRANCH   2   3
ATOM      3  C   UNL A   1      31.624  24.359  26.458  1.00  0.00     0.310 C 
ATOM      4  O   UNL A   1      30.498  24.010  26.841  1.00  0.00    -0.252 OA
BRANCH   3   5
ATOM      5  C   UNL A   1      31.594  25.653  25.530  1.00  0.00     0.116 C 
ATOM      6  C   UNL A   1      31.870  25.700  24.011  1.00  0.00     0.098 C 
ATOM      7  C   UNL A   1      31.851  27.099  23.377  1.00  0.00     0.062 C 
ATOM      8  C   UNL A   1      32.783  28.005  24.109  1.00  0.00     0.015 C 
ATOM      9  C   UNL A   1      32.148  26.929  26.262  1.00  0.00     0.044 C 
ATOM     10  Cl  UNL A   1      33.684  29.138  23.178  1.00  0.00    -0.089 Cl
ATOM     11  C   UNL A   1      32.921  27.927  25.435  1.00  0.00    -0.010 C 
BRANCH   6  12
ATOM     12  C   UNL A   1      30.826  24.838  23.384  1.00  0.00     0.228 C 
ATOM     13  N   UNL A   1      31.161  23.549  23.149  1.00  0.00    -0.326 N 
ATOM     14  H   UNL A   1      30.454  22.999  22.739  1.00  0.00     0.169 HD
ATOM     15  O   UNL A   1      29.686  25.226  23.148  1.00  0.00    -0.274 OA
BRANCH  13  16
ATOM     16  C   UNL A   1      32.354  22.887  23.402  1.00  0.00     0.048 A 
ATOM     17  C   UNL A   1      36.381  20.024  24.695  1.00  0.00     0.052 C 
ATOM     18  C   UNL A   1      35.151  20.905  24.619  1.00  0.00     0.027 A 
ATOM     19  C   UNL A   1      35.438  22.418  23.807  1.00  0.00     0.012 A 
ATOM     20  C   UNL A   1      33.534  20.395  24.806  1.00  0.00     0.274 A 
ATOM     21  C   UNL A   1      34.057  23.507  23.165  1.00  0.00     0.027 A 
ATOM     22  C   UNL A   1      32.158  21.310  24.200  1.00  0.00     0.112 A 
BRANCH  20  23
ATOM     23  N   UNL A   1      33.285  19.366  25.813  1.00  0.00     0.063 N 
ATOM     24  O   UNL A   1      33.102  18.220  25.391  1.00  0.00    -0.258 OA
ATOM     25  O   UNL A   1      33.207  19.719  26.992  1.00  0.00    -0.258 OA
ENDBRANCH  20  23
ENDBRANCH  13  16
ENDBRANCH   6  12
ENDBRANCH   3   5
ENDBRANCH   2   3
ENDBRANCH   1   2
BRANCH   1  26
ATOM     26  C   UNL A   1      36.109  24.223  26.454  1.00  0.00     0.275 C 
BRANCH  26  27
ATOM     27  O   UNL A   1      37.802  23.461  26.531  1.00  0.00    -0.458 OA
BRANCH  27  28
ATOM     28  C   UNL A   1      39.242  23.727  26.758  1.00  0.00     0.338 C 
ATOM     29  O   UNL A   1      40.055  22.844  26.496  1.00  0.00    -0.246 OA
BRANCH  28  30
ATOM     30  C   UNL A   1      39.866  25.093  27.317  1.00  0.00     0.060 A 
ATOM     31  C   UNL A   1      40.286  26.234  26.600  1.00  0.00     0.016 A 
ATOM     32  C   UNL A   1      39.773  25.329  28.654  1.00  0.00     0.016 A 
ATOM     33  C   UNL A   1      40.166  27.568  27.164  1.00  0.00     0.010 A 
ATOM     34  C   UNL A   1      39.172  26.538  28.967  1.00  0.00     0.010 A 
ATOM     35  C   UNL A   1      39.453  27.735  28.341  1.00  0.00    -0.014 A 
BRANCH  35  36
ATOM     36  C   UNL A   1      39.110  28.907  29.214  1.00  0.00     0.031 A 
ATOM     37  C   UNL A   1      38.095  29.951  28.879  1.00  0.00     0.074 A 
ATOM     38  C   UNL A   1      39.811  28.922  30.392  1.00  0.00     0.049 A 
ATOM     39  N   UNL A   1      38.337  31.212  28.706  1.00  0.00    -0.248 NA
ATOM     40  C   UNL A   1      36.664  29.648  28.746  1.00  0.00     0.031 C 
ATOM     41  C   UNL A   1      39.876  29.791  31.551  1.00  0.00     0.029 A 
ATOM     42  N   UNL A   1      40.850  28.006  30.700  1.00  0.00    -0.354 N 
ATOM     43  C   UNL A   1      37.103  31.857  28.787  1.00  0.00     0.074 A 
ATOM     44  C   UNL A   1      36.111  30.851  28.526  1.00  0.00     0.031 C 
ATOM     45  C   UNL A   1      41.101  29.627  32.120  1.00  0.00     0.029 A 
ATOM     46  C   UNL A   1      41.876  28.688  31.299  1.00  0.00     0.049 A 
ATOM     47  H   UNL A   1      40.836  27.040  30.513  1.00  0.00     0.167 HD
ATOM     48  C   UNL A   1      36.954  33.025  29.487  1.00  0.00     0.031 A 
ATOM     49  C   UNL A   1      42.975  28.879  30.513  1.00  0.00     0.031 A 
ATOM     50  C   UNL A   1      38.157  33.266  30.267  1.00  0.00     0.049 A 
ATOM     51  C   UNL A   1      43.098  30.334  30.169  1.00  0.00     0.074 A 
ATOM     52  C   UNL A   1      38.452  33.029  31.598  1.00  0.00     0.029 A 
ATOM     53  N   UNL A   1      39.359  33.439  29.620  1.00  0.00    -0.354 N 
ATOM     54  N   UNL A   1      42.117  31.185  30.257  1.00  0.00    -0.248 NA
ATOM     55  C   UNL A   1      44.314  30.923  29.630  1.00  0.00     0.031 C 
ATOM     56  C   UNL A   1      39.865  33.072  31.742  1.00  0.00     0.029 A 
ATOM     57  C   UNL A   1      40.413  33.340  30.501  1.00  0.00     0.049 A 
ATOM     58  H   UNL A   1      39.453  33.610  28.655  1.00  0.00     0.167 HD
ATOM     59  C   UNL A   1      42.548  32.418  29.876  1.00  0.00     0.074 A 
ATOM     60  C   UNL A   1      43.909  32.187  29.419  1.00  0.00     0.031 C 
ATOM     61  C   UNL A   1      41.754  33.521  29.977  1.00  0.00     0.031 A 
BRANCH  48  62
ATOM     62  C   UNL A   1      35.664  33.771  29.789  1.00  0.00    -0.014 A 
ATOM     63  C   UNL A   1      35.315  34.023  31.136  1.00  0.00     0.009 A 
ATOM     64  C   UNL A   1      34.805  34.325  28.825  1.00  0.00     0.009 A 
ATOM     65  C   UNL A   1      34.157  34.720  31.508  1.00  0.00     0.001 A 
ATOM     66  C   UNL A   1      33.634  35.024  29.191  1.00  0.00     0.001 A 
ATOM     67  C   UNL A   1      33.308  35.214  30.532  1.00  0.00     0.000 A 
ENDBRANCH  48  62
BRANCH  49  68
ATOM     68  C   UNL A   1      43.318  27.762  29.535  1.00  0.00    -0.014 A 
ATOM     69  C   UNL A   1      43.192  26.405  29.923  1.00  0.00     0.009 A 
ATOM     70  C   UNL A   1      43.542  28.008  28.167  1.00  0.00     0.009 A 
ATOM     71  C   UNL A   1      43.232  25.356  28.985  1.00  0.00     0.001 A 
ATOM     72  C   UNL A   1      43.597  26.957  27.232  1.00  0.00     0.001 A 
ATOM     73  C   UNL A   1      43.424  25.634  27.635  1.00  0.00     0.000 A 
ENDBRANCH  49  68
BRANCH  61  74
ATOM     74  C   UNL A   1      42.164  34.897  29.547  1.00  0.00    -0.014 A 
ATOM     75  C   UNL A   1      43.093  35.666  30.247  1.00  0.00     0.009 A 
ATOM     76  C   UNL A   1      41.552  35.501  28.427  1.00  0.00     0.009 A 
ATOM     77  C   UNL A   1      43.508  36.909  29.765  1.00  0.00     0.001 A 
ATOM     78  C   UNL A   1      41.935  36.754  27.959  1.00  0.00     0.001 A 
ATOM     79  C   UNL A   1      42.941  37.443  28.612  1.00  0.00     0.000 A 
ENDBRANCH  61  74
ENDBRANCH  35  36
ENDBRANCH  28  30
ENDBRANCH  27  28
ENDBRANCH  26  27
ENDBRANCH   1  26
TORSDOF 14
ENDMDL
