MODEL 1
REMARK VINA RESULT:      -9.3      0.000      0.000
REMARK SMILES C[C@H](CCC(=O)OCCOC(=O)c1ccc(-c2c3nc(c(-c4ccccc4)c4ccc([nH]4)c(-c4ccccc4)c4nc(c(-c5ccccc5)c5ccc2[nH]5)C=C4)C=C3)cc1)NC(=O)N(C)CCc1cccs1
REMARK SMILES IDX 5 1 6 2 4 3 3 4 2 5 1 6 61 7 62 8 63 10 64 11 65 12 66 13
REMARK SMILES IDX 67 14 68 15 69 16 72 17 70 18 71 19 7 20 8 21 9 22 10 23
REMARK SMILES IDX 11 24 12 25 13 26 14 27 60 28 15 29 59 30 16 31 17 32 18 33
REMARK SMILES IDX 53 34 19 35 58 36 52 37 54 38 20 39 57 40 51 41 50 42 21 44
REMARK SMILES IDX 43 45 28 46 42 47 29 48 32 49 41 50 55 51 30 52 31 53 40 55
REMARK SMILES IDX 56 56 33 57 22 58 23 59 27 60 24 61 26 62 25 63 44 64 45 65
REMARK SMILES IDX 49 66 46 67 48 68 47 69 34 70 35 71 39 72 36 73 38 74 37 75
REMARK H PARENT 61 9 54 43 32 54
REMARK Flexibility Score: inf
ROOT
ATOM      1  C   UNL A   1      32.865  29.375  26.804  1.00  0.00     0.305 C 
ATOM      2  O   UNL A   1      32.176  28.791  27.630  1.00  0.00    -0.252 OA
ENDROOT
BRANCH   1   3
ATOM      3  C   UNL A   1      33.986  28.702  26.046  1.00  0.00     0.125 C 
BRANCH   3   4
ATOM      4  C   UNL A   1      33.547  27.713  24.972  1.00  0.00     0.036 C 
BRANCH   4   5
ATOM      5  C   UNL A   1      33.881  26.207  25.112  1.00  0.00     0.081 C 
ATOM      6  C   UNL A   1      33.015  25.366  26.045  1.00  0.00     0.031 C 
BRANCH   5   7
ATOM      7  N   UNL A   1      33.871  25.618  23.773  1.00  0.00    -0.336 N 
ATOM      8  C   UNL A   1      32.986  25.264  22.833  1.00  0.00     0.317 C 
ATOM      9  H   UNL A   1      34.788  25.424  23.474  1.00  0.00     0.165 HD
ATOM     10  O   UNL A   1      33.515  24.925  21.769  1.00  0.00    -0.249 OA
BRANCH   8  11
ATOM     11  N   UNL A   1      31.632  25.285  22.989  1.00  0.00    -0.328 N 
ATOM     12  C   UNL A   1      30.727  24.187  23.286  1.00  0.00     0.148 C 
BRANCH  11  13
ATOM     13  C   UNL A   1      30.948  26.542  22.634  1.00  0.00     0.126 C 
BRANCH  13  14
ATOM     14  C   UNL A   1      29.724  26.852  23.515  1.00  0.00     0.068 C 
BRANCH  14  15
ATOM     15  C   UNL A   1      29.092  28.191  23.253  1.00  0.00     0.006 A 
ATOM     16  C   UNL A   1      27.758  28.482  23.048  1.00  0.00     0.015 A 
ATOM     17  S   UNL A   1      30.061  29.603  23.135  1.00  0.00    -0.149 S 
ATOM     18  C   UNL A   1      27.523  29.880  22.901  1.00  0.00     0.012 A 
ATOM     19  C   UNL A   1      28.688  30.608  22.977  1.00  0.00     0.065 A 
ENDBRANCH  14  15
ENDBRANCH  13  14
ENDBRANCH  11  13
ENDBRANCH   8  11
ENDBRANCH   5   7
ENDBRANCH   4   5
ENDBRANCH   3   4
ENDBRANCH   1   3
BRANCH   1  20
ATOM     20  O   UNL A   1      32.770  30.692  26.502  1.00  0.00    -0.462 OA
BRANCH  20  21
ATOM     21  C   UNL A   1      31.453  31.272  26.478  1.00  0.00     0.274 C 
BRANCH  21  22
ATOM     22  C   UNL A   1      31.516  32.767  26.789  1.00  0.00     0.275 C 
BRANCH  22  23
ATOM     23  O   UNL A   1      32.882  33.220  26.807  1.00  0.00    -0.458 OA
BRANCH  23  24
ATOM     24  C   UNL A   1      33.258  33.868  27.932  1.00  0.00     0.338 C 
ATOM     25  O   UNL A   1      32.649  34.753  28.515  1.00  0.00    -0.246 OA
BRANCH  24  26
ATOM     26  C   UNL A   1      34.471  33.234  28.474  1.00  0.00     0.060 A 
ATOM     27  C   UNL A   1      34.350  31.966  29.046  1.00  0.00     0.016 A 
ATOM     28  C   UNL A   1      35.706  33.885  28.455  1.00  0.00     0.016 A 
ATOM     29  C   UNL A   1      35.454  31.344  29.613  1.00  0.00     0.010 A 
ATOM     30  C   UNL A   1      36.821  33.255  29.017  1.00  0.00     0.010 A 
ATOM     31  C   UNL A   1      36.698  31.985  29.607  1.00  0.00    -0.014 A 
BRANCH  31  32
ATOM     32  C   UNL A   1      37.850  31.317  30.252  1.00  0.00     0.031 A 
ATOM     33  C   UNL A   1      38.166  31.593  31.693  1.00  0.00     0.074 A 
ATOM     34  C   UNL A   1      38.569  30.416  29.557  1.00  0.00     0.049 A 
ATOM     35  N   UNL A   1      39.128  31.107  32.435  1.00  0.00    -0.248 NA
ATOM     36  C   UNL A   1      37.280  32.536  32.394  1.00  0.00     0.031 C 
ATOM     37  C   UNL A   1      38.327  30.034  28.164  1.00  0.00     0.029 A 
ATOM     38  N   UNL A   1      39.644  29.653  29.933  1.00  0.00    -0.354 N 
ATOM     39  C   UNL A   1      38.969  31.685  33.685  1.00  0.00     0.074 A 
ATOM     40  C   UNL A   1      37.835  32.580  33.598  1.00  0.00     0.031 C 
ATOM     41  C   UNL A   1      39.223  29.099  27.806  1.00  0.00     0.029 A 
ATOM     42  C   UNL A   1      40.122  28.848  28.928  1.00  0.00     0.049 A 
ATOM     43  H   UNL A   1      40.035  29.679  30.837  1.00  0.00     0.167 HD
ATOM     44  C   UNL A   1      39.698  31.483  34.810  1.00  0.00     0.031 A 
ATOM     45  C   UNL A   1      41.178  28.015  28.910  1.00  0.00     0.031 A 
ATOM     46  C   UNL A   1      40.832  30.601  34.891  1.00  0.00     0.049 A 
ATOM     47  C   UNL A   1      42.010  27.860  30.154  1.00  0.00     0.074 A 
ATOM     48  C   UNL A   1      41.646  30.341  35.981  1.00  0.00     0.029 A 
ATOM     49  N   UNL A   1      41.313  29.835  33.841  1.00  0.00    -0.354 N 
ATOM     50  N   UNL A   1      41.850  28.418  31.330  1.00  0.00    -0.248 NA
ATOM     51  C   UNL A   1      43.164  26.956  30.067  1.00  0.00     0.031 C 
ATOM     52  C   UNL A   1      42.645  29.449  35.577  1.00  0.00     0.029 A 
ATOM     53  C   UNL A   1      42.422  29.115  34.251  1.00  0.00     0.049 A 
ATOM     54  H   UNL A   1      40.924  29.808  32.937  1.00  0.00     0.167 HD
ATOM     55  C   UNL A   1      42.873  27.919  32.126  1.00  0.00     0.074 A 
ATOM     56  C   UNL A   1      43.627  26.993  31.308  1.00  0.00     0.031 C 
ATOM     57  C   UNL A   1      43.166  28.206  33.418  1.00  0.00     0.031 A 
BRANCH  44  58
ATOM     58  C   UNL A   1      39.303  32.253  36.037  1.00  0.00    -0.014 A 
ATOM     59  C   UNL A   1      39.890  33.493  36.337  1.00  0.00     0.009 A 
ATOM     60  C   UNL A   1      38.303  31.752  36.883  1.00  0.00     0.009 A 
ATOM     61  C   UNL A   1      39.498  34.203  37.474  1.00  0.00     0.001 A 
ATOM     62  C   UNL A   1      37.896  32.475  38.006  1.00  0.00     0.001 A 
ATOM     63  C   UNL A   1      38.499  33.696  38.304  1.00  0.00     0.000 A 
ENDBRANCH  44  58
BRANCH  45  64
ATOM     64  C   UNL A   1      41.537  27.287  27.665  1.00  0.00    -0.014 A 
ATOM     65  C   UNL A   1      42.359  27.882  26.695  1.00  0.00     0.009 A 
ATOM     66  C   UNL A   1      41.030  26.000  27.428  1.00  0.00     0.009 A 
ATOM     67  C   UNL A   1      42.638  27.213  25.500  1.00  0.00     0.001 A 
ATOM     68  C   UNL A   1      41.337  25.322  26.246  1.00  0.00     0.001 A 
ATOM     69  C   UNL A   1      42.130  25.934  25.278  1.00  0.00     0.000 A 
ENDBRANCH  45  64
BRANCH  57  70
ATOM     70  C   UNL A   1      44.341  27.489  34.022  1.00  0.00    -0.014 A 
ATOM     71  C   UNL A   1      44.205  26.205  34.573  1.00  0.00     0.009 A 
ATOM     72  C   UNL A   1      45.602  28.105  34.032  1.00  0.00     0.009 A 
ATOM     73  C   UNL A   1      45.300  25.572  35.163  1.00  0.00     0.001 A 
ATOM     74  C   UNL A   1      46.701  27.456  34.595  1.00  0.00     0.001 A 
ATOM     75  C   UNL A   1      46.547  26.196  35.171  1.00  0.00     0.000 A 
ENDBRANCH  57  70
ENDBRANCH  31  32
ENDBRANCH  24  26
ENDBRANCH  23  24
ENDBRANCH  22  23
ENDBRANCH  21  22
ENDBRANCH  20  21
ENDBRANCH   1  20
TORSDOF 18
ENDMDL
MODEL 2
REMARK VINA RESULT:      -9.3      5.231     10.053
REMARK SMILES C[C@H](CCC(=O)OCCOC(=O)c1ccc(-c2c3nc(c(-c4ccccc4)c4ccc([nH]4)c(-c4ccccc4)c4nc(c(-c5ccccc5)c5ccc2[nH]5)C=C4)C=C3)cc1)NC(=O)N(C)CCc1cccs1
REMARK SMILES IDX 5 1 6 2 4 3 3 4 2 5 1 6 61 7 62 8 63 10 64 11 65 12 66 13
REMARK SMILES IDX 67 14 68 15 69 16 72 17 70 18 71 19 7 20 8 21 9 22 10 23
REMARK SMILES IDX 11 24 12 25 13 26 14 27 60 28 15 29 59 30 16 31 17 32 18 33
REMARK SMILES IDX 53 34 19 35 58 36 52 37 54 38 20 39 57 40 51 41 50 42 21 44
REMARK SMILES IDX 43 45 28 46 42 47 29 48 32 49 41 50 55 51 30 52 31 53 40 55
REMARK SMILES IDX 56 56 33 57 22 58 23 59 27 60 24 61 26 62 25 63 44 64 45 65
REMARK SMILES IDX 49 66 46 67 48 68 47 69 34 70 35 71 39 72 36 73 38 74 37 75
REMARK H PARENT 61 9 54 43 32 54
REMARK Flexibility Score: inf
ROOT
ATOM      1  C   UNL A   1      36.915  22.312  24.502  1.00  0.00     0.305 C 
ATOM      2  O   UNL A   1      36.665  22.485  23.316  1.00  0.00    -0.252 OA
ENDROOT
BRANCH   1   3
ATOM      3  C   UNL A   1      35.923  22.611  25.602  1.00  0.00     0.125 C 
BRANCH   3   4
ATOM      4  C   UNL A   1      35.484  24.067  25.709  1.00  0.00     0.036 C 
BRANCH   4   5
ATOM      5  C   UNL A   1      34.089  24.503  25.197  1.00  0.00     0.081 C 
ATOM      6  C   UNL A   1      33.606  25.908  25.544  1.00  0.00     0.031 C 
BRANCH   5   7
ATOM      7  N   UNL A   1      34.068  24.325  23.745  1.00  0.00    -0.336 N 
ATOM      8  C   UNL A   1      33.255  23.837  22.800  1.00  0.00     0.317 C 
ATOM      9  H   UNL A   1      34.899  24.666  23.343  1.00  0.00     0.165 HD
ATOM     10  O   UNL A   1      33.655  24.057  21.651  1.00  0.00    -0.249 OA
BRANCH   8  11
ATOM     11  N   UNL A   1      32.086  23.178  23.041  1.00  0.00    -0.328 N 
ATOM     12  C   UNL A   1      30.843  23.692  23.591  1.00  0.00     0.148 C 
BRANCH  11  13
ATOM     13  C   UNL A   1      32.117  21.712  22.905  1.00  0.00     0.126 C 
BRANCH  13  14
ATOM     14  C   UNL A   1      32.521  20.978  24.197  1.00  0.00     0.068 C 
BRANCH  14  15
ATOM     15  C   UNL A   1      32.679  19.490  24.045  1.00  0.00     0.006 A 
ATOM     16  C   UNL A   1      32.640  18.739  22.887  1.00  0.00     0.015 A 
ATOM     17  S   UNL A   1      32.903  18.493  25.425  1.00  0.00    -0.149 S 
ATOM     18  C   UNL A   1      32.901  17.358  23.126  1.00  0.00     0.012 A 
ATOM     19  C   UNL A   1      33.110  17.098  24.461  1.00  0.00     0.065 A 
ENDBRANCH  14  15
ENDBRANCH  13  14
ENDBRANCH  11  13
ENDBRANCH   8  11
ENDBRANCH   5   7
ENDBRANCH   4   5
ENDBRANCH   3   4
ENDBRANCH   1   3
BRANCH   1  20
ATOM     20  O   UNL A   1      38.107  21.899  24.995  1.00  0.00    -0.462 OA
BRANCH  20  21
ATOM     21  C   UNL A   1      38.306  20.481  25.144  1.00  0.00     0.274 C 
BRANCH  21  22
ATOM     22  C   UNL A   1      39.465  20.196  26.097  1.00  0.00     0.275 C 
BRANCH  22  23
ATOM     23  O   UNL A   1      40.283  19.125  25.590  1.00  0.00    -0.458 OA
BRANCH  23  24
ATOM     24  C   UNL A   1      41.592  19.199  25.915  1.00  0.00     0.338 C 
ATOM     25  O   UNL A   1      42.443  18.337  25.756  1.00  0.00    -0.246 OA
BRANCH  24  26
ATOM     26  C   UNL A   1      41.905  20.567  26.360  1.00  0.00     0.060 A 
ATOM     27  C   UNL A   1      42.159  21.533  25.384  1.00  0.00     0.016 A 
ATOM     28  C   UNL A   1      41.982  20.894  27.715  1.00  0.00     0.016 A 
ATOM     29  C   UNL A   1      42.504  22.827  25.751  1.00  0.00     0.010 A 
ATOM     30  C   UNL A   1      42.321  22.200  28.086  1.00  0.00     0.010 A 
ATOM     31  C   UNL A   1      42.591  23.170  27.105  1.00  0.00    -0.014 A 
BRANCH  31  32
ATOM     32  C   UNL A   1      42.999  24.545  27.469  1.00  0.00     0.031 A 
ATOM     33  C   UNL A   1      44.444  24.943  27.396  1.00  0.00     0.074 A 
ATOM     34  C   UNL A   1      42.059  25.449  27.804  1.00  0.00     0.049 A 
ATOM     35  N   UNL A   1      44.997  26.097  27.671  1.00  0.00    -0.248 NA
ATOM     36  C   UNL A   1      45.392  23.909  26.949  1.00  0.00     0.031 C 
ATOM     37  C   UNL A   1      40.619  25.189  27.866  1.00  0.00     0.029 A 
ATOM     38  N   UNL A   1      42.177  26.772  28.144  1.00  0.00    -0.354 N 
ATOM     39  C   UNL A   1      46.354  25.929  27.436  1.00  0.00     0.074 A 
ATOM     40  C   UNL A   1      46.548  24.556  27.024  1.00  0.00     0.031 C 
ATOM     41  C   UNL A   1      39.986  26.321  28.213  1.00  0.00     0.029 A 
ATOM     42  C   UNL A   1      40.975  27.370  28.437  1.00  0.00     0.049 A 
ATOM     43  H   UNL A   1      43.039  27.247  28.176  1.00  0.00     0.167 HD
ATOM     44  C   UNL A   1      47.351  26.840  27.549  1.00  0.00     0.031 A 
ATOM     45  C   UNL A   1      40.706  28.621  28.854  1.00  0.00     0.031 A 
ATOM     46  C   UNL A   1      47.158  28.203  27.971  1.00  0.00     0.049 A 
ATOM     47  C   UNL A   1      41.841  29.592  29.033  1.00  0.00     0.074 A 
ATOM     48  C   UNL A   1      48.107  29.198  28.132  1.00  0.00     0.029 A 
ATOM     49  N   UNL A   1      45.933  28.761  28.301  1.00  0.00    -0.354 N 
ATOM     50  N   UNL A   1      43.121  29.419  28.812  1.00  0.00    -0.248 NA
ATOM     51  C   UNL A   1      41.488  30.934  29.515  1.00  0.00     0.031 C 
ATOM     52  C   UNL A   1      47.460  30.347  28.600  1.00  0.00     0.029 A 
ATOM     53  C   UNL A   1      46.102  30.082  28.680  1.00  0.00     0.049 A 
ATOM     54  H   UNL A   1      45.070  28.288  28.270  1.00  0.00     0.167 HD
ATOM     55  C   UNL A   1      43.724  30.633  29.112  1.00  0.00     0.074 A 
ATOM     56  C   UNL A   1      42.665  31.542  29.500  1.00  0.00     0.031 C 
ATOM     57  C   UNL A   1      45.037  30.967  29.074  1.00  0.00     0.031 A 
BRANCH  44  58
ATOM     58  C   UNL A   1      48.746  26.382  27.233  1.00  0.00    -0.014 A 
ATOM     59  C   UNL A   1      49.241  26.412  25.919  1.00  0.00     0.009 A 
ATOM     60  C   UNL A   1      49.589  25.951  28.268  1.00  0.00     0.009 A 
ATOM     61  C   UNL A   1      50.546  25.997  25.647  1.00  0.00     0.001 A 
ATOM     62  C   UNL A   1      50.901  25.559  27.996  1.00  0.00     0.001 A 
ATOM     63  C   UNL A   1      51.376  25.576  26.685  1.00  0.00     0.000 A 
ENDBRANCH  44  58
BRANCH  45  64
ATOM     64  C   UNL A   1      39.310  29.020  29.169  1.00  0.00    -0.014 A 
ATOM     65  C   UNL A   1      38.769  28.804  30.446  1.00  0.00     0.009 A 
ATOM     66  C   UNL A   1      38.499  29.596  28.177  1.00  0.00     0.009 A 
ATOM     67  C   UNL A   1      37.435  29.126  30.712  1.00  0.00     0.001 A 
ATOM     68  C   UNL A   1      37.177  29.945  28.456  1.00  0.00     0.001 A 
ATOM     69  C   UNL A   1      36.642  29.699  29.719  1.00  0.00     0.000 A 
ENDBRANCH  45  64
BRANCH  57  70
ATOM     70  C   UNL A   1      45.389  32.380  29.445  1.00  0.00    -0.014 A 
ATOM     71  C   UNL A   1      45.407  33.401  28.482  1.00  0.00     0.009 A 
ATOM     72  C   UNL A   1      45.699  32.694  30.777  1.00  0.00     0.009 A 
ATOM     73  C   UNL A   1      45.772  34.700  28.839  1.00  0.00     0.001 A 
ATOM     74  C   UNL A   1      46.034  33.999  31.136  1.00  0.00     0.001 A 
ATOM     75  C   UNL A   1      46.083  34.999  30.166  1.00  0.00     0.000 A 
ENDBRANCH  57  70
ENDBRANCH  31  32
ENDBRANCH  24  26
ENDBRANCH  23  24
ENDBRANCH  22  23
ENDBRANCH  21  22
ENDBRANCH  20  21
ENDBRANCH   1  20
TORSDOF 18
ENDMDL
MODEL 3
REMARK VINA RESULT:      -9.2      1.846      6.062
REMARK SMILES C[C@H](CCC(=O)OCCOC(=O)c1ccc(-c2c3nc(c(-c4ccccc4)c4ccc([nH]4)c(-c4ccccc4)c4nc(c(-c5ccccc5)c5ccc2[nH]5)C=C4)C=C3)cc1)NC(=O)N(C)CCc1cccs1
REMARK SMILES IDX 5 1 6 2 4 3 3 4 2 5 1 6 61 7 62 8 63 10 64 11 65 12 66 13
REMARK SMILES IDX 67 14 68 15 69 16 72 17 70 18 71 19 7 20 8 21 9 22 10 23
REMARK SMILES IDX 11 24 12 25 13 26 14 27 60 28 15 29 59 30 16 31 17 32 18 33
REMARK SMILES IDX 53 34 19 35 58 36 52 37 54 38 20 39 57 40 51 41 50 42 21 44
REMARK SMILES IDX 43 45 28 46 42 47 29 48 32 49 41 50 55 51 30 52 31 53 40 55
REMARK SMILES IDX 56 56 33 57 22 58 23 59 27 60 24 61 26 62 25 63 44 64 45 65
REMARK SMILES IDX 49 66 46 67 48 68 47 69 34 70 35 71 39 72 36 73 38 74 37 75
REMARK H PARENT 61 9 54 43 32 54
REMARK Flexibility Score: inf
ROOT
ATOM      1  C   UNL A   1      33.371  29.186  26.716  1.00  0.00     0.305 C 
ATOM      2  O   UNL A   1      33.024  28.432  27.616  1.00  0.00    -0.252 OA
ENDROOT
BRANCH   1   3
ATOM      3  C   UNL A   1      34.270  28.752  25.582  1.00  0.00     0.125 C 
BRANCH   3   4
ATOM      4  C   UNL A   1      33.569  28.041  24.428  1.00  0.00     0.036 C 
BRANCH   4   5
ATOM      5  C   UNL A   1      33.690  26.506  24.267  1.00  0.00     0.081 C 
ATOM      6  C   UNL A   1      33.151  25.624  25.389  1.00  0.00     0.031 C 
BRANCH   5   7
ATOM      7  N   UNL A   1      33.049  26.136  23.004  1.00  0.00    -0.336 N 
ATOM      8  C   UNL A   1      31.868  26.282  22.391  1.00  0.00     0.317 C 
ATOM      9  H   UNL A   1      33.672  25.628  22.436  1.00  0.00     0.165 HD
ATOM     10  O   UNL A   1      31.876  25.890  21.219  1.00  0.00    -0.249 OA
BRANCH   8  11
ATOM     11  N   UNL A   1      30.755  26.824  22.961  1.00  0.00    -0.328 N 
ATOM     12  C   UNL A   1      29.795  26.208  23.861  1.00  0.00     0.148 C 
BRANCH  11  13
ATOM     13  C   UNL A   1      30.347  28.153  22.472  1.00  0.00     0.126 C 
BRANCH  13  14
ATOM     14  C   UNL A   1      29.995  29.146  23.595  1.00  0.00     0.068 C 
BRANCH  14  15
ATOM     15  C   UNL A   1      29.304  30.396  23.127  1.00  0.00     0.006 A 
ATOM     16  C   UNL A   1      29.087  31.568  23.825  1.00  0.00     0.015 A 
ATOM     17  S   UNL A   1      28.626  30.478  21.552  1.00  0.00    -0.149 S 
ATOM     18  C   UNL A   1      28.457  32.567  23.029  1.00  0.00     0.012 A 
ATOM     19  C   UNL A   1      28.196  32.119  21.754  1.00  0.00     0.065 A 
ENDBRANCH  14  15
ENDBRANCH  13  14
ENDBRANCH  11  13
ENDBRANCH   8  11
ENDBRANCH   5   7
ENDBRANCH   4   5
ENDBRANCH   3   4
ENDBRANCH   1   3
BRANCH   1  20
ATOM     20  O   UNL A   1      33.062  30.503  26.641  1.00  0.00    -0.462 OA
BRANCH  20  21
ATOM     21  C   UNL A   1      31.691  30.875  26.868  1.00  0.00     0.274 C 
BRANCH  21  22
ATOM     22  C   UNL A   1      31.549  32.394  26.942  1.00  0.00     0.275 C 
BRANCH  22  23
ATOM     23  O   UNL A   1      32.844  33.022  26.929  1.00  0.00    -0.458 OA
BRANCH  23  24
ATOM     24  C   UNL A   1      33.132  33.768  28.018  1.00  0.00     0.338 C 
ATOM     25  O   UNL A   1      32.426  34.619  28.540  1.00  0.00    -0.246 OA
BRANCH  24  26
ATOM     26  C   UNL A   1      34.392  33.294  28.613  1.00  0.00     0.060 A 
ATOM     27  C   UNL A   1      35.582  33.564  27.932  1.00  0.00     0.016 A 
ATOM     28  C   UNL A   1      34.410  32.564  29.803  1.00  0.00     0.016 A 
ATOM     29  C   UNL A   1      36.794  33.100  28.426  1.00  0.00     0.010 A 
ATOM     30  C   UNL A   1      35.631  32.103  30.306  1.00  0.00     0.010 A 
ATOM     31  C   UNL A   1      36.828  32.362  29.615  1.00  0.00    -0.014 A 
BRANCH  31  32
ATOM     32  C   UNL A   1      38.128  31.845  30.099  1.00  0.00     0.031 A 
ATOM     33  C   UNL A   1      38.654  30.539  29.580  1.00  0.00     0.074 A 
ATOM     34  C   UNL A   1      38.858  32.584  30.954  1.00  0.00     0.049 A 
ATOM     35  N   UNL A   1      39.769  29.922  29.880  1.00  0.00    -0.248 NA
ATOM     36  C   UNL A   1      37.821  29.836  28.591  1.00  0.00     0.031 C 
ATOM     37  C   UNL A   1      38.468  33.890  31.491  1.00  0.00     0.029 A 
ATOM     38  N   UNL A   1      40.086  32.344  31.514  1.00  0.00    -0.354 N 
ATOM     39  C   UNL A   1      39.771  28.759  29.123  1.00  0.00     0.074 A 
ATOM     40  C   UNL A   1      38.535  28.740  28.371  1.00  0.00     0.031 C 
ATOM     41  C   UNL A   1      39.445  34.340  32.295  1.00  0.00     0.029 A 
ATOM     42  C   UNL A   1      40.506  33.341  32.361  1.00  0.00     0.049 A 
ATOM     43  H   UNL A   1      40.617  31.536  31.326  1.00  0.00     0.167 HD
ATOM     44  C   UNL A   1      40.721  27.796  29.055  1.00  0.00     0.031 A 
ATOM     45  C   UNL A   1      41.615  33.428  33.118  1.00  0.00     0.031 A 
ATOM     46  C   UNL A   1      41.945  27.811  29.813  1.00  0.00     0.049 A 
ATOM     47  C   UNL A   1      42.622  32.311  33.072  1.00  0.00     0.074 A 
ATOM     48  C   UNL A   1      42.963  26.873  29.826  1.00  0.00     0.029 A 
ATOM     49  N   UNL A   1      42.315  28.815  30.694  1.00  0.00    -0.354 N 
ATOM     50  N   UNL A   1      42.608  31.214  32.355  1.00  0.00    -0.248 NA
ATOM     51  C   UNL A   1      43.800  32.451  33.939  1.00  0.00     0.031 C 
ATOM     52  C   UNL A   1      43.930  27.290  30.747  1.00  0.00     0.029 A 
ATOM     53  C   UNL A   1      43.538  28.512  31.268  1.00  0.00     0.049 A 
ATOM     54  H   UNL A   1      41.786  29.624  30.883  1.00  0.00     0.167 HD
ATOM     55  C   UNL A   1      43.781  30.542  32.671  1.00  0.00     0.074 A 
ATOM     56  C   UNL A   1      44.495  31.370  33.621  1.00  0.00     0.031 C 
ATOM     57  C   UNL A   1      44.227  29.344  32.220  1.00  0.00     0.031 A 
BRANCH  44  58
ATOM     58  C   UNL A   1      40.459  26.630  28.146  1.00  0.00    -0.014 A 
ATOM     59  C   UNL A   1      39.705  25.527  28.578  1.00  0.00     0.009 A 
ATOM     60  C   UNL A   1      40.939  26.652  26.828  1.00  0.00     0.009 A 
ATOM     61  C   UNL A   1      39.458  24.458  27.712  1.00  0.00     0.001 A 
ATOM     62  C   UNL A   1      40.670  25.593  25.958  1.00  0.00     0.001 A 
ATOM     63  C   UNL A   1      39.935  24.495  26.403  1.00  0.00     0.000 A 
ENDBRANCH  44  58
BRANCH  45  64
ATOM     64  C   UNL A   1      41.819  34.596  34.014  1.00  0.00    -0.014 A 
ATOM     65  C   UNL A   1      41.349  34.580  35.336  1.00  0.00     0.009 A 
ATOM     66  C   UNL A   1      42.463  35.749  33.536  1.00  0.00     0.009 A 
ATOM     67  C   UNL A   1      41.492  35.708  36.150  1.00  0.00     0.001 A 
ATOM     68  C   UNL A   1      42.631  36.862  34.361  1.00  0.00     0.001 A 
ATOM     69  C   UNL A   1      42.135  36.845  35.663  1.00  0.00     0.000 A 
ENDBRANCH  45  64
BRANCH  57  70
ATOM     70  C   UNL A   1      45.557  28.876  32.740  1.00  0.00    -0.014 A 
ATOM     71  C   UNL A   1      45.649  28.084  33.895  1.00  0.00     0.009 A 
ATOM     72  C   UNL A   1      46.733  29.227  32.059  1.00  0.00     0.009 A 
ATOM     73  C   UNL A   1      46.896  27.692  34.384  1.00  0.00     0.001 A 
ATOM     74  C   UNL A   1      47.977  28.807  32.533  1.00  0.00     0.001 A 
ATOM     75  C   UNL A   1      48.058  28.051  33.701  1.00  0.00     0.000 A 
ENDBRANCH  57  70
ENDBRANCH  31  32
ENDBRANCH  24  26
ENDBRANCH  23  24
ENDBRANCH  22  23
ENDBRANCH  21  22
ENDBRANCH  20  21
ENDBRANCH   1  20
TORSDOF 18
ENDMDL
