MODEL 1
REMARK VINA RESULT:      -9.1      0.000      0.000
REMARK SMILES C[C@@H](C(=O)OCCOC(=O)c1ccc(-c2c3nc(c(-c4ccccc4)c4ccc([nH]4)c(-c4ccccc4)c4nc(c(-c5ccccc5)c5ccc2[nH]5)C=C4)C=C3)cc1)c1ccc(-c2ccccc2)cc1
REMARK SMILES IDX 6 1 5 2 3 3 4 4 2 5 1 6 59 7 60 8 70 9 61 10 69 11 62 12
REMARK SMILES IDX 63 13 64 14 68 15 65 16 67 17 66 18 7 19 8 20 9 21 10 22
REMARK SMILES IDX 11 23 12 24 58 25 13 26 57 27 14 28 15 29 16 30 51 31 17 32
REMARK SMILES IDX 56 33 50 34 52 35 18 36 55 37 49 38 48 39 19 41 41 42 26 43
REMARK SMILES IDX 40 44 27 45 30 46 39 47 53 48 28 49 29 50 38 52 54 53 31 54
REMARK SMILES IDX 20 55 21 56 25 57 22 58 24 59 23 60 42 61 43 62 47 63 44 64
REMARK SMILES IDX 46 65 45 66 32 67 33 68 37 69 34 70 36 71 35 72
REMARK H PARENT 52 40 30 51
REMARK Flexibility Score: inf
ROOT
ATOM      1  C   UNL A   1      42.170  20.200  26.305  1.00  0.00     0.274 C 
ENDROOT
BRANCH   1   2
ATOM      2  O   UNL A   1      42.742  21.017  25.261  1.00  0.00    -0.462 OA
BRANCH   2   3
ATOM      3  C   UNL A   1      43.889  21.695  25.549  1.00  0.00     0.313 C 
ATOM      4  O   UNL A   1      45.004  21.184  25.504  1.00  0.00    -0.252 OA
BRANCH   3   5
ATOM      5  C   UNL A   1      43.618  23.144  26.012  1.00  0.00     0.126 C 
ATOM      6  C   UNL A   1      44.395  24.162  25.159  1.00  0.00     0.025 C 
BRANCH   5   7
ATOM      7  C   UNL A   1      43.797  23.343  27.527  1.00  0.00    -0.034 A 
ATOM      8  C   UNL A   1      42.759  23.139  28.450  1.00  0.00     0.005 A 
ATOM      9  C   UNL A   1      45.044  23.740  28.047  1.00  0.00     0.005 A 
ATOM     10  C   UNL A   1      42.952  23.350  29.824  1.00  0.00     0.009 A 
ATOM     11  C   UNL A   1      45.230  23.971  29.422  1.00  0.00     0.009 A 
ATOM     12  C   UNL A   1      44.184  23.784  30.331  1.00  0.00    -0.018 A 
BRANCH  12  13
ATOM     13  C   UNL A   1      44.328  24.078  31.765  1.00  0.00    -0.018 A 
ATOM     14  C   UNL A   1      44.110  23.090  32.739  1.00  0.00     0.009 A 
ATOM     15  C   UNL A   1      44.613  25.378  32.207  1.00  0.00     0.009 A 
ATOM     16  C   UNL A   1      44.148  23.404  34.102  1.00  0.00     0.001 A 
ATOM     17  C   UNL A   1      44.632  25.699  33.566  1.00  0.00     0.001 A 
ATOM     18  C   UNL A   1      44.395  24.712  34.515  1.00  0.00     0.000 A 
ENDBRANCH  12  13
ENDBRANCH   5   7
ENDBRANCH   3   5
ENDBRANCH   2   3
ENDBRANCH   1   2
BRANCH   1  19
ATOM     19  C   UNL A   1      40.791  20.722  26.703  1.00  0.00     0.275 C 
BRANCH  19  20
ATOM     20  O   UNL A   1      40.577  22.009  26.100  1.00  0.00    -0.458 OA
BRANCH  20  21
ATOM     21  C   UNL A   1      39.362  22.565  26.297  1.00  0.00     0.338 C 
ATOM     22  O   UNL A   1      38.265  22.046  26.177  1.00  0.00    -0.246 OA
BRANCH  21  23
ATOM     23  C   UNL A   1      39.562  23.925  26.809  1.00  0.00     0.060 A 
ATOM     24  C   UNL A   1      40.224  24.830  25.988  1.00  0.00     0.016 A 
ATOM     25  C   UNL A   1      39.188  24.287  28.104  1.00  0.00     0.016 A 
ATOM     26  C   UNL A   1      40.548  26.093  26.464  1.00  0.00     0.010 A 
ATOM     27  C   UNL A   1      39.489  25.575  28.572  1.00  0.00     0.010 A 
ATOM     28  C   UNL A   1      40.196  26.481  27.761  1.00  0.00    -0.014 A 
BRANCH  28  29
ATOM     29  C   UNL A   1      40.675  27.793  28.273  1.00  0.00     0.031 A 
ATOM     30  C   UNL A   1      39.680  28.881  28.575  1.00  0.00     0.074 A 
ATOM     31  C   UNL A   1      41.964  27.960  28.633  1.00  0.00     0.049 A 
ATOM     32  N   UNL A   1      39.886  30.081  29.062  1.00  0.00    -0.248 NA
ATOM     33  C   UNL A   1      38.265  28.572  28.315  1.00  0.00     0.031 C 
ATOM     34  C   UNL A   1      42.999  26.928  28.568  1.00  0.00     0.029 A 
ATOM     35  N   UNL A   1      42.595  29.030  29.223  1.00  0.00    -0.354 N 
ATOM     36  C   UNL A   1      38.634  30.681  29.125  1.00  0.00     0.074 A 
ATOM     37  C   UNL A   1      37.674  29.713  28.641  1.00  0.00     0.031 C 
ATOM     38  C   UNL A   1      44.099  27.376  29.197  1.00  0.00     0.029 A 
ATOM     39  C   UNL A   1      43.875  28.749  29.639  1.00  0.00     0.049 A 
ATOM     40  H   UNL A   1      42.171  29.911  29.335  1.00  0.00     0.167 HD
ATOM     41  C   UNL A   1      38.309  31.930  29.535  1.00  0.00     0.031 A 
ATOM     42  C   UNL A   1      44.761  29.509  30.313  1.00  0.00     0.031 A 
ATOM     43  C   UNL A   1      39.245  32.894  30.046  1.00  0.00     0.049 A 
ATOM     44  C   UNL A   1      44.402  30.926  30.670  1.00  0.00     0.074 A 
ATOM     45  C   UNL A   1      39.018  34.211  30.408  1.00  0.00     0.029 A 
ATOM     46  N   UNL A   1      40.582  32.636  30.288  1.00  0.00    -0.354 N 
ATOM     47  N   UNL A   1      43.240  31.525  30.611  1.00  0.00    -0.248 NA
ATOM     48  C   UNL A   1      45.497  31.777  31.161  1.00  0.00     0.031 C 
ATOM     49  C   UNL A   1      40.231  34.761  30.836  1.00  0.00     0.029 A 
ATOM     50  C   UNL A   1      41.200  33.773  30.778  1.00  0.00     0.049 A 
ATOM     51  H   UNL A   1      41.029  31.772  30.135  1.00  0.00     0.167 HD
ATOM     52  C   UNL A   1      43.464  32.825  31.054  1.00  0.00     0.074 A 
ATOM     53  C   UNL A   1      44.863  32.913  31.416  1.00  0.00     0.031 C 
ATOM     54  C   UNL A   1      42.591  33.856  31.135  1.00  0.00     0.031 A 
BRANCH  41  55
ATOM     55  C   UNL A   1      36.881  32.356  29.371  1.00  0.00    -0.014 A 
ATOM     56  C   UNL A   1      36.405  32.883  28.162  1.00  0.00     0.009 A 
ATOM     57  C   UNL A   1      35.992  32.196  30.446  1.00  0.00     0.009 A 
ATOM     58  C   UNL A   1      35.065  33.264  28.042  1.00  0.00     0.001 A 
ATOM     59  C   UNL A   1      34.652  32.558  30.316  1.00  0.00     0.001 A 
ATOM     60  C   UNL A   1      34.191  33.098  29.117  1.00  0.00     0.000 A 
ENDBRANCH  41  55
BRANCH  42  61
ATOM     61  C   UNL A   1      46.093  28.968  30.695  1.00  0.00    -0.014 A 
ATOM     62  C   UNL A   1      47.114  28.864  29.736  1.00  0.00     0.009 A 
ATOM     63  C   UNL A   1      46.338  28.506  31.997  1.00  0.00     0.009 A 
ATOM     64  C   UNL A   1      48.342  28.289  30.068  1.00  0.00     0.001 A 
ATOM     65  C   UNL A   1      47.578  27.958  32.334  1.00  0.00     0.001 A 
ATOM     66  C   UNL A   1      48.574  27.841  31.367  1.00  0.00     0.000 A 
ENDBRANCH  42  61
BRANCH  54  67
ATOM     67  C   UNL A   1      43.116  35.173  31.630  1.00  0.00    -0.014 A 
ATOM     68  C   UNL A   1      43.676  36.103  30.739  1.00  0.00     0.009 A 
ATOM     69  C   UNL A   1      43.005  35.511  32.987  1.00  0.00     0.009 A 
ATOM     70  C   UNL A   1      44.139  37.336  31.204  1.00  0.00     0.001 A 
ATOM     71  C   UNL A   1      43.448  36.754  33.445  1.00  0.00     0.001 A 
ATOM     72  C   UNL A   1      44.020  37.662  32.554  1.00  0.00     0.000 A 
ENDBRANCH  54  67
ENDBRANCH  28  29
ENDBRANCH  21  23
ENDBRANCH  20  21
ENDBRANCH  19  20
ENDBRANCH   1  19
TORSDOF 13
ENDMDL
MODEL 2
REMARK VINA RESULT:      -9.0      5.752     11.633
REMARK SMILES C[C@@H](C(=O)OCCOC(=O)c1ccc(-c2c3nc(c(-c4ccccc4)c4ccc([nH]4)c(-c4ccccc4)c4nc(c(-c5ccccc5)c5ccc2[nH]5)C=C4)C=C3)cc1)c1ccc(-c2ccccc2)cc1
REMARK SMILES IDX 6 1 5 2 3 3 4 4 2 5 1 6 59 7 60 8 70 9 61 10 69 11 62 12
REMARK SMILES IDX 63 13 64 14 68 15 65 16 67 17 66 18 7 19 8 20 9 21 10 22
REMARK SMILES IDX 11 23 12 24 58 25 13 26 57 27 14 28 15 29 16 30 51 31 17 32
REMARK SMILES IDX 56 33 50 34 52 35 18 36 55 37 49 38 48 39 19 41 41 42 26 43
REMARK SMILES IDX 40 44 27 45 30 46 39 47 53 48 28 49 29 50 38 52 54 53 31 54
REMARK SMILES IDX 20 55 21 56 25 57 22 58 24 59 23 60 42 61 43 62 47 63 44 64
REMARK SMILES IDX 46 65 45 66 32 67 33 68 37 69 34 70 36 71 35 72
REMARK H PARENT 52 40 30 51
REMARK Flexibility Score: inf
ROOT
ATOM      1  C   UNL A   1      33.995  35.148  28.605  1.00  0.00     0.274 C 
ENDROOT
BRANCH   1   2
ATOM      2  O   UNL A   1      34.032  33.758  28.992  1.00  0.00    -0.462 OA
BRANCH   2   3
ATOM      3  C   UNL A   1      34.833  32.923  28.269  1.00  0.00     0.313 C 
ATOM      4  O   UNL A   1      35.781  33.315  27.597  1.00  0.00    -0.252 OA
BRANCH   3   5
ATOM      5  C   UNL A   1      34.362  31.453  28.331  1.00  0.00     0.126 C 
ATOM      6  C   UNL A   1      35.555  30.483  28.384  1.00  0.00     0.025 C 
BRANCH   5   7
ATOM      7  C   UNL A   1      33.325  31.099  27.250  1.00  0.00    -0.034 A 
ATOM      8  C   UNL A   1      32.122  31.804  27.090  1.00  0.00     0.005 A 
ATOM      9  C   UNL A   1      33.563  30.034  26.362  1.00  0.00     0.005 A 
ATOM     10  C   UNL A   1      31.189  31.442  26.107  1.00  0.00     0.009 A 
ATOM     11  C   UNL A   1      32.618  29.658  25.391  1.00  0.00     0.009 A 
ATOM     12  C   UNL A   1      31.413  30.354  25.252  1.00  0.00    -0.018 A 
BRANCH  12  13
ATOM     13  C   UNL A   1      30.378  29.948  24.290  1.00  0.00    -0.018 A 
ATOM     14  C   UNL A   1      29.410  30.855  23.831  1.00  0.00     0.009 A 
ATOM     15  C   UNL A   1      30.280  28.616  23.859  1.00  0.00     0.009 A 
ATOM     16  C   UNL A   1      28.368  30.433  22.996  1.00  0.00     0.001 A 
ATOM     17  C   UNL A   1      29.230  28.188  23.044  1.00  0.00     0.001 A 
ATOM     18  C   UNL A   1      28.271  29.097  22.615  1.00  0.00     0.000 A 
ENDBRANCH  12  13
ENDBRANCH   5   7
ENDBRANCH   3   5
ENDBRANCH   2   3
ENDBRANCH   1   2
BRANCH   1  19
ATOM     19  C   UNL A   1      32.905  35.892  29.373  1.00  0.00     0.275 C 
BRANCH  19  20
ATOM     20  O   UNL A   1      32.555  35.144  30.549  1.00  0.00    -0.458 OA
BRANCH  20  21
ATOM     21  C   UNL A   1      32.814  35.739  31.734  1.00  0.00     0.338 C 
ATOM     22  O   UNL A   1      32.221  36.665  32.259  1.00  0.00    -0.246 OA
BRANCH  21  23
ATOM     23  C   UNL A   1      33.902  35.000  32.384  1.00  0.00     0.060 A 
ATOM     24  C   UNL A   1      35.176  35.554  32.331  1.00  0.00     0.016 A 
ATOM     25  C   UNL A   1      33.699  33.746  32.961  1.00  0.00     0.016 A 
ATOM     26  C   UNL A   1      36.263  34.845  32.823  1.00  0.00     0.010 A 
ATOM     27  C   UNL A   1      34.796  33.046  33.487  1.00  0.00     0.010 A 
ATOM     28  C   UNL A   1      36.093  33.580  33.398  1.00  0.00    -0.014 A 
BRANCH  28  29
ATOM     29  C   UNL A   1      37.298  32.804  33.794  1.00  0.00     0.031 A 
ATOM     30  C   UNL A   1      37.949  31.883  32.796  1.00  0.00     0.074 A 
ATOM     31  C   UNL A   1      37.915  33.045  34.968  1.00  0.00     0.049 A 
ATOM     32  N   UNL A   1      39.025  31.147  32.927  1.00  0.00    -0.248 NA
ATOM     33  C   UNL A   1      37.317  31.794  31.470  1.00  0.00     0.031 C 
ATOM     34  C   UNL A   1      37.497  34.045  35.951  1.00  0.00     0.029 A 
ATOM     35  N   UNL A   1      39.083  32.536  35.484  1.00  0.00    -0.354 N 
ATOM     36  C   UNL A   1      39.173  30.478  31.718  1.00  0.00     0.074 A 
ATOM     37  C   UNL A   1      38.087  30.903  30.862  1.00  0.00     0.031 C 
ATOM     38  C   UNL A   1      38.453  34.155  36.890  1.00  0.00     0.029 A 
ATOM     39  C   UNL A   1      39.507  33.182  36.621  1.00  0.00     0.049 A 
ATOM     40  H   UNL A   1      39.568  31.782  35.079  1.00  0.00     0.167 HD
ATOM     41  C   UNL A   1      40.118  29.579  31.354  1.00  0.00     0.031 A 
ATOM     42  C   UNL A   1      40.627  33.019  37.354  1.00  0.00     0.031 A 
ATOM     43  C   UNL A   1      41.219  29.167  32.180  1.00  0.00     0.049 A 
ATOM     44  C   UNL A   1      41.610  31.945  36.974  1.00  0.00     0.074 A 
ATOM     45  C   UNL A   1      42.177  28.201  31.924  1.00  0.00     0.029 A 
ATOM     46  N   UNL A   1      41.521  29.714  33.414  1.00  0.00    -0.354 N 
ATOM     47  N   UNL A   1      41.673  31.229  35.880  1.00  0.00    -0.248 NA
ATOM     48  C   UNL A   1      42.665  31.643  37.956  1.00  0.00     0.031 C 
ATOM     49  C   UNL A   1      43.040  28.139  33.024  1.00  0.00     0.029 A 
ATOM     50  C   UNL A   1      42.641  29.096  33.942  1.00  0.00     0.049 A 
ATOM     51  H   UNL A   1      41.015  30.437  33.852  1.00  0.00     0.167 HD
ATOM     52  C   UNL A   1      42.769  30.389  36.043  1.00  0.00     0.074 A 
ATOM     53  C   UNL A   1      43.365  30.714  37.321  1.00  0.00     0.031 C 
ATOM     54  C   UNL A   1      43.228  29.422  35.214  1.00  0.00     0.031 A 
BRANCH  41  55
ATOM     55  C   UNL A   1      39.953  28.914  30.019  1.00  0.00    -0.014 A 
ATOM     56  C   UNL A   1      39.282  27.690  29.885  1.00  0.00     0.009 A 
ATOM     57  C   UNL A   1      40.459  29.548  28.874  1.00  0.00     0.009 A 
ATOM     58  C   UNL A   1      39.141  27.102  28.625  1.00  0.00     0.001 A 
ATOM     59  C   UNL A   1      40.299  28.968  27.615  1.00  0.00     0.001 A 
ATOM     60  C   UNL A   1      39.646  27.743  27.492  1.00  0.00     0.000 A 
ENDBRANCH  41  55
BRANCH  42  61
ATOM     61  C   UNL A   1      40.894  33.876  38.539  1.00  0.00    -0.014 A 
ATOM     62  C   UNL A   1      41.688  35.028  38.412  1.00  0.00     0.009 A 
ATOM     63  C   UNL A   1      40.408  33.527  39.808  1.00  0.00     0.009 A 
ATOM     64  C   UNL A   1      42.005  35.797  39.532  1.00  0.00     0.001 A 
ATOM     65  C   UNL A   1      40.703  34.316  40.922  1.00  0.00     0.001 A 
ATOM     66  C   UNL A   1      41.509  35.443  40.785  1.00  0.00     0.000 A 
ENDBRANCH  42  61
BRANCH  54  67
ATOM     67  C   UNL A   1      44.430  28.639  35.658  1.00  0.00    -0.014 A 
ATOM     68  C   UNL A   1      44.282  27.446  36.384  1.00  0.00     0.009 A 
ATOM     69  C   UNL A   1      45.719  29.067  35.306  1.00  0.00     0.009 A 
ATOM     70  C   UNL A   1      45.405  26.712  36.771  1.00  0.00     0.001 A 
ATOM     71  C   UNL A   1      46.838  28.318  35.675  1.00  0.00     0.001 A 
ATOM     72  C   UNL A   1      46.681  27.145  36.412  1.00  0.00     0.000 A 
ENDBRANCH  54  67
ENDBRANCH  28  29
ENDBRANCH  21  23
ENDBRANCH  20  21
ENDBRANCH  19  20
ENDBRANCH   1  19
TORSDOF 13
ENDMDL
MODEL 3
REMARK VINA RESULT:      -8.9      5.297     10.222
REMARK SMILES C[C@@H](C(=O)OCCOC(=O)c1ccc(-c2c3nc(c(-c4ccccc4)c4ccc([nH]4)c(-c4ccccc4)c4nc(c(-c5ccccc5)c5ccc2[nH]5)C=C4)C=C3)cc1)c1ccc(-c2ccccc2)cc1
REMARK SMILES IDX 6 1 5 2 3 3 4 4 2 5 1 6 59 7 60 8 70 9 61 10 69 11 62 12
REMARK SMILES IDX 63 13 64 14 68 15 65 16 67 17 66 18 7 19 8 20 9 21 10 22
REMARK SMILES IDX 11 23 12 24 58 25 13 26 57 27 14 28 15 29 16 30 51 31 17 32
REMARK SMILES IDX 56 33 50 34 52 35 18 36 55 37 49 38 48 39 19 41 41 42 26 43
REMARK SMILES IDX 40 44 27 45 30 46 39 47 53 48 28 49 29 50 38 52 54 53 31 54
REMARK SMILES IDX 20 55 21 56 25 57 22 58 24 59 23 60 42 61 43 62 47 63 44 64
REMARK SMILES IDX 46 65 45 66 32 67 33 68 37 69 34 70 36 71 35 72
REMARK H PARENT 52 40 30 51
REMARK Flexibility Score: inf
ROOT
ATOM      1  C   UNL A   1      32.057  28.810  24.577  1.00  0.00     0.274 C 
ENDROOT
BRANCH   1   2
ATOM      2  O   UNL A   1      31.714  27.666  25.389  1.00  0.00    -0.462 OA
BRANCH   2   3
ATOM      3  C   UNL A   1      32.185  26.449  24.993  1.00  0.00     0.313 C 
ATOM      4  O   UNL A   1      33.373  26.218  24.792  1.00  0.00    -0.252 OA
BRANCH   3   5
ATOM      5  C   UNL A   1      31.051  25.429  24.750  1.00  0.00     0.126 C 
ATOM      6  C   UNL A   1      29.958  25.535  25.828  1.00  0.00     0.025 C 
BRANCH   5   7
ATOM      7  C   UNL A   1      31.560  23.993  24.526  1.00  0.00    -0.034 A 
ATOM      8  C   UNL A   1      32.043  23.541  23.288  1.00  0.00     0.005 A 
ATOM      9  C   UNL A   1      31.562  23.069  25.588  1.00  0.00     0.005 A 
ATOM     10  C   UNL A   1      32.480  22.220  23.113  1.00  0.00     0.009 A 
ATOM     11  C   UNL A   1      31.981  21.739  25.406  1.00  0.00     0.009 A 
ATOM     12  C   UNL A   1      32.442  21.292  24.163  1.00  0.00    -0.018 A 
BRANCH  12  13
ATOM     13  C   UNL A   1      32.828  19.893  23.925  1.00  0.00    -0.018 A 
ATOM     14  C   UNL A   1      33.881  19.295  24.634  1.00  0.00     0.009 A 
ATOM     15  C   UNL A   1      32.203  19.136  22.923  1.00  0.00     0.009 A 
ATOM     16  C   UNL A   1      34.307  17.997  24.328  1.00  0.00     0.001 A 
ATOM     17  C   UNL A   1      32.639  17.850  22.601  1.00  0.00     0.001 A 
ATOM     18  C   UNL A   1      33.695  17.280  23.302  1.00  0.00     0.000 A 
ENDBRANCH  12  13
ENDBRANCH   5   7
ENDBRANCH   3   5
ENDBRANCH   2   3
ENDBRANCH   1   2
BRANCH   1  19
ATOM     19  C   UNL A   1      31.448  30.085  25.158  1.00  0.00     0.275 C 
BRANCH  19  20
ATOM     20  O   UNL A   1      31.820  30.203  26.541  1.00  0.00    -0.458 OA
BRANCH  20  21
ATOM     21  C   UNL A   1      32.370  31.380  26.912  1.00  0.00     0.338 C 
ATOM     22  O   UNL A   1      31.881  32.495  26.848  1.00  0.00    -0.246 OA
BRANCH  21  23
ATOM     23  C   UNL A   1      33.667  31.098  27.537  1.00  0.00     0.060 A 
ATOM     24  C   UNL A   1      34.064  29.769  27.623  1.00  0.00     0.016 A 
ATOM     25  C   UNL A   1      34.443  32.107  28.109  1.00  0.00     0.016 A 
ATOM     26  C   UNL A   1      35.222  29.432  28.309  1.00  0.00     0.010 A 
ATOM     27  C   UNL A   1      35.630  31.766  28.775  1.00  0.00     0.010 A 
ATOM     28  C   UNL A   1      36.016  30.420  28.902  1.00  0.00    -0.014 A 
BRANCH  28  29
ATOM     29  C   UNL A   1      37.176  30.004  29.736  1.00  0.00     0.031 A 
ATOM     30  C   UNL A   1      38.368  29.358  29.080  1.00  0.00     0.074 A 
ATOM     31  C   UNL A   1      37.247  30.355  31.036  1.00  0.00     0.049 A 
ATOM     32  N   UNL A   1      39.493  28.957  29.619  1.00  0.00    -0.248 NA
ATOM     33  C   UNL A   1      38.292  29.156  27.625  1.00  0.00     0.031 C 
ATOM     34  C   UNL A   1      36.246  31.144  31.754  1.00  0.00     0.029 A 
ATOM     35  N   UNL A   1      38.256  30.179  31.953  1.00  0.00    -0.354 N 
ATOM     36  C   UNL A   1      40.238  28.418  28.577  1.00  0.00     0.074 A 
ATOM     37  C   UNL A   1      39.445  28.554  27.374  1.00  0.00     0.031 C 
ATOM     38  C   UNL A   1      36.740  31.479  32.958  1.00  0.00     0.029 A 
ATOM     39  C   UNL A   1      38.053  30.864  33.128  1.00  0.00     0.049 A 
ATOM     40  H   UNL A   1      39.045  29.616  31.786  1.00  0.00     0.167 HD
ATOM     41  C   UNL A   1      41.465  27.847  28.615  1.00  0.00     0.031 A 
ATOM     42  C   UNL A   1      38.844  30.993  34.212  1.00  0.00     0.031 A 
ATOM     43  C   UNL A   1      42.277  27.730  29.794  1.00  0.00     0.049 A 
ATOM     44  C   UNL A   1      40.161  30.268  34.259  1.00  0.00     0.074 A 
ATOM     45  C   UNL A   1      43.498  27.093  29.943  1.00  0.00     0.029 A 
ATOM     46  N   UNL A   1      41.961  28.280  31.023  1.00  0.00    -0.354 N 
ATOM     47  N   UNL A   1      40.803  29.653  33.298  1.00  0.00    -0.248 NA
ATOM     48  C   UNL A   1      40.846  30.234  35.562  1.00  0.00     0.031 C 
ATOM     49  C   UNL A   1      43.902  27.229  31.276  1.00  0.00     0.029 A 
ATOM     50  C   UNL A   1      42.952  27.985  31.942  1.00  0.00     0.049 A 
ATOM     51  H   UNL A   1      41.150  28.805  31.216  1.00  0.00     0.167 HD
ATOM     52  C   UNL A   1      41.965  29.156  33.879  1.00  0.00     0.074 A 
ATOM     53  C   UNL A   1      41.958  29.577  35.265  1.00  0.00     0.031 C 
ATOM     54  C   UNL A   1      42.939  28.404  33.318  1.00  0.00     0.031 A 
BRANCH  41  55
ATOM     55  C   UNL A   1      41.973  27.229  27.347  1.00  0.00    -0.014 A 
ATOM     56  C   UNL A   1      42.814  27.931  26.472  1.00  0.00     0.009 A 
ATOM     57  C   UNL A   1      41.619  25.905  27.044  1.00  0.00     0.009 A 
ATOM     58  C   UNL A   1      43.274  27.321  25.301  1.00  0.00     0.001 A 
ATOM     59  C   UNL A   1      42.096  25.292  25.885  1.00  0.00     0.001 A 
ATOM     60  C   UNL A   1      42.918  26.003  25.012  1.00  0.00     0.000 A 
ENDBRANCH  41  55
BRANCH  42  61
ATOM     61  C   UNL A   1      38.424  31.833  35.366  1.00  0.00    -0.014 A 
ATOM     62  C   UNL A   1      38.597  33.226  35.324  1.00  0.00     0.009 A 
ATOM     63  C   UNL A   1      37.901  31.251  36.530  1.00  0.00     0.009 A 
ATOM     64  C   UNL A   1      38.275  34.014  36.430  1.00  0.00     0.001 A 
ATOM     65  C   UNL A   1      37.551  32.046  37.625  1.00  0.00     0.001 A 
ATOM     66  C   UNL A   1      37.748  33.424  37.578  1.00  0.00     0.000 A 
ENDBRANCH  42  61
BRANCH  54  67
ATOM     67  C   UNL A   1      44.082  27.978  34.196  1.00  0.00    -0.014 A 
ATOM     68  C   UNL A   1      45.186  28.822  34.396  1.00  0.00     0.009 A 
ATOM     69  C   UNL A   1      44.032  26.749  34.870  1.00  0.00     0.009 A 
ATOM     70  C   UNL A   1      46.231  28.429  35.234  1.00  0.00     0.001 A 
ATOM     71  C   UNL A   1      45.068  26.369  35.726  1.00  0.00     0.001 A 
ATOM     72  C   UNL A   1      46.169  27.207  35.902  1.00  0.00     0.000 A 
ENDBRANCH  54  67
ENDBRANCH  28  29
ENDBRANCH  21  23
ENDBRANCH  20  21
ENDBRANCH  19  20
ENDBRANCH   1  19
TORSDOF 13
ENDMDL
