MODEL 1
REMARK VINA RESULT:      -9.8      0.000      0.000
REMARK SMILES CSc1ncccc1C(=O)N1CSC[C@H]1C(=O)OCCOC(=O)c1ccc(-c2c3nc(c(-c4ccccc4)c4ccc([nH]4)c(-c4ccccc4)c4nc(c(-c5ccccc5)c5ccc2[nH]5)C=C4)C=C3)cc1
REMARK SMILES IDX 19 1 18 2 16 3 17 4 15 5 11 6 12 7 13 8 14 9 9 10 10 11 8 12
REMARK SMILES IDX 3 13 4 14 5 15 7 16 6 17 2 18 1 19 20 20 21 21 22 22 23 23
REMARK SMILES IDX 24 24 25 25 71 26 26 27 70 28 27 29 28 30 29 31 64 32 30 33
REMARK SMILES IDX 69 34 63 35 65 36 31 37 68 38 62 39 61 40 32 42 54 43 39 44
REMARK SMILES IDX 53 45 40 46 43 47 52 48 66 49 41 50 42 51 51 53 67 54 44 55
REMARK SMILES IDX 33 56 34 57 38 58 35 59 37 60 36 61 55 62 56 63 60 64 57 65
REMARK SMILES IDX 59 66 58 67 45 68 46 69 50 70 47 71 49 72 48 73
REMARK H PARENT 65 41 43 52
REMARK Flexibility Score: inf
ROOT
ATOM      1  C   UNL A   1      38.181  20.959  25.414  1.00  0.00     0.274 C 
ENDROOT
BRANCH   1   2
ATOM      2  O   UNL A   1      37.056  21.144  24.530  1.00  0.00    -0.461 OA
BRANCH   2   3
ATOM      3  C   UNL A   1      35.870  20.629  24.945  1.00  0.00     0.329 C 
ATOM      4  O   UNL A   1      35.589  19.433  24.924  1.00  0.00    -0.250 OA
BRANCH   3   5
ATOM      5  C   UNL A   1      34.868  21.694  25.444  1.00  0.00     0.206 C 
ATOM      6  N   UNL A   1      34.227  22.525  24.425  1.00  0.00    -0.315 N 
ATOM      7  C   UNL A   1      33.180  21.847  23.710  1.00  0.00     0.191 C 
ATOM      8  S   UNL A   1      32.452  20.696  24.910  1.00  0.00    -0.138 SA
ATOM      9  C   UNL A   1      33.746  20.954  26.168  1.00  0.00     0.108 C 
BRANCH   6  10
ATOM     10  C   UNL A   1      34.756  23.687  23.892  1.00  0.00     0.258 C 
ATOM     11  O   UNL A   1      35.497  23.666  22.914  1.00  0.00    -0.269 OA
BRANCH  10  12
ATOM     12  C   UNL A   1      34.088  24.964  24.274  1.00  0.00     0.072 A 
ATOM     13  C   UNL A   1      33.041  25.533  23.544  1.00  0.00     0.108 A 
ATOM     14  N   UNL A   1      32.263  26.534  24.052  1.00  0.00    -0.249 NA
ATOM     15  C   UNL A   1      32.504  26.960  25.309  1.00  0.00     0.112 A 
ATOM     16  C   UNL A   1      34.334  25.468  25.565  1.00  0.00     0.018 A 
ATOM     17  C   UNL A   1      33.531  26.474  26.091  1.00  0.00     0.021 A 
BRANCH  13  18
ATOM     18  S   UNL A   1      32.674  25.131  21.848  1.00  0.00    -0.109 SA
ATOM     19  C   UNL A   1      31.474  26.438  21.490  1.00  0.00     0.092 C 
ENDBRANCH  13  18
ENDBRANCH  10  12
ENDBRANCH   6  10
ENDBRANCH   3   5
ENDBRANCH   2   3
ENDBRANCH   1   2
BRANCH   1  20
ATOM     20  C   UNL A   1      39.003  19.724  25.044  1.00  0.00     0.275 C 
BRANCH  20  21
ATOM     21  O   UNL A   1      39.824  19.298  26.146  1.00  0.00    -0.458 OA
BRANCH  21  22
ATOM     22  C   UNL A   1      41.124  19.651  26.041  1.00  0.00     0.338 C 
ATOM     23  O   UNL A   1      42.028  19.010  25.540  1.00  0.00    -0.246 OA
BRANCH  22  24
ATOM     24  C   UNL A   1      41.325  20.999  26.580  1.00  0.00     0.060 A 
ATOM     25  C   UNL A   1      41.841  21.990  25.745  1.00  0.00     0.016 A 
ATOM     26  C   UNL A   1      41.143  21.237  27.942  1.00  0.00     0.016 A 
ATOM     27  C   UNL A   1      42.209  23.223  26.273  1.00  0.00     0.010 A 
ATOM     28  C   UNL A   1      41.477  22.487  28.465  1.00  0.00     0.010 A 
ATOM     29  C   UNL A   1      42.031  23.480  27.638  1.00  0.00    -0.014 A 
BRANCH  29  30
ATOM     30  C   UNL A   1      42.452  24.781  28.203  1.00  0.00     0.031 A 
ATOM     31  C   UNL A   1      41.441  25.865  28.437  1.00  0.00     0.074 A 
ATOM     32  C   UNL A   1      43.746  24.982  28.513  1.00  0.00     0.049 A 
ATOM     33  N   UNL A   1      41.633  27.103  28.813  1.00  0.00    -0.248 NA
ATOM     34  C   UNL A   1      40.030  25.510  28.215  1.00  0.00     0.031 C 
ATOM     35  C   UNL A   1      44.813  23.990  28.372  1.00  0.00     0.029 A 
ATOM     36  N   UNL A   1      44.381  26.093  29.005  1.00  0.00    -0.354 N 
ATOM     37  C   UNL A   1      40.373  27.685  28.845  1.00  0.00     0.074 A 
ATOM     38  C   UNL A   1      39.424  26.668  28.442  1.00  0.00     0.031 C 
ATOM     39  C   UNL A   1      45.972  24.538  28.770  1.00  0.00     0.029 A 
ATOM     40  C   UNL A   1      45.736  25.929  29.141  1.00  0.00     0.049 A 
ATOM     41  H   UNL A   1      43.911  26.926  29.237  1.00  0.00     0.167 HD
ATOM     42  C   UNL A   1      40.038  28.955  29.178  1.00  0.00     0.031 A 
ATOM     43  C   UNL A   1      46.691  26.811  29.490  1.00  0.00     0.031 A 
ATOM     44  C   UNL A   1      40.983  29.964  29.579  1.00  0.00     0.049 A 
ATOM     45  C   UNL A   1      46.303  28.225  29.804  1.00  0.00     0.074 A 
ATOM     46  C   UNL A   1      40.744  31.280  29.937  1.00  0.00     0.029 A 
ATOM     47  N   UNL A   1      42.351  29.764  29.681  1.00  0.00    -0.354 N 
ATOM     48  N   UNL A   1      45.112  28.772  29.805  1.00  0.00    -0.248 NA
ATOM     49  C   UNL A   1      47.392  29.146  30.158  1.00  0.00     0.031 C 
ATOM     50  C   UNL A   1      41.973  31.887  30.219  1.00  0.00     0.029 A 
ATOM     51  C   UNL A   1      42.971  30.937  30.079  1.00  0.00     0.049 A 
ATOM     52  H   UNL A   1      42.814  28.916  29.496  1.00  0.00     0.167 HD
ATOM     53  C   UNL A   1      45.304  30.098  30.163  1.00  0.00     0.074 A 
ATOM     54  C   UNL A   1      46.725  30.268  30.393  1.00  0.00     0.031 C 
ATOM     55  C   UNL A   1      44.388  31.089  30.288  1.00  0.00     0.031 A 
BRANCH  42  56
ATOM     56  C   UNL A   1      38.588  29.332  29.077  1.00  0.00    -0.014 A 
ATOM     57  C   UNL A   1      37.735  29.252  30.188  1.00  0.00     0.009 A 
ATOM     58  C   UNL A   1      38.073  29.788  27.854  1.00  0.00     0.009 A 
ATOM     59  C   UNL A   1      36.386  29.594  30.068  1.00  0.00     0.001 A 
ATOM     60  C   UNL A   1      36.729  30.149  27.742  1.00  0.00     0.001 A 
ATOM     61  C   UNL A   1      35.885  30.044  28.847  1.00  0.00     0.000 A 
ENDBRANCH  42  56
BRANCH  43  62
ATOM     62  C   UNL A   1      48.110  26.380  29.512  1.00  0.00    -0.014 A 
ATOM     63  C   UNL A   1      48.674  25.836  30.674  1.00  0.00     0.009 A 
ATOM     64  C   UNL A   1      48.899  26.485  28.354  1.00  0.00     0.009 A 
ATOM     65  C   UNL A   1      50.006  25.412  30.679  1.00  0.00     0.001 A 
ATOM     66  C   UNL A   1      50.221  26.038  28.355  1.00  0.00     0.001 A 
ATOM     67  C   UNL A   1      50.774  25.506  29.518  1.00  0.00     0.000 A 
ENDBRANCH  43  62
BRANCH  55  68
ATOM     68  C   UNL A   1      44.900  32.436  30.703  1.00  0.00    -0.014 A 
ATOM     69  C   UNL A   1      45.272  33.393  29.747  1.00  0.00     0.009 A 
ATOM     70  C   UNL A   1      44.986  32.759  32.066  1.00  0.00     0.009 A 
ATOM     71  C   UNL A   1      45.750  34.641  30.151  1.00  0.00     0.001 A 
ATOM     72  C   UNL A   1      45.445  34.015  32.465  1.00  0.00     0.001 A 
ATOM     73  C   UNL A   1      45.834  34.951  31.507  1.00  0.00     0.000 A 
ENDBRANCH  55  68
ENDBRANCH  29  30
ENDBRANCH  22  24
ENDBRANCH  21  22
ENDBRANCH  20  21
ENDBRANCH   1  20
TORSDOF 14
ENDMDL
MODEL 2
REMARK VINA RESULT:      -9.8      2.503      7.103
REMARK SMILES CSc1ncccc1C(=O)N1CSC[C@H]1C(=O)OCCOC(=O)c1ccc(-c2c3nc(c(-c4ccccc4)c4ccc([nH]4)c(-c4ccccc4)c4nc(c(-c5ccccc5)c5ccc2[nH]5)C=C4)C=C3)cc1
REMARK SMILES IDX 19 1 18 2 16 3 17 4 15 5 11 6 12 7 13 8 14 9 9 10 10 11 8 12
REMARK SMILES IDX 3 13 4 14 5 15 7 16 6 17 2 18 1 19 20 20 21 21 22 22 23 23
REMARK SMILES IDX 24 24 25 25 71 26 26 27 70 28 27 29 28 30 29 31 64 32 30 33
REMARK SMILES IDX 69 34 63 35 65 36 31 37 68 38 62 39 61 40 32 42 54 43 39 44
REMARK SMILES IDX 53 45 40 46 43 47 52 48 66 49 41 50 42 51 51 53 67 54 44 55
REMARK SMILES IDX 33 56 34 57 38 58 35 59 37 60 36 61 55 62 56 63 60 64 57 65
REMARK SMILES IDX 59 66 58 67 45 68 46 69 50 70 47 71 49 72 48 73
REMARK H PARENT 65 41 43 52
REMARK Flexibility Score: inf
ROOT
ATOM      1  C   UNL A   1      35.989  21.698  24.694  1.00  0.00     0.274 C 
ENDROOT
BRANCH   1   2
ATOM      2  O   UNL A   1      34.854  22.548  24.959  1.00  0.00    -0.461 OA
BRANCH   2   3
ATOM      3  C   UNL A   1      34.629  23.551  24.071  1.00  0.00     0.329 C 
ATOM      4  O   UNL A   1      35.208  23.665  22.994  1.00  0.00    -0.250 OA
BRANCH   3   5
ATOM      5  C   UNL A   1      33.570  24.574  24.542  1.00  0.00     0.206 C 
ATOM      6  N   UNL A   1      32.893  25.348  23.501  1.00  0.00    -0.315 N 
ATOM      7  C   UNL A   1      31.886  24.601  22.797  1.00  0.00     0.191 C 
ATOM      8  S   UNL A   1      31.211  23.441  24.019  1.00  0.00    -0.138 SA
ATOM      9  C   UNL A   1      32.483  23.792  25.277  1.00  0.00     0.108 C 
BRANCH   6  10
ATOM     10  C   UNL A   1      33.365  26.524  22.946  1.00  0.00     0.258 C 
ATOM     11  O   UNL A   1      33.730  26.581  21.776  1.00  0.00    -0.269 OA
BRANCH  10  12
ATOM     12  C   UNL A   1      33.037  27.786  23.670  1.00  0.00     0.072 A 
ATOM     13  C   UNL A   1      31.773  28.381  23.647  1.00  0.00     0.108 A 
ATOM     14  N   UNL A   1      31.417  29.361  24.528  1.00  0.00    -0.249 NA
ATOM     15  C   UNL A   1      32.311  29.741  25.463  1.00  0.00     0.112 A 
ATOM     16  C   UNL A   1      33.956  28.241  24.634  1.00  0.00     0.018 A 
ATOM     17  C   UNL A   1      33.589  29.227  25.544  1.00  0.00     0.021 A 
BRANCH  13  18
ATOM     18  S   UNL A   1      30.534  28.042  22.412  1.00  0.00    -0.109 SA
ATOM     19  C   UNL A   1      29.940  29.727  22.123  1.00  0.00     0.092 C 
ENDBRANCH  13  18
ENDBRANCH  10  12
ENDBRANCH   6  10
ENDBRANCH   3   5
ENDBRANCH   2   3
ENDBRANCH   1   2
BRANCH   1  20
ATOM     20  C   UNL A   1      37.073  21.842  25.762  1.00  0.00     0.275 C 
BRANCH  20  21
ATOM     21  O   UNL A   1      38.031  22.852  25.397  1.00  0.00    -0.458 OA
BRANCH  21  22
ATOM     22  C   UNL A   1      39.147  22.861  26.158  1.00  0.00     0.338 C 
ATOM     23  O   UNL A   1      39.948  21.959  26.311  1.00  0.00    -0.246 OA
BRANCH  22  24
ATOM     24  C   UNL A   1      39.327  24.181  26.771  1.00  0.00     0.060 A 
ATOM     25  C   UNL A   1      40.073  25.145  26.093  1.00  0.00     0.016 A 
ATOM     26  C   UNL A   1      38.884  24.407  28.073  1.00  0.00     0.016 A 
ATOM     27  C   UNL A   1      40.410  26.336  26.725  1.00  0.00     0.010 A 
ATOM     28  C   UNL A   1      39.190  25.619  28.695  1.00  0.00     0.010 A 
ATOM     29  C   UNL A   1      39.972  26.581  28.033  1.00  0.00    -0.014 A 
BRANCH  29  30
ATOM     30  C   UNL A   1      40.357  27.836  28.715  1.00  0.00     0.031 A 
ATOM     31  C   UNL A   1      41.716  27.970  29.338  1.00  0.00     0.074 A 
ATOM     32  C   UNL A   1      39.484  28.858  28.768  1.00  0.00     0.049 A 
ATOM     33  N   UNL A   1      42.193  28.940  30.074  1.00  0.00    -0.248 NA
ATOM     34  C   UNL A   1      42.661  26.867  29.103  1.00  0.00     0.031 C 
ATOM     35  C   UNL A   1      38.151  28.863  28.163  1.00  0.00     0.029 A 
ATOM     36  N   UNL A   1      39.588  30.088  29.364  1.00  0.00    -0.354 N 
ATOM     37  C   UNL A   1      43.482  28.553  30.416  1.00  0.00     0.074 A 
ATOM     38  C   UNL A   1      43.710  27.256  29.815  1.00  0.00     0.031 C 
ATOM     39  C   UNL A   1      37.561  30.042  28.419  1.00  0.00     0.029 A 
ATOM     40  C   UNL A   1      38.451  30.847  29.247  1.00  0.00     0.049 A 
ATOM     41  H   UNL A   1      40.399  30.396  29.831  1.00  0.00     0.167 HD
ATOM     42  C   UNL A   1      44.391  29.219  31.169  1.00  0.00     0.031 A 
ATOM     43  C   UNL A   1      38.144  32.045  29.780  1.00  0.00     0.031 A 
ATOM     44  C   UNL A   1      44.162  30.508  31.765  1.00  0.00     0.049 A 
ATOM     45  C   UNL A   1      39.147  32.740  30.651  1.00  0.00     0.074 A 
ATOM     46  C   UNL A   1      45.020  31.266  32.543  1.00  0.00     0.029 A 
ATOM     47  N   UNL A   1      42.987  31.234  31.643  1.00  0.00    -0.354 N 
ATOM     48  N   UNL A   1      40.352  32.352  30.990  1.00  0.00    -0.248 NA
ATOM     49  C   UNL A   1      38.744  34.034  31.219  1.00  0.00     0.031 C 
ATOM     50  C   UNL A   1      44.350  32.434  32.923  1.00  0.00     0.029 A 
ATOM     51  C   UNL A   1      43.091  32.423  32.345  1.00  0.00     0.049 A 
ATOM     52  H   UNL A   1      42.196  30.946  31.133  1.00  0.00     0.167 HD
ATOM     53  C   UNL A   1      40.856  33.354  31.806  1.00  0.00     0.074 A 
ATOM     54  C   UNL A   1      39.833  34.378  31.894  1.00  0.00     0.031 C 
ATOM     55  C   UNL A   1      42.057  33.421  32.431  1.00  0.00     0.031 A 
BRANCH  42  56
ATOM     56  C   UNL A   1      45.705  28.536  31.421  1.00  0.00    -0.014 A 
ATOM     57  C   UNL A   1      46.804  28.731  30.572  1.00  0.00     0.009 A 
ATOM     58  C   UNL A   1      45.847  27.697  32.537  1.00  0.00     0.009 A 
ATOM     59  C   UNL A   1      48.012  28.074  30.818  1.00  0.00     0.001 A 
ATOM     60  C   UNL A   1      47.062  27.058  32.793  1.00  0.00     0.001 A 
ATOM     61  C   UNL A   1      48.140  27.241  31.929  1.00  0.00     0.000 A 
ENDBRANCH  42  56
BRANCH  43  62
ATOM     62  C   UNL A   1      36.804  32.631  29.532  1.00  0.00    -0.014 A 
ATOM     63  C   UNL A   1      36.524  33.292  28.327  1.00  0.00     0.009 A 
ATOM     64  C   UNL A   1      35.787  32.502  30.492  1.00  0.00     0.009 A 
ATOM     65  C   UNL A   1      35.252  33.821  28.094  1.00  0.00     0.001 A 
ATOM     66  C   UNL A   1      34.511  33.010  30.245  1.00  0.00     0.001 A 
ATOM     67  C   UNL A   1      34.246  33.673  29.049  1.00  0.00     0.000 A 
ENDBRANCH  43  62
BRANCH  55  68
ATOM     68  C   UNL A   1      42.326  34.648  33.251  1.00  0.00    -0.014 A 
ATOM     69  C   UNL A   1      41.957  34.708  34.603  1.00  0.00     0.009 A 
ATOM     70  C   UNL A   1      42.979  35.745  32.669  1.00  0.00     0.009 A 
ATOM     71  C   UNL A   1      42.211  35.860  35.350  1.00  0.00     0.001 A 
ATOM     72  C   UNL A   1      43.251  36.886  33.425  1.00  0.00     0.001 A 
ATOM     73  C   UNL A   1      42.860  36.945  34.762  1.00  0.00     0.000 A 
ENDBRANCH  55  68
ENDBRANCH  29  30
ENDBRANCH  22  24
ENDBRANCH  21  22
ENDBRANCH  20  21
ENDBRANCH   1  20
TORSDOF 14
ENDMDL
MODEL 3
REMARK VINA RESULT:      -9.7      2.345      2.979
REMARK SMILES CSc1ncccc1C(=O)N1CSC[C@H]1C(=O)OCCOC(=O)c1ccc(-c2c3nc(c(-c4ccccc4)c4ccc([nH]4)c(-c4ccccc4)c4nc(c(-c5ccccc5)c5ccc2[nH]5)C=C4)C=C3)cc1
REMARK SMILES IDX 19 1 18 2 16 3 17 4 15 5 11 6 12 7 13 8 14 9 9 10 10 11 8 12
REMARK SMILES IDX 3 13 4 14 5 15 7 16 6 17 2 18 1 19 20 20 21 21 22 22 23 23
REMARK SMILES IDX 24 24 25 25 71 26 26 27 70 28 27 29 28 30 29 31 64 32 30 33
REMARK SMILES IDX 69 34 63 35 65 36 31 37 68 38 62 39 61 40 32 42 54 43 39 44
REMARK SMILES IDX 53 45 40 46 43 47 52 48 66 49 41 50 42 51 51 53 67 54 44 55
REMARK SMILES IDX 33 56 34 57 38 58 35 59 37 60 36 61 55 62 56 63 60 64 57 65
REMARK SMILES IDX 59 66 58 67 45 68 46 69 50 70 47 71 49 72 48 73
REMARK H PARENT 65 41 43 52
REMARK Flexibility Score: inf
ROOT
ATOM      1  C   UNL A   1      35.133  20.376  25.018  1.00  0.00     0.274 C 
ENDROOT
BRANCH   1   2
ATOM      2  O   UNL A   1      34.700  21.546  25.743  1.00  0.00    -0.461 OA
BRANCH   2   3
ATOM      3  C   UNL A   1      33.789  22.339  25.122  1.00  0.00     0.329 C 
ATOM      4  O   UNL A   1      33.333  22.125  24.002  1.00  0.00    -0.250 OA
BRANCH   3   5
ATOM      5  C   UNL A   1      33.370  23.574  25.951  1.00  0.00     0.206 C 
ATOM      6  N   UNL A   1      32.635  24.624  25.246  1.00  0.00    -0.315 N 
ATOM      7  C   UNL A   1      31.257  24.294  25.005  1.00  0.00     0.191 C 
ATOM      8  S   UNL A   1      30.760  23.263  26.413  1.00  0.00    -0.138 SA
ATOM      9  C   UNL A   1      32.452  23.078  27.066  1.00  0.00     0.108 C 
BRANCH   6  10
ATOM     10  C   UNL A   1      33.211  25.657  24.530  1.00  0.00     0.258 C 
ATOM     11  O   UNL A   1      33.658  25.486  23.400  1.00  0.00    -0.269 OA
BRANCH  10  12
ATOM     12  C   UNL A   1      32.906  27.043  24.990  1.00  0.00     0.072 A 
ATOM     13  C   UNL A   1      31.885  27.827  24.449  1.00  0.00     0.108 A 
ATOM     14  N   UNL A   1      31.441  28.964  25.062  1.00  0.00    -0.249 NA
ATOM     15  C   UNL A   1      31.994  29.316  26.240  1.00  0.00     0.112 A 
ATOM     16  C   UNL A   1      33.487  27.470  26.199  1.00  0.00     0.018 A 
ATOM     17  C   UNL A   1      33.023  28.617  26.835  1.00  0.00     0.021 A 
BRANCH  13  18
ATOM     18  S   UNL A   1      31.134  27.530  22.860  1.00  0.00    -0.109 SA
ATOM     19  C   UNL A   1      29.478  28.182  23.191  1.00  0.00     0.092 C 
ENDBRANCH  13  18
ENDBRANCH  10  12
ENDBRANCH   6  10
ENDBRANCH   3   5
ENDBRANCH   2   3
ENDBRANCH   1   2
BRANCH   1  20
ATOM     20  C   UNL A   1      36.654  20.321  24.877  1.00  0.00     0.275 C 
BRANCH  20  21
ATOM     21  O   UNL A   1      37.287  21.333  25.681  1.00  0.00    -0.458 OA
BRANCH  21  22
ATOM     22  C   UNL A   1      38.602  21.120  25.911  1.00  0.00     0.338 C 
ATOM     23  O   UNL A   1      39.241  20.113  25.678  1.00  0.00    -0.246 OA
BRANCH  22  24
ATOM     24  C   UNL A   1      39.221  22.333  26.453  1.00  0.00     0.060 A 
ATOM     25  C   UNL A   1      38.698  23.576  26.094  1.00  0.00     0.016 A 
ATOM     26  C   UNL A   1      40.401  22.241  27.190  1.00  0.00     0.016 A 
ATOM     27  C   UNL A   1      39.370  24.741  26.446  1.00  0.00     0.010 A 
ATOM     28  C   UNL A   1      41.056  23.412  27.575  1.00  0.00     0.010 A 
ATOM     29  C   UNL A   1      40.556  24.668  27.188  1.00  0.00    -0.014 A 
BRANCH  29  30
ATOM     30  C   UNL A   1      41.286  25.907  27.534  1.00  0.00     0.031 A 
ATOM     31  C   UNL A   1      40.656  26.928  28.435  1.00  0.00     0.074 A 
ATOM     32  C   UNL A   1      42.522  26.109  27.040  1.00  0.00     0.049 A 
ATOM     33  N   UNL A   1      41.087  28.120  28.758  1.00  0.00    -0.248 NA
ATOM     34  C   UNL A   1      39.371  26.561  29.051  1.00  0.00     0.031 C 
ATOM     35  C   UNL A   1      43.256  25.170  26.189  1.00  0.00     0.029 A 
ATOM     36  N   UNL A   1      43.373  27.174  27.180  1.00  0.00    -0.354 N 
ATOM     37  C   UNL A   1      40.115  28.658  29.590  1.00  0.00     0.074 A 
ATOM     38  C   UNL A   1      39.067  27.667  29.717  1.00  0.00     0.031 C 
ATOM     39  C   UNL A   1      44.450  25.702  25.885  1.00  0.00     0.029 A 
ATOM     40  C   UNL A   1      44.539  27.034  26.472  1.00  0.00     0.049 A 
ATOM     41  H   UNL A   1      43.167  27.961  27.734  1.00  0.00     0.167 HD
ATOM     42  C   UNL A   1      40.097  29.872  30.192  1.00  0.00     0.031 A 
ATOM     43  C   UNL A   1      45.554  27.899  26.284  1.00  0.00     0.031 A 
ATOM     44  C   UNL A   1      41.141  30.855  30.066  1.00  0.00     0.049 A 
ATOM     45  C   UNL A   1      45.489  29.256  26.918  1.00  0.00     0.074 A 
ATOM     46  C   UNL A   1      41.216  32.114  30.637  1.00  0.00     0.029 A 
ATOM     47  N   UNL A   1      42.295  30.684  29.319  1.00  0.00    -0.354 N 
ATOM     48  N   UNL A   1      44.552  29.764  27.681  1.00  0.00    -0.248 NA
ATOM     49  C   UNL A   1      46.617  30.161  26.660  1.00  0.00     0.031 C 
ATOM     50  C   UNL A   1      42.401  32.720  30.204  1.00  0.00     0.029 A 
ATOM     51  C   UNL A   1      43.083  31.821  29.399  1.00  0.00     0.049 A 
ATOM     52  H   UNL A   1      42.523  29.876  28.806  1.00  0.00     0.167 HD
ATOM     53  C   UNL A   1      44.977  31.046  27.999  1.00  0.00     0.074 A 
ATOM     54  C   UNL A   1      46.267  31.229  27.363  1.00  0.00     0.031 C 
ATOM     55  C   UNL A   1      44.355  31.989  28.748  1.00  0.00     0.031 A 
BRANCH  42  56
ATOM     56  C   UNL A   1      38.884  30.215  31.008  1.00  0.00    -0.014 A 
ATOM     57  C   UNL A   1      38.828  29.940  32.383  1.00  0.00     0.009 A 
ATOM     58  C   UNL A   1      37.788  30.839  30.393  1.00  0.00     0.009 A 
ATOM     59  C   UNL A   1      37.683  30.256  33.120  1.00  0.00     0.001 A 
ATOM     60  C   UNL A   1      36.653  31.172  31.136  1.00  0.00     0.001 A 
ATOM     61  C   UNL A   1      36.599  30.873  32.496  1.00  0.00     0.000 A 
ENDBRANCH  42  56
BRANCH  43  62
ATOM     62  C   UNL A   1      46.694  27.509  25.418  1.00  0.00    -0.014 A 
ATOM     63  C   UNL A   1      47.717  26.686  25.909  1.00  0.00     0.009 A 
ATOM     64  C   UNL A   1      46.744  27.937  24.081  1.00  0.00     0.009 A 
ATOM     65  C   UNL A   1      48.774  26.306  25.079  1.00  0.00     0.001 A 
ATOM     66  C   UNL A   1      47.789  27.535  23.247  1.00  0.00     0.001 A 
ATOM     67  C   UNL A   1      48.805  26.724  23.748  1.00  0.00     0.000 A 
ENDBRANCH  43  62
BRANCH  55  68
ATOM     68  C   UNL A   1      45.073  33.294  28.925  1.00  0.00    -0.014 A 
ATOM     69  C   UNL A   1      46.020  33.465  29.946  1.00  0.00     0.009 A 
ATOM     70  C   UNL A   1      44.816  34.355  28.044  1.00  0.00     0.009 A 
ATOM     71  C   UNL A   1      46.676  34.687  30.099  1.00  0.00     0.001 A 
ATOM     72  C   UNL A   1      45.489  35.570  28.187  1.00  0.00     0.001 A 
ATOM     73  C   UNL A   1      46.412  35.736  29.219  1.00  0.00     0.000 A 
ENDBRANCH  55  68
ENDBRANCH  29  30
ENDBRANCH  22  24
ENDBRANCH  21  22
ENDBRANCH  20  21
ENDBRANCH   1  20
TORSDOF 14
ENDMDL
