MODEL 1
REMARK VINA RESULT:     -11.7      0.000      0.000
REMARK SMILES O=C(OCCOC(=O)[C@@H](Cc1ccccc1)N1C(=O)/C(=C/c2ccncc2)SC1=S)c1ccc(-c2c3nc(c(-c4ccccc4)c4ccc([nH]4)c(-c4ccccc4)c4nc(c(-c5ccccc5)c5ccc2[nH]5)C=C4)C=C3)cc1
REMARK SMILES IDX 4 1 3 2 2 3 1 4 31 5 32 6 78 7 33 8 77 9 34 10 35 11 36 12
REMARK SMILES IDX 71 13 37 14 76 15 70 16 72 17 38 18 75 19 69 20 68 21 39 23
REMARK SMILES IDX 61 24 46 25 60 26 47 27 50 28 59 29 73 30 48 31 49 32 58 34
REMARK SMILES IDX 74 35 51 36 40 37 41 38 45 39 42 40 44 41 43 42 62 43 63 44
REMARK SMILES IDX 67 45 64 46 66 47 65 48 52 49 53 50 57 51 54 52 56 53 55 54
REMARK SMILES IDX 5 55 6 56 7 57 8 58 9 59 10 60 11 61 12 62 16 63 13 64 15 65
REMARK SMILES IDX 14 66 17 67 18 68 29 69 19 70 20 71 28 72 30 73 21 74 22 75
REMARK SMILES IDX 23 76 27 77 24 78 26 79 25 80
REMARK H PARENT 72 22 50 33
REMARK Flexibility Score: inf
ROOT
ATOM      1  C   UNL A   1      37.939  21.182  25.195  1.00  0.00     0.275 C 
ENDROOT
BRANCH   1   2
ATOM      2  O   UNL A   1      38.303  22.351  25.984  1.00  0.00    -0.458 OA
BRANCH   2   3
ATOM      3  C   UNL A   1      39.486  22.865  26.409  1.00  0.00     0.338 C 
ATOM      4  O   UNL A   1      40.460  22.124  26.514  1.00  0.00    -0.246 OA
BRANCH   3   5
ATOM      5  C   UNL A   1      39.632  24.252  26.945  1.00  0.00     0.060 A 
ATOM      6  C   UNL A   1      39.113  24.683  28.157  1.00  0.00     0.016 A 
ATOM      7  C   UNL A   1      40.316  25.206  26.158  1.00  0.00     0.016 A 
ATOM      8  C   UNL A   1      39.460  25.961  28.648  1.00  0.00     0.010 A 
ATOM      9  C   UNL A   1      40.661  26.490  26.655  1.00  0.00     0.010 A 
ATOM     10  C   UNL A   1      40.325  26.860  27.957  1.00  0.00    -0.014 A 
BRANCH  10  11
ATOM     11  C   UNL A   1      40.827  28.116  28.672  1.00  0.00     0.031 A 
ATOM     12  C   UNL A   1      39.855  29.246  28.833  1.00  0.00     0.074 A 
ATOM     13  C   UNL A   1      41.982  28.234  29.385  1.00  0.00     0.049 A 
ATOM     14  N   UNL A   1      39.850  30.217  29.708  1.00  0.00    -0.248 NA
ATOM     15  C   UNL A   1      38.715  29.242  27.906  1.00  0.00     0.031 C 
ATOM     16  C   UNL A   1      43.079  27.281  29.414  1.00  0.00     0.029 A 
ATOM     17  N   UNL A   1      42.386  29.169  30.333  1.00  0.00    -0.354 N 
ATOM     18  C   UNL A   1      38.668  30.899  29.489  1.00  0.00     0.074 A 
ATOM     19  C   UNL A   1      37.983  30.224  28.401  1.00  0.00     0.031 C 
ATOM     20  C   UNL A   1      43.909  27.545  30.436  1.00  0.00     0.029 A 
ATOM     21  C   UNL A   1      43.515  28.802  31.055  1.00  0.00     0.049 A 
ATOM     22  H   UNL A   1      41.912  30.019  30.480  1.00  0.00     0.167 HD
ATOM     23  C   UNL A   1      38.193  32.009  30.098  1.00  0.00     0.031 A 
ATOM     24  C   UNL A   1      44.191  29.395  32.069  1.00  0.00     0.031 A 
ATOM     25  C   UNL A   1      38.916  32.837  31.017  1.00  0.00     0.049 A 
ATOM     26  C   UNL A   1      43.750  30.753  32.557  1.00  0.00     0.074 A 
ATOM     27  C   UNL A   1      38.564  34.089  31.494  1.00  0.00     0.029 A 
ATOM     28  N   UNL A   1      40.154  32.541  31.557  1.00  0.00    -0.354 N 
ATOM     29  N   UNL A   1      42.629  31.386  32.330  1.00  0.00    -0.248 NA
ATOM     30  C   UNL A   1      44.693  31.498  33.414  1.00  0.00     0.031 C 
ATOM     31  C   UNL A   1      39.622  34.581  32.266  1.00  0.00     0.029 A 
ATOM     32  C   UNL A   1      40.598  33.603  32.332  1.00  0.00     0.049 A 
ATOM     33  H   UNL A   1      40.649  31.701  31.411  1.00  0.00     0.167 HD
ATOM     34  C   UNL A   1      42.731  32.594  33.015  1.00  0.00     0.074 A 
ATOM     35  C   UNL A   1      43.996  32.585  33.713  1.00  0.00     0.031 C 
ATOM     36  C   UNL A   1      41.852  33.623  33.036  1.00  0.00     0.031 A 
BRANCH  23  37
ATOM     37  C   UNL A   1      36.838  32.441  29.643  1.00  0.00    -0.014 A 
ATOM     38  C   UNL A   1      36.688  33.217  28.484  1.00  0.00     0.009 A 
ATOM     39  C   UNL A   1      35.721  32.148  30.436  1.00  0.00     0.009 A 
ATOM     40  C   UNL A   1      35.435  33.723  28.145  1.00  0.00     0.001 A 
ATOM     41  C   UNL A   1      34.469  32.643  30.084  1.00  0.00     0.001 A 
ATOM     42  C   UNL A   1      34.328  33.437  28.946  1.00  0.00     0.000 A 
ENDBRANCH  23  37
BRANCH  24  43
ATOM     43  C   UNL A   1      45.445  28.809  32.658  1.00  0.00    -0.014 A 
ATOM     44  C   UNL A   1      46.694  28.976  32.026  1.00  0.00     0.009 A 
ATOM     45  C   UNL A   1      45.378  27.941  33.761  1.00  0.00     0.009 A 
ATOM     46  C   UNL A   1      47.815  28.246  32.444  1.00  0.00     0.001 A 
ATOM     47  C   UNL A   1      46.510  27.254  34.209  1.00  0.00     0.001 A 
ATOM     48  C   UNL A   1      47.719  27.382  33.530  1.00  0.00     0.000 A 
ENDBRANCH  24  43
BRANCH  36  49
ATOM     49  C   UNL A   1      42.206  34.835  33.856  1.00  0.00    -0.014 A 
ATOM     50  C   UNL A   1      42.847  35.947  33.287  1.00  0.00     0.009 A 
ATOM     51  C   UNL A   1      41.863  34.879  35.216  1.00  0.00     0.009 A 
ATOM     52  C   UNL A   1      43.170  37.060  34.069  1.00  0.00     0.001 A 
ATOM     53  C   UNL A   1      42.157  36.005  35.989  1.00  0.00     0.001 A 
ATOM     54  C   UNL A   1      42.819  37.090  35.418  1.00  0.00     0.000 A 
ENDBRANCH  36  49
ENDBRANCH  10  11
ENDBRANCH   3   5
ENDBRANCH   2   3
ENDBRANCH   1   2
BRANCH   1  55
ATOM     55  C   UNL A   1      36.422  20.924  25.229  1.00  0.00     0.274 C 
BRANCH  55  56
ATOM     56  O   UNL A   1      35.801  21.957  25.991  1.00  0.00    -0.461 OA
BRANCH  56  57
ATOM     57  C   UNL A   1      34.526  21.744  26.409  1.00  0.00     0.329 C 
ATOM     58  O   UNL A   1      34.189  21.390  27.528  1.00  0.00    -0.250 OA
BRANCH  57  59
ATOM     59  C   UNL A   1      33.561  22.161  25.303  1.00  0.00     0.206 C 
BRANCH  59  60
ATOM     60  C   UNL A   1      32.657  20.993  24.830  1.00  0.00     0.073 C 
BRANCH  60  61
ATOM     61  C   UNL A   1      32.928  19.713  24.079  1.00  0.00    -0.045 A 
ATOM     62  C   UNL A   1      33.895  18.847  24.642  1.00  0.00     0.004 A 
ATOM     63  C   UNL A   1      32.257  19.252  22.959  1.00  0.00     0.004 A 
ATOM     64  C   UNL A   1      34.181  17.582  24.144  1.00  0.00     0.000 A 
ATOM     65  C   UNL A   1      32.545  17.978  22.440  1.00  0.00     0.000 A 
ATOM     66  C   UNL A   1      33.493  17.142  23.033  1.00  0.00     0.000 A 
ENDBRANCH  60  61
ENDBRANCH  59  60
BRANCH  59  67
ATOM     67  N   UNL A   1      32.956  23.487  25.398  1.00  0.00    -0.278 N 
ATOM     68  C   UNL A   1      33.640  24.538  24.836  1.00  0.00     0.267 C 
ATOM     69  C   UNL A   1      31.777  23.814  26.038  1.00  0.00     0.149 C 
ATOM     70  O   UNL A   1      34.603  24.451  24.094  1.00  0.00    -0.268 OA
ATOM     71  C   UNL A   1      33.055  25.822  25.278  1.00  0.00     0.081 C 
ATOM     72  S   UNL A   1      31.716  25.558  26.302  1.00  0.00    -0.054 SA
ATOM     73  S   UNL A   1      30.529  22.820  26.525  1.00  0.00    -0.052 S 
ATOM     74  C   UNL A   1      33.693  26.953  24.968  1.00  0.00     0.029 C 
BRANCH  74  75
ATOM     75  C   UNL A   1      33.532  28.220  25.665  1.00  0.00    -0.021 A 
ATOM     76  C   UNL A   1      34.458  28.484  26.675  1.00  0.00     0.028 A 
ATOM     77  C   UNL A   1      32.539  29.149  25.380  1.00  0.00     0.028 A 
ATOM     78  C   UNL A   1      34.364  29.680  27.353  1.00  0.00     0.111 A 
ATOM     79  C   UNL A   1      32.523  30.316  26.127  1.00  0.00     0.111 A 
ATOM     80  N   UNL A   1      33.413  30.604  27.105  1.00  0.00    -0.265 NA
ENDBRANCH  74  75
ENDBRANCH  59  67
ENDBRANCH  57  59
ENDBRANCH  56  57
ENDBRANCH  55  56
ENDBRANCH   1  55
TORSDOF 15
ENDMDL
MODEL 2
REMARK VINA RESULT:     -11.4      3.425      8.671
REMARK SMILES O=C(OCCOC(=O)[C@@H](Cc1ccccc1)N1C(=O)/C(=C/c2ccncc2)SC1=S)c1ccc(-c2c3nc(c(-c4ccccc4)c4ccc([nH]4)c(-c4ccccc4)c4nc(c(-c5ccccc5)c5ccc2[nH]5)C=C4)C=C3)cc1
REMARK SMILES IDX 4 1 3 2 2 3 1 4 31 5 32 6 78 7 33 8 77 9 34 10 35 11 36 12
REMARK SMILES IDX 71 13 37 14 76 15 70 16 72 17 38 18 75 19 69 20 68 21 39 23
REMARK SMILES IDX 61 24 46 25 60 26 47 27 50 28 59 29 73 30 48 31 49 32 58 34
REMARK SMILES IDX 74 35 51 36 40 37 41 38 45 39 42 40 44 41 43 42 62 43 63 44
REMARK SMILES IDX 67 45 64 46 66 47 65 48 52 49 53 50 57 51 54 52 56 53 55 54
REMARK SMILES IDX 5 55 6 56 7 57 8 58 9 59 10 60 11 61 12 62 16 63 13 64 15 65
REMARK SMILES IDX 14 66 17 67 18 68 29 69 19 70 20 71 28 72 30 73 21 74 22 75
REMARK SMILES IDX 23 76 27 77 24 78 26 79 25 80
REMARK H PARENT 72 22 50 33
REMARK Flexibility Score: inf
ROOT
ATOM      1  C   UNL A   1      33.481  29.061  27.177  1.00  0.00     0.275 C 
ENDROOT
BRANCH   1   2
ATOM      2  O   UNL A   1      33.797  30.406  27.639  1.00  0.00    -0.458 OA
BRANCH   2   3
ATOM      3  C   UNL A   1      34.862  30.953  28.278  1.00  0.00     0.338 C 
ATOM      4  O   UNL A   1      34.831  32.139  28.594  1.00  0.00    -0.246 OA
BRANCH   3   5
ATOM      5  C   UNL A   1      36.165  30.242  28.456  1.00  0.00     0.060 A 
ATOM      6  C   UNL A   1      37.085  30.028  27.440  1.00  0.00     0.016 A 
ATOM      7  C   UNL A   1      36.476  29.722  29.732  1.00  0.00     0.016 A 
ATOM      8  C   UNL A   1      38.359  29.504  27.755  1.00  0.00     0.010 A 
ATOM      9  C   UNL A   1      37.757  29.194  30.043  1.00  0.00     0.010 A 
ATOM     10  C   UNL A   1      38.765  29.167  29.080  1.00  0.00    -0.014 A 
BRANCH  10  11
ATOM     11  C   UNL A   1      40.233  28.831  29.352  1.00  0.00     0.031 A 
ATOM     12  C   UNL A   1      40.697  27.452  28.987  1.00  0.00     0.074 A 
ATOM     13  C   UNL A   1      41.220  29.715  29.668  1.00  0.00     0.049 A 
ATOM     14  N   UNL A   1      41.904  27.027  28.722  1.00  0.00    -0.248 NA
ATOM     15  C   UNL A   1      39.642  26.437  28.864  1.00  0.00     0.031 C 
ATOM     16  C   UNL A   1      41.043  31.106  30.046  1.00  0.00     0.029 A 
ATOM     17  N   UNL A   1      42.606  29.604  29.610  1.00  0.00    -0.354 N 
ATOM     18  C   UNL A   1      41.749  25.712  28.325  1.00  0.00     0.074 A 
ATOM     19  C   UNL A   1      40.329  25.416  28.382  1.00  0.00     0.031 C 
ATOM     20  C   UNL A   1      42.211  31.765  29.990  1.00  0.00     0.029 A 
ATOM     21  C   UNL A   1      43.282  30.811  29.739  1.00  0.00     0.049 A 
ATOM     22  H   UNL A   1      43.068  28.744  29.487  1.00  0.00     0.167 HD
ATOM     23  C   UNL A   1      42.689  24.805  27.979  1.00  0.00     0.031 A 
ATOM     24  C   UNL A   1      44.597  31.137  29.699  1.00  0.00     0.031 A 
ATOM     25  C   UNL A   1      44.106  24.971  28.113  1.00  0.00     0.049 A 
ATOM     26  C   UNL A   1      45.625  30.044  29.540  1.00  0.00     0.074 A 
ATOM     27  C   UNL A   1      45.093  24.006  27.983  1.00  0.00     0.029 A 
ATOM     28  N   UNL A   1      44.745  26.147  28.461  1.00  0.00    -0.354 N 
ATOM     29  N   UNL A   1      45.457  28.801  29.171  1.00  0.00    -0.248 NA
ATOM     30  C   UNL A   1      47.029  30.394  29.832  1.00  0.00     0.031 C 
ATOM     31  C   UNL A   1      46.321  24.584  28.323  1.00  0.00     0.029 A 
ATOM     32  C   UNL A   1      46.108  25.925  28.588  1.00  0.00     0.049 A 
ATOM     33  H   UNL A   1      44.297  27.014  28.599  1.00  0.00     0.167 HD
ATOM     34  C   UNL A   1      46.724  28.227  29.185  1.00  0.00     0.074 A 
ATOM     35  C   UNL A   1      47.662  29.267  29.541  1.00  0.00     0.031 C 
ATOM     36  C   UNL A   1      47.065  26.939  28.942  1.00  0.00     0.031 A 
BRANCH  23  37
ATOM     37  C   UNL A   1      42.152  23.482  27.543  1.00  0.00    -0.014 A 
ATOM     38  C   UNL A   1      41.832  22.495  28.487  1.00  0.00     0.009 A 
ATOM     39  C   UNL A   1      42.058  23.194  26.175  1.00  0.00     0.009 A 
ATOM     40  C   UNL A   1      41.458  21.222  28.061  1.00  0.00     0.001 A 
ATOM     41  C   UNL A   1      41.668  21.926  25.755  1.00  0.00     0.001 A 
ATOM     42  C   UNL A   1      41.378  20.939  26.697  1.00  0.00     0.000 A 
ENDBRANCH  23  37
BRANCH  24  43
ATOM     43  C   UNL A   1      45.091  32.539  29.926  1.00  0.00    -0.014 A 
ATOM     44  C   UNL A   1      45.233  33.060  31.228  1.00  0.00     0.009 A 
ATOM     45  C   UNL A   1      45.264  33.420  28.845  1.00  0.00     0.009 A 
ATOM     46  C   UNL A   1      45.470  34.426  31.435  1.00  0.00     0.001 A 
ATOM     47  C   UNL A   1      45.552  34.771  29.053  1.00  0.00     0.001 A 
ATOM     48  C   UNL A   1      45.623  35.280  30.347  1.00  0.00     0.000 A 
ENDBRANCH  24  43
BRANCH  36  49
ATOM     49  C   UNL A   1      48.520  26.567  29.032  1.00  0.00    -0.014 A 
ATOM     50  C   UNL A   1      49.112  26.196  30.250  1.00  0.00     0.009 A 
ATOM     51  C   UNL A   1      49.308  26.554  27.870  1.00  0.00     0.009 A 
ATOM     52  C   UNL A   1      50.467  25.858  30.309  1.00  0.00     0.001 A 
ATOM     53  C   UNL A   1      50.654  26.184  27.925  1.00  0.00     0.001 A 
ATOM     54  C   UNL A   1      51.235  25.847  29.146  1.00  0.00     0.000 A 
ENDBRANCH  36  49
ENDBRANCH  10  11
ENDBRANCH   3   5
ENDBRANCH   2   3
ENDBRANCH   1   2
BRANCH   1  55
ATOM     55  C   UNL A   1      32.627  29.086  25.897  1.00  0.00     0.274 C 
BRANCH  55  56
ATOM     56  O   UNL A   1      33.486  28.917  24.772  1.00  0.00    -0.461 OA
BRANCH  56  57
ATOM     57  C   UNL A   1      32.925  28.468  23.619  1.00  0.00     0.329 C 
ATOM     58  O   UNL A   1      33.144  28.902  22.499  1.00  0.00    -0.250 OA
BRANCH  57  59
ATOM     59  C   UNL A   1      32.084  27.231  23.922  1.00  0.00     0.206 C 
BRANCH  59  60
ATOM     60  C   UNL A   1      30.621  27.368  23.424  1.00  0.00     0.073 C 
BRANCH  60  61
ATOM     61  C   UNL A   1      29.679  28.539  23.290  1.00  0.00    -0.045 A 
ATOM     62  C   UNL A   1      28.323  28.227  23.030  1.00  0.00     0.004 A 
ATOM     63  C   UNL A   1      29.982  29.873  23.499  1.00  0.00     0.004 A 
ATOM     64  C   UNL A   1      27.308  29.174  22.992  1.00  0.00     0.000 A 
ATOM     65  C   UNL A   1      28.965  30.842  23.453  1.00  0.00     0.000 A 
ATOM     66  C   UNL A   1      27.634  30.496  23.212  1.00  0.00     0.000 A 
ENDBRANCH  60  61
ENDBRANCH  59  60
BRANCH  59  67
ATOM     67  N   UNL A   1      32.725  25.927  23.781  1.00  0.00    -0.278 N 
ATOM     68  C   UNL A   1      33.064  25.257  24.932  1.00  0.00     0.267 C 
ATOM     69  C   UNL A   1      33.075  25.301  22.600  1.00  0.00     0.149 C 
ATOM     70  O   UNL A   1      32.708  25.549  26.060  1.00  0.00    -0.268 OA
ATOM     71  C   UNL A   1      33.960  24.123  24.619  1.00  0.00     0.081 C 
ATOM     72  S   UNL A   1      34.234  24.014  22.938  1.00  0.00    -0.054 SA
ATOM     73  S   UNL A   1      32.549  25.607  21.047  1.00  0.00    -0.052 S 
ATOM     74  C   UNL A   1      34.527  23.462  25.630  1.00  0.00     0.029 C 
BRANCH  74  75
ATOM     75  C   UNL A   1      35.731  22.652  25.526  1.00  0.00    -0.021 A 
ATOM     76  C   UNL A   1      35.536  21.307  25.207  1.00  0.00     0.028 A 
ATOM     77  C   UNL A   1      37.019  23.136  25.717  1.00  0.00     0.028 A 
ATOM     78  C   UNL A   1      36.645  20.499  25.075  1.00  0.00     0.111 A 
ATOM     79  C   UNL A   1      38.066  22.240  25.572  1.00  0.00     0.111 A 
ATOM     80  N   UNL A   1      37.909  20.933  25.255  1.00  0.00    -0.265 NA
ENDBRANCH  74  75
ENDBRANCH  59  67
ENDBRANCH  57  59
ENDBRANCH  56  57
ENDBRANCH  55  56
ENDBRANCH   1  55
TORSDOF 15
ENDMDL
MODEL 3
REMARK VINA RESULT:     -11.3      2.752      6.006
REMARK SMILES O=C(OCCOC(=O)[C@@H](Cc1ccccc1)N1C(=O)/C(=C/c2ccncc2)SC1=S)c1ccc(-c2c3nc(c(-c4ccccc4)c4ccc([nH]4)c(-c4ccccc4)c4nc(c(-c5ccccc5)c5ccc2[nH]5)C=C4)C=C3)cc1
REMARK SMILES IDX 4 1 3 2 2 3 1 4 31 5 32 6 78 7 33 8 77 9 34 10 35 11 36 12
REMARK SMILES IDX 71 13 37 14 76 15 70 16 72 17 38 18 75 19 69 20 68 21 39 23
REMARK SMILES IDX 61 24 46 25 60 26 47 27 50 28 59 29 73 30 48 31 49 32 58 34
REMARK SMILES IDX 74 35 51 36 40 37 41 38 45 39 42 40 44 41 43 42 62 43 63 44
REMARK SMILES IDX 67 45 64 46 66 47 65 48 52 49 53 50 57 51 54 52 56 53 55 54
REMARK SMILES IDX 5 55 6 56 7 57 8 58 9 59 10 60 11 61 12 62 16 63 13 64 15 65
REMARK SMILES IDX 14 66 17 67 18 68 29 69 19 70 20 71 28 72 30 73 21 74 22 75
REMARK SMILES IDX 23 76 27 77 24 78 26 79 25 80
REMARK H PARENT 72 22 50 33
REMARK Flexibility Score: inf
ROOT
ATOM      1  C   UNL A   1      37.269  21.851  24.429  1.00  0.00     0.275 C 
ENDROOT
BRANCH   1   2
ATOM      2  O   UNL A   1      38.107  20.942  25.199  1.00  0.00    -0.458 OA
BRANCH   2   3
ATOM      3  C   UNL A   1      39.293  21.080  25.845  1.00  0.00     0.338 C 
ATOM      4  O   UNL A   1      40.068  20.127  25.891  1.00  0.00    -0.246 OA
BRANCH   3   5
ATOM      5  C   UNL A   1      39.641  22.271  26.678  1.00  0.00     0.060 A 
ATOM      6  C   UNL A   1      40.637  22.289  27.643  1.00  0.00     0.016 A 
ATOM      7  C   UNL A   1      38.889  23.454  26.500  1.00  0.00     0.016 A 
ATOM      8  C   UNL A   1      40.999  23.515  28.245  1.00  0.00     0.010 A 
ATOM      9  C   UNL A   1      39.256  24.683  27.109  1.00  0.00     0.010 A 
ATOM     10  C   UNL A   1      40.387  24.762  27.921  1.00  0.00    -0.014 A 
BRANCH  10  11
ATOM     11  C   UNL A   1      41.003  26.059  28.449  1.00  0.00     0.031 A 
ATOM     12  C   UNL A   1      42.352  26.441  27.917  1.00  0.00     0.074 A 
ATOM     13  C   UNL A   1      40.364  27.023  29.169  1.00  0.00     0.049 A 
ATOM     14  N   UNL A   1      42.915  27.619  27.856  1.00  0.00    -0.248 NA
ATOM     15  C   UNL A   1      43.140  25.346  27.337  1.00  0.00     0.031 C 
ATOM     16  C   UNL A   1      39.052  26.914  29.784  1.00  0.00     0.029 A 
ATOM     17  N   UNL A   1      40.689  28.355  29.413  1.00  0.00    -0.354 N 
ATOM     18  C   UNL A   1      44.094  27.423  27.162  1.00  0.00     0.074 A 
ATOM     19  C   UNL A   1      44.159  26.013  26.821  1.00  0.00     0.031 C 
ATOM     20  C   UNL A   1      38.596  28.124  30.144  1.00  0.00     0.029 A 
ATOM     21  C   UNL A   1      39.652  29.107  29.951  1.00  0.00     0.049 A 
ATOM     22  H   UNL A   1      41.577  28.731  29.220  1.00  0.00     0.167 HD
ATOM     23  C   UNL A   1      45.067  28.311  26.858  1.00  0.00     0.031 A 
ATOM     24  C   UNL A   1      39.546  30.415  30.290  1.00  0.00     0.031 A 
ATOM     25  C   UNL A   1      45.164  29.654  27.352  1.00  0.00     0.049 A 
ATOM     26  C   UNL A   1      40.747  31.316  30.145  1.00  0.00     0.074 A 
ATOM     27  C   UNL A   1      46.238  30.522  27.253  1.00  0.00     0.029 A 
ATOM     28  N   UNL A   1      44.190  30.309  28.083  1.00  0.00    -0.354 N 
ATOM     29  N   UNL A   1      41.859  31.109  29.490  1.00  0.00    -0.248 NA
ATOM     30  C   UNL A   1      40.690  32.625  30.825  1.00  0.00     0.031 C 
ATOM     31  C   UNL A   1      45.941  31.677  27.985  1.00  0.00     0.029 A 
ATOM     32  C   UNL A   1      44.652  31.557  28.474  1.00  0.00     0.049 A 
ATOM     33  H   UNL A   1      43.300  29.943  28.295  1.00  0.00     0.167 HD
ATOM     34  C   UNL A   1      42.627  32.255  29.676  1.00  0.00     0.074 A 
ATOM     35  C   UNL A   1      41.836  33.179  30.455  1.00  0.00     0.031 C 
ATOM     36  C   UNL A   1      43.889  32.497  29.250  1.00  0.00     0.031 A 
BRANCH  23  37
ATOM     37  C   UNL A   1      46.185  27.759  26.037  1.00  0.00    -0.014 A 
ATOM     38  C   UNL A   1      47.253  27.083  26.646  1.00  0.00     0.009 A 
ATOM     39  C   UNL A   1      46.210  28.003  24.657  1.00  0.00     0.009 A 
ATOM     40  C   UNL A   1      48.350  26.690  25.883  1.00  0.00     0.001 A 
ATOM     41  C   UNL A   1      47.301  27.594  23.898  1.00  0.00     0.001 A 
ATOM     42  C   UNL A   1      48.374  26.947  24.512  1.00  0.00     0.000 A 
ENDBRANCH  23  37
BRANCH  24  43
ATOM     43  C   UNL A   1      38.306  30.989  30.921  1.00  0.00    -0.014 A 
ATOM     44  C   UNL A   1      38.043  30.819  32.295  1.00  0.00     0.009 A 
ATOM     45  C   UNL A   1      37.301  31.564  30.126  1.00  0.00     0.009 A 
ATOM     46  C   UNL A   1      36.792  31.151  32.834  1.00  0.00     0.001 A 
ATOM     47  C   UNL A   1      36.073  31.942  30.676  1.00  0.00     0.001 A 
ATOM     48  C   UNL A   1      35.807  31.705  32.022  1.00  0.00     0.000 A 
ENDBRANCH  24  43
BRANCH  36  49
ATOM     49  C   UNL A   1      44.505  33.826  29.594  1.00  0.00    -0.014 A 
ATOM     50  C   UNL A   1      45.263  34.006  30.763  1.00  0.00     0.009 A 
ATOM     51  C   UNL A   1      44.353  34.912  28.718  1.00  0.00     0.009 A 
ATOM     52  C   UNL A   1      45.823  35.251  31.064  1.00  0.00     0.001 A 
ATOM     53  C   UNL A   1      44.941  36.147  29.003  1.00  0.00     0.001 A 
ATOM     54  C   UNL A   1      45.666  36.318  30.181  1.00  0.00     0.000 A 
ENDBRANCH  36  49
ENDBRANCH  10  11
ENDBRANCH   3   5
ENDBRANCH   2   3
ENDBRANCH   1   2
BRANCH   1  55
ATOM     55  C   UNL A   1      35.772  21.578  24.662  1.00  0.00     0.274 C 
BRANCH  55  56
ATOM     56  O   UNL A   1      35.430  22.008  25.977  1.00  0.00    -0.461 OA
BRANCH  56  57
ATOM     57  C   UNL A   1      34.161  21.770  26.402  1.00  0.00     0.329 C 
ATOM     58  O   UNL A   1      33.839  21.377  27.512  1.00  0.00    -0.250 OA
BRANCH  57  59
ATOM     59  C   UNL A   1      33.181  22.216  25.320  1.00  0.00     0.206 C 
BRANCH  59  60
ATOM     60  C   UNL A   1      32.251  21.067  24.850  1.00  0.00     0.073 C 
BRANCH  60  61
ATOM     61  C   UNL A   1      32.492  19.623  24.487  1.00  0.00    -0.045 A 
ATOM     62  C   UNL A   1      32.352  19.287  23.120  1.00  0.00     0.004 A 
ATOM     63  C   UNL A   1      32.935  18.620  25.332  1.00  0.00     0.004 A 
ATOM     64  C   UNL A   1      32.649  18.033  22.599  1.00  0.00     0.000 A 
ATOM     65  C   UNL A   1      33.229  17.345  24.820  1.00  0.00     0.000 A 
ATOM     66  C   UNL A   1      33.097  17.053  23.460  1.00  0.00     0.000 A 
ENDBRANCH  60  61
ENDBRANCH  59  60
BRANCH  59  67
ATOM     67  N   UNL A   1      32.598  23.549  25.443  1.00  0.00    -0.278 N 
ATOM     68  C   UNL A   1      33.251  24.588  24.825  1.00  0.00     0.267 C 
ATOM     69  C   UNL A   1      31.470  23.895  26.161  1.00  0.00     0.149 C 
ATOM     70  O   UNL A   1      34.159  24.483  24.019  1.00  0.00    -0.268 OA
ATOM     71  C   UNL A   1      32.712  25.882  25.294  1.00  0.00     0.081 C 
ATOM     72  S   UNL A   1      31.445  25.641  26.411  1.00  0.00    -0.054 SA
ATOM     73  S   UNL A   1      30.248  22.918  26.743  1.00  0.00    -0.052 S 
ATOM     74  C   UNL A   1      33.339  27.003  24.929  1.00  0.00     0.029 C 
BRANCH  74  75
ATOM     75  C   UNL A   1      33.239  28.278  25.623  1.00  0.00    -0.021 A 
ATOM     76  C   UNL A   1      34.221  28.529  26.583  1.00  0.00     0.028 A 
ATOM     77  C   UNL A   1      32.252  29.225  25.381  1.00  0.00     0.028 A 
ATOM     78  C   UNL A   1      34.186  29.732  27.254  1.00  0.00     0.111 A 
ATOM     79  C   UNL A   1      32.299  30.398  26.118  1.00  0.00     0.111 A 
ATOM     80  N   UNL A   1      33.243  30.673  27.048  1.00  0.00    -0.265 NA
ENDBRANCH  74  75
ENDBRANCH  59  67
ENDBRANCH  57  59
ENDBRANCH  56  57
ENDBRANCH  55  56
ENDBRANCH   1  55
TORSDOF 15
ENDMDL
