MODEL 1
REMARK VINA RESULT:     -12.0      0.000      0.000
REMARK SMILES Cc1c(C(=O)NC(=S)Nc2ccccc2C(=O)OCCOC(=O)c2ccc(-c3c4nc(c(-c5ccccc5)c5ccc([nH]5)c(-c5ccccc5)c5nc(c(-c6ccccc6)c6ccc3[nH]6)C=C5)C=C4)cc2)cccc1[N+](=O)[O-]
REMARK SMILES IDX 18 1 16 2 17 3 15 4 10 5 11 6 12 7 14 8 13 9 9 10 7 12 8 13
REMARK SMILES IDX 6 14 4 15 5 16 3 18 1 19 2 20 75 21 72 22 74 23 73 24 76 25
REMARK SMILES IDX 77 26 78 27 19 28 20 29 21 30 22 31 23 32 24 33 25 34 71 35
REMARK SMILES IDX 26 36 70 37 27 38 28 39 29 40 64 41 30 42 69 43 63 44 65 45
REMARK SMILES IDX 31 46 68 47 62 48 61 49 32 51 54 52 39 53 53 54 40 55 43 56
REMARK SMILES IDX 52 57 66 58 41 59 42 60 51 62 67 63 44 64 33 65 34 66 38 67
REMARK SMILES IDX 35 68 37 69 36 70 55 71 56 72 60 73 57 74 59 75 58 76 45 77
REMARK SMILES IDX 46 78 50 79 47 80 49 81 48 82
REMARK H PARENT 9 11 6 17 65 50 43 61
REMARK Flexibility Score: inf
ROOT
ATOM      1  O   UNL A   1      37.565  20.805  25.941  1.00  0.00    -0.458 OA
ENDROOT
BRANCH   1   2
ATOM      2  C   UNL A   1      36.692  21.008  24.910  1.00  0.00     0.340 C 
ATOM      3  O   UNL A   1      37.005  21.799  24.023  1.00  0.00    -0.246 OA
BRANCH   2   4
ATOM      4  C   UNL A   1      35.211  20.668  24.989  1.00  0.00     0.083 A 
ATOM      5  C   UNL A   1      33.643  21.410  24.525  1.00  0.00     0.055 A 
ATOM      6  C   UNL A   1      32.175  20.410  24.048  1.00  0.00     0.027 A 
ATOM      7  C   UNL A   1      32.546  18.614  23.639  1.00  0.00     0.002 A 
ATOM      8  C   UNL A   1      35.489  19.059  24.974  1.00  0.00     0.018 A 
ATOM      9  C   UNL A   1      34.396  18.057  24.264  1.00  0.00     0.001 A 
BRANCH   5  10
ATOM     10  N   UNL A   1      33.783  22.451  23.558  1.00  0.00    -0.332 N 
ATOM     11  H   UNL A   1      33.736  22.166  22.617  1.00  0.00     0.169 HD
BRANCH  10  12
ATOM     12  C   UNL A   1      33.976  23.807  23.764  1.00  0.00     0.177 C 
ATOM     13  S   UNL A   1      34.148  24.280  25.381  1.00  0.00    -0.040 S 
BRANCH  12  14
ATOM     14  N   UNL A   1      33.793  24.856  22.764  1.00  0.00    -0.299 N 
ATOM     15  C   UNL A   1      33.286  26.298  22.386  1.00  0.00     0.257 C 
ATOM     16  O   UNL A   1      33.446  26.693  21.234  1.00  0.00    -0.269 OA
ATOM     17  H   UNL A   1      34.164  24.486  21.930  1.00  0.00     0.172 HD
BRANCH  15  18
ATOM     18  C   UNL A   1      32.562  27.185  23.436  1.00  0.00     0.049 A 
ATOM     19  C   UNL A   1      30.834  25.768  23.510  1.00  0.00     0.053 C 
ATOM     20  C   UNL A   1      31.222  27.425  22.581  1.00  0.00     0.039 A 
ATOM     21  C   UNL A   1      30.018  29.091  22.611  1.00  0.00     0.273 A 
ATOM     22  C   UNL A   1      32.675  28.188  24.864  1.00  0.00     0.014 A 
ATOM     23  C   UNL A   1      30.251  30.124  24.121  1.00  0.00     0.086 A 
ATOM     24  C   UNL A   1      31.557  29.578  25.252  1.00  0.00     0.008 A 
BRANCH  21  25
ATOM     25  N   UNL A   1      28.602  29.471  22.049  1.00  0.00     0.063 N 
ATOM     26  O   UNL A   1      27.634  28.947  22.626  1.00  0.00    -0.258 OA
ATOM     27  O   UNL A   1      28.490  30.238  21.084  1.00  0.00    -0.258 OA
ENDBRANCH  21  25
ENDBRANCH  15  18
ENDBRANCH  12  14
ENDBRANCH  10  12
ENDBRANCH   5  10
ENDBRANCH   2   4
ENDBRANCH   1   2
BRANCH   1  28
ATOM     28  C   UNL A   1      38.970  20.878  25.525  1.00  0.00     0.275 C 
BRANCH  28  29
ATOM     29  C   UNL A   1      39.790  19.580  25.712  1.00  0.00     0.275 C 
BRANCH  29  30
ATOM     30  O   UNL A   1      40.779  19.490  26.760  1.00  0.00    -0.458 OA
BRANCH  30  31
ATOM     31  C   UNL A   1      42.038  19.862  26.450  1.00  0.00     0.338 C 
ATOM     32  O   UNL A   1      42.831  19.147  25.876  1.00  0.00    -0.246 OA
BRANCH  31  33
ATOM     33  C   UNL A   1      42.251  21.277  26.799  1.00  0.00     0.060 A 
ATOM     34  C   UNL A   1      42.144  22.247  25.788  1.00  0.00     0.016 A 
ATOM     35  C   UNL A   1      42.183  21.619  28.148  1.00  0.00     0.016 A 
ATOM     36  C   UNL A   1      41.951  23.578  26.102  1.00  0.00     0.010 A 
ATOM     37  C   UNL A   1      41.771  22.878  28.469  1.00  0.00     0.010 A 
ATOM     38  C   UNL A   1      41.790  23.855  27.451  1.00  0.00    -0.014 A 
BRANCH  38  39
ATOM     39  C   UNL A   1      42.193  25.139  27.978  1.00  0.00     0.031 A 
ATOM     40  C   UNL A   1      41.076  26.158  27.929  1.00  0.00     0.074 A 
ATOM     41  C   UNL A   1      43.398  24.810  28.562  1.00  0.00     0.049 A 
ATOM     42  N   UNL A   1      41.169  27.441  27.794  1.00  0.00    -0.248 NA
ATOM     43  C   UNL A   1      39.630  25.824  27.801  1.00  0.00     0.031 C 
ATOM     44  C   UNL A   1      44.218  25.213  29.693  1.00  0.00     0.029 A 
ATOM     45  N   UNL A   1      44.257  23.808  28.009  1.00  0.00    -0.354 N 
ATOM     46  C   UNL A   1      39.981  27.922  28.355  1.00  0.00     0.074 A 
ATOM     47  C   UNL A   1      38.984  26.981  27.982  1.00  0.00     0.031 C 
ATOM     48  C   UNL A   1      45.503  24.837  29.481  1.00  0.00     0.029 A 
ATOM     49  C   UNL A   1      45.583  24.154  28.195  1.00  0.00     0.049 A 
ATOM     50  H   UNL A   1      43.947  22.989  27.560  1.00  0.00     0.167 HD
ATOM     51  C   UNL A   1      40.058  28.654  29.507  1.00  0.00     0.031 A 
ATOM     52  C   UNL A   1      46.221  24.572  27.062  1.00  0.00     0.031 A 
ATOM     53  C   UNL A   1      41.462  28.693  29.909  1.00  0.00     0.049 A 
ATOM     54  C   UNL A   1      46.109  26.073  27.045  1.00  0.00     0.074 A 
ATOM     55  C   UNL A   1      42.180  27.976  30.847  1.00  0.00     0.029 A 
ATOM     56  N   UNL A   1      42.379  29.160  28.982  1.00  0.00    -0.354 N 
ATOM     57  N   UNL A   1      45.068  26.757  27.449  1.00  0.00    -0.248 NA
ATOM     58  C   UNL A   1      47.274  26.888  26.760  1.00  0.00     0.031 C 
ATOM     59  C   UNL A   1      43.551  28.037  30.454  1.00  0.00     0.029 A 
ATOM     60  C   UNL A   1      43.640  28.649  29.212  1.00  0.00     0.049 A 
ATOM     61  H   UNL A   1      42.159  29.779  28.250  1.00  0.00     0.167 HD
ATOM     62  C   UNL A   1      45.459  28.047  27.672  1.00  0.00     0.074 A 
ATOM     63  C   UNL A   1      46.840  28.077  27.201  1.00  0.00     0.031 C 
ATOM     64  C   UNL A   1      44.710  29.012  28.289  1.00  0.00     0.031 A 
BRANCH  51  65
ATOM     65  C   UNL A   1      38.949  29.075  30.447  1.00  0.00    -0.014 A 
ATOM     66  C   UNL A   1      38.817  28.360  31.658  1.00  0.00     0.009 A 
ATOM     67  C   UNL A   1      38.069  30.159  30.277  1.00  0.00     0.009 A 
ATOM     68  C   UNL A   1      37.877  28.689  32.640  1.00  0.00     0.001 A 
ATOM     69  C   UNL A   1      37.117  30.496  31.263  1.00  0.00     0.001 A 
ATOM     70  C   UNL A   1      37.025  29.764  32.445  1.00  0.00     0.000 A 
ENDBRANCH  51  65
BRANCH  52  71
ATOM     71  C   UNL A   1      45.972  23.675  25.879  1.00  0.00    -0.014 A 
ATOM     72  C   UNL A   1      46.156  22.280  26.055  1.00  0.00     0.009 A 
ATOM     73  C   UNL A   1      45.272  24.109  24.746  1.00  0.00     0.009 A 
ATOM     74  C   UNL A   1      45.521  21.354  25.225  1.00  0.00     0.001 A 
ATOM     75  C   UNL A   1      44.683  23.177  23.880  1.00  0.00     0.001 A 
ATOM     76  C   UNL A   1      44.787  21.807  24.139  1.00  0.00     0.000 A 
ENDBRANCH  52  71
BRANCH  64  77
ATOM     77  C   UNL A   1      44.957  30.484  28.063  1.00  0.00    -0.014 A 
ATOM     78  C   UNL A   1      45.697  31.284  28.934  1.00  0.00     0.009 A 
ATOM     79  C   UNL A   1      44.553  31.089  26.852  1.00  0.00     0.009 A 
ATOM     80  C   UNL A   1      45.884  32.642  28.694  1.00  0.00     0.001 A 
ATOM     81  C   UNL A   1      44.851  32.410  26.544  1.00  0.00     0.001 A 
ATOM     82  C   UNL A   1      45.471  33.202  27.492  1.00  0.00     0.000 A 
ENDBRANCH  64  77
ENDBRANCH  38  39
ENDBRANCH  31  33
ENDBRANCH  30  31
ENDBRANCH  29  30
ENDBRANCH  28  29
ENDBRANCH   1  28
TORSDOF 16
ENDMDL
MODEL 2
REMARK VINA RESULT:     -11.5      4.400      9.767
REMARK SMILES Cc1c(C(=O)NC(=S)Nc2ccccc2C(=O)OCCOC(=O)c2ccc(-c3c4nc(c(-c5ccccc5)c5ccc([nH]5)c(-c5ccccc5)c5nc(c(-c6ccccc6)c6ccc3[nH]6)C=C5)C=C4)cc2)cccc1[N+](=O)[O-]
REMARK SMILES IDX 18 1 16 2 17 3 15 4 10 5 11 6 12 7 14 8 13 9 9 10 7 12 8 13
REMARK SMILES IDX 6 14 4 15 5 16 3 18 1 19 2 20 75 21 72 22 74 23 73 24 76 25
REMARK SMILES IDX 77 26 78 27 19 28 20 29 21 30 22 31 23 32 24 33 25 34 71 35
REMARK SMILES IDX 26 36 70 37 27 38 28 39 29 40 64 41 30 42 69 43 63 44 65 45
REMARK SMILES IDX 31 46 68 47 62 48 61 49 32 51 54 52 39 53 53 54 40 55 43 56
REMARK SMILES IDX 52 57 66 58 41 59 42 60 51 62 67 63 44 64 33 65 34 66 38 67
REMARK SMILES IDX 35 68 37 69 36 70 55 71 56 72 60 73 57 74 59 75 58 76 45 77
REMARK SMILES IDX 46 78 50 79 47 80 49 81 48 82
REMARK H PARENT 9 11 6 17 65 50 43 61
REMARK Flexibility Score: inf
ROOT
ATOM      1  O   UNL A   1      43.102  24.876  25.589  1.00  0.00    -0.458 OA
ENDROOT
BRANCH   1   2
ATOM      2  C   UNL A   1      44.050  24.132  26.234  1.00  0.00     0.340 C 
ATOM      3  O   UNL A   1      45.130  24.656  26.496  1.00  0.00    -0.246 OA
BRANCH   2   4
ATOM      4  C   UNL A   1      44.036  22.611  26.272  1.00  0.00     0.083 A 
ATOM      5  C   UNL A   1      42.836  21.284  26.123  1.00  0.00     0.055 A 
ATOM      6  C   UNL A   1      43.264  19.634  25.430  1.00  0.00     0.027 A 
ATOM      7  C   UNL A   1      44.883  19.575  24.481  1.00  0.00     0.002 A 
ATOM      8  C   UNL A   1      45.581  22.495  25.757  1.00  0.00     0.018 A 
ATOM      9  C   UNL A   1      46.029  21.216  24.827  1.00  0.00     0.001 A 
BRANCH   5  10
ATOM     10  N   UNL A   1      41.615  21.700  25.511  1.00  0.00    -0.332 N 
ATOM     11  H   UNL A   1      41.711  22.212  24.676  1.00  0.00     0.169 HD
BRANCH  10  12
ATOM     12  C   UNL A   1      40.314  21.483  25.935  1.00  0.00     0.177 C 
ATOM     13  S   UNL A   1      39.873  19.859  26.126  1.00  0.00    -0.040 S 
BRANCH  12  14
ATOM     14  N   UNL A   1      39.253  22.487  25.980  1.00  0.00    -0.299 N 
ATOM     15  C   UNL A   1      37.747  22.881  25.751  1.00  0.00     0.257 C 
ATOM     16  O   UNL A   1      37.391  24.025  26.024  1.00  0.00    -0.269 OA
ATOM     17  H   UNL A   1      39.687  23.306  26.312  1.00  0.00     0.172 HD
BRANCH  15  18
ATOM     18  C   UNL A   1      36.741  21.858  25.153  1.00  0.00     0.049 A 
ATOM     19  C   UNL A   1      36.716  22.951  23.203  1.00  0.00     0.053 C 
ATOM     20  C   UNL A   1      35.594  22.922  24.785  1.00  0.00     0.039 A 
ATOM     21  C   UNL A   1      33.564  22.598  24.771  1.00  0.00     0.273 A 
ATOM     22  C   UNL A   1      36.231  20.192  25.001  1.00  0.00     0.014 A 
ATOM     23  C   UNL A   1      33.118  20.811  24.676  1.00  0.00     0.086 A 
ATOM     24  C   UNL A   1      34.510  19.651  24.725  1.00  0.00     0.008 A 
BRANCH  21  25
ATOM     25  N   UNL A   1      32.299  23.381  24.269  1.00  0.00     0.063 N 
ATOM     26  O   UNL A   1      32.160  23.447  23.035  1.00  0.00    -0.258 OA
ATOM     27  O   UNL A   1      31.514  23.898  25.074  1.00  0.00    -0.258 OA
ENDBRANCH  21  25
ENDBRANCH  15  18
ENDBRANCH  12  14
ENDBRANCH  10  12
ENDBRANCH   5  10
ENDBRANCH   2   4
ENDBRANCH   1   2
BRANCH   1  28
ATOM     28  C   UNL A   1      42.022  25.319  26.477  1.00  0.00     0.275 C 
BRANCH  28  29
ATOM     29  C   UNL A   1      41.167  26.496  25.950  1.00  0.00     0.275 C 
BRANCH  29  30
ATOM     30  O   UNL A   1      40.679  27.504  26.861  1.00  0.00    -0.458 OA
BRANCH  30  31
ATOM     31  C   UNL A   1      39.821  27.102  27.821  1.00  0.00     0.338 C 
ATOM     32  O   UNL A   1      39.087  26.144  27.713  1.00  0.00    -0.246 OA
BRANCH  31  33
ATOM     33  C   UNL A   1      40.003  27.915  29.037  1.00  0.00     0.060 A 
ATOM     34  C   UNL A   1      40.992  28.913  29.042  1.00  0.00     0.016 A 
ATOM     35  C   UNL A   1      38.968  27.908  29.969  1.00  0.00     0.016 A 
ATOM     36  C   UNL A   1      40.960  29.935  29.969  1.00  0.00     0.010 A 
ATOM     37  C   UNL A   1      38.792  29.020  30.739  1.00  0.00     0.010 A 
ATOM     38  C   UNL A   1      39.858  29.942  30.812  1.00  0.00    -0.014 A 
BRANCH  38  39
ATOM     39  C   UNL A   1      39.969  30.497  32.142  1.00  0.00     0.031 A 
ATOM     40  C   UNL A   1      40.425  29.473  33.156  1.00  0.00     0.074 A 
ATOM     41  C   UNL A   1      39.853  31.844  31.868  1.00  0.00     0.049 A 
ATOM     42  N   UNL A   1      40.144  29.416  34.418  1.00  0.00    -0.248 NA
ATOM     43  C   UNL A   1      41.115  28.196  32.820  1.00  0.00     0.031 C 
ATOM     44  C   UNL A   1      40.335  33.115  32.383  1.00  0.00     0.029 A 
ATOM     45  N   UNL A   1      39.025  32.331  30.808  1.00  0.00    -0.354 N 
ATOM     46  C   UNL A   1      41.201  28.680  34.962  1.00  0.00     0.074 A 
ATOM     47  C   UNL A   1      41.502  27.685  33.994  1.00  0.00     0.031 C 
ATOM     48  C   UNL A   1      39.509  34.112  31.978  1.00  0.00     0.029 A 
ATOM     49  C   UNL A   1      38.446  33.536  31.163  1.00  0.00     0.049 A 
ATOM     50  H   UNL A   1      38.886  31.872  29.948  1.00  0.00     0.167 HD
ATOM     51  C   UNL A   1      42.064  29.316  35.812  1.00  0.00     0.031 A 
ATOM     52  C   UNL A   1      37.114  33.458  31.455  1.00  0.00     0.031 A 
ATOM     53  C   UNL A   1      41.655  30.717  35.883  1.00  0.00     0.049 A 
ATOM     54  C   UNL A   1      37.020  33.278  32.947  1.00  0.00     0.074 A 
ATOM     55  C   UNL A   1      42.132  31.857  35.265  1.00  0.00     0.029 A 
ATOM     56  N   UNL A   1      40.344  30.981  36.244  1.00  0.00    -0.354 N 
ATOM     57  N   UNL A   1      37.849  32.574  33.676  1.00  0.00    -0.248 NA
ATOM     58  C   UNL A   1      36.087  34.074  33.720  1.00  0.00     0.031 C 
ATOM     59  C   UNL A   1      41.068  32.809  35.276  1.00  0.00     0.029 A 
ATOM     60  C   UNL A   1      39.917  32.198  35.752  1.00  0.00     0.049 A 
ATOM     61  H   UNL A   1      39.787  30.377  36.784  1.00  0.00     0.167 HD
ATOM     62  C   UNL A   1      37.711  32.958  34.980  1.00  0.00     0.074 A 
ATOM     63  C   UNL A   1      36.579  33.879  34.952  1.00  0.00     0.031 C 
ATOM     64  C   UNL A   1      38.538  32.599  36.010  1.00  0.00     0.031 A 
BRANCH  51  65
ATOM     65  C   UNL A   1      43.406  28.851  36.336  1.00  0.00    -0.014 A 
ATOM     66  C   UNL A   1      43.448  27.606  37.001  1.00  0.00     0.009 A 
ATOM     67  C   UNL A   1      44.643  29.498  36.168  1.00  0.00     0.009 A 
ATOM     68  C   UNL A   1      44.633  27.034  37.474  1.00  0.00     0.001 A 
ATOM     69  C   UNL A   1      45.843  28.927  36.646  1.00  0.00     0.001 A 
ATOM     70  C   UNL A   1      45.837  27.694  37.293  1.00  0.00     0.000 A 
ENDBRANCH  51  65
BRANCH  52  71
ATOM     71  C   UNL A   1      36.333  32.667  30.440  1.00  0.00    -0.014 A 
ATOM     72  C   UNL A   1      36.112  33.256  29.170  1.00  0.00     0.009 A 
ATOM     73  C   UNL A   1      36.106  31.292  30.577  1.00  0.00     0.009 A 
ATOM     74  C   UNL A   1      35.842  32.474  28.044  1.00  0.00     0.001 A 
ATOM     75  C   UNL A   1      35.778  30.516  29.456  1.00  0.00     0.001 A 
ATOM     76  C   UNL A   1      35.675  31.105  28.193  1.00  0.00     0.000 A 
ENDBRANCH  52  71
BRANCH  64  77
ATOM     77  C   UNL A   1      38.080  32.615  37.447  1.00  0.00    -0.014 A 
ATOM     78  C   UNL A   1      37.356  31.579  38.038  1.00  0.00     0.009 A 
ATOM     79  C   UNL A   1      38.505  33.649  38.311  1.00  0.00     0.009 A 
ATOM     80  C   UNL A   1      36.939  31.646  39.365  1.00  0.00     0.001 A 
ATOM     81  C   UNL A   1      38.207  33.658  39.667  1.00  0.00     0.001 A 
ATOM     82  C   UNL A   1      37.375  32.680  40.182  1.00  0.00     0.000 A 
ENDBRANCH  64  77
ENDBRANCH  38  39
ENDBRANCH  31  33
ENDBRANCH  30  31
ENDBRANCH  29  30
ENDBRANCH  28  29
ENDBRANCH   1  28
TORSDOF 16
ENDMDL
MODEL 3
REMARK VINA RESULT:     -11.5      1.418      2.215
REMARK SMILES Cc1c(C(=O)NC(=S)Nc2ccccc2C(=O)OCCOC(=O)c2ccc(-c3c4nc(c(-c5ccccc5)c5ccc([nH]5)c(-c5ccccc5)c5nc(c(-c6ccccc6)c6ccc3[nH]6)C=C5)C=C4)cc2)cccc1[N+](=O)[O-]
REMARK SMILES IDX 18 1 16 2 17 3 15 4 10 5 11 6 12 7 14 8 13 9 9 10 7 12 8 13
REMARK SMILES IDX 6 14 4 15 5 16 3 18 1 19 2 20 75 21 72 22 74 23 73 24 76 25
REMARK SMILES IDX 77 26 78 27 19 28 20 29 21 30 22 31 23 32 24 33 25 34 71 35
REMARK SMILES IDX 26 36 70 37 27 38 28 39 29 40 64 41 30 42 69 43 63 44 65 45
REMARK SMILES IDX 31 46 68 47 62 48 61 49 32 51 54 52 39 53 53 54 40 55 43 56
REMARK SMILES IDX 52 57 66 58 41 59 42 60 51 62 67 63 44 64 33 65 34 66 38 67
REMARK SMILES IDX 35 68 37 69 36 70 55 71 56 72 60 73 57 74 59 75 58 76 45 77
REMARK SMILES IDX 46 78 50 79 47 80 49 81 48 82
REMARK H PARENT 9 11 6 17 65 50 43 61
REMARK Flexibility Score: inf
ROOT
ATOM      1  O   UNL A   1      37.629  22.034  25.670  1.00  0.00    -0.458 OA
ENDROOT
BRANCH   1   2
ATOM      2  C   UNL A   1      36.798  21.596  24.677  1.00  0.00     0.340 C 
ATOM      3  O   UNL A   1      37.019  21.959  23.524  1.00  0.00    -0.246 OA
BRANCH   2   4
ATOM      4  C   UNL A   1      35.401  21.053  24.935  1.00  0.00     0.083 A 
ATOM      5  C   UNL A   1      33.701  21.538  24.620  1.00  0.00     0.055 A 
ATOM      6  C   UNL A   1      32.354  20.315  24.352  1.00  0.00     0.027 A 
ATOM      7  C   UNL A   1      32.939  18.570  23.975  1.00  0.00     0.002 A 
ATOM      8  C   UNL A   1      35.910  19.502  24.953  1.00  0.00     0.018 A 
ATOM      9  C   UNL A   1      34.908  18.317  24.411  1.00  0.00     0.001 A 
BRANCH   5  10
ATOM     10  N   UNL A   1      33.583  22.534  23.603  1.00  0.00    -0.332 N 
ATOM     11  H   UNL A   1      33.779  22.230  22.688  1.00  0.00     0.169 HD
BRANCH  10  12
ATOM     12  C   UNL A   1      33.232  23.868  23.731  1.00  0.00     0.177 C 
ATOM     13  S   UNL A   1      33.340  24.502  25.297  1.00  0.00    -0.040 S 
BRANCH  12  14
ATOM     14  N   UNL A   1      32.557  24.672  22.715  1.00  0.00    -0.299 N 
ATOM     15  C   UNL A   1      31.811  25.997  22.307  1.00  0.00     0.257 C 
ATOM     16  O   UNL A   1      31.442  26.128  21.143  1.00  0.00    -0.269 OA
ATOM     17  H   UNL A   1      32.580  24.126  21.896  1.00  0.00     0.172 HD
BRANCH  15  18
ATOM     18  C   UNL A   1      31.512  27.096  23.364  1.00  0.00     0.049 A 
ATOM     19  C   UNL A   1      29.576  26.115  23.902  1.00  0.00     0.053 C 
ATOM     20  C   UNL A   1      30.109  27.573  22.740  1.00  0.00     0.039 A 
ATOM     21  C   UNL A   1      29.310  29.467  22.798  1.00  0.00     0.273 A 
ATOM     22  C   UNL A   1      32.113  28.144  24.628  1.00  0.00     0.014 A 
ATOM     23  C   UNL A   1      30.049  30.523  24.117  1.00  0.00     0.086 A 
ATOM     24  C   UNL A   1      31.410  29.775  25.050  1.00  0.00     0.008 A 
BRANCH  21  25
ATOM     25  N   UNL A   1      27.922  30.117  22.459  1.00  0.00     0.063 N 
ATOM     26  O   UNL A   1      27.872  30.757  21.395  1.00  0.00    -0.258 OA
ATOM     27  O   UNL A   1      26.959  29.990  23.227  1.00  0.00    -0.258 OA
ENDBRANCH  21  25
ENDBRANCH  15  18
ENDBRANCH  12  14
ENDBRANCH  10  12
ENDBRANCH   5  10
ENDBRANCH   2   4
ENDBRANCH   1   2
BRANCH   1  28
ATOM     28  C   UNL A   1      38.787  21.158  25.876  1.00  0.00     0.275 C 
BRANCH  28  29
ATOM     29  C   UNL A   1      40.081  21.862  26.347  1.00  0.00     0.275 C 
BRANCH  29  30
ATOM     30  O   UNL A   1      41.281  21.095  26.585  1.00  0.00    -0.458 OA
BRANCH  30  31
ATOM     31  C   UNL A   1      42.450  21.649  26.204  1.00  0.00     0.338 C 
ATOM     32  O   UNL A   1      43.227  21.124  25.435  1.00  0.00    -0.246 OA
BRANCH  31  33
ATOM     33  C   UNL A   1      42.572  23.009  26.756  1.00  0.00     0.060 A 
ATOM     34  C   UNL A   1      42.735  23.164  28.143  1.00  0.00     0.016 A 
ATOM     35  C   UNL A   1      42.884  24.034  25.866  1.00  0.00     0.016 A 
ATOM     36  C   UNL A   1      43.229  24.341  28.670  1.00  0.00     0.010 A 
ATOM     37  C   UNL A   1      43.578  25.107  26.343  1.00  0.00     0.010 A 
ATOM     38  C   UNL A   1      43.619  25.293  27.741  1.00  0.00    -0.014 A 
BRANCH  38  39
ATOM     39  C   UNL A   1      43.554  26.698  28.075  1.00  0.00     0.031 A 
ATOM     40  C   UNL A   1      42.193  27.294  27.795  1.00  0.00     0.074 A 
ATOM     41  C   UNL A   1      44.732  26.849  28.776  1.00  0.00     0.049 A 
ATOM     42  N   UNL A   1      41.905  28.510  27.460  1.00  0.00    -0.248 NA
ATOM     43  C   UNL A   1      40.939  26.506  27.637  1.00  0.00     0.031 C 
ATOM     44  C   UNL A   1      45.264  27.640  29.873  1.00  0.00     0.029 A 
ATOM     45  N   UNL A   1      45.909  26.106  28.445  1.00  0.00    -0.354 N 
ATOM     46  C   UNL A   1      40.574  28.661  27.863  1.00  0.00     0.074 A 
ATOM     47  C   UNL A   1      39.956  27.412  27.589  1.00  0.00     0.031 C 
ATOM     48  C   UNL A   1      46.618  27.665  29.802  1.00  0.00     0.029 A 
ATOM     49  C   UNL A   1      47.039  26.875  28.651  1.00  0.00     0.049 A 
ATOM     50  H   UNL A   1      45.913  25.177  28.117  1.00  0.00     0.167 HD
ATOM     51  C   UNL A   1      40.300  29.529  28.884  1.00  0.00     0.031 A 
ATOM     52  C   UNL A   1      47.638  27.316  27.505  1.00  0.00     0.031 A 
ATOM     53  C   UNL A   1      41.575  30.064  29.357  1.00  0.00     0.049 A 
ATOM     54  C   UNL A   1      47.078  28.688  27.238  1.00  0.00     0.074 A 
ATOM     55  C   UNL A   1      42.371  29.745  30.441  1.00  0.00     0.029 A 
ATOM     56  N   UNL A   1      42.401  30.667  28.423  1.00  0.00    -0.354 N 
ATOM     57  N   UNL A   1      45.841  29.055  27.464  1.00  0.00    -0.248 NA
ATOM     58  C   UNL A   1      47.963  29.783  26.895  1.00  0.00     0.031 C 
ATOM     59  C   UNL A   1      43.693  30.184  30.125  1.00  0.00     0.029 A 
ATOM     60  C   UNL A   1      43.725  30.617  28.808  1.00  0.00     0.049 A 
ATOM     61  H   UNL A   1      42.083  31.080  27.589  1.00  0.00     0.167 HD
ATOM     62  C   UNL A   1      45.796  30.420  27.498  1.00  0.00     0.074 A 
ATOM     63  C   UNL A   1      47.144  30.822  27.111  1.00  0.00     0.031 C 
ATOM     64  C   UNL A   1      44.727  31.173  27.903  1.00  0.00     0.031 A 
BRANCH  51  65
ATOM     65  C   UNL A   1      39.022  29.700  29.676  1.00  0.00    -0.014 A 
ATOM     66  C   UNL A   1      38.264  30.868  29.443  1.00  0.00     0.009 A 
ATOM     67  C   UNL A   1      38.463  28.776  30.577  1.00  0.00     0.009 A 
ATOM     68  C   UNL A   1      37.034  31.115  30.061  1.00  0.00     0.001 A 
ATOM     69  C   UNL A   1      37.222  29.020  31.206  1.00  0.00     0.001 A 
ATOM     70  C   UNL A   1      36.508  30.187  30.943  1.00  0.00     0.000 A 
ENDBRANCH  51  65
BRANCH  52  71
ATOM     71  C   UNL A   1      47.801  26.235  26.471  1.00  0.00    -0.014 A 
ATOM     72  C   UNL A   1      47.148  24.997  26.698  1.00  0.00     0.009 A 
ATOM     73  C   UNL A   1      48.281  26.500  25.181  1.00  0.00     0.009 A 
ATOM     74  C   UNL A   1      46.837  24.137  25.643  1.00  0.00     0.001 A 
ATOM     75  C   UNL A   1      48.018  25.607  24.133  1.00  0.00     0.001 A 
ATOM     76  C   UNL A   1      47.275  24.445  24.363  1.00  0.00     0.000 A 
ENDBRANCH  52  71
BRANCH  64  77
ATOM     77  C   UNL A   1      44.538  32.602  27.457  1.00  0.00    -0.014 A 
ATOM     78  C   UNL A   1      44.263  32.968  26.140  1.00  0.00     0.009 A 
ATOM     79  C   UNL A   1      44.492  33.639  28.415  1.00  0.00     0.009 A 
ATOM     80  C   UNL A   1      44.114  34.303  25.771  1.00  0.00     0.001 A 
ATOM     81  C   UNL A   1      44.212  34.956  28.075  1.00  0.00     0.001 A 
ATOM     82  C   UNL A   1      44.077  35.295  26.741  1.00  0.00     0.000 A 
ENDBRANCH  64  77
ENDBRANCH  38  39
ENDBRANCH  31  33
ENDBRANCH  30  31
ENDBRANCH  29  30
ENDBRANCH  28  29
ENDBRANCH   1  28
TORSDOF 16
ENDMDL
