MODEL 1
REMARK VINA RESULT:     -11.0      0.000      0.000
REMARK SMILES O=C(Cc1csc(Sc2ncnc3c2CCCC3)n1)OCCOC(=O)c1ccc(-c2c3nc(c(-c4ccccc4)c4ccc([nH]4)c(-c4ccccc4)c4nc(c(-c5ccccc5)c5ccc2[nH]5)C=C4)C=C3)cc1
REMARK SMILES IDX 21 1 20 2 2 3 1 4 3 5 4 6 5 7 19 8 6 9 7 10 8 11 9 12 10 13
REMARK SMILES IDX 14 14 11 15 13 16 15 17 12 18 18 19 16 20 17 21 22 22 23 23
REMARK SMILES IDX 24 24 25 25 26 26 27 27 73 28 28 29 72 30 29 31 30 32 31 33
REMARK SMILES IDX 66 34 32 35 71 36 65 37 67 38 33 39 70 40 64 41 63 42 34 44
REMARK SMILES IDX 56 45 41 46 55 47 42 48 45 49 54 50 68 51 43 52 44 53 53 55
REMARK SMILES IDX 69 56 46 57 35 58 36 59 40 60 37 61 39 62 38 63 57 64 58 65
REMARK SMILES IDX 62 66 59 67 61 68 60 69 47 70 48 71 52 72 49 73 51 74 50 75
REMARK H PARENT 67 43 45 54
REMARK Flexibility Score: inf
ROOT
ATOM      1  C   UNL A   1      43.952  21.042  25.329  1.00  0.00     0.274 C 
ENDROOT
BRANCH   1   2
ATOM      2  O   UNL A   1      42.509  21.132  25.372  1.00  0.00    -0.462 OA
BRANCH   2   3
ATOM      3  C   UNL A   1      41.686  20.397  26.159  1.00  0.00     0.312 C 
ATOM      4  O   UNL A   1      41.592  19.183  25.976  1.00  0.00    -0.252 OA
BRANCH   3   5
ATOM      5  C   UNL A   1      40.813  21.084  27.181  1.00  0.00     0.179 C 
BRANCH   5   6
ATOM      6  C   UNL A   1      39.724  21.921  26.619  1.00  0.00     0.064 A 
ATOM      7  C   UNL A   1      39.478  23.246  26.930  1.00  0.00     0.092 A 
ATOM      8  N   UNL A   1      38.846  21.377  25.708  1.00  0.00    -0.234 NA
ATOM      9  S   UNL A   1      38.081  23.793  26.107  1.00  0.00    -0.116 S 
ATOM     10  C   UNL A   1      37.909  22.241  25.393  1.00  0.00     0.156 A 
BRANCH  10  11
ATOM     11  S   UNL A   1      36.584  21.865  24.319  1.00  0.00    -0.039 SA
BRANCH  11  12
ATOM     12  C   UNL A   1      35.224  22.327  25.386  1.00  0.00     0.110 A 
ATOM     13  N   UNL A   1      35.006  21.491  26.424  1.00  0.00    -0.229 NA
ATOM     14  C   UNL A   1      34.521  23.514  25.200  1.00  0.00     0.006 A 
ATOM     15  C   UNL A   1      34.045  21.856  27.277  1.00  0.00     0.223 A 
ATOM     16  C   UNL A   1      33.614  23.828  26.205  1.00  0.00     0.048 A 
ATOM     17  C   UNL A   1      34.761  24.437  24.036  1.00  0.00     0.040 C 
ATOM     18  N   UNL A   1      33.352  22.999  27.238  1.00  0.00    -0.241 NA
ATOM     19  C   UNL A   1      32.846  25.125  26.201  1.00  0.00     0.056 C 
ATOM     20  C   UNL A   1      33.743  25.572  23.922  1.00  0.00     0.005 C 
ATOM     21  C   UNL A   1      33.470  26.179  25.290  1.00  0.00     0.007 C 
ENDBRANCH  11  12
ENDBRANCH  10  11
ENDBRANCH   5   6
ENDBRANCH   3   5
ENDBRANCH   2   3
ENDBRANCH   1   2
BRANCH   1  22
ATOM     22  C   UNL A   1      44.545  22.185  24.506  1.00  0.00     0.275 C 
BRANCH  22  23
ATOM     23  O   UNL A   1      43.791  23.387  24.750  1.00  0.00    -0.458 OA
BRANCH  23  24
ATOM     24  C   UNL A   1      44.517  24.468  25.129  1.00  0.00     0.338 C 
ATOM     25  O   UNL A   1      45.543  24.883  24.620  1.00  0.00    -0.246 OA
BRANCH  24  26
ATOM     26  C   UNL A   1      43.748  25.208  26.152  1.00  0.00     0.060 A 
ATOM     27  C   UNL A   1      43.901  26.598  26.208  1.00  0.00     0.016 A 
ATOM     28  C   UNL A   1      42.862  24.559  27.019  1.00  0.00     0.016 A 
ATOM     29  C   UNL A   1      43.199  27.340  27.159  1.00  0.00     0.010 A 
ATOM     30  C   UNL A   1      42.168  25.300  27.979  1.00  0.00     0.010 A 
ATOM     31  C   UNL A   1      42.361  26.690  28.074  1.00  0.00    -0.014 A 
BRANCH  31  32
ATOM     32  C   UNL A   1      41.862  27.420  29.264  1.00  0.00     0.031 A 
ATOM     33  C   UNL A   1      40.564  28.171  29.137  1.00  0.00     0.074 A 
ATOM     34  C   UNL A   1      42.518  27.399  30.437  1.00  0.00     0.049 A 
ATOM     35  N   UNL A   1      39.940  28.902  30.023  1.00  0.00    -0.248 NA
ATOM     36  C   UNL A   1      39.875  28.076  27.837  1.00  0.00     0.031 C 
ATOM     37  C   UNL A   1      43.749  26.663  30.715  1.00  0.00     0.029 A 
ATOM     38  N   UNL A   1      42.223  28.023  31.624  1.00  0.00    -0.354 N 
ATOM     39  C   UNL A   1      38.780  29.339  29.395  1.00  0.00     0.074 A 
ATOM     40  C   UNL A   1      38.802  28.822  28.044  1.00  0.00     0.031 C 
ATOM     41  C   UNL A   1      44.104  26.875  31.996  1.00  0.00     0.029 A 
ATOM     42  C   UNL A   1      43.141  27.783  32.617  1.00  0.00     0.049 A 
ATOM     43  H   UNL A   1      41.428  28.590  31.752  1.00  0.00     0.167 HD
ATOM     44  C   UNL A   1      37.775  30.092  29.898  1.00  0.00     0.031 A 
ATOM     45  C   UNL A   1      43.198  28.254  33.879  1.00  0.00     0.031 A 
ATOM     46  C   UNL A   1      37.756  30.639  31.225  1.00  0.00     0.049 A 
ATOM     47  C   UNL A   1      42.129  29.196  34.371  1.00  0.00     0.074 A 
ATOM     48  C   UNL A   1      36.796  31.446  31.809  1.00  0.00     0.029 A 
ATOM     49  N   UNL A   1      38.743  30.435  32.173  1.00  0.00    -0.354 N 
ATOM     50  N   UNL A   1      41.044  29.610  33.764  1.00  0.00    -0.248 NA
ATOM     51  C   UNL A   1      42.300  29.738  35.729  1.00  0.00     0.031 C 
ATOM     52  C   UNL A   1      37.224  31.766  33.100  1.00  0.00     0.029 A 
ATOM     53  C   UNL A   1      38.427  31.119  33.333  1.00  0.00     0.049 A 
ATOM     54  H   UNL A   1      39.550  29.886  32.040  1.00  0.00     0.167 HD
ATOM     55  C   UNL A   1      40.393  30.438  34.672  1.00  0.00     0.074 A 
ATOM     56  C   UNL A   1      41.195  30.455  35.877  1.00  0.00     0.031 C 
ATOM     57  C   UNL A   1      39.235  31.126  34.522  1.00  0.00     0.031 A 
BRANCH  44  58
ATOM     58  C   UNL A   1      36.615  30.381  28.994  1.00  0.00    -0.014 A 
ATOM     59  C   UNL A   1      36.347  31.692  28.570  1.00  0.00     0.009 A 
ATOM     60  C   UNL A   1      35.809  29.332  28.527  1.00  0.00     0.009 A 
ATOM     61  C   UNL A   1      35.283  31.948  27.703  1.00  0.00     0.001 A 
ATOM     62  C   UNL A   1      34.758  29.589  27.646  1.00  0.00     0.001 A 
ATOM     63  C   UNL A   1      34.494  30.896  27.238  1.00  0.00     0.000 A 
ENDBRANCH  44  58
BRANCH  45  64
ATOM     64  C   UNL A   1      44.316  27.873  34.781  1.00  0.00    -0.014 A 
ATOM     65  C   UNL A   1      45.520  28.596  34.764  1.00  0.00     0.009 A 
ATOM     66  C   UNL A   1      44.213  26.745  35.609  1.00  0.00     0.009 A 
ATOM     67  C   UNL A   1      46.608  28.176  35.534  1.00  0.00     0.001 A 
ATOM     68  C   UNL A   1      45.295  26.343  36.396  1.00  0.00     0.001 A 
ATOM     69  C   UNL A   1      46.494  27.051  36.349  1.00  0.00     0.000 A 
ENDBRANCH  45  64
BRANCH  57  70
ATOM     70  C   UNL A   1      38.755  31.937  35.691  1.00  0.00    -0.014 A 
ATOM     71  C   UNL A   1      38.115  31.329  36.782  1.00  0.00     0.009 A 
ATOM     72  C   UNL A   1      38.994  33.320  35.726  1.00  0.00     0.009 A 
ATOM     73  C   UNL A   1      37.699  32.095  37.872  1.00  0.00     0.001 A 
ATOM     74  C   UNL A   1      38.600  34.079  36.829  1.00  0.00     0.001 A 
ATOM     75  C   UNL A   1      37.947  33.467  37.897  1.00  0.00     0.000 A 
ENDBRANCH  57  70
ENDBRANCH  31  32
ENDBRANCH  24  26
ENDBRANCH  23  24
ENDBRANCH  22  23
ENDBRANCH   1  22
TORSDOF 14
ENDMDL
MODEL 2
REMARK VINA RESULT:     -10.9      0.670      6.002
REMARK SMILES O=C(Cc1csc(Sc2ncnc3c2CCCC3)n1)OCCOC(=O)c1ccc(-c2c3nc(c(-c4ccccc4)c4ccc([nH]4)c(-c4ccccc4)c4nc(c(-c5ccccc5)c5ccc2[nH]5)C=C4)C=C3)cc1
REMARK SMILES IDX 21 1 20 2 2 3 1 4 3 5 4 6 5 7 19 8 6 9 7 10 8 11 9 12 10 13
REMARK SMILES IDX 14 14 11 15 13 16 15 17 12 18 18 19 16 20 17 21 22 22 23 23
REMARK SMILES IDX 24 24 25 25 26 26 27 27 73 28 28 29 72 30 29 31 30 32 31 33
REMARK SMILES IDX 66 34 32 35 71 36 65 37 67 38 33 39 70 40 64 41 63 42 34 44
REMARK SMILES IDX 56 45 41 46 55 47 42 48 45 49 54 50 68 51 43 52 44 53 53 55
REMARK SMILES IDX 69 56 46 57 35 58 36 59 40 60 37 61 39 62 38 63 57 64 58 65
REMARK SMILES IDX 62 66 59 67 61 68 60 69 47 70 48 71 52 72 49 73 51 74 50 75
REMARK H PARENT 67 43 45 54
REMARK Flexibility Score: inf
ROOT
ATOM      1  C   UNL A   1      44.050  20.626  25.168  1.00  0.00     0.274 C 
ENDROOT
BRANCH   1   2
ATOM      2  O   UNL A   1      42.671  20.997  25.389  1.00  0.00    -0.462 OA
BRANCH   2   3
ATOM      3  C   UNL A   1      41.770  20.316  26.138  1.00  0.00     0.312 C 
ATOM      4  O   UNL A   1      41.558  19.126  25.902  1.00  0.00    -0.252 OA
BRANCH   3   5
ATOM      5  C   UNL A   1      40.958  21.043  27.182  1.00  0.00     0.179 C 
BRANCH   5   6
ATOM      6  C   UNL A   1      39.857  21.886  26.650  1.00  0.00     0.064 A 
ATOM      7  C   UNL A   1      39.600  23.198  27.003  1.00  0.00     0.092 A 
ATOM      8  N   UNL A   1      38.981  21.360  25.727  1.00  0.00    -0.234 NA
ATOM      9  S   UNL A   1      38.193  23.755  26.203  1.00  0.00    -0.116 S 
ATOM     10  C   UNL A   1      38.033  22.224  25.444  1.00  0.00     0.156 A 
BRANCH  10  11
ATOM     11  S   UNL A   1      36.707  21.867  24.365  1.00  0.00    -0.039 SA
BRANCH  11  12
ATOM     12  C   UNL A   1      35.348  22.319  25.439  1.00  0.00     0.110 A 
ATOM     13  N   UNL A   1      35.149  21.488  26.484  1.00  0.00    -0.229 NA
ATOM     14  C   UNL A   1      34.629  23.497  25.249  1.00  0.00     0.006 A 
ATOM     15  C   UNL A   1      34.189  21.848  27.341  1.00  0.00     0.223 A 
ATOM     16  C   UNL A   1      33.726  23.806  26.258  1.00  0.00     0.048 A 
ATOM     17  C   UNL A   1      34.849  24.413  24.076  1.00  0.00     0.040 C 
ATOM     18  N   UNL A   1      33.482  22.982  27.299  1.00  0.00    -0.241 NA
ATOM     19  C   UNL A   1      32.941  25.094  26.250  1.00  0.00     0.056 C 
ATOM     20  C   UNL A   1      33.816  25.535  23.961  1.00  0.00     0.005 C 
ATOM     21  C   UNL A   1      33.545  26.149  25.327  1.00  0.00     0.007 C 
ENDBRANCH  11  12
ENDBRANCH  10  11
ENDBRANCH   5   6
ENDBRANCH   3   5
ENDBRANCH   2   3
ENDBRANCH   1   2
BRANCH   1  22
ATOM     22  C   UNL A   1      44.829  21.776  24.531  1.00  0.00     0.275 C 
BRANCH  22  23
ATOM     23  O   UNL A   1      44.418  23.019  25.132  1.00  0.00    -0.458 OA
BRANCH  23  24
ATOM     24  C   UNL A   1      45.135  23.411  26.214  1.00  0.00     0.338 C 
ATOM     25  O   UNL A   1      46.317  23.211  26.429  1.00  0.00    -0.246 OA
BRANCH  24  26
ATOM     26  C   UNL A   1      44.294  24.320  27.022  1.00  0.00     0.060 A 
ATOM     27  C   UNL A   1      44.449  25.699  26.831  1.00  0.00     0.016 A 
ATOM     28  C   UNL A   1      43.343  23.834  27.925  1.00  0.00     0.016 A 
ATOM     29  C   UNL A   1      43.680  26.597  27.572  1.00  0.00     0.010 A 
ATOM     30  C   UNL A   1      42.582  24.734  28.676  1.00  0.00     0.010 A 
ATOM     31  C   UNL A   1      42.773  26.119  28.527  1.00  0.00    -0.014 A 
BRANCH  31  32
ATOM     32  C   UNL A   1      42.188  27.051  29.520  1.00  0.00     0.031 A 
ATOM     33  C   UNL A   1      42.893  27.206  30.842  1.00  0.00     0.074 A 
ATOM     34  C   UNL A   1      41.082  27.768  29.258  1.00  0.00     0.049 A 
ATOM     35  N   UNL A   1      42.563  27.935  31.876  1.00  0.00    -0.248 NA
ATOM     36  C   UNL A   1      44.139  26.439  31.014  1.00  0.00     0.031 C 
ATOM     37  C   UNL A   1      40.339  27.762  27.999  1.00  0.00     0.029 A 
ATOM     38  N   UNL A   1      40.394  28.652  30.051  1.00  0.00    -0.354 N 
ATOM     39  C   UNL A   1      43.569  27.730  32.812  1.00  0.00     0.074 A 
ATOM     40  C   UNL A   1      44.500  26.782  32.241  1.00  0.00     0.031 C 
ATOM     41  C   UNL A   1      39.297  28.607  28.105  1.00  0.00     0.029 A 
ATOM     42  C   UNL A   1      39.285  29.191  29.445  1.00  0.00     0.049 A 
ATOM     43  H   UNL A   1      40.669  28.879  30.969  1.00  0.00     0.167 HD
ATOM     44  C   UNL A   1      43.716  28.288  34.035  1.00  0.00     0.031 A 
ATOM     45  C   UNL A   1      38.363  30.049  29.926  1.00  0.00     0.031 A 
ATOM     46  C   UNL A   1      42.784  29.204  34.627  1.00  0.00     0.049 A 
ATOM     47  C   UNL A   1      38.485  30.556  31.341  1.00  0.00     0.074 A 
ATOM     48  C   UNL A   1      42.832  29.792  35.878  1.00  0.00     0.029 A 
ATOM     49  N   UNL A   1      41.634  29.663  34.009  1.00  0.00    -0.354 N 
ATOM     50  N   UNL A   1      39.435  30.345  32.219  1.00  0.00    -0.248 NA
ATOM     51  C   UNL A   1      37.399  31.421  31.828  1.00  0.00     0.031 C 
ATOM     52  C   UNL A   1      41.686  30.577  36.035  1.00  0.00     0.029 A 
ATOM     53  C   UNL A   1      40.951  30.513  34.862  1.00  0.00     0.049 A 
ATOM     54  H   UNL A   1      41.345  29.421  33.100  1.00  0.00     0.167 HD
ATOM     55  C   UNL A   1      39.073  31.069  33.350  1.00  0.00     0.074 A 
ATOM     56  C   UNL A   1      37.826  31.738  33.042  1.00  0.00     0.031 C 
ATOM     57  C   UNL A   1      39.713  31.169  34.540  1.00  0.00     0.031 A 
BRANCH  44  58
ATOM     58  C   UNL A   1      44.933  27.906  34.822  1.00  0.00    -0.014 A 
ATOM     59  C   UNL A   1      44.911  26.795  35.679  1.00  0.00     0.009 A 
ATOM     60  C   UNL A   1      46.123  28.634  34.674  1.00  0.00     0.009 A 
ATOM     61  C   UNL A   1      46.058  26.428  36.386  1.00  0.00     0.001 A 
ATOM     62  C   UNL A   1      47.273  28.253  35.367  1.00  0.00     0.001 A 
ATOM     63  C   UNL A   1      47.238  27.153  36.224  1.00  0.00     0.000 A 
ENDBRANCH  44  58
BRANCH  45  64
ATOM     64  C   UNL A   1      37.217  30.480  29.086  1.00  0.00    -0.014 A 
ATOM     65  C   UNL A   1      37.107  31.816  28.665  1.00  0.00     0.009 A 
ATOM     66  C   UNL A   1      36.191  29.580  28.759  1.00  0.00     0.009 A 
ATOM     67  C   UNL A   1      35.977  32.246  27.965  1.00  0.00     0.001 A 
ATOM     68  C   UNL A   1      35.074  30.008  28.038  1.00  0.00     0.001 A 
ATOM     69  C   UNL A   1      34.963  31.343  27.652  1.00  0.00     0.000 A 
ENDBRANCH  45  64
BRANCH  57  70
ATOM     70  C   UNL A   1      39.092  32.047  35.589  1.00  0.00    -0.014 A 
ATOM     71  C   UNL A   1      38.230  31.518  36.561  1.00  0.00     0.009 A 
ATOM     72  C   UNL A   1      39.419  33.412  35.638  1.00  0.00     0.009 A 
ATOM     73  C   UNL A   1      37.683  32.344  37.544  1.00  0.00     0.001 A 
ATOM     74  C   UNL A   1      38.891  34.230  36.638  1.00  0.00     0.001 A 
ATOM     75  C   UNL A   1      38.018  33.698  37.585  1.00  0.00     0.000 A 
ENDBRANCH  57  70
ENDBRANCH  31  32
ENDBRANCH  24  26
ENDBRANCH  23  24
ENDBRANCH  22  23
ENDBRANCH   1  22
TORSDOF 14
ENDMDL
MODEL 3
REMARK VINA RESULT:     -10.6      3.771      7.601
REMARK SMILES O=C(Cc1csc(Sc2ncnc3c2CCCC3)n1)OCCOC(=O)c1ccc(-c2c3nc(c(-c4ccccc4)c4ccc([nH]4)c(-c4ccccc4)c4nc(c(-c5ccccc5)c5ccc2[nH]5)C=C4)C=C3)cc1
REMARK SMILES IDX 21 1 20 2 2 3 1 4 3 5 4 6 5 7 19 8 6 9 7 10 8 11 9 12 10 13
REMARK SMILES IDX 14 14 11 15 13 16 15 17 12 18 18 19 16 20 17 21 22 22 23 23
REMARK SMILES IDX 24 24 25 25 26 26 27 27 73 28 28 29 72 30 29 31 30 32 31 33
REMARK SMILES IDX 66 34 32 35 71 36 65 37 67 38 33 39 70 40 64 41 63 42 34 44
REMARK SMILES IDX 56 45 41 46 55 47 42 48 45 49 54 50 68 51 43 52 44 53 53 55
REMARK SMILES IDX 69 56 46 57 35 58 36 59 40 60 37 61 39 62 38 63 57 64 58 65
REMARK SMILES IDX 62 66 59 67 61 68 60 69 47 70 48 71 52 72 49 73 51 74 50 75
REMARK H PARENT 67 43 45 54
REMARK Flexibility Score: inf
ROOT
ATOM      1  C   UNL A   1      38.773  20.028  25.205  1.00  0.00     0.274 C 
ENDROOT
BRANCH   1   2
ATOM      2  O   UNL A   1      38.747  21.357  25.774  1.00  0.00    -0.462 OA
BRANCH   2   3
ATOM      3  C   UNL A   1      37.894  22.354  25.435  1.00  0.00     0.312 C 
ATOM      4  O   UNL A   1      37.806  23.351  26.154  1.00  0.00    -0.252 OA
BRANCH   3   5
ATOM      5  C   UNL A   1      36.984  22.191  24.242  1.00  0.00     0.179 C 
BRANCH   5   6
ATOM      6  C   UNL A   1      35.552  21.971  24.567  1.00  0.00     0.064 A 
ATOM      7  C   UNL A   1      34.970  20.755  24.871  1.00  0.00     0.092 A 
ATOM      8  N   UNL A   1      34.682  23.038  24.570  1.00  0.00    -0.234 NA
ATOM      9  S   UNL A   1      33.286  20.953  25.105  1.00  0.00    -0.116 S 
ATOM     10  C   UNL A   1      33.453  22.633  24.795  1.00  0.00     0.156 A 
BRANCH  10  11
ATOM     11  S   UNL A   1      32.077  23.709  24.796  1.00  0.00    -0.039 SA
BRANCH  11  12
ATOM     12  C   UNL A   1      32.731  24.995  23.738  1.00  0.00     0.110 A 
ATOM     13  N   UNL A   1      32.659  24.735  22.415  1.00  0.00    -0.229 NA
ATOM     14  C   UNL A   1      33.183  26.206  24.256  1.00  0.00     0.006 A 
ATOM     15  C   UNL A   1      33.071  25.714  21.604  1.00  0.00     0.223 A 
ATOM     16  C   UNL A   1      33.494  27.175  23.309  1.00  0.00     0.048 A 
ATOM     17  C   UNL A   1      33.272  26.486  25.732  1.00  0.00     0.040 C 
ATOM     18  N   UNL A   1      33.461  26.936  21.982  1.00  0.00    -0.241 NA
ATOM     19  C   UNL A   1      33.904  28.569  23.710  1.00  0.00     0.056 C 
ATOM     20  C   UNL A   1      33.983  27.796  26.075  1.00  0.00     0.005 C 
ATOM     21  C   UNL A   1      33.519  28.909  25.147  1.00  0.00     0.007 C 
ENDBRANCH  11  12
ENDBRANCH  10  11
ENDBRANCH   5   6
ENDBRANCH   3   5
ENDBRANCH   2   3
ENDBRANCH   1   2
BRANCH   1  22
ATOM     22  C   UNL A   1      39.774  19.139  25.943  1.00  0.00     0.275 C 
BRANCH  22  23
ATOM     23  O   UNL A   1      41.059  19.233  25.300  1.00  0.00    -0.458 OA
BRANCH  23  24
ATOM     24  C   UNL A   1      42.117  19.412  26.128  1.00  0.00     0.338 C 
ATOM     25  O   UNL A   1      43.045  18.645  26.316  1.00  0.00    -0.246 OA
BRANCH  24  26
ATOM     26  C   UNL A   1      42.084  20.802  26.631  1.00  0.00     0.060 A 
ATOM     27  C   UNL A   1      42.285  21.836  25.709  1.00  0.00     0.016 A 
ATOM     28  C   UNL A   1      41.823  21.092  27.974  1.00  0.00     0.016 A 
ATOM     29  C   UNL A   1      42.266  23.165  26.136  1.00  0.00     0.010 A 
ATOM     30  C   UNL A   1      41.817  22.422  28.404  1.00  0.00     0.010 A 
ATOM     31  C   UNL A   1      42.073  23.461  27.492  1.00  0.00    -0.014 A 
BRANCH  31  32
ATOM     32  C   UNL A   1      42.356  24.826  27.996  1.00  0.00     0.031 A 
ATOM     33  C   UNL A   1      43.783  25.174  28.325  1.00  0.00     0.074 A 
ATOM     34  C   UNL A   1      41.387  25.747  28.135  1.00  0.00     0.049 A 
ATOM     35  N   UNL A   1      44.275  26.286  28.803  1.00  0.00    -0.248 NA
ATOM     36  C   UNL A   1      44.789  24.127  28.071  1.00  0.00     0.031 C 
ATOM     37  C   UNL A   1      39.978  25.564  27.794  1.00  0.00     0.029 A 
ATOM     38  N   UNL A   1      41.457  27.037  28.600  1.00  0.00    -0.354 N 
ATOM     39  C   UNL A   1      45.646  26.080  28.891  1.00  0.00     0.074 A 
ATOM     40  C   UNL A   1      45.906  24.727  28.452  1.00  0.00     0.031 C 
ATOM     41  C   UNL A   1      39.314  26.704  28.060  1.00  0.00     0.029 A 
ATOM     42  C   UNL A   1      40.246  27.686  28.613  1.00  0.00     0.049 A 
ATOM     43  H   UNL A   1      42.296  27.459  28.896  1.00  0.00     0.167 HD
ATOM     44  C   UNL A   1      46.610  26.942  29.288  1.00  0.00     0.031 A 
ATOM     45  C   UNL A   1      39.929  28.926  29.036  1.00  0.00     0.031 A 
ATOM     46  C   UNL A   1      46.364  28.275  29.758  1.00  0.00     0.049 A 
ATOM     47  C   UNL A   1      41.007  29.819  29.595  1.00  0.00     0.074 A 
ATOM     48  C   UNL A   1      47.276  29.208  30.218  1.00  0.00     0.029 A 
ATOM     49  N   UNL A   1      45.114  28.865  29.829  1.00  0.00    -0.354 N 
ATOM     50  N   UNL A   1      42.298  29.608  29.682  1.00  0.00    -0.248 NA
ATOM     51  C   UNL A   1      40.577  31.127  30.116  1.00  0.00     0.031 C 
ATOM     52  C   UNL A   1      46.572  30.351  30.608  1.00  0.00     0.029 A 
ATOM     53  C   UNL A   1      45.227  30.144  30.345  1.00  0.00     0.049 A 
ATOM     54  H   UNL A   1      44.271  28.438  29.554  1.00  0.00     0.167 HD
ATOM     55  C   UNL A   1      42.834  30.762  30.244  1.00  0.00     0.074 A 
ATOM     56  C   UNL A   1      41.732  31.676  30.461  1.00  0.00     0.031 C 
ATOM     57  C   UNL A   1      44.123  31.040  30.556  1.00  0.00     0.031 A 
BRANCH  44  58
ATOM     58  C   UNL A   1      48.027  26.455  29.245  1.00  0.00    -0.014 A 
ATOM     59  C   UNL A   1      48.817  26.652  28.102  1.00  0.00     0.009 A 
ATOM     60  C   UNL A   1      48.591  25.833  30.368  1.00  0.00     0.009 A 
ATOM     61  C   UNL A   1      50.145  26.222  28.081  1.00  0.00     0.001 A 
ATOM     62  C   UNL A   1      49.924  25.421  30.351  1.00  0.00     0.001 A 
ATOM     63  C   UNL A   1      50.698  25.613  29.206  1.00  0.00     0.000 A 
ENDBRANCH  44  58
BRANCH  45  64
ATOM     64  C   UNL A   1      38.526  29.412  28.980  1.00  0.00    -0.014 A 
ATOM     65  C   UNL A   1      37.676  29.258  30.087  1.00  0.00     0.009 A 
ATOM     66  C   UNL A   1      38.008  29.965  27.798  1.00  0.00     0.009 A 
ATOM     67  C   UNL A   1      36.328  29.618  30.000  1.00  0.00     0.001 A 
ATOM     68  C   UNL A   1      36.667  30.346  27.723  1.00  0.00     0.001 A 
ATOM     69  C   UNL A   1      35.826  30.162  28.819  1.00  0.00     0.000 A 
ENDBRANCH  45  64
BRANCH  57  70
ATOM     70  C   UNL A   1      44.418  32.390  31.143  1.00  0.00    -0.014 A 
ATOM     71  C   UNL A   1      44.440  32.587  32.532  1.00  0.00     0.009 A 
ATOM     72  C   UNL A   1      44.733  33.465  30.297  1.00  0.00     0.009 A 
ATOM     73  C   UNL A   1      44.742  33.843  33.061  1.00  0.00     0.001 A 
ATOM     74  C   UNL A   1      45.060  34.712  30.830  1.00  0.00     0.001 A 
ATOM     75  C   UNL A   1      45.057  34.903  32.211  1.00  0.00     0.000 A 
ENDBRANCH  57  70
ENDBRANCH  31  32
ENDBRANCH  24  26
ENDBRANCH  23  24
ENDBRANCH  22  23
ENDBRANCH   1  22
TORSDOF 14
ENDMDL
