MODEL 1
REMARK VINA RESULT:     -10.9      0.000      0.000
REMARK SMILES O=CN[C@H](C(=O)OCCOC(=O)c1ccc(-c2c3nc(c(-c4ccccc4)c4ccc([nH]4)c(-c4ccccc4)c4nc(c(-c5ccccc5)c5ccc2[nH]5)C=C4)C=C3)cc1)[C@@H]1CCO[C@@]2(CCOC2)C1
REMARK SMILES IDX 9 1 8 2 7 3 5 4 6 5 4 6 3 7 1 8 2 9 61 11 62 12 70 13 63 14
REMARK SMILES IDX 65 15 64 16 66 17 69 18 67 19 68 20 10 21 11 22 12 23 13 24
REMARK SMILES IDX 14 25 60 26 15 27 59 28 16 29 17 30 18 31 53 32 19 33 58 34
REMARK SMILES IDX 52 35 54 36 20 37 57 38 51 39 50 40 21 42 43 43 28 44 42 45
REMARK SMILES IDX 29 46 32 47 41 48 55 49 30 50 31 51 40 53 56 54 33 55 22 56
REMARK SMILES IDX 23 57 27 58 24 59 26 60 25 61 44 62 45 63 49 64 46 65 48 66
REMARK SMILES IDX 47 67 34 68 35 69 39 70 36 71 38 72 37 73
REMARK H PARENT 3 10 54 41 32 52
REMARK Flexibility Score: inf
ROOT
ATOM      1  C   UNL A   1      35.891  20.492  25.002  1.00  0.00     0.275 C 
ENDROOT
BRANCH   1   2
ATOM      2  C   UNL A   1      34.510  21.154  25.010  1.00  0.00     0.274 C 
BRANCH   2   3
ATOM      3  O   UNL A   1      34.651  22.576  25.185  1.00  0.00    -0.461 OA
BRANCH   3   4
ATOM      4  C   UNL A   1      34.167  23.121  26.334  1.00  0.00     0.329 C 
ATOM      5  O   UNL A   1      34.654  22.952  27.446  1.00  0.00    -0.250 OA
BRANCH   4   6
ATOM      6  C   UNL A   1      33.012  24.116  26.050  1.00  0.00     0.195 C 
BRANCH   6   7
ATOM      7  N   UNL A   1      31.871  23.962  26.947  1.00  0.00    -0.345 N 
ATOM      8  O   UNL A   1      29.766  23.283  27.448  1.00  0.00    -0.279 OA
ATOM      9  C   UNL A   1      30.695  23.343  26.656  1.00  0.00     0.337 C 
ATOM     10  H   UNL A   1      31.962  24.344  27.849  1.00  0.00     0.164 HD
ENDBRANCH   6   7
BRANCH   6  11
ATOM     11  C   UNL A   1      33.529  25.569  25.810  1.00  0.00     0.028 C 
ATOM     12  C   UNL A   1      32.705  26.710  26.424  1.00  0.00     0.035 C 
ATOM     13  C   UNL A   1      33.716  25.881  24.294  1.00  0.00     0.044 C 
ATOM     14  C   UNL A   1      31.420  26.938  25.650  1.00  0.00     0.161 C 
ATOM     15  C   UNL A   1      32.451  26.405  23.555  1.00  0.00     0.094 C 
ATOM     16  O   UNL A   1      31.749  27.371  24.337  1.00  0.00    -0.372 OA
ATOM     17  C   UNL A   1      32.829  27.089  22.243  1.00  0.00     0.066 C 
ATOM     18  C   UNL A   1      31.522  25.316  23.008  1.00  0.00     0.195 C 
ATOM     19  C   UNL A   1      32.904  25.955  21.251  1.00  0.00     0.163 C 
ATOM     20  O   UNL A   1      32.015  24.934  21.716  1.00  0.00    -0.378 OA
ENDBRANCH   6  11
ENDBRANCH   4   6
ENDBRANCH   3   4
ENDBRANCH   2   3
ENDBRANCH   1   2
BRANCH   1  21
ATOM     21  O   UNL A   1      36.946  21.477  24.961  1.00  0.00    -0.458 OA
BRANCH  21  22
ATOM     22  C   UNL A   1      38.137  21.078  25.455  1.00  0.00     0.338 C 
ATOM     23  O   UNL A   1      38.683  19.990  25.306  1.00  0.00    -0.246 OA
BRANCH  22  24
ATOM     24  C   UNL A   1      38.802  22.201  26.124  1.00  0.00     0.060 A 
ATOM     25  C   UNL A   1      38.199  23.452  26.051  1.00  0.00     0.016 A 
ATOM     26  C   UNL A   1      40.076  22.063  26.674  1.00  0.00     0.016 A 
ATOM     27  C   UNL A   1      38.906  24.581  26.456  1.00  0.00     0.010 A 
ATOM     28  C   UNL A   1      40.761  23.202  27.129  1.00  0.00     0.010 A 
ATOM     29  C   UNL A   1      40.202  24.485  26.982  1.00  0.00    -0.014 A 
BRANCH  29  30
ATOM     30  C   UNL A   1      40.980  25.726  27.285  1.00  0.00     0.031 A 
ATOM     31  C   UNL A   1      40.458  26.733  28.284  1.00  0.00     0.074 A 
ATOM     32  C   UNL A   1      42.189  25.946  26.730  1.00  0.00     0.049 A 
ATOM     33  N   UNL A   1      40.903  27.936  28.557  1.00  0.00    -0.248 NA
ATOM     34  C   UNL A   1      39.278  26.342  29.071  1.00  0.00     0.031 C 
ATOM     35  C   UNL A   1      42.878  25.049  25.802  1.00  0.00     0.029 A 
ATOM     36  N   UNL A   1      43.070  26.991  26.893  1.00  0.00    -0.354 N 
ATOM     37  C   UNL A   1      40.016  28.470  29.485  1.00  0.00     0.074 A 
ATOM     38  C   UNL A   1      39.015  27.456  29.739  1.00  0.00     0.031 C 
ATOM     39  C   UNL A   1      44.096  25.546  25.531  1.00  0.00     0.029 A 
ATOM     40  C   UNL A   1      44.241  26.839  26.192  1.00  0.00     0.049 A 
ATOM     41  H   UNL A   1      42.878  27.773  27.459  1.00  0.00     0.167 HD
ATOM     42  C   UNL A   1      40.027  29.693  30.071  1.00  0.00     0.031 A 
ATOM     43  C   UNL A   1      45.305  27.656  26.062  1.00  0.00     0.031 A 
ATOM     44  C   UNL A   1      41.057  30.682  29.890  1.00  0.00     0.049 A 
ATOM     45  C   UNL A   1      45.300  29.005  26.721  1.00  0.00     0.074 A 
ATOM     46  C   UNL A   1      41.137  31.954  30.436  1.00  0.00     0.029 A 
ATOM     47  N   UNL A   1      42.204  30.499  29.138  1.00  0.00    -0.354 N 
ATOM     48  N   UNL A   1      44.392  29.540  27.500  1.00  0.00    -0.248 NA
ATOM     49  C   UNL A   1      46.457  29.874  26.458  1.00  0.00     0.031 C 
ATOM     50  C   UNL A   1      42.326  32.547  29.998  1.00  0.00     0.029 A 
ATOM     51  C   UNL A   1      43.000  31.631  29.209  1.00  0.00     0.049 A 
ATOM     52  H   UNL A   1      42.422  29.685  28.629  1.00  0.00     0.167 HD
ATOM     53  C   UNL A   1      44.867  30.806  27.816  1.00  0.00     0.074 A 
ATOM     54  C   UNL A   1      46.156  30.949  27.172  1.00  0.00     0.031 C 
ATOM     55  C   UNL A   1      44.278  31.769  28.564  1.00  0.00     0.031 A 
BRANCH  42  56
ATOM     56  C   UNL A   1      38.856  30.056  30.939  1.00  0.00    -0.014 A 
ATOM     57  C   UNL A   1      38.844  29.782  32.313  1.00  0.00     0.009 A 
ATOM     58  C   UNL A   1      37.766  30.735  30.369  1.00  0.00     0.009 A 
ATOM     59  C   UNL A   1      37.751  30.159  33.096  1.00  0.00     0.001 A 
ATOM     60  C   UNL A   1      36.686  31.131  31.158  1.00  0.00     0.001 A 
ATOM     61  C   UNL A   1      36.676  30.836  32.520  1.00  0.00     0.000 A 
ENDBRANCH  42  56
BRANCH  43  62
ATOM     62  C   UNL A   1      46.461  27.237  25.230  1.00  0.00    -0.014 A 
ATOM     63  C   UNL A   1      47.347  26.252  25.690  1.00  0.00     0.009 A 
ATOM     64  C   UNL A   1      46.688  27.828  23.977  1.00  0.00     0.009 A 
ATOM     65  C   UNL A   1      48.446  25.874  24.914  1.00  0.00     0.001 A 
ATOM     66  C   UNL A   1      47.770  27.429  23.193  1.00  0.00     0.001 A 
ATOM     67  C   UNL A   1      48.653  26.459  23.665  1.00  0.00     0.000 A 
ENDBRANCH  43  62
BRANCH  55  68
ATOM     68  C   UNL A   1      45.030  33.055  28.741  1.00  0.00    -0.014 A 
ATOM     69  C   UNL A   1      44.836  34.132  27.861  1.00  0.00     0.009 A 
ATOM     70  C   UNL A   1      45.926  33.200  29.811  1.00  0.00     0.009 A 
ATOM     71  C   UNL A   1      45.549  35.319  28.033  1.00  0.00     0.001 A 
ATOM     72  C   UNL A   1      46.623  34.397  29.990  1.00  0.00     0.001 A 
ATOM     73  C   UNL A   1      46.440  35.451  29.097  1.00  0.00     0.000 A 
ENDBRANCH  55  68
ENDBRANCH  29  30
ENDBRANCH  22  24
ENDBRANCH  21  22
ENDBRANCH   1  21
TORSDOF 13
ENDMDL
MODEL 2
REMARK VINA RESULT:     -10.6      3.927      8.609
REMARK SMILES O=CN[C@H](C(=O)OCCOC(=O)c1ccc(-c2c3nc(c(-c4ccccc4)c4ccc([nH]4)c(-c4ccccc4)c4nc(c(-c5ccccc5)c5ccc2[nH]5)C=C4)C=C3)cc1)[C@@H]1CCO[C@@]2(CCOC2)C1
REMARK SMILES IDX 9 1 8 2 7 3 5 4 6 5 4 6 3 7 1 8 2 9 61 11 62 12 70 13 63 14
REMARK SMILES IDX 65 15 64 16 66 17 69 18 67 19 68 20 10 21 11 22 12 23 13 24
REMARK SMILES IDX 14 25 60 26 15 27 59 28 16 29 17 30 18 31 53 32 19 33 58 34
REMARK SMILES IDX 52 35 54 36 20 37 57 38 51 39 50 40 21 42 43 43 28 44 42 45
REMARK SMILES IDX 29 46 32 47 41 48 55 49 30 50 31 51 40 53 56 54 33 55 22 56
REMARK SMILES IDX 23 57 27 58 24 59 26 60 25 61 44 62 45 63 49 64 46 65 48 66
REMARK SMILES IDX 47 67 34 68 35 69 39 70 36 71 38 72 37 73
REMARK H PARENT 3 10 54 41 32 52
REMARK Flexibility Score: inf
ROOT
ATOM      1  C   UNL A   1      31.645  32.895  26.651  1.00  0.00     0.275 C 
ENDROOT
BRANCH   1   2
ATOM      2  C   UNL A   1      31.063  31.552  26.200  1.00  0.00     0.274 C 
BRANCH   2   3
ATOM      3  O   UNL A   1      32.120  30.691  25.740  1.00  0.00    -0.461 OA
BRANCH   3   4
ATOM      4  C   UNL A   1      31.866  29.355  25.687  1.00  0.00     0.329 C 
ATOM      5  O   UNL A   1      31.437  28.688  26.621  1.00  0.00    -0.250 OA
BRANCH   4   6
ATOM      6  C   UNL A   1      32.031  28.801  24.248  1.00  0.00     0.195 C 
BRANCH   6   7
ATOM      7  N   UNL A   1      31.335  29.585  23.233  1.00  0.00    -0.345 N 
ATOM      8  O   UNL A   1      29.876  29.836  21.514  1.00  0.00    -0.279 OA
ATOM      9  C   UNL A   1      30.394  29.126  22.365  1.00  0.00     0.337 C 
ATOM     10  H   UNL A   1      31.568  30.539  23.173  1.00  0.00     0.164 HD
ENDBRANCH   6   7
BRANCH   6  11
ATOM     11  C   UNL A   1      33.505  28.394  23.935  1.00  0.00     0.028 C 
ATOM     12  C   UNL A   1      33.843  28.081  22.471  1.00  0.00     0.035 C 
ATOM     13  C   UNL A   1      33.974  27.183  24.800  1.00  0.00     0.044 C 
ATOM     14  C   UNL A   1      33.284  26.735  22.052  1.00  0.00     0.161 C 
ATOM     15  C   UNL A   1      33.654  25.777  24.216  1.00  0.00     0.094 C 
ATOM     16  O   UNL A   1      33.920  25.718  22.815  1.00  0.00    -0.372 OA
ATOM     17  C   UNL A   1      34.518  24.704  24.875  1.00  0.00     0.066 C 
ATOM     18  C   UNL A   1      32.267  25.229  24.567  1.00  0.00     0.195 C 
ATOM     19  C   UNL A   1      33.749  24.331  26.118  1.00  0.00     0.163 C 
ATOM     20  O   UNL A   1      32.367  24.583  25.844  1.00  0.00    -0.378 OA
ENDBRANCH   6  11
ENDBRANCH   4   6
ENDBRANCH   3   4
ENDBRANCH   2   3
ENDBRANCH   1   2
BRANCH   1  21
ATOM     21  O   UNL A   1      32.781  32.709  27.523  1.00  0.00    -0.458 OA
BRANCH  21  22
ATOM     22  C   UNL A   1      33.164  33.797  28.224  1.00  0.00     0.338 C 
ATOM     23  O   UNL A   1      32.542  34.842  28.383  1.00  0.00    -0.246 OA
BRANCH  22  24
ATOM     24  C   UNL A   1      34.425  33.525  28.920  1.00  0.00     0.060 A 
ATOM     25  C   UNL A   1      35.592  34.067  28.391  1.00  0.00     0.016 A 
ATOM     26  C   UNL A   1      34.486  32.619  29.979  1.00  0.00     0.016 A 
ATOM     27  C   UNL A   1      36.828  33.640  28.869  1.00  0.00     0.010 A 
ATOM     28  C   UNL A   1      35.736  32.236  30.491  1.00  0.00     0.010 A 
ATOM     29  C   UNL A   1      36.928  32.707  29.911  1.00  0.00    -0.014 A 
BRANCH  29  30
ATOM     30  C   UNL A   1      38.268  32.175  30.312  1.00  0.00     0.031 A 
ATOM     31  C   UNL A   1      38.817  30.921  29.673  1.00  0.00     0.074 A 
ATOM     32  C   UNL A   1      39.044  32.833  31.197  1.00  0.00     0.049 A 
ATOM     33  N   UNL A   1      39.876  30.220  30.002  1.00  0.00    -0.248 NA
ATOM     34  C   UNL A   1      38.076  30.378  28.524  1.00  0.00     0.031 C 
ATOM     35  C   UNL A   1      38.706  34.095  31.857  1.00  0.00     0.029 A 
ATOM     36  N   UNL A   1      40.301  32.539  31.674  1.00  0.00    -0.354 N 
ATOM     37  C   UNL A   1      39.882  29.118  29.153  1.00  0.00     0.074 A 
ATOM     38  C   UNL A   1      38.730  29.249  28.287  1.00  0.00     0.031 C 
ATOM     39  C   UNL A   1      39.751  34.499  32.597  1.00  0.00     0.029 A 
ATOM     40  C   UNL A   1      40.798  33.484  32.538  1.00  0.00     0.049 A 
ATOM     41  H   UNL A   1      40.796  31.728  31.419  1.00  0.00     0.167 HD
ATOM     42  C   UNL A   1      40.761  28.087  29.101  1.00  0.00     0.031 A 
ATOM     43  C   UNL A   1      41.950  33.524  33.234  1.00  0.00     0.031 A 
ATOM     44  C   UNL A   1      41.953  27.981  29.899  1.00  0.00     0.049 A 
ATOM     45  C   UNL A   1      42.912  32.374  33.161  1.00  0.00     0.074 A 
ATOM     46  C   UNL A   1      42.892  26.960  29.919  1.00  0.00     0.029 A 
ATOM     47  N   UNL A   1      42.394  28.942  30.791  1.00  0.00    -0.354 N 
ATOM     48  N   UNL A   1      42.840  31.282  32.440  1.00  0.00    -0.248 NA
ATOM     49  C   UNL A   1      44.103  32.452  34.020  1.00  0.00     0.031 C 
ATOM     50  C   UNL A   1      43.892  27.298  30.837  1.00  0.00     0.029 A 
ATOM     51  C   UNL A   1      43.592  28.543  31.362  1.00  0.00     0.049 A 
ATOM     52  H   UNL A   1      41.926  29.786  30.989  1.00  0.00     0.167 HD
ATOM     53  C   UNL A   1      43.971  30.544  32.762  1.00  0.00     0.074 A 
ATOM     54  C   UNL A   1      44.730  31.324  33.718  1.00  0.00     0.031 C 
ATOM     55  C   UNL A   1      44.339  29.321  32.312  1.00  0.00     0.031 A 
BRANCH  42  56
ATOM     56  C   UNL A   1      40.443  26.952  28.169  1.00  0.00    -0.014 A 
ATOM     57  C   UNL A   1      40.974  26.892  26.873  1.00  0.00     0.009 A 
ATOM     58  C   UNL A   1      39.634  25.898  28.625  1.00  0.00     0.009 A 
ATOM     59  C   UNL A   1      40.681  25.808  26.043  1.00  0.00     0.001 A 
ATOM     60  C   UNL A   1      39.362  24.806  27.800  1.00  0.00     0.001 A 
ATOM     61  C   UNL A   1      39.880  24.765  26.507  1.00  0.00     0.000 A 
ENDBRANCH  42  56
BRANCH  43  62
ATOM     62  C   UNL A   1      42.244  34.687  34.110  1.00  0.00    -0.014 A 
ATOM     63  C   UNL A   1      41.881  34.664  35.466  1.00  0.00     0.009 A 
ATOM     64  C   UNL A   1      42.880  35.826  33.593  1.00  0.00     0.009 A 
ATOM     65  C   UNL A   1      42.140  35.767  36.283  1.00  0.00     0.001 A 
ATOM     66  C   UNL A   1      43.161  36.915  34.419  1.00  0.00     0.001 A 
ATOM     67  C   UNL A   1      42.784  36.888  35.760  1.00  0.00     0.000 A 
ENDBRANCH  43  62
BRANCH  55  68
ATOM     68  C   UNL A   1      45.629  28.759  32.836  1.00  0.00    -0.014 A 
ATOM     69  C   UNL A   1      45.648  27.939  33.976  1.00  0.00     0.009 A 
ATOM     70  C   UNL A   1      46.833  29.033  32.171  1.00  0.00     0.009 A 
ATOM     71  C   UNL A   1      46.856  27.430  34.457  1.00  0.00     0.001 A 
ATOM     72  C   UNL A   1      48.036  28.506  32.644  1.00  0.00     0.001 A 
ATOM     73  C   UNL A   1      48.048  27.712  33.790  1.00  0.00     0.000 A 
ENDBRANCH  55  68
ENDBRANCH  29  30
ENDBRANCH  22  24
ENDBRANCH  21  22
ENDBRANCH   1  21
TORSDOF 13
ENDMDL
MODEL 3
REMARK VINA RESULT:     -10.5      0.469      6.092
REMARK SMILES O=CN[C@H](C(=O)OCCOC(=O)c1ccc(-c2c3nc(c(-c4ccccc4)c4ccc([nH]4)c(-c4ccccc4)c4nc(c(-c5ccccc5)c5ccc2[nH]5)C=C4)C=C3)cc1)[C@@H]1CCO[C@@]2(CCOC2)C1
REMARK SMILES IDX 9 1 8 2 7 3 5 4 6 5 4 6 3 7 1 8 2 9 61 11 62 12 70 13 63 14
REMARK SMILES IDX 65 15 64 16 66 17 69 18 67 19 68 20 10 21 11 22 12 23 13 24
REMARK SMILES IDX 14 25 60 26 15 27 59 28 16 29 17 30 18 31 53 32 19 33 58 34
REMARK SMILES IDX 52 35 54 36 20 37 57 38 51 39 50 40 21 42 43 43 28 44 42 45
REMARK SMILES IDX 29 46 32 47 41 48 55 49 30 50 31 51 40 53 56 54 33 55 22 56
REMARK SMILES IDX 23 57 27 58 24 59 26 60 25 61 44 62 45 63 49 64 46 65 48 66
REMARK SMILES IDX 47 67 34 68 35 69 39 70 36 71 38 72 37 73
REMARK H PARENT 3 10 54 41 32 52
REMARK Flexibility Score: inf
ROOT
ATOM      1  C   UNL A   1      35.970  20.813  25.208  1.00  0.00     0.275 C 
ENDROOT
BRANCH   1   2
ATOM      2  C   UNL A   1      34.666  21.519  24.825  1.00  0.00     0.274 C 
BRANCH   2   3
ATOM      3  O   UNL A   1      34.696  22.883  25.284  1.00  0.00    -0.461 OA
BRANCH   3   4
ATOM      4  C   UNL A   1      34.037  23.173  26.438  1.00  0.00     0.329 C 
ATOM      5  O   UNL A   1      34.404  22.830  27.556  1.00  0.00    -0.250 OA
BRANCH   4   6
ATOM      6  C   UNL A   1      32.844  24.132  26.189  1.00  0.00     0.195 C 
BRANCH   6   7
ATOM      7  N   UNL A   1      31.725  23.925  27.102  1.00  0.00    -0.345 N 
ATOM      8  O   UNL A   1      29.651  23.167  27.626  1.00  0.00    -0.279 OA
ATOM      9  C   UNL A   1      30.565  23.271  26.820  1.00  0.00     0.337 C 
ATOM     10  H   UNL A   1      31.818  24.294  28.009  1.00  0.00     0.164 HD
ENDBRANCH   6   7
BRANCH   6  11
ATOM     11  C   UNL A   1      33.306  25.605  25.963  1.00  0.00     0.028 C 
ATOM     12  C   UNL A   1      32.402  26.711  26.527  1.00  0.00     0.035 C 
ATOM     13  C   UNL A   1      33.553  25.916  24.455  1.00  0.00     0.044 C 
ATOM     14  C   UNL A   1      31.149  26.876  25.689  1.00  0.00     0.161 C 
ATOM     15  C   UNL A   1      32.304  26.378  23.651  1.00  0.00     0.094 C 
ATOM     16  O   UNL A   1      31.522  27.315  24.390  1.00  0.00    -0.372 OA
ATOM     17  C   UNL A   1      32.715  27.071  22.354  1.00  0.00     0.066 C 
ATOM     18  C   UNL A   1      31.453  25.245  23.068  1.00  0.00     0.195 C 
ATOM     19  C   UNL A   1      32.890  25.936  21.376  1.00  0.00     0.163 C 
ATOM     20  O   UNL A   1      32.026  24.878  21.805  1.00  0.00    -0.378 OA
ENDBRANCH   6  11
ENDBRANCH   4   6
ENDBRANCH   3   4
ENDBRANCH   2   3
ENDBRANCH   1   2
BRANCH   1  21
ATOM     21  O   UNL A   1      37.122  21.608  24.854  1.00  0.00    -0.458 OA
BRANCH  21  22
ATOM     22  C   UNL A   1      38.280  21.260  25.454  1.00  0.00     0.338 C 
ATOM     23  O   UNL A   1      38.869  20.188  25.379  1.00  0.00    -0.246 OA
BRANCH  22  24
ATOM     24  C   UNL A   1      38.853  22.419  26.146  1.00  0.00     0.060 A 
ATOM     25  C   UNL A   1      38.196  23.639  26.027  1.00  0.00     0.016 A 
ATOM     26  C   UNL A   1      40.101  22.348  26.765  1.00  0.00     0.016 A 
ATOM     27  C   UNL A   1      38.825  24.805  26.457  1.00  0.00     0.010 A 
ATOM     28  C   UNL A   1      40.704  23.522  27.244  1.00  0.00     0.010 A 
ATOM     29  C   UNL A   1      40.094  24.775  27.053  1.00  0.00    -0.014 A 
BRANCH  29  30
ATOM     30  C   UNL A   1      40.793  26.055  27.384  1.00  0.00     0.031 A 
ATOM     31  C   UNL A   1      42.133  26.379  26.765  1.00  0.00     0.074 A 
ATOM     32  C   UNL A   1      40.221  26.977  28.185  1.00  0.00     0.049 A 
ATOM     33  N   UNL A   1      42.964  27.352  27.051  1.00  0.00    -0.248 NA
ATOM     34  C   UNL A   1      42.606  25.487  25.695  1.00  0.00     0.031 C 
ATOM     35  C   UNL A   1      38.903  26.866  28.811  1.00  0.00     0.029 A 
ATOM     36  N   UNL A   1      40.672  28.214  28.587  1.00  0.00    -0.354 N 
ATOM     37  C   UNL A   1      44.084  27.145  26.253  1.00  0.00     0.074 A 
ATOM     38  C   UNL A   1      43.822  25.961  25.462  1.00  0.00     0.031 C 
ATOM     39  C   UNL A   1      38.625  28.008  29.459  1.00  0.00     0.029 A 
ATOM     40  C   UNL A   1      39.778  28.898  29.373  1.00  0.00     0.049 A 
ATOM     41  H   UNL A   1      41.553  28.574  28.334  1.00  0.00     0.167 HD
ATOM     42  C   UNL A   1      45.229  27.867  26.185  1.00  0.00     0.031 A 
ATOM     43  C   UNL A   1      39.875  30.094  29.987  1.00  0.00     0.031 A 
ATOM     44  C   UNL A   1      45.474  29.090  26.905  1.00  0.00     0.049 A 
ATOM     45  C   UNL A   1      41.151  30.881  29.898  1.00  0.00     0.074 A 
ATOM     46  C   UNL A   1      46.615  29.878  26.905  1.00  0.00     0.029 A 
ATOM     47  N   UNL A   1      44.554  29.723  27.721  1.00  0.00    -0.354 N 
ATOM     48  N   UNL A   1      42.245  30.606  29.233  1.00  0.00    -0.248 NA
ATOM     49  C   UNL A   1      41.212  32.131  30.670  1.00  0.00     0.031 C 
ATOM     50  C   UNL A   1      46.389  30.980  27.736  1.00  0.00     0.029 A 
ATOM     51  C   UNL A   1      45.097  30.894  28.226  1.00  0.00     0.049 A 
ATOM     52  H   UNL A   1      43.647  29.391  27.914  1.00  0.00     0.167 HD
ATOM     53  C   UNL A   1      43.124  31.646  29.508  1.00  0.00     0.074 A 
ATOM     54  C   UNL A   1      42.426  32.573  30.374  1.00  0.00     0.031 C 
ATOM     55  C   UNL A   1      44.401  31.809  29.088  1.00  0.00     0.031 A 
BRANCH  42  56
ATOM     56  C   UNL A   1      46.339  27.329  25.328  1.00  0.00    -0.014 A 
ATOM     57  C   UNL A   1      46.685  27.927  24.108  1.00  0.00     0.009 A 
ATOM     58  C   UNL A   1      47.084  26.229  25.784  1.00  0.00     0.009 A 
ATOM     59  C   UNL A   1      47.740  27.418  23.350  1.00  0.00     0.001 A 
ATOM     60  C   UNL A   1      48.153  25.737  25.034  1.00  0.00     0.001 A 
ATOM     61  C   UNL A   1      48.476  26.327  23.814  1.00  0.00     0.000 A 
ENDBRANCH  42  56
BRANCH  43  62
ATOM     62  C   UNL A   1      38.737  30.608  30.789  1.00  0.00    -0.014 A 
ATOM     63  C   UNL A   1      38.612  30.269  32.145  1.00  0.00     0.009 A 
ATOM     64  C   UNL A   1      37.765  31.433  30.200  1.00  0.00     0.009 A 
ATOM     65  C   UNL A   1      37.529  30.737  32.893  1.00  0.00     0.001 A 
ATOM     66  C   UNL A   1      36.700  31.921  30.957  1.00  0.00     0.001 A 
ATOM     67  C   UNL A   1      36.578  31.566  32.299  1.00  0.00     0.000 A 
ENDBRANCH  43  62
BRANCH  55  68
ATOM     68  C   UNL A   1      45.120  33.044  29.546  1.00  0.00    -0.014 A 
ATOM     69  C   UNL A   1      45.053  34.235  28.805  1.00  0.00     0.009 A 
ATOM     70  C   UNL A   1      45.852  33.024  30.742  1.00  0.00     0.009 A 
ATOM     71  C   UNL A   1      45.733  35.374  29.238  1.00  0.00     0.001 A 
ATOM     72  C   UNL A   1      46.515  34.172  31.182  1.00  0.00     0.001 A 
ATOM     73  C   UNL A   1      46.462  35.342  30.427  1.00  0.00     0.000 A 
ENDBRANCH  55  68
ENDBRANCH  29  30
ENDBRANCH  22  24
ENDBRANCH  21  22
ENDBRANCH   1  21
TORSDOF 13
ENDMDL
