MODEL 1
REMARK VINA RESULT:     -10.2      0.000      0.000
REMARK SMILES O=C(COc1ccccc1/C=C1\C(=O)Nc2ccccc21)OCCOC(=O)c1ccc(-c2c3nc(c(-c4ccccc4)c4ccc([nH]4)c(-c4ccccc4)c4nc(c(-c5ccccc5)c5ccc2[nH]5)C=C4)C=C3)cc1
REMARK SMILES IDX 23 1 22 2 2 3 1 4 3 5 4 6 5 7 6 8 10 9 7 10 9 11 8 12 11 13
REMARK SMILES IDX 12 14 13 15 21 16 14 17 15 18 16 19 20 20 17 22 19 23 18 24
REMARK SMILES IDX 24 25 25 26 26 27 27 28 28 29 29 30 75 31 30 32 74 33 31 34
REMARK SMILES IDX 32 35 33 36 68 37 34 38 73 39 67 40 69 41 35 42 72 43 66 44
REMARK SMILES IDX 65 45 36 47 58 48 43 49 57 50 44 51 47 52 56 53 70 54 45 55
REMARK SMILES IDX 46 56 55 58 71 59 48 60 37 61 38 62 42 63 39 64 41 65 40 66
REMARK SMILES IDX 59 67 60 68 64 69 61 70 63 71 62 72 49 73 50 74 54 75 51 76
REMARK SMILES IDX 53 77 52 78
REMARK H PARENT 15 21 69 46 47 57
REMARK Flexibility Score: inf
ROOT
ATOM      1  C   UNL A   1      33.266  36.393  32.667  1.00  0.00     0.274 C 
ENDROOT
BRANCH   1   2
ATOM      2  O   UNL A   1      33.695  35.064  33.044  1.00  0.00    -0.460 OA
BRANCH   2   3
ATOM      3  C   UNL A   1      34.958  34.754  33.432  1.00  0.00     0.344 C 
ATOM      4  O   UNL A   1      35.885  35.526  33.191  1.00  0.00    -0.248 OA
BRANCH   3   5
ATOM      5  C   UNL A   1      35.189  33.470  34.205  1.00  0.00     0.352 C 
BRANCH   5   6
ATOM      6  O   UNL A   1      36.224  33.690  35.156  1.00  0.00    -0.481 OA
BRANCH   6   7
ATOM      7  C   UNL A   1      37.320  32.890  34.960  1.00  0.00     0.127 A 
ATOM      8  C   UNL A   1      37.188  31.882  33.998  1.00  0.00     0.047 A 
ATOM      9  C   UNL A   1      38.440  32.963  35.816  1.00  0.00     0.017 A 
ATOM     10  C   UNL A   1      38.161  30.896  33.894  1.00  0.00     0.004 A 
ATOM     11  C   UNL A   1      39.342  31.896  35.758  1.00  0.00     0.012 A 
ATOM     12  C   UNL A   1      39.220  30.886  34.796  1.00  0.00     0.001 A 
BRANCH   9  13
ATOM     13  C   UNL A   1      38.609  34.114  36.734  1.00  0.00     0.026 C 
ATOM     14  C   UNL A   1      38.619  34.171  38.080  1.00  0.00     0.050 C 
ATOM     15  C   UNL A   1      38.311  33.107  39.114  1.00  0.00     0.256 C 
ATOM     16  C   UNL A   1      38.979  35.384  38.846  1.00  0.00     0.011 A 
ATOM     17  O   UNL A   1      38.054  31.929  38.967  1.00  0.00    -0.269 OA
ATOM     18  N   UNL A   1      38.379  33.754  40.337  1.00  0.00    -0.321 N 
ATOM     19  C   UNL A   1      38.794  35.070  40.196  1.00  0.00     0.049 A 
ATOM     20  C   UNL A   1      39.513  36.614  38.498  1.00  0.00     0.011 A 
ATOM     21  H   UNL A   1      38.159  33.332  41.199  1.00  0.00     0.170 HD
ATOM     22  C   UNL A   1      39.069  35.953  41.222  1.00  0.00     0.027 A 
ATOM     23  C   UNL A   1      39.827  37.519  39.522  1.00  0.00     0.001 A 
ATOM     24  C   UNL A   1      39.597  37.196  40.871  1.00  0.00     0.002 A 
ENDBRANCH   9  13
ENDBRANCH   6   7
ENDBRANCH   5   6
ENDBRANCH   3   5
ENDBRANCH   2   3
ENDBRANCH   1   2
BRANCH   1  25
ATOM     25  C   UNL A   1      32.654  36.366  31.268  1.00  0.00     0.275 C 
BRANCH  25  26
ATOM     26  O   UNL A   1      32.689  35.013  30.773  1.00  0.00    -0.458 OA
BRANCH  26  27
ATOM     27  C   UNL A   1      33.151  34.866  29.506  1.00  0.00     0.338 C 
ATOM     28  O   UNL A   1      32.724  35.392  28.499  1.00  0.00    -0.246 OA
BRANCH  27  29
ATOM     29  C   UNL A   1      34.406  34.088  29.564  1.00  0.00     0.060 A 
ATOM     30  C   UNL A   1      34.497  33.051  30.498  1.00  0.00     0.016 A 
ATOM     31  C   UNL A   1      35.477  34.373  28.712  1.00  0.00     0.016 A 
ATOM     32  C   UNL A   1      35.673  32.310  30.602  1.00  0.00     0.010 A 
ATOM     33  C   UNL A   1      36.661  33.641  28.827  1.00  0.00     0.010 A 
ATOM     34  C   UNL A   1      36.772  32.625  29.790  1.00  0.00    -0.014 A 
BRANCH  34  35
ATOM     35  C   UNL A   1      38.085  31.999  30.068  1.00  0.00     0.031 A 
ATOM     36  C   UNL A   1      39.053  32.724  30.960  1.00  0.00     0.074 A 
ATOM     37  C   UNL A   1      38.403  30.797  29.561  1.00  0.00     0.049 A 
ATOM     38  N   UNL A   1      40.231  32.345  31.384  1.00  0.00    -0.248 NA
ATOM     39  C   UNL A   1      38.634  34.052  31.440  1.00  0.00     0.031 C 
ATOM     40  C   UNL A   1      37.550  29.984  28.696  1.00  0.00     0.029 A 
ATOM     41  N   UNL A   1      39.544  30.049  29.709  1.00  0.00    -0.354 N 
ATOM     42  C   UNL A   1      40.682  33.373  32.200  1.00  0.00     0.074 A 
ATOM     43  C   UNL A   1      39.675  34.412  32.176  1.00  0.00     0.031 C 
ATOM     44  C   UNL A   1      38.202  28.851  28.383  1.00  0.00     0.029 A 
ATOM     45  C   UNL A   1      39.519  28.864  29.019  1.00  0.00     0.049 A 
ATOM     46  H   UNL A   1      40.309  30.336  30.259  1.00  0.00     0.167 HD
ATOM     47  C   UNL A   1      41.826  33.444  32.921  1.00  0.00     0.031 A 
ATOM     48  C   UNL A   1      40.454  27.902  28.912  1.00  0.00     0.031 A 
ATOM     49  C   UNL A   1      42.852  32.438  32.921  1.00  0.00     0.049 A 
ATOM     50  C   UNL A   1      41.751  28.037  29.665  1.00  0.00     0.074 A 
ATOM     51  C   UNL A   1      44.050  32.426  33.611  1.00  0.00     0.029 A 
ATOM     52  N   UNL A   1      42.801  31.266  32.184  1.00  0.00    -0.354 N 
ATOM     53  N   UNL A   1      42.146  28.994  30.469  1.00  0.00    -0.248 NA
ATOM     54  C   UNL A   1      42.724  26.946  29.505  1.00  0.00     0.031 C 
ATOM     55  C   UNL A   1      44.746  31.265  33.258  1.00  0.00     0.029 A 
ATOM     56  C   UNL A   1      43.958  30.533  32.385  1.00  0.00     0.049 A 
ATOM     57  H   UNL A   1      42.055  30.995  31.601  1.00  0.00     0.167 HD
ATOM     58  C   UNL A   1      43.400  28.609  30.930  1.00  0.00     0.074 A 
ATOM     59  C   UNL A   1      43.691  27.324  30.329  1.00  0.00     0.031 C 
ATOM     60  C   UNL A   1      44.236  29.260  31.775  1.00  0.00     0.031 A 
BRANCH  47  61
ATOM     61  C   UNL A   1      42.025  34.669  33.763  1.00  0.00    -0.014 A 
ATOM     62  C   UNL A   1      41.611  34.693  35.105  1.00  0.00     0.009 A 
ATOM     63  C   UNL A   1      42.648  35.802  33.220  1.00  0.00     0.009 A 
ATOM     64  C   UNL A   1      41.793  35.840  35.879  1.00  0.00     0.001 A 
ATOM     65  C   UNL A   1      42.848  36.940  34.004  1.00  0.00     0.001 A 
ATOM     66  C   UNL A   1      42.414  36.961  35.329  1.00  0.00     0.000 A 
ENDBRANCH  47  61
BRANCH  48  67
ATOM     67  C   UNL A   1      40.213  26.716  28.051  1.00  0.00    -0.014 A 
ATOM     68  C   UNL A   1      39.523  25.599  28.545  1.00  0.00     0.009 A 
ATOM     69  C   UNL A   1      40.715  26.681  26.741  1.00  0.00     0.009 A 
ATOM     70  C   UNL A   1      39.371  24.457  27.756  1.00  0.00     0.001 A 
ATOM     71  C   UNL A   1      40.539  25.547  25.946  1.00  0.00     0.001 A 
ATOM     72  C   UNL A   1      39.877  24.432  26.457  1.00  0.00     0.000 A 
ENDBRANCH  48  67
BRANCH  60  73
ATOM     73  C   UNL A   1      45.532  28.581  32.114  1.00  0.00    -0.014 A 
ATOM     74  C   UNL A   1      45.661  27.796  33.271  1.00  0.00     0.009 A 
ATOM     75  C   UNL A   1      46.631  28.706  31.249  1.00  0.00     0.009 A 
ATOM     76  C   UNL A   1      46.878  27.182  33.574  1.00  0.00     0.001 A 
ATOM     77  C   UNL A   1      47.838  28.069  31.542  1.00  0.00     0.001 A 
ATOM     78  C   UNL A   1      47.963  27.315  32.708  1.00  0.00     0.000 A 
ENDBRANCH  60  73
ENDBRANCH  34  35
ENDBRANCH  27  29
ENDBRANCH  26  27
ENDBRANCH  25  26
ENDBRANCH   1  25
TORSDOF 14
ENDMDL
MODEL 2
REMARK VINA RESULT:      -9.7      6.823     13.376
REMARK SMILES O=C(COc1ccccc1/C=C1\C(=O)Nc2ccccc21)OCCOC(=O)c1ccc(-c2c3nc(c(-c4ccccc4)c4ccc([nH]4)c(-c4ccccc4)c4nc(c(-c5ccccc5)c5ccc2[nH]5)C=C4)C=C3)cc1
REMARK SMILES IDX 23 1 22 2 2 3 1 4 3 5 4 6 5 7 6 8 10 9 7 10 9 11 8 12 11 13
REMARK SMILES IDX 12 14 13 15 21 16 14 17 15 18 16 19 20 20 17 22 19 23 18 24
REMARK SMILES IDX 24 25 25 26 26 27 27 28 28 29 29 30 75 31 30 32 74 33 31 34
REMARK SMILES IDX 32 35 33 36 68 37 34 38 73 39 67 40 69 41 35 42 72 43 66 44
REMARK SMILES IDX 65 45 36 47 58 48 43 49 57 50 44 51 47 52 56 53 70 54 45 55
REMARK SMILES IDX 46 56 55 58 71 59 48 60 37 61 38 62 42 63 39 64 41 65 40 66
REMARK SMILES IDX 59 67 60 68 64 69 61 70 63 71 62 72 49 73 50 74 54 75 51 76
REMARK SMILES IDX 53 77 52 78
REMARK H PARENT 15 21 69 46 47 57
REMARK Flexibility Score: inf
ROOT
ATOM      1  C   UNL A   1      36.642  20.854  24.879  1.00  0.00     0.274 C 
ENDROOT
BRANCH   1   2
ATOM      2  O   UNL A   1      36.906  22.224  24.499  1.00  0.00    -0.460 OA
BRANCH   2   3
ATOM      3  C   UNL A   1      36.253  22.877  23.505  1.00  0.00     0.344 C 
ATOM      4  O   UNL A   1      36.758  22.964  22.388  1.00  0.00    -0.248 OA
BRANCH   3   5
ATOM      5  C   UNL A   1      34.877  23.449  23.790  1.00  0.00     0.352 C 
BRANCH   5   6
ATOM      6  O   UNL A   1      34.246  23.757  22.553  1.00  0.00    -0.481 OA
BRANCH   6   7
ATOM      7  C   UNL A   1      32.912  24.046  22.681  1.00  0.00     0.127 A 
ATOM      8  C   UNL A   1      32.552  25.391  22.536  1.00  0.00     0.047 A 
ATOM      9  C   UNL A   1      31.992  23.070  23.121  1.00  0.00     0.017 A 
ATOM     10  C   UNL A   1      31.266  25.800  22.868  1.00  0.00     0.004 A 
ATOM     11  C   UNL A   1      30.744  23.535  23.549  1.00  0.00     0.012 A 
ATOM     12  C   UNL A   1      30.374  24.877  23.404  1.00  0.00     0.001 A 
BRANCH   9  13
ATOM     13  C   UNL A   1      32.370  21.637  23.141  1.00  0.00     0.026 C 
ATOM     14  C   UNL A   1      32.577  20.796  24.172  1.00  0.00     0.050 C 
ATOM     15  C   UNL A   1      32.643  21.061  25.663  1.00  0.00     0.256 C 
ATOM     16  C   UNL A   1      32.777  19.339  24.014  1.00  0.00     0.011 A 
ATOM     17  O   UNL A   1      32.450  22.089  26.280  1.00  0.00    -0.269 OA
ATOM     18  N   UNL A   1      32.984  19.847  26.236  1.00  0.00    -0.321 N 
ATOM     19  C   UNL A   1      33.037  18.834  25.291  1.00  0.00     0.049 A 
ATOM     20  C   UNL A   1      32.660  18.466  22.945  1.00  0.00     0.011 A 
ATOM     21  H   UNL A   1      33.166  19.720  27.196  1.00  0.00     0.170 HD
ATOM     22  C   UNL A   1      33.239  17.491  25.546  1.00  0.00     0.027 A 
ATOM     23  C   UNL A   1      32.833  17.095  23.181  1.00  0.00     0.001 A 
ATOM     24  C   UNL A   1      33.131  16.613  24.467  1.00  0.00     0.002 A 
ENDBRANCH   9  13
ENDBRANCH   6   7
ENDBRANCH   5   6
ENDBRANCH   3   5
ENDBRANCH   2   3
ENDBRANCH   1   2
BRANCH   1  25
ATOM     25  C   UNL A   1      37.943  20.167  25.292  1.00  0.00     0.275 C 
BRANCH  25  26
ATOM     26  O   UNL A   1      38.971  21.167  25.428  1.00  0.00    -0.458 OA
BRANCH  26  27
ATOM     27  C   UNL A   1      39.800  21.013  26.490  1.00  0.00     0.338 C 
ATOM     28  O   UNL A   1      40.299  19.982  26.893  1.00  0.00    -0.246 OA
BRANCH  27  29
ATOM     29  C   UNL A   1      40.160  22.356  26.988  1.00  0.00     0.060 A 
ATOM     30  C   UNL A   1      39.471  23.459  26.473  1.00  0.00     0.016 A 
ATOM     31  C   UNL A   1      41.162  22.530  27.948  1.00  0.00     0.016 A 
ATOM     32  C   UNL A   1      39.800  24.744  26.898  1.00  0.00     0.010 A 
ATOM     33  C   UNL A   1      41.502  23.820  28.362  1.00  0.00     0.010 A 
ATOM     34  C   UNL A   1      40.840  24.933  27.819  1.00  0.00    -0.014 A 
BRANCH  34  35
ATOM     35  C   UNL A   1      41.340  26.301  28.081  1.00  0.00     0.031 A 
ATOM     36  C   UNL A   1      42.662  26.710  27.494  1.00  0.00     0.074 A 
ATOM     37  C   UNL A   1      40.623  27.176  28.805  1.00  0.00     0.049 A 
ATOM     38  N   UNL A   1      43.268  27.868  27.546  1.00  0.00    -0.248 NA
ATOM     39  C   UNL A   1      43.395  25.675  26.746  1.00  0.00     0.031 C 
ATOM     40  C   UNL A   1      39.322  26.911  29.417  1.00  0.00     0.029 A 
ATOM     41  N   UNL A   1      40.898  28.477  29.145  1.00  0.00    -0.354 N 
ATOM     42  C   UNL A   1      44.439  27.709  26.817  1.00  0.00     0.074 A 
ATOM     43  C   UNL A   1      44.482  26.333  26.372  1.00  0.00     0.031 C 
ATOM     44  C   UNL A   1      38.914  28.016  30.066  1.00  0.00     0.029 A 
ATOM     45  C   UNL A   1      39.928  29.060  29.921  1.00  0.00     0.049 A 
ATOM     46  H   UNL A   1      41.714  28.948  28.860  1.00  0.00     0.167 HD
ATOM     47  C   UNL A   1      45.388  28.630  26.526  1.00  0.00     0.031 A 
ATOM     48  C   UNL A   1      39.868  30.294  30.454  1.00  0.00     0.031 A 
ATOM     49  C   UNL A   1      45.377  29.987  26.996  1.00  0.00     0.049 A 
ATOM     50  C   UNL A   1      40.974  31.278  30.178  1.00  0.00     0.074 A 
ATOM     51  C   UNL A   1      46.301  30.990  26.763  1.00  0.00     0.029 A 
ATOM     52  N   UNL A   1      44.391  30.529  27.805  1.00  0.00    -0.354 N 
ATOM     53  N   UNL A   1      42.054  31.129  29.450  1.00  0.00    -0.248 NA
ATOM     54  C   UNL A   1      40.839  32.609  30.789  1.00  0.00     0.031 C 
ATOM     55  C   UNL A   1      45.896  32.129  27.468  1.00  0.00     0.029 A 
ATOM     56  C   UNL A   1      44.696  31.847  28.099  1.00  0.00     0.049 A 
ATOM     57  H   UNL A   1      43.594  30.048  28.126  1.00  0.00     0.167 HD
ATOM     58  C   UNL A   1      42.713  32.352  29.494  1.00  0.00     0.074 A 
ATOM     59  C   UNL A   1      41.904  33.236  30.307  1.00  0.00     0.031 C 
ATOM     60  C   UNL A   1      43.884  32.712  28.914  1.00  0.00     0.031 A 
BRANCH  47  61
ATOM     61  C   UNL A   1      46.530  28.180  25.663  1.00  0.00    -0.014 A 
ATOM     62  C   UNL A   1      46.418  28.187  24.264  1.00  0.00     0.009 A 
ATOM     63  C   UNL A   1      47.734  27.765  26.251  1.00  0.00     0.009 A 
ATOM     64  C   UNL A   1      47.483  27.760  23.469  1.00  0.00     0.001 A 
ATOM     65  C   UNL A   1      48.805  27.358  25.452  1.00  0.00     0.001 A 
ATOM     66  C   UNL A   1      48.676  27.349  24.063  1.00  0.00     0.000 A 
ENDBRANCH  47  61
BRANCH  48  67
ATOM     67  C   UNL A   1      38.722  30.683  31.315  1.00  0.00    -0.014 A 
ATOM     68  C   UNL A   1      37.569  31.258  30.759  1.00  0.00     0.009 A 
ATOM     69  C   UNL A   1      38.799  30.521  32.707  1.00  0.00     0.009 A 
ATOM     70  C   UNL A   1      36.531  31.694  31.584  1.00  0.00     0.001 A 
ATOM     71  C   UNL A   1      37.747  30.936  33.526  1.00  0.00     0.001 A 
ATOM     72  C   UNL A   1      36.619  31.532  32.966  1.00  0.00     0.000 A 
ENDBRANCH  48  67
BRANCH  60  73
ATOM     73  C   UNL A   1      44.344  34.126  29.121  1.00  0.00    -0.014 A 
ATOM     74  C   UNL A   1      45.197  34.466  30.182  1.00  0.00     0.009 A 
ATOM     75  C   UNL A   1      43.939  35.128  28.224  1.00  0.00     0.009 A 
ATOM     76  C   UNL A   1      45.606  35.789  30.363  1.00  0.00     0.001 A 
ATOM     77  C   UNL A   1      44.370  36.445  28.392  1.00  0.00     0.001 A 
ATOM     78  C   UNL A   1      45.195  36.776  29.467  1.00  0.00     0.000 A 
ENDBRANCH  60  73
ENDBRANCH  34  35
ENDBRANCH  27  29
ENDBRANCH  26  27
ENDBRANCH  25  26
ENDBRANCH   1  25
TORSDOF 14
ENDMDL
MODEL 3
REMARK VINA RESULT:      -9.6      4.521      9.028
REMARK SMILES O=C(COc1ccccc1/C=C1\C(=O)Nc2ccccc21)OCCOC(=O)c1ccc(-c2c3nc(c(-c4ccccc4)c4ccc([nH]4)c(-c4ccccc4)c4nc(c(-c5ccccc5)c5ccc2[nH]5)C=C4)C=C3)cc1
REMARK SMILES IDX 23 1 22 2 2 3 1 4 3 5 4 6 5 7 6 8 10 9 7 10 9 11 8 12 11 13
REMARK SMILES IDX 12 14 13 15 21 16 14 17 15 18 16 19 20 20 17 22 19 23 18 24
REMARK SMILES IDX 24 25 25 26 26 27 27 28 28 29 29 30 75 31 30 32 74 33 31 34
REMARK SMILES IDX 32 35 33 36 68 37 34 38 73 39 67 40 69 41 35 42 72 43 66 44
REMARK SMILES IDX 65 45 36 47 58 48 43 49 57 50 44 51 47 52 56 53 70 54 45 55
REMARK SMILES IDX 46 56 55 58 71 59 48 60 37 61 38 62 42 63 39 64 41 65 40 66
REMARK SMILES IDX 59 67 60 68 64 69 61 70 63 71 62 72 49 73 50 74 54 75 51 76
REMARK SMILES IDX 53 77 52 78
REMARK H PARENT 15 21 69 46 47 57
REMARK Flexibility Score: inf
ROOT
ATOM      1  C   UNL A   1      31.756  30.745  26.886  1.00  0.00     0.274 C 
ENDROOT
BRANCH   1   2
ATOM      2  O   UNL A   1      32.972  30.442  26.166  1.00  0.00    -0.460 OA
BRANCH   2   3
ATOM      3  C   UNL A   1      33.932  29.593  26.615  1.00  0.00     0.344 C 
ATOM      4  O   UNL A   1      34.522  29.832  27.667  1.00  0.00    -0.248 OA
BRANCH   3   5
ATOM      5  C   UNL A   1      34.219  28.333  25.823  1.00  0.00     0.352 C 
BRANCH   5   6
ATOM      6  O   UNL A   1      33.228  27.361  26.136  1.00  0.00    -0.481 OA
BRANCH   6   7
ATOM      7  C   UNL A   1      33.335  26.217  25.389  1.00  0.00     0.127 A 
ATOM      8  C   UNL A   1      34.412  25.376  25.692  1.00  0.00     0.047 A 
ATOM      9  C   UNL A   1      32.517  26.003  24.258  1.00  0.00     0.017 A 
ATOM     10  C   UNL A   1      34.721  24.318  24.846  1.00  0.00     0.004 A 
ATOM     11  C   UNL A   1      32.923  25.000  23.373  1.00  0.00     0.012 A 
ATOM     12  C   UNL A   1      33.996  24.151  23.671  1.00  0.00     0.001 A 
BRANCH   9  13
ATOM     13  C   UNL A   1      31.311  26.835  24.037  1.00  0.00     0.026 C 
ATOM     14  C   UNL A   1      31.123  27.926  23.269  1.00  0.00     0.050 C 
ATOM     15  C   UNL A   1      32.114  28.763  22.486  1.00  0.00     0.256 C 
ATOM     16  C   UNL A   1      29.798  28.536  23.022  1.00  0.00     0.011 A 
ATOM     17  O   UNL A   1      33.305  28.600  22.312  1.00  0.00    -0.269 OA
ATOM     18  N   UNL A   1      31.377  29.817  21.971  1.00  0.00    -0.321 N 
ATOM     19  C   UNL A   1      30.026  29.680  22.252  1.00  0.00     0.049 A 
ATOM     20  C   UNL A   1      28.498  28.151  23.305  1.00  0.00     0.011 A 
ATOM     21  H   UNL A   1      31.765  30.569  21.468  1.00  0.00     0.170 HD
ATOM     22  C   UNL A   1      29.010  30.495  21.791  1.00  0.00     0.027 A 
ATOM     23  C   UNL A   1      27.447  28.945  22.826  1.00  0.00     0.001 A 
ATOM     24  C   UNL A   1      27.701  30.113  22.085  1.00  0.00     0.002 A 
ENDBRANCH   9  13
ENDBRANCH   6   7
ENDBRANCH   5   6
ENDBRANCH   3   5
ENDBRANCH   2   3
ENDBRANCH   1   2
BRANCH   1  25
ATOM     25  C   UNL A   1      31.571  32.259  26.983  1.00  0.00     0.275 C 
BRANCH  25  26
ATOM     26  O   UNL A   1      32.868  32.886  26.964  1.00  0.00    -0.458 OA
BRANCH  26  27
ATOM     27  C   UNL A   1      33.133  33.713  28.006  1.00  0.00     0.338 C 
ATOM     28  O   UNL A   1      32.399  34.552  28.487  1.00  0.00    -0.246 OA
BRANCH  27  29
ATOM     29  C   UNL A   1      34.419  33.300  28.603  1.00  0.00     0.060 A 
ATOM     30  C   UNL A   1      35.597  33.608  27.912  1.00  0.00     0.016 A 
ATOM     31  C   UNL A   1      34.469  32.621  29.823  1.00  0.00     0.016 A 
ATOM     32  C   UNL A   1      36.829  33.213  28.428  1.00  0.00     0.010 A 
ATOM     33  C   UNL A   1      35.704  32.211  30.333  1.00  0.00     0.010 A 
ATOM     34  C   UNL A   1      36.886  32.483  29.624  1.00  0.00    -0.014 A 
BRANCH  34  35
ATOM     35  C   UNL A   1      38.165  31.865  30.039  1.00  0.00     0.031 A 
ATOM     36  C   UNL A   1      39.009  32.572  31.061  1.00  0.00     0.074 A 
ATOM     37  C   UNL A   1      38.560  30.683  29.537  1.00  0.00     0.049 A 
ATOM     38  N   UNL A   1      40.135  32.194  31.611  1.00  0.00    -0.248 NA
ATOM     39  C   UNL A   1      38.515  33.879  31.527  1.00  0.00     0.031 C 
ATOM     40  C   UNL A   1      37.829  29.888  28.552  1.00  0.00     0.029 A 
ATOM     41  N   UNL A   1      39.688  29.944  29.797  1.00  0.00    -0.354 N 
ATOM     42  C   UNL A   1      40.469  33.201  32.505  1.00  0.00     0.074 A 
ATOM     43  C   UNL A   1      39.455  34.228  32.393  1.00  0.00     0.031 C 
ATOM     44  C   UNL A   1      38.532  28.773  28.285  1.00  0.00     0.029 A 
ATOM     45  C   UNL A   1      39.763  28.782  29.074  1.00  0.00     0.049 A 
ATOM     46  H   UNL A   1      40.377  30.223  30.443  1.00  0.00     0.167 HD
ATOM     47  C   UNL A   1      41.517  33.262  33.360  1.00  0.00     0.031 A 
ATOM     48  C   UNL A   1      40.719  27.835  29.050  1.00  0.00     0.031 A 
ATOM     49  C   UNL A   1      42.552  32.269  33.452  1.00  0.00     0.049 A 
ATOM     50  C   UNL A   1      41.915  27.962  29.956  1.00  0.00     0.074 A 
ATOM     51  C   UNL A   1      43.660  32.250  34.279  1.00  0.00     0.029 A 
ATOM     52  N   UNL A   1      42.608  31.121  32.678  1.00  0.00    -0.354 N 
ATOM     53  N   UNL A   1      42.197  28.897  30.830  1.00  0.00    -0.248 NA
ATOM     54  C   UNL A   1      42.917  26.888  29.880  1.00  0.00     0.031 C 
ATOM     55  C   UNL A   1      44.411  31.109  33.977  1.00  0.00     0.029 A 
ATOM     56  C   UNL A   1      43.744  30.396  32.994  1.00  0.00     0.049 A 
ATOM     57  H   UNL A   1      41.940  30.860  32.003  1.00  0.00     0.167 HD
ATOM     58  C   UNL A   1      43.393  28.512  31.425  1.00  0.00     0.074 A 
ATOM     59  C   UNL A   1      43.774  27.251  30.825  1.00  0.00     0.031 C 
ATOM     60  C   UNL A   1      44.112  29.146  32.383  1.00  0.00     0.031 A 
BRANCH  47  61
ATOM     61  C   UNL A   1      41.595  34.462  34.257  1.00  0.00    -0.014 A 
ATOM     62  C   UNL A   1      41.014  34.442  35.534  1.00  0.00     0.009 A 
ATOM     63  C   UNL A   1      42.271  35.615  33.831  1.00  0.00     0.009 A 
ATOM     64  C   UNL A   1      41.085  35.566  36.359  1.00  0.00     0.001 A 
ATOM     65  C   UNL A   1      42.359  36.730  34.667  1.00  0.00     0.001 A 
ATOM     66  C   UNL A   1      41.760  36.707  35.926  1.00  0.00     0.000 A 
ENDBRANCH  47  61
BRANCH  48  67
ATOM     67  C   UNL A   1      40.601  26.674  28.131  1.00  0.00    -0.014 A 
ATOM     68  C   UNL A   1      41.110  26.738  26.825  1.00  0.00     0.009 A 
ATOM     69  C   UNL A   1      39.935  25.511  28.546  1.00  0.00     0.009 A 
ATOM     70  C   UNL A   1      40.923  25.673  25.942  1.00  0.00     0.001 A 
ATOM     71  C   UNL A   1      39.772  24.438  27.667  1.00  0.00     0.001 A 
ATOM     72  C   UNL A   1      40.256  24.523  26.363  1.00  0.00     0.000 A 
ENDBRANCH  48  67
BRANCH  60  73
ATOM     73  C   UNL A   1      45.369  28.472  32.854  1.00  0.00    -0.014 A 
ATOM     74  C   UNL A   1      45.351  27.567  33.927  1.00  0.00     0.009 A 
ATOM     75  C   UNL A   1      46.584  28.727  32.197  1.00  0.00     0.009 A 
ATOM     76  C   UNL A   1      46.533  26.959  34.356  1.00  0.00     0.001 A 
ATOM     77  C   UNL A   1      47.758  28.097  32.612  1.00  0.00     0.001 A 
ATOM     78  C   UNL A   1      47.733  27.221  33.697  1.00  0.00     0.000 A 
ENDBRANCH  60  73
ENDBRANCH  34  35
ENDBRANCH  27  29
ENDBRANCH  26  27
ENDBRANCH  25  26
ENDBRANCH   1  25
TORSDOF 14
ENDMDL
