MODEL 1
REMARK VINA RESULT:     -11.4      0.000      0.000
REMARK SMILES C[C@@H](C(=O)OCCOC(=O)c1ccc(-c2c3nc(c(-c4ccccc4)c4ccc([nH]4)c(-c4ccccc4)c4nc(c(-c5ccccc5)c5ccc2[nH]5)C=C4)C=C3)cc1)c1ccc(-c2cccc(OC(=O)NC3CC3)c2)c(F)c1
REMARK SMILES IDX 5 1 3 2 4 3 2 4 1 5 59 6 60 7 78 8 61 9 76 10 62 11 77 12
REMARK SMILES IDX 63 13 64 14 75 15 65 16 67 17 66 18 68 19 69 20 70 21 71 22
REMARK SMILES IDX 72 24 73 25 74 26 6 27 7 28 8 29 9 30 10 31 11 32 12 33
REMARK SMILES IDX 58 34 13 35 57 36 14 37 15 38 16 39 51 40 17 41 56 42 50 43
REMARK SMILES IDX 52 44 18 45 55 46 49 47 48 48 19 50 41 51 26 52 40 53 27 54
REMARK SMILES IDX 30 55 39 56 53 57 28 58 29 59 38 61 54 62 31 63 20 64 21 65
REMARK SMILES IDX 25 66 22 67 24 68 23 69 42 70 43 71 47 72 44 73 46 74 45 75
REMARK SMILES IDX 32 76 33 77 37 78 34 79 36 80 35 81
REMARK H PARENT 71 23 52 49 30 60
REMARK Flexibility Score: inf
ROOT
ATOM      1  O   UNL A   1      35.033  34.335  31.288  1.00  0.00    -0.462 OA
ENDROOT
BRANCH   1   2
ATOM      2  C   UNL A   1      34.055  34.693  30.410  1.00  0.00     0.313 C 
ATOM      3  O   UNL A   1      32.906  34.967  30.740  1.00  0.00    -0.252 OA
BRANCH   2   4
ATOM      4  C   UNL A   1      34.531  34.657  28.950  1.00  0.00     0.126 C 
ATOM      5  C   UNL A   1      34.295  35.969  28.196  1.00  0.00     0.025 C 
BRANCH   4   6
ATOM      6  C   UNL A   1      33.965  33.444  28.214  1.00  0.00    -0.031 A 
ATOM      7  C   UNL A   1      32.668  33.413  27.691  1.00  0.00     0.005 A 
ATOM      8  C   UNL A   1      34.732  32.276  28.111  1.00  0.00     0.044 A 
ATOM      9  C   UNL A   1      32.135  32.230  27.149  1.00  0.00     0.012 A 
ATOM     10  C   UNL A   1      34.195  31.107  27.561  1.00  0.00     0.131 A 
ATOM     11  C   UNL A   1      32.866  31.027  27.112  1.00  0.00     0.018 A 
ATOM     12  F   UNL A   1      35.005  30.039  27.498  1.00  0.00    -0.206 F 
BRANCH  11  13
ATOM     13  C   UNL A   1      32.219  29.740  26.723  1.00  0.00    -0.012 A 
ATOM     14  C   UNL A   1      32.046  28.684  27.639  1.00  0.00     0.009 A 
ATOM     15  C   UNL A   1      31.816  29.495  25.391  1.00  0.00     0.056 A 
ATOM     16  C   UNL A   1      31.527  27.443  27.245  1.00  0.00     0.004 A 
ATOM     17  C   UNL A   1      31.284  28.263  25.001  1.00  0.00     0.133 A 
ATOM     18  C   UNL A   1      31.146  27.232  25.924  1.00  0.00     0.047 A 
BRANCH  17  19
ATOM     19  O   UNL A   1      30.782  27.980  23.702  1.00  0.00    -0.410 OA
BRANCH  19  20
ATOM     20  C   UNL A   1      31.320  28.432  22.503  1.00  0.00     0.412 C 
ATOM     21  O   UNL A   1      32.394  28.087  22.020  1.00  0.00    -0.224 OA
ATOM     22  N   UNL A   1      30.553  29.364  21.848  1.00  0.00    -0.318 N 
ATOM     23  H   UNL A   1      30.988  29.761  21.058  1.00  0.00     0.167 HD
BRANCH  22  24
ATOM     24  C   UNL A   1      29.242  29.861  22.102  1.00  0.00     0.085 C 
ATOM     25  C   UNL A   1      28.830  30.861  23.143  1.00  0.00     0.027 C 
ATOM     26  C   UNL A   1      28.852  31.253  21.695  1.00  0.00     0.027 C 
ENDBRANCH  22  24
ENDBRANCH  19  20
ENDBRANCH  17  19
ENDBRANCH  11  13
ENDBRANCH   4   6
ENDBRANCH   2   4
ENDBRANCH   1   2
BRANCH   1  27
ATOM     27  C   UNL A   1      34.823  34.674  32.675  1.00  0.00     0.274 C 
BRANCH  27  28
ATOM     28  C   UNL A   1      34.570  33.414  33.498  1.00  0.00     0.275 C 
BRANCH  28  29
ATOM     29  O   UNL A   1      35.324  32.323  32.947  1.00  0.00    -0.458 OA
BRANCH  29  30
ATOM     30  C   UNL A   1      36.530  32.090  33.513  1.00  0.00     0.338 C 
ATOM     31  O   UNL A   1      36.887  32.361  34.647  1.00  0.00    -0.246 OA
BRANCH  30  32
ATOM     32  C   UNL A   1      37.406  31.415  32.542  1.00  0.00     0.060 A 
ATOM     33  C   UNL A   1      38.347  30.493  32.985  1.00  0.00     0.016 A 
ATOM     34  C   UNL A   1      37.385  31.813  31.205  1.00  0.00     0.016 A 
ATOM     35  C   UNL A   1      39.343  30.053  32.113  1.00  0.00     0.010 A 
ATOM     36  C   UNL A   1      38.333  31.295  30.314  1.00  0.00     0.010 A 
ATOM     37  C   UNL A   1      39.364  30.454  30.769  1.00  0.00    -0.014 A 
BRANCH  37  38
ATOM     38  C   UNL A   1      40.486  30.052  29.869  1.00  0.00     0.031 A 
ATOM     39  C   UNL A   1      40.418  28.755  29.096  1.00  0.00     0.074 A 
ATOM     40  C   UNL A   1      41.563  30.850  29.714  1.00  0.00     0.049 A 
ATOM     41  N   UNL A   1      41.344  28.163  28.382  1.00  0.00    -0.248 NA
ATOM     42  C   UNL A   1      39.143  28.018  29.137  1.00  0.00     0.031 C 
ATOM     43  C   UNL A   1      41.735  32.164  30.332  1.00  0.00     0.029 A 
ATOM     44  N   UNL A   1      42.707  30.684  28.969  1.00  0.00    -0.354 N 
ATOM     45  C   UNL A   1      40.791  26.961  27.959  1.00  0.00     0.074 A 
ATOM     46  C   UNL A   1      39.446  26.904  28.485  1.00  0.00     0.031 C 
ATOM     47  C   UNL A   1      42.879  32.709  29.894  1.00  0.00     0.029 A 
ATOM     48  C   UNL A   1      43.582  31.742  29.059  1.00  0.00     0.049 A 
ATOM     49  H   UNL A   1      42.885  29.884  28.424  1.00  0.00     0.167 HD
ATOM     50  C   UNL A   1      41.353  25.990  27.200  1.00  0.00     0.031 A 
ATOM     51  C   UNL A   1      44.821  31.912  28.558  1.00  0.00     0.031 A 
ATOM     52  C   UNL A   1      42.656  26.081  26.598  1.00  0.00     0.049 A 
ATOM     53  C   UNL A   1      45.409  30.823  27.699  1.00  0.00     0.074 A 
ATOM     54  C   UNL A   1      43.303  25.152  25.801  1.00  0.00     0.029 A 
ATOM     55  N   UNL A   1      43.498  27.175  26.706  1.00  0.00    -0.354 N 
ATOM     56  N   UNL A   1      44.861  29.702  27.295  1.00  0.00    -0.248 NA
ATOM     57  C   UNL A   1      46.785  31.022  27.220  1.00  0.00     0.031 C 
ATOM     58  C   UNL A   1      44.552  25.675  25.447  1.00  0.00     0.029 A 
ATOM     59  C   UNL A   1      44.666  26.940  26.000  1.00  0.00     0.049 A 
ATOM     60  H   UNL A   1      43.298  27.997  27.210  1.00  0.00     0.167 HD
ATOM     61  C   UNL A   1      45.816  29.075  26.505  1.00  0.00     0.074 A 
ATOM     62  C   UNL A   1      46.957  29.962  26.443  1.00  0.00     0.031 C 
ATOM     63  C   UNL A   1      45.767  27.860  25.908  1.00  0.00     0.031 A 
BRANCH  50  64
ATOM     64  C   UNL A   1      40.579  24.716  27.007  1.00  0.00    -0.014 A 
ATOM     65  C   UNL A   1      41.047  23.486  27.492  1.00  0.00     0.009 A 
ATOM     66  C   UNL A   1      39.327  24.766  26.372  1.00  0.00     0.009 A 
ATOM     67  C   UNL A   1      40.285  22.327  27.322  1.00  0.00     0.001 A 
ATOM     68  C   UNL A   1      38.558  23.611  26.224  1.00  0.00     0.001 A 
ATOM     69  C   UNL A   1      39.040  22.391  26.693  1.00  0.00     0.000 A 
ENDBRANCH  50  64
BRANCH  51  70
ATOM     70  C   UNL A   1      45.584  33.161  28.865  1.00  0.00    -0.014 A 
ATOM     71  C   UNL A   1      46.418  33.233  29.988  1.00  0.00     0.009 A 
ATOM     72  C   UNL A   1      45.512  34.288  28.028  1.00  0.00     0.009 A 
ATOM     73  C   UNL A   1      47.172  34.378  30.259  1.00  0.00     0.001 A 
ATOM     74  C   UNL A   1      46.300  35.416  28.271  1.00  0.00     0.001 A 
ATOM     75  C   UNL A   1      47.129  35.461  29.388  1.00  0.00     0.000 A 
ENDBRANCH  51  70
BRANCH  63  76
ATOM     76  C   UNL A   1      46.967  27.443  25.104  1.00  0.00    -0.014 A 
ATOM     77  C   UNL A   1      47.106  27.834  23.762  1.00  0.00     0.009 A 
ATOM     78  C   UNL A   1      47.985  26.686  25.703  1.00  0.00     0.009 A 
ATOM     79  C   UNL A   1      48.223  27.439  23.025  1.00  0.00     0.001 A 
ATOM     80  C   UNL A   1      49.113  26.315  24.970  1.00  0.00     0.001 A 
ATOM     81  C   UNL A   1      49.227  26.684  23.630  1.00  0.00     0.000 A 
ENDBRANCH  63  76
ENDBRANCH  37  38
ENDBRANCH  30  32
ENDBRANCH  29  30
ENDBRANCH  28  29
ENDBRANCH  27  28
ENDBRANCH   1  27
TORSDOF 16
ENDMDL
MODEL 2
REMARK VINA RESULT:     -11.3      0.649      5.863
REMARK SMILES C[C@@H](C(=O)OCCOC(=O)c1ccc(-c2c3nc(c(-c4ccccc4)c4ccc([nH]4)c(-c4ccccc4)c4nc(c(-c5ccccc5)c5ccc2[nH]5)C=C4)C=C3)cc1)c1ccc(-c2cccc(OC(=O)NC3CC3)c2)c(F)c1
REMARK SMILES IDX 5 1 3 2 4 3 2 4 1 5 59 6 60 7 78 8 61 9 76 10 62 11 77 12
REMARK SMILES IDX 63 13 64 14 75 15 65 16 67 17 66 18 68 19 69 20 70 21 71 22
REMARK SMILES IDX 72 24 73 25 74 26 6 27 7 28 8 29 9 30 10 31 11 32 12 33
REMARK SMILES IDX 58 34 13 35 57 36 14 37 15 38 16 39 51 40 17 41 56 42 50 43
REMARK SMILES IDX 52 44 18 45 55 46 49 47 48 48 19 50 41 51 26 52 40 53 27 54
REMARK SMILES IDX 30 55 39 56 53 57 28 58 29 59 38 61 54 62 31 63 20 64 21 65
REMARK SMILES IDX 25 66 22 67 24 68 23 69 42 70 43 71 47 72 44 73 46 74 45 75
REMARK SMILES IDX 32 76 33 77 37 78 34 79 36 80 35 81
REMARK H PARENT 71 23 52 49 30 60
REMARK Flexibility Score: inf
ROOT
ATOM      1  O   UNL A   1      34.537  34.276  31.272  1.00  0.00    -0.462 OA
ENDROOT
BRANCH   1   2
ATOM      2  C   UNL A   1      33.663  34.912  30.443  1.00  0.00     0.313 C 
ATOM      3  O   UNL A   1      32.581  35.362  30.803  1.00  0.00    -0.252 OA
BRANCH   2   4
ATOM      4  C   UNL A   1      34.155  34.951  28.988  1.00  0.00     0.126 C 
ATOM      5  C   UNL A   1      33.831  36.263  28.266  1.00  0.00     0.025 C 
BRANCH   4   6
ATOM      6  C   UNL A   1      33.686  33.721  28.213  1.00  0.00    -0.031 A 
ATOM      7  C   UNL A   1      32.429  33.643  27.605  1.00  0.00     0.005 A 
ATOM      8  C   UNL A   1      34.502  32.584  28.159  1.00  0.00     0.044 A 
ATOM      9  C   UNL A   1      31.979  32.443  27.026  1.00  0.00     0.012 A 
ATOM     10  C   UNL A   1      34.049  31.397  27.572  1.00  0.00     0.131 A 
ATOM     11  C   UNL A   1      32.757  31.269  27.035  1.00  0.00     0.018 A 
ATOM     12  F   UNL A   1      34.902  30.362  27.561  1.00  0.00    -0.206 F 
BRANCH  11  13
ATOM     13  C   UNL A   1      32.187  29.960  26.601  1.00  0.00    -0.012 A 
ATOM     14  C   UNL A   1      32.190  28.829  27.440  1.00  0.00     0.009 A 
ATOM     15  C   UNL A   1      31.683  29.777  25.293  1.00  0.00     0.056 A 
ATOM     16  C   UNL A   1      31.742  27.578  26.994  1.00  0.00     0.004 A 
ATOM     17  C   UNL A   1      31.222  28.533  24.852  1.00  0.00     0.133 A 
ATOM     18  C   UNL A   1      31.259  27.430  25.698  1.00  0.00     0.047 A 
BRANCH  17  19
ATOM     19  O   UNL A   1      30.627  28.302  23.584  1.00  0.00    -0.410 OA
BRANCH  19  20
ATOM     20  C   UNL A   1      29.276  28.076  23.344  1.00  0.00     0.412 C 
ATOM     21  O   UNL A   1      28.681  27.018  23.518  1.00  0.00    -0.224 OA
ATOM     22  N   UNL A   1      28.595  29.161  22.847  1.00  0.00    -0.318 N 
ATOM     23  H   UNL A   1      27.669  28.966  22.576  1.00  0.00     0.167 HD
BRANCH  22  24
ATOM     24  C   UNL A   1      28.986  30.517  22.652  1.00  0.00     0.085 C 
ATOM     25  C   UNL A   1      28.258  31.575  21.876  1.00  0.00     0.027 C 
ATOM     26  C   UNL A   1      28.285  31.633  23.374  1.00  0.00     0.027 C 
ENDBRANCH  22  24
ENDBRANCH  19  20
ENDBRANCH  17  19
ENDBRANCH  11  13
ENDBRANCH   4   6
ENDBRANCH   2   4
ENDBRANCH   1   2
BRANCH   1  27
ATOM     27  C   UNL A   1      34.537  34.684  32.658  1.00  0.00     0.274 C 
BRANCH  27  28
ATOM     28  C   UNL A   1      34.288  33.482  33.565  1.00  0.00     0.275 C 
BRANCH  28  29
ATOM     29  O   UNL A   1      35.090  32.375  33.123  1.00  0.00    -0.458 OA
BRANCH  29  30
ATOM     30  C   UNL A   1      36.322  32.278  33.675  1.00  0.00     0.338 C 
ATOM     31  O   UNL A   1      36.689  32.700  34.758  1.00  0.00    -0.246 OA
BRANCH  30  32
ATOM     32  C   UNL A   1      37.212  31.544  32.762  1.00  0.00     0.060 A 
ATOM     33  C   UNL A   1      38.077  30.580  33.267  1.00  0.00     0.016 A 
ATOM     34  C   UNL A   1      37.285  31.922  31.421  1.00  0.00     0.016 A 
ATOM     35  C   UNL A   1      39.094  30.075  32.456  1.00  0.00     0.010 A 
ATOM     36  C   UNL A   1      38.251  31.342  30.589  1.00  0.00     0.010 A 
ATOM     37  C   UNL A   1      39.209  30.455  31.111  1.00  0.00    -0.014 A 
BRANCH  37  38
ATOM     38  C   UNL A   1      40.356  29.981  30.278  1.00  0.00     0.031 A 
ATOM     39  C   UNL A   1      41.599  30.829  30.136  1.00  0.00     0.074 A 
ATOM     40  C   UNL A   1      40.309  28.782  29.663  1.00  0.00     0.049 A 
ATOM     41  N   UNL A   1      42.633  30.662  29.348  1.00  0.00    -0.248 NA
ATOM     42  C   UNL A   1      41.689  32.031  30.983  1.00  0.00     0.031 C 
ATOM     43  C   UNL A   1      39.212  27.820  29.771  1.00  0.00     0.029 A 
ATOM     44  N   UNL A   1      41.217  28.154  28.843  1.00  0.00    -0.354 N 
ATOM     45  C   UNL A   1      43.450  31.769  29.550  1.00  0.00     0.074 A 
ATOM     46  C   UNL A   1      42.802  32.599  30.540  1.00  0.00     0.031 C 
ATOM     47  C   UNL A   1      39.536  26.706  29.101  1.00  0.00     0.029 A 
ATOM     48  C   UNL A   1      40.808  26.910  28.417  1.00  0.00     0.049 A 
ATOM     49  H   UNL A   1      42.078  28.554  28.585  1.00  0.00     0.167 HD
ATOM     50  C   UNL A   1      44.634  32.066  28.964  1.00  0.00     0.031 A 
ATOM     51  C   UNL A   1      41.368  26.042  27.552  1.00  0.00     0.031 A 
ATOM     52  C   UNL A   1      45.328  31.201  28.049  1.00  0.00     0.049 A 
ATOM     53  C   UNL A   1      42.696  26.393  26.934  1.00  0.00     0.074 A 
ATOM     54  C   UNL A   1      46.540  31.412  27.414  1.00  0.00     0.029 A 
ATOM     55  N   UNL A   1      44.882  29.949  27.657  1.00  0.00    -0.354 N 
ATOM     56  N   UNL A   1      43.462  27.434  27.154  1.00  0.00    -0.248 NA
ATOM     57  C   UNL A   1      43.245  25.446  25.952  1.00  0.00     0.031 C 
ATOM     58  C   UNL A   1      46.817  30.296  26.617  1.00  0.00     0.029 A 
ATOM     59  C   UNL A   1      45.790  29.380  26.780  1.00  0.00     0.049 A 
ATOM     60  H   UNL A   1      44.044  29.527  27.957  1.00  0.00     0.167 HD
ATOM     61  C   UNL A   1      44.583  27.259  26.354  1.00  0.00     0.074 A 
ATOM     62  C   UNL A   1      44.424  25.987  25.683  1.00  0.00     0.031 C 
ATOM     63  C   UNL A   1      45.637  28.089  26.165  1.00  0.00     0.031 A 
BRANCH  50  64
ATOM     64  C   UNL A   1      45.244  33.407  29.261  1.00  0.00    -0.014 A 
ATOM     65  C   UNL A   1      45.183  34.465  28.343  1.00  0.00     0.009 A 
ATOM     66  C   UNL A   1      45.845  33.624  30.511  1.00  0.00     0.009 A 
ATOM     67  C   UNL A   1      45.734  35.709  28.665  1.00  0.00     0.001 A 
ATOM     68  C   UNL A   1      46.374  34.873  30.840  1.00  0.00     0.001 A 
ATOM     69  C   UNL A   1      46.324  35.913  29.914  1.00  0.00     0.000 A 
ENDBRANCH  50  64
BRANCH  51  70
ATOM     70  C   UNL A   1      40.665  24.765  27.220  1.00  0.00    -0.014 A 
ATOM     71  C   UNL A   1      41.108  23.545  27.748  1.00  0.00     0.009 A 
ATOM     72  C   UNL A   1      39.527  24.748  26.395  1.00  0.00     0.009 A 
ATOM     73  C   UNL A   1      40.431  22.352  27.484  1.00  0.00     0.001 A 
ATOM     74  C   UNL A   1      38.822  23.563  26.167  1.00  0.00     0.001 A 
ATOM     75  C   UNL A   1      39.275  22.365  26.711  1.00  0.00     0.000 A 
ENDBRANCH  51  70
BRANCH  63  76
ATOM     76  C   UNL A   1      46.716  27.624  25.229  1.00  0.00    -0.014 A 
ATOM     77  C   UNL A   1      47.695  26.711  25.654  1.00  0.00     0.009 A 
ATOM     78  C   UNL A   1      46.733  28.072  23.899  1.00  0.00     0.009 A 
ATOM     79  C   UNL A   1      48.693  26.289  24.776  1.00  0.00     0.001 A 
ATOM     80  C   UNL A   1      47.717  27.626  23.016  1.00  0.00     0.001 A 
ATOM     81  C   UNL A   1      48.702  26.743  23.458  1.00  0.00     0.000 A 
ENDBRANCH  63  76
ENDBRANCH  37  38
ENDBRANCH  30  32
ENDBRANCH  29  30
ENDBRANCH  28  29
ENDBRANCH  27  28
ENDBRANCH   1  27
TORSDOF 16
ENDMDL
MODEL 3
REMARK VINA RESULT:     -11.3      5.394     10.029
REMARK SMILES C[C@@H](C(=O)OCCOC(=O)c1ccc(-c2c3nc(c(-c4ccccc4)c4ccc([nH]4)c(-c4ccccc4)c4nc(c(-c5ccccc5)c5ccc2[nH]5)C=C4)C=C3)cc1)c1ccc(-c2cccc(OC(=O)NC3CC3)c2)c(F)c1
REMARK SMILES IDX 5 1 3 2 4 3 2 4 1 5 59 6 60 7 78 8 61 9 76 10 62 11 77 12
REMARK SMILES IDX 63 13 64 14 75 15 65 16 67 17 66 18 68 19 69 20 70 21 71 22
REMARK SMILES IDX 72 24 73 25 74 26 6 27 7 28 8 29 9 30 10 31 11 32 12 33
REMARK SMILES IDX 58 34 13 35 57 36 14 37 15 38 16 39 51 40 17 41 56 42 50 43
REMARK SMILES IDX 52 44 18 45 55 46 49 47 48 48 19 50 41 51 26 52 40 53 27 54
REMARK SMILES IDX 30 55 39 56 53 57 28 58 29 59 38 61 54 62 31 63 20 64 21 65
REMARK SMILES IDX 25 66 22 67 24 68 23 69 42 70 43 71 47 72 44 73 46 74 45 75
REMARK SMILES IDX 32 76 33 77 37 78 34 79 36 80 35 81
REMARK H PARENT 71 23 52 49 30 60
REMARK Flexibility Score: inf
ROOT
ATOM      1  O   UNL A   1      41.710  20.451  25.728  1.00  0.00    -0.462 OA
ENDROOT
BRANCH   1   2
ATOM      2  C   UNL A   1      41.003  20.957  26.777  1.00  0.00     0.313 C 
ATOM      3  O   UNL A   1      40.898  20.399  27.863  1.00  0.00    -0.252 OA
BRANCH   2   4
ATOM      4  C   UNL A   1      40.298  22.278  26.430  1.00  0.00     0.126 C 
ATOM      5  C   UNL A   1      40.450  23.355  27.508  1.00  0.00     0.025 C 
BRANCH   4   6
ATOM      6  C   UNL A   1      38.841  22.039  26.036  1.00  0.00    -0.031 A 
ATOM      7  C   UNL A   1      38.395  20.838  25.477  1.00  0.00     0.005 A 
ATOM      8  C   UNL A   1      37.911  23.079  26.161  1.00  0.00     0.044 A 
ATOM      9  C   UNL A   1      37.080  20.708  24.996  1.00  0.00     0.012 A 
ATOM     10  C   UNL A   1      36.602  22.937  25.688  1.00  0.00     0.131 A 
ATOM     11  C   UNL A   1      36.157  21.771  25.043  1.00  0.00     0.018 A 
ATOM     12  F   UNL A   1      35.779  23.983  25.858  1.00  0.00    -0.206 F 
BRANCH  11  13
ATOM     13  C   UNL A   1      34.839  21.683  24.348  1.00  0.00    -0.012 A 
ATOM     14  C   UNL A   1      34.247  22.799  23.726  1.00  0.00     0.009 A 
ATOM     15  C   UNL A   1      34.089  20.485  24.348  1.00  0.00     0.056 A 
ATOM     16  C   UNL A   1      32.967  22.735  23.160  1.00  0.00     0.004 A 
ATOM     17  C   UNL A   1      32.818  20.416  23.770  1.00  0.00     0.133 A 
ATOM     18  C   UNL A   1      32.251  21.542  23.183  1.00  0.00     0.047 A 
BRANCH  17  19
ATOM     19  O   UNL A   1      32.050  19.227  23.661  1.00  0.00    -0.410 OA
BRANCH  19  20
ATOM     20  C   UNL A   1      32.338  18.140  22.844  1.00  0.00     0.412 C 
ATOM     21  O   UNL A   1      32.315  18.135  21.618  1.00  0.00    -0.224 OA
ATOM     22  N   UNL A   1      32.649  16.984  23.518  1.00  0.00    -0.318 N 
ATOM     23  H   UNL A   1      32.744  16.193  22.940  1.00  0.00     0.167 HD
BRANCH  22  24
ATOM     24  C   UNL A   1      32.860  16.723  24.903  1.00  0.00     0.085 C 
ATOM     25  C   UNL A   1      32.754  15.404  25.610  1.00  0.00     0.027 C 
ATOM     26  C   UNL A   1      34.101  16.020  25.375  1.00  0.00     0.027 C 
ENDBRANCH  22  24
ENDBRANCH  19  20
ENDBRANCH  17  19
ENDBRANCH  11  13
ENDBRANCH   4   6
ENDBRANCH   2   4
ENDBRANCH   1   2
BRANCH   1  27
ATOM     27  C   UNL A   1      42.667  19.412  26.025  1.00  0.00     0.274 C 
BRANCH  27  28
ATOM     28  C   UNL A   1      43.933  19.602  25.193  1.00  0.00     0.275 C 
BRANCH  28  29
ATOM     29  O   UNL A   1      44.582  20.823  25.582  1.00  0.00    -0.458 OA
BRANCH  29  30
ATOM     30  C   UNL A   1      44.430  21.870  24.739  1.00  0.00     0.338 C 
ATOM     31  O   UNL A   1      44.540  21.872  23.524  1.00  0.00    -0.246 OA
BRANCH  30  32
ATOM     32  C   UNL A   1      44.080  23.073  25.509  1.00  0.00     0.060 A 
ATOM     33  C   UNL A   1      43.793  24.261  24.844  1.00  0.00     0.016 A 
ATOM     34  C   UNL A   1      44.180  23.053  26.900  1.00  0.00     0.016 A 
ATOM     35  C   UNL A   1      43.719  25.453  25.564  1.00  0.00     0.010 A 
ATOM     36  C   UNL A   1      44.013  24.240  27.624  1.00  0.00     0.010 A 
ATOM     37  C   UNL A   1      43.841  25.468  26.961  1.00  0.00    -0.014 A 
BRANCH  37  38
ATOM     38  C   UNL A   1      43.853  26.759  27.713  1.00  0.00     0.031 A 
ATOM     39  C   UNL A   1      42.556  27.407  28.141  1.00  0.00     0.074 A 
ATOM     40  C   UNL A   1      45.019  27.351  28.043  1.00  0.00     0.049 A 
ATOM     41  N   UNL A   1      42.352  28.589  28.668  1.00  0.00    -0.248 NA
ATOM     42  C   UNL A   1      41.322  26.629  27.939  1.00  0.00     0.031 C 
ATOM     43  C   UNL A   1      46.349  26.807  27.769  1.00  0.00     0.029 A 
ATOM     44  N   UNL A   1      45.276  28.531  28.702  1.00  0.00    -0.354 N 
ATOM     45  C   UNL A   1      40.974  28.722  28.788  1.00  0.00     0.074 A 
ATOM     46  C   UNL A   1      40.385  27.500  28.288  1.00  0.00     0.031 C 
ATOM     47  C   UNL A   1      47.274  27.614  28.308  1.00  0.00     0.029 A 
ATOM     48  C   UNL A   1      46.618  28.792  28.864  1.00  0.00     0.049 A 
ATOM     49  H   UNL A   1      44.568  29.132  29.029  1.00  0.00     0.167 HD
ATOM     50  C   UNL A   1      40.262  29.768  29.271  1.00  0.00     0.031 A 
ATOM     51  C   UNL A   1      47.257  29.865  29.369  1.00  0.00     0.031 A 
ATOM     52  C   UNL A   1      40.843  30.947  29.854  1.00  0.00     0.049 A 
ATOM     53  C   UNL A   1      46.436  31.002  29.919  1.00  0.00     0.074 A 
ATOM     54  C   UNL A   1      40.200  32.053  30.382  1.00  0.00     0.029 A 
ATOM     55  N   UNL A   1      42.204  31.161  30.007  1.00  0.00    -0.354 N 
ATOM     56  N   UNL A   1      45.134  31.099  30.042  1.00  0.00    -0.248 NA
ATOM     57  C   UNL A   1      47.170  32.178  30.408  1.00  0.00     0.031 C 
ATOM     58  C   UNL A   1      41.175  32.951  30.833  1.00  0.00     0.029 A 
ATOM     59  C   UNL A   1      42.421  32.387  30.611  1.00  0.00     0.049 A 
ATOM     60  H   UNL A   1      42.910  30.535  29.727  1.00  0.00     0.167 HD
ATOM     61  C   UNL A   1      44.897  32.332  30.633  1.00  0.00     0.074 A 
ATOM     62  C   UNL A   1      46.191  32.927  30.894  1.00  0.00     0.031 C 
ATOM     63  C   UNL A   1      43.716  32.936  30.910  1.00  0.00     0.031 A 
BRANCH  50  64
ATOM     64  C   UNL A   1      38.764  29.709  29.154  1.00  0.00    -0.014 A 
ATOM     65  C   UNL A   1      37.952  29.369  30.245  1.00  0.00     0.009 A 
ATOM     66  C   UNL A   1      38.160  30.056  27.936  1.00  0.00     0.009 A 
ATOM     67  C   UNL A   1      36.560  29.354  30.108  1.00  0.00     0.001 A 
ATOM     68  C   UNL A   1      36.770  30.063  27.808  1.00  0.00     0.001 A 
ATOM     69  C   UNL A   1      35.971  29.706  28.893  1.00  0.00     0.000 A 
ENDBRANCH  50  64
BRANCH  51  70
ATOM     70  C   UNL A   1      48.751  29.910  29.369  1.00  0.00    -0.014 A 
ATOM     71  C   UNL A   1      49.485  29.364  30.431  1.00  0.00     0.009 A 
ATOM     72  C   UNL A   1      49.467  30.471  28.297  1.00  0.00     0.009 A 
ATOM     73  C   UNL A   1      50.882  29.357  30.419  1.00  0.00     0.001 A 
ATOM     74  C   UNL A   1      50.863  30.424  28.262  1.00  0.00     0.001 A 
ATOM     75  C   UNL A   1      51.570  29.868  29.324  1.00  0.00     0.000 A 
ENDBRANCH  51  70
BRANCH  63  76
ATOM     76  C   UNL A   1      43.774  34.288  31.563  1.00  0.00    -0.014 A 
ATOM     77  C   UNL A   1      43.821  35.460  30.791  1.00  0.00     0.009 A 
ATOM     78  C   UNL A   1      43.744  34.393  32.962  1.00  0.00     0.009 A 
ATOM     79  C   UNL A   1      43.877  36.709  31.409  1.00  0.00     0.001 A 
ATOM     80  C   UNL A   1      43.774  35.646  33.576  1.00  0.00     0.001 A 
ATOM     81  C   UNL A   1      43.850  36.802  32.800  1.00  0.00     0.000 A 
ENDBRANCH  63  76
ENDBRANCH  37  38
ENDBRANCH  30  32
ENDBRANCH  29  30
ENDBRANCH  28  29
ENDBRANCH  27  28
ENDBRANCH   1  27
TORSDOF 16
ENDMDL
