MODEL 1
REMARK VINA RESULT:     -12.1      0.000      0.000
REMARK SMILES CCCC(=O)Nc1cccc(C(=O)N[C@@H](C(=O)OCCOC(=O)c2ccc(-c3c4nc(c(-c5ccccc5)c5ccc([nH]5)c(-c5ccccc5)c5nc(c(-c6ccccc6)c6ccc3[nH]6)C=C5)C=C4)cc2)C2=C(C)N=N[C@@H]2C)c1
REMARK SMILES IDX 18 1 16 2 17 3 15 4 14 5 12 6 13 7 11 9 7 10 8 11 79 12 9 13
REMARK SMILES IDX 10 14 6 15 4 16 5 17 3 19 2 20 1 21 72 22 73 23 77 24 74 25
REMARK SMILES IDX 75 26 76 27 78 28 19 29 20 30 21 31 22 32 23 33 24 34 25 35
REMARK SMILES IDX 71 36 26 37 70 38 27 39 28 40 29 41 64 42 30 43 69 44 63 45
REMARK SMILES IDX 65 46 31 47 68 48 62 49 61 50 32 52 54 53 39 54 53 55 40 56
REMARK SMILES IDX 43 57 52 58 66 59 41 60 42 61 51 63 67 64 44 65 33 66 34 67
REMARK SMILES IDX 38 68 35 69 37 70 36 71 55 72 56 73 60 74 57 75 59 76 58 77
REMARK SMILES IDX 45 78 46 79 50 80 47 81 49 82 48 83
REMARK H PARENT 14 8 6 18 65 51 43 62
REMARK Flexibility Score: inf
ROOT
ATOM      1  O   UNL A   1      34.580  22.759  25.772  1.00  0.00    -0.460 OA
ENDROOT
BRANCH   1   2
ATOM      2  C   UNL A   1      33.428  23.247  26.314  1.00  0.00     0.333 C 
ATOM      3  O   UNL A   1      32.900  22.796  27.325  1.00  0.00    -0.249 OA
BRANCH   2   4
ATOM      4  C   UNL A   1      32.838  24.420  25.475  1.00  0.00     0.223 C 
BRANCH   4   5
ATOM      5  N   UNL A   1      31.406  24.559  25.740  1.00  0.00    -0.335 N 
ATOM      6  C   UNL A   1      30.628  25.667  25.989  1.00  0.00     0.252 C 
ATOM      7  O   UNL A   1      29.459  25.510  26.329  1.00  0.00    -0.269 OA
ATOM      8  H   UNL A   1      30.910  23.709  25.739  1.00  0.00     0.165 HD
BRANCH   6   9
ATOM      9  C   UNL A   1      31.129  27.042  25.751  1.00  0.00     0.041 A 
ATOM     10  C   UNL A   1      31.314  28.988  24.358  1.00  0.00     0.041 A 
ATOM     11  C   UNL A   1      31.610  29.774  25.472  1.00  0.00     0.026 A 
ATOM     12  C   UNL A   1      31.207  27.605  24.479  1.00  0.00     0.040 A 
ATOM     13  C   UNL A   1      31.729  29.178  26.726  1.00  0.00     0.003 A 
ATOM     14  C   UNL A   1      31.453  27.818  26.873  1.00  0.00     0.014 A 
BRANCH  10  15
ATOM     15  N   UNL A   1      31.021  29.545  23.110  1.00  0.00    -0.326 N 
ATOM     16  C   UNL A   1      29.831  29.457  22.430  1.00  0.00     0.224 C 
ATOM     17  O   UNL A   1      29.794  29.861  21.265  1.00  0.00    -0.275 OA
ATOM     18  H   UNL A   1      31.741  30.053  22.674  1.00  0.00     0.169 HD
BRANCH  16  19
ATOM     19  C   UNL A   1      28.630  28.750  23.043  1.00  0.00     0.100 C 
BRANCH  19  20
ATOM     20  C   UNL A   1      27.410  29.669  23.141  1.00  0.00     0.006 C 
ATOM     21  C   UNL A   1      27.728  31.075  23.627  1.00  0.00     0.004 C 
ENDBRANCH  19  20
ENDBRANCH  16  19
ENDBRANCH  10  15
ENDBRANCH   6   9
ENDBRANCH   4   5
BRANCH   4  22
ATOM     22  C   UNL A   1      33.141  24.328  24.015  1.00  0.00     0.012 C 
ATOM     23  C   UNL A   1      33.602  25.291  23.197  1.00  0.00     0.064 C 
ATOM     24  C   UNL A   1      33.013  23.121  23.141  1.00  0.00     0.156 C 
ATOM     25  C   UNL A   1      34.012  26.696  23.499  1.00  0.00     0.069 C 
ATOM     26  N   UNL A   1      33.755  24.854  21.907  1.00  0.00    -0.160 NA
ATOM     27  N   UNL A   1      33.484  23.630  21.823  1.00  0.00    -0.181 NA
ATOM     28  C   UNL A   1      31.606  22.581  22.926  1.00  0.00     0.040 C 
ENDBRANCH   4  22
ENDBRANCH   2   4
ENDBRANCH   1   2
BRANCH   1  29
ATOM     29  C   UNL A   1      34.984  21.437  26.183  1.00  0.00     0.274 C 
BRANCH  29  30
ATOM     30  C   UNL A   1      35.904  20.811  25.139  1.00  0.00     0.275 C 
BRANCH  30  31
ATOM     31  O   UNL A   1      37.004  21.700  24.867  1.00  0.00    -0.458 OA
BRANCH  31  32
ATOM     32  C   UNL A   1      38.186  21.367  25.422  1.00  0.00     0.338 C 
ATOM     33  O   UNL A   1      38.825  20.329  25.241  1.00  0.00    -0.246 OA
BRANCH  32  34
ATOM     34  C   UNL A   1      38.707  22.466  26.248  1.00  0.00     0.060 A 
ATOM     35  C   UNL A   1      38.125  23.724  26.144  1.00  0.00     0.016 A 
ATOM     36  C   UNL A   1      39.899  22.315  26.953  1.00  0.00     0.016 A 
ATOM     37  C   UNL A   1      38.817  24.845  26.598  1.00  0.00     0.010 A 
ATOM     38  C   UNL A   1      40.534  23.439  27.503  1.00  0.00     0.010 A 
ATOM     39  C   UNL A   1      40.051  24.737  27.251  1.00  0.00    -0.014 A 
BRANCH  39  40
ATOM     40  C   UNL A   1      40.895  25.955  27.504  1.00  0.00     0.031 A 
ATOM     41  C   UNL A   1      40.473  26.953  28.565  1.00  0.00     0.074 A 
ATOM     42  C   UNL A   1      42.086  26.167  26.900  1.00  0.00     0.049 A 
ATOM     43  N   UNL A   1      40.891  28.179  28.768  1.00  0.00    -0.248 NA
ATOM     44  C   UNL A   1      39.423  26.524  29.504  1.00  0.00     0.031 C 
ATOM     45  C   UNL A   1      42.738  25.277  25.939  1.00  0.00     0.029 A 
ATOM     46  N   UNL A   1      42.991  27.193  27.056  1.00  0.00    -0.354 N 
ATOM     47  C   UNL A   1      40.067  28.702  29.758  1.00  0.00     0.074 A 
ATOM     48  C   UNL A   1      39.148  27.652  30.141  1.00  0.00     0.031 C 
ATOM     49  C   UNL A   1      43.977  25.729  25.688  1.00  0.00     0.029 A 
ATOM     50  C   UNL A   1      44.161  27.011  26.359  1.00  0.00     0.049 A 
ATOM     51  H   UNL A   1      42.815  27.984  27.614  1.00  0.00     0.167 HD
ATOM     52  C   UNL A   1      40.062  29.949  30.290  1.00  0.00     0.031 A 
ATOM     53  C   UNL A   1      45.248  27.797  26.236  1.00  0.00     0.031 A 
ATOM     54  C   UNL A   1      41.057  30.954  30.025  1.00  0.00     0.049 A 
ATOM     55  C   UNL A   1      45.251  29.166  26.855  1.00  0.00     0.074 A 
ATOM     56  C   UNL A   1      41.125  32.252  30.500  1.00  0.00     0.029 A 
ATOM     57  N   UNL A   1      42.193  30.746  29.263  1.00  0.00    -0.354 N 
ATOM     58  N   UNL A   1      44.356  29.729  27.628  1.00  0.00    -0.248 NA
ATOM     59  C   UNL A   1      46.403  30.027  26.542  1.00  0.00     0.031 C 
ATOM     60  C   UNL A   1      42.303  32.835  30.015  1.00  0.00     0.029 A 
ATOM     61  C   UNL A   1      42.979  31.886  29.267  1.00  0.00     0.049 A 
ATOM     62  H   UNL A   1      42.411  29.912  28.788  1.00  0.00     0.167 HD
ATOM     63  C   UNL A   1      44.832  31.007  27.889  1.00  0.00     0.074 A 
ATOM     64  C   UNL A   1      46.111  31.127  27.221  1.00  0.00     0.031 C 
ATOM     65  C   UNL A   1      44.251  31.998  28.606  1.00  0.00     0.031 A 
BRANCH  52  66
ATOM     66  C   UNL A   1      38.896  30.318  31.163  1.00  0.00    -0.014 A 
ATOM     67  C   UNL A   1      37.724  30.889  30.649  1.00  0.00     0.009 A 
ATOM     68  C   UNL A   1      38.983  30.069  32.544  1.00  0.00     0.009 A 
ATOM     69  C   UNL A   1      36.679  31.242  31.508  1.00  0.00     0.001 A 
ATOM     70  C   UNL A   1      37.928  30.397  33.394  1.00  0.00     0.001 A 
ATOM     71  C   UNL A   1      36.780  30.993  32.877  1.00  0.00     0.000 A 
ENDBRANCH  52  66
BRANCH  53  72
ATOM     72  C   UNL A   1      46.419  27.339  25.441  1.00  0.00    -0.014 A 
ATOM     73  C   UNL A   1      47.334  26.430  25.994  1.00  0.00     0.009 A 
ATOM     74  C   UNL A   1      46.639  27.821  24.142  1.00  0.00     0.009 A 
ATOM     75  C   UNL A   1      48.454  26.022  25.264  1.00  0.00     0.001 A 
ATOM     76  C   UNL A   1      47.742  27.387  23.404  1.00  0.00     0.001 A 
ATOM     77  C   UNL A   1      48.652  26.495  23.967  1.00  0.00     0.000 A 
ENDBRANCH  53  72
BRANCH  65  78
ATOM     78  C   UNL A   1      45.009  33.287  28.731  1.00  0.00    -0.014 A 
ATOM     79  C   UNL A   1      44.771  34.355  27.852  1.00  0.00     0.009 A 
ATOM     80  C   UNL A   1      45.962  33.439  29.750  1.00  0.00     0.009 A 
ATOM     81  C   UNL A   1      45.499  35.541  27.972  1.00  0.00     0.001 A 
ATOM     82  C   UNL A   1      46.673  34.633  29.878  1.00  0.00     0.001 A 
ATOM     83  C   UNL A   1      46.447  35.679  28.984  1.00  0.00     0.000 A 
ENDBRANCH  65  78
ENDBRANCH  39  40
ENDBRANCH  32  34
ENDBRANCH  31  32
ENDBRANCH  30  31
ENDBRANCH  29  30
ENDBRANCH   1  29
TORSDOF 17
ENDMDL
MODEL 2
REMARK VINA RESULT:     -12.1      3.624      8.912
REMARK SMILES CCCC(=O)Nc1cccc(C(=O)N[C@@H](C(=O)OCCOC(=O)c2ccc(-c3c4nc(c(-c5ccccc5)c5ccc([nH]5)c(-c5ccccc5)c5nc(c(-c6ccccc6)c6ccc3[nH]6)C=C5)C=C4)cc2)C2=C(C)N=N[C@@H]2C)c1
REMARK SMILES IDX 18 1 16 2 17 3 15 4 14 5 12 6 13 7 11 9 7 10 8 11 79 12 9 13
REMARK SMILES IDX 10 14 6 15 4 16 5 17 3 19 2 20 1 21 72 22 73 23 77 24 74 25
REMARK SMILES IDX 75 26 76 27 78 28 19 29 20 30 21 31 22 32 23 33 24 34 25 35
REMARK SMILES IDX 71 36 26 37 70 38 27 39 28 40 29 41 64 42 30 43 69 44 63 45
REMARK SMILES IDX 65 46 31 47 68 48 62 49 61 50 32 52 54 53 39 54 53 55 40 56
REMARK SMILES IDX 43 57 52 58 66 59 41 60 42 61 51 63 67 64 44 65 33 66 34 67
REMARK SMILES IDX 38 68 35 69 37 70 36 71 55 72 56 73 60 74 57 75 59 76 58 77
REMARK SMILES IDX 45 78 46 79 50 80 47 81 49 82 48 83
REMARK H PARENT 14 8 6 18 65 51 43 62
REMARK Flexibility Score: inf
ROOT
ATOM      1  O   UNL A   1      33.166  27.913  24.661  1.00  0.00    -0.460 OA
ENDROOT
BRANCH   1   2
ATOM      2  C   UNL A   1      33.337  27.030  23.635  1.00  0.00     0.333 C 
ATOM      3  O   UNL A   1      33.624  27.357  22.489  1.00  0.00    -0.249 OA
BRANCH   2   4
ATOM      4  C   UNL A   1      33.084  25.559  24.081  1.00  0.00     0.223 C 
BRANCH   4   5
ATOM      5  N   UNL A   1      32.925  24.696  22.910  1.00  0.00    -0.335 N 
ATOM      6  C   UNL A   1      33.459  23.465  22.606  1.00  0.00     0.252 C 
ATOM      7  O   UNL A   1      33.288  23.004  21.481  1.00  0.00    -0.269 OA
ATOM      8  H   UNL A   1      32.330  25.062  22.216  1.00  0.00     0.165 HD
BRANCH   6   9
ATOM      9  C   UNL A   1      34.139  22.634  23.628  1.00  0.00     0.041 A 
ATOM     10  C   UNL A   1      34.142  20.773  25.145  1.00  0.00     0.041 A 
ATOM     11  C   UNL A   1      35.537  20.768  25.157  1.00  0.00     0.026 A 
ATOM     12  C   UNL A   1      33.445  21.787  24.490  1.00  0.00     0.040 A 
ATOM     13  C   UNL A   1      36.238  21.743  24.449  1.00  0.00     0.003 A 
ATOM     14  C   UNL A   1      35.540  22.654  23.654  1.00  0.00     0.014 A 
BRANCH  10  15
ATOM     15  N   UNL A   1      33.388  19.733  25.695  1.00  0.00    -0.326 N 
ATOM     16  C   UNL A   1      33.088  18.533  25.100  1.00  0.00     0.224 C 
ATOM     17  O   UNL A   1      32.271  17.794  25.656  1.00  0.00    -0.275 OA
ATOM     18  H   UNL A   1      33.037  19.876  26.602  1.00  0.00     0.169 HD
BRANCH  16  19
ATOM     19  C   UNL A   1      33.637  18.182  23.724  1.00  0.00     0.100 C 
BRANCH  19  20
ATOM     20  C   UNL A   1      32.529  18.079  22.672  1.00  0.00     0.006 C 
ATOM     21  C   UNL A   1      32.130  19.412  22.058  1.00  0.00     0.004 C 
ENDBRANCH  19  20
ENDBRANCH  16  19
ENDBRANCH  10  15
ENDBRANCH   6   9
ENDBRANCH   4   5
BRANCH   4  22
ATOM     22  C   UNL A   1      31.959  25.409  25.055  1.00  0.00     0.012 C 
ATOM     23  C   UNL A   1      31.937  24.704  26.199  1.00  0.00     0.064 C 
ATOM     24  C   UNL A   1      30.605  26.039  24.973  1.00  0.00     0.156 C 
ATOM     25  C   UNL A   1      33.020  23.927  26.873  1.00  0.00     0.069 C 
ATOM     26  N   UNL A   1      30.727  24.783  26.840  1.00  0.00    -0.160 NA
ATOM     27  N   UNL A   1      29.953  25.557  26.222  1.00  0.00    -0.181 NA
ATOM     28  C   UNL A   1      29.718  25.599  23.816  1.00  0.00     0.040 C 
ENDBRANCH   4  22
ENDBRANCH   2   4
ENDBRANCH   1   2
BRANCH   1  29
ATOM     29  C   UNL A   1      32.540  29.171  24.340  1.00  0.00     0.274 C 
BRANCH  29  30
ATOM     30  C   UNL A   1      31.547  29.567  25.428  1.00  0.00     0.275 C 
BRANCH  30  31
ATOM     31  O   UNL A   1      32.224  29.647  26.696  1.00  0.00    -0.458 OA
BRANCH  31  32
ATOM     32  C   UNL A   1      32.780  30.836  26.998  1.00  0.00     0.338 C 
ATOM     33  O   UNL A   1      32.206  31.922  27.092  1.00  0.00    -0.246 OA
BRANCH  32  34
ATOM     34  C   UNL A   1      34.211  30.685  27.302  1.00  0.00     0.060 A 
ATOM     35  C   UNL A   1      34.771  29.413  27.305  1.00  0.00     0.016 A 
ATOM     36  C   UNL A   1      34.945  31.762  27.796  1.00  0.00     0.016 A 
ATOM     37  C   UNL A   1      35.986  29.195  27.952  1.00  0.00     0.010 A 
ATOM     38  C   UNL A   1      36.217  31.546  28.347  1.00  0.00     0.010 A 
ATOM     39  C   UNL A   1      36.719  30.243  28.521  1.00  0.00    -0.014 A 
BRANCH  39  40
ATOM     40  C   UNL A   1      37.886  29.962  29.425  1.00  0.00     0.031 A 
ATOM     41  C   UNL A   1      39.134  29.311  28.859  1.00  0.00     0.074 A 
ATOM     42  C   UNL A   1      37.930  30.354  30.718  1.00  0.00     0.049 A 
ATOM     43  N   UNL A   1      40.136  28.746  29.487  1.00  0.00    -0.248 NA
ATOM     44  C   UNL A   1      39.256  29.268  27.393  1.00  0.00     0.031 C 
ATOM     45  C   UNL A   1      36.893  31.099  31.431  1.00  0.00     0.029 A 
ATOM     46  N   UNL A   1      38.931  30.218  31.654  1.00  0.00    -0.354 N 
ATOM     47  C   UNL A   1      40.926  28.169  28.499  1.00  0.00     0.074 A 
ATOM     48  C   UNL A   1      40.309  28.481  27.229  1.00  0.00     0.031 C 
ATOM     49  C   UNL A   1      37.356  31.457  32.639  1.00  0.00     0.029 A 
ATOM     50  C   UNL A   1      38.668  30.852  32.843  1.00  0.00     0.049 A 
ATOM     51  H   UNL A   1      39.758  29.712  31.486  1.00  0.00     0.167 HD
ATOM     52  C   UNL A   1      42.055  27.430  28.636  1.00  0.00     0.031 A 
ATOM     53  C   UNL A   1      39.376  30.916  33.988  1.00  0.00     0.031 A 
ATOM     54  C   UNL A   1      42.757  27.234  29.876  1.00  0.00     0.049 A 
ATOM     55  C   UNL A   1      40.644  30.121  34.123  1.00  0.00     0.074 A 
ATOM     56  C   UNL A   1      43.896  26.486  30.119  1.00  0.00     0.029 A 
ATOM     57  N   UNL A   1      42.419  27.846  31.071  1.00  0.00    -0.354 N 
ATOM     58  N   UNL A   1      41.273  29.404  33.226  1.00  0.00    -0.248 NA
ATOM     59  C   UNL A   1      41.275  30.111  35.453  1.00  0.00     0.031 C 
ATOM     60  C   UNL A   1      44.243  26.639  31.468  1.00  0.00     0.029 A 
ATOM     61  C   UNL A   1      43.337  27.508  32.051  1.00  0.00     0.049 A 
ATOM     62  H   UNL A   1      41.642  28.436  31.205  1.00  0.00     0.167 HD
ATOM     63  C   UNL A   1      42.367  28.855  33.882  1.00  0.00     0.074 A 
ATOM     64  C   UNL A   1      42.337  29.347  35.242  1.00  0.00     0.031 C 
ATOM     65  C   UNL A   1      43.305  28.004  33.400  1.00  0.00     0.031 A 
BRANCH  52  66
ATOM     66  C   UNL A   1      42.561  26.717  27.414  1.00  0.00    -0.014 A 
ATOM     67  C   UNL A   1      43.530  27.271  26.568  1.00  0.00     0.009 A 
ATOM     68  C   UNL A   1      42.049  25.441  27.120  1.00  0.00     0.009 A 
ATOM     69  C   UNL A   1      43.945  26.579  25.426  1.00  0.00     0.001 A 
ATOM     70  C   UNL A   1      42.485  24.741  25.996  1.00  0.00     0.001 A 
ATOM     71  C   UNL A   1      43.425  25.316  25.143  1.00  0.00     0.000 A 
ENDBRANCH  52  66
BRANCH  53  72
ATOM     72  C   UNL A   1      38.877  31.720  35.135  1.00  0.00    -0.014 A 
ATOM     73  C   UNL A   1      39.103  33.105  35.177  1.00  0.00     0.009 A 
ATOM     74  C   UNL A   1      38.196  31.110  36.199  1.00  0.00     0.009 A 
ATOM     75  C   UNL A   1      38.666  33.860  36.268  1.00  0.00     0.001 A 
ATOM     76  C   UNL A   1      37.733  31.872  37.273  1.00  0.00     0.001 A 
ATOM     77  C   UNL A   1      37.975  33.244  37.311  1.00  0.00     0.000 A 
ENDBRANCH  53  72
BRANCH  65  78
ATOM     78  C   UNL A   1      44.392  27.578  34.343  1.00  0.00    -0.014 A 
ATOM     79  C   UNL A   1      44.256  26.423  35.129  1.00  0.00     0.009 A 
ATOM     80  C   UNL A   1      45.570  28.334  34.435  1.00  0.00     0.009 A 
ATOM     81  C   UNL A   1      45.271  26.052  36.014  1.00  0.00     0.001 A 
ATOM     82  C   UNL A   1      46.590  27.948  35.307  1.00  0.00     0.001 A 
ATOM     83  C   UNL A   1      46.435  26.813  36.101  1.00  0.00     0.000 A 
ENDBRANCH  65  78
ENDBRANCH  39  40
ENDBRANCH  32  34
ENDBRANCH  31  32
ENDBRANCH  30  31
ENDBRANCH  29  30
ENDBRANCH   1  29
TORSDOF 17
ENDMDL
MODEL 3
REMARK VINA RESULT:     -11.7      1.765      6.332
REMARK SMILES CCCC(=O)Nc1cccc(C(=O)N[C@@H](C(=O)OCCOC(=O)c2ccc(-c3c4nc(c(-c5ccccc5)c5ccc([nH]5)c(-c5ccccc5)c5nc(c(-c6ccccc6)c6ccc3[nH]6)C=C5)C=C4)cc2)C2=C(C)N=N[C@@H]2C)c1
REMARK SMILES IDX 18 1 16 2 17 3 15 4 14 5 12 6 13 7 11 9 7 10 8 11 79 12 9 13
REMARK SMILES IDX 10 14 6 15 4 16 5 17 3 19 2 20 1 21 72 22 73 23 77 24 74 25
REMARK SMILES IDX 75 26 76 27 78 28 19 29 20 30 21 31 22 32 23 33 24 34 25 35
REMARK SMILES IDX 71 36 26 37 70 38 27 39 28 40 29 41 64 42 30 43 69 44 63 45
REMARK SMILES IDX 65 46 31 47 68 48 62 49 61 50 32 52 54 53 39 54 53 55 40 56
REMARK SMILES IDX 43 57 52 58 66 59 41 60 42 61 51 63 67 64 44 65 33 66 34 67
REMARK SMILES IDX 38 68 35 69 37 70 36 71 55 72 56 73 60 74 57 75 59 76 58 77
REMARK SMILES IDX 45 78 46 79 50 80 47 81 49 82 48 83
REMARK H PARENT 14 8 6 18 65 51 43 62
REMARK Flexibility Score: inf
ROOT
ATOM      1  O   UNL A   1      34.931  22.369  25.569  1.00  0.00    -0.460 OA
ENDROOT
BRANCH   1   2
ATOM      2  C   UNL A   1      33.938  21.613  26.119  1.00  0.00     0.333 C 
ATOM      3  O   UNL A   1      34.009  21.089  27.225  1.00  0.00    -0.249 OA
BRANCH   2   4
ATOM      4  C   UNL A   1      32.720  21.458  25.160  1.00  0.00     0.223 C 
BRANCH   4   5
ATOM      5  N   UNL A   1      31.469  21.574  25.910  1.00  0.00    -0.335 N 
ATOM      6  C   UNL A   1      30.654  22.654  26.161  1.00  0.00     0.252 C 
ATOM      7  O   UNL A   1      29.722  22.525  26.949  1.00  0.00    -0.269 OA
ATOM      8  H   UNL A   1      31.155  20.729  26.305  1.00  0.00     0.165 HD
BRANCH   6   9
ATOM      9  C   UNL A   1      30.802  23.932  25.424  1.00  0.00     0.041 A 
ATOM     10  C   UNL A   1      31.300  25.137  23.408  1.00  0.00     0.041 A 
ATOM     11  C   UNL A   1      30.601  26.247  23.884  1.00  0.00     0.026 A 
ATOM     12  C   UNL A   1      31.514  24.033  24.230  1.00  0.00     0.040 A 
ATOM     13  C   UNL A   1      30.051  26.222  25.165  1.00  0.00     0.003 A 
ATOM     14  C   UNL A   1      30.120  25.051  25.921  1.00  0.00     0.014 A 
BRANCH  10  15
ATOM     15  N   UNL A   1      31.728  25.039  22.082  1.00  0.00    -0.326 N 
ATOM     16  C   UNL A   1      32.853  25.608  21.538  1.00  0.00     0.224 C 
ATOM     17  O   UNL A   1      32.996  25.563  20.314  1.00  0.00    -0.275 OA
ATOM     18  H   UNL A   1      31.166  24.506  21.475  1.00  0.00     0.169 HD
BRANCH  16  19
ATOM     19  C   UNL A   1      33.827  26.397  22.402  1.00  0.00     0.100 C 
BRANCH  19  20
ATOM     20  C   UNL A   1      33.799  27.894  22.080  1.00  0.00     0.006 C 
ATOM     21  C   UNL A   1      33.075  28.739  23.116  1.00  0.00     0.004 C 
ENDBRANCH  19  20
ENDBRANCH  16  19
ENDBRANCH  10  15
ENDBRANCH   6   9
ENDBRANCH   4   5
BRANCH   4  22
ATOM     22  C   UNL A   1      32.768  20.223  24.320  1.00  0.00     0.012 C 
ATOM     23  C   UNL A   1      32.353  20.062  23.052  1.00  0.00     0.064 C 
ATOM     24  C   UNL A   1      33.315  18.887  24.711  1.00  0.00     0.156 C 
ATOM     25  C   UNL A   1      31.794  21.057  22.087  1.00  0.00     0.069 C 
ATOM     26  N   UNL A   1      32.541  18.782  22.597  1.00  0.00    -0.160 NA
ATOM     27  N   UNL A   1      33.121  18.087  23.469  1.00  0.00    -0.181 NA
ATOM     28  C   UNL A   1      32.585  18.151  25.826  1.00  0.00     0.040 C 
ENDBRANCH   4  22
ENDBRANCH   2   4
ENDBRANCH   1   2
BRANCH   1  29
ATOM     29  C   UNL A   1      35.680  21.775  24.490  1.00  0.00     0.274 C 
BRANCH  29  30
ATOM     30  C   UNL A   1      36.800  20.895  25.037  1.00  0.00     0.275 C 
BRANCH  30  31
ATOM     31  O   UNL A   1      38.066  21.560  24.864  1.00  0.00    -0.458 OA
BRANCH  31  32
ATOM     32  C   UNL A   1      39.015  21.273  25.777  1.00  0.00     0.338 C 
ATOM     33  O   UNL A   1      39.626  20.211  25.905  1.00  0.00    -0.246 OA
BRANCH  32  34
ATOM     34  C   UNL A   1      39.324  22.451  26.600  1.00  0.00     0.060 A 
ATOM     35  C   UNL A   1      38.589  23.616  26.418  1.00  0.00     0.016 A 
ATOM     36  C   UNL A   1      40.473  22.479  27.389  1.00  0.00     0.016 A 
ATOM     37  C   UNL A   1      39.091  24.831  26.881  1.00  0.00     0.010 A 
ATOM     38  C   UNL A   1      40.911  23.692  27.943  1.00  0.00     0.010 A 
ATOM     39  C   UNL A   1      40.279  24.906  27.618  1.00  0.00    -0.014 A 
BRANCH  39  40
ATOM     40  C   UNL A   1      40.933  26.233  27.888  1.00  0.00     0.031 A 
ATOM     41  C   UNL A   1      42.216  26.596  27.167  1.00  0.00     0.074 A 
ATOM     42  C   UNL A   1      40.380  27.182  28.675  1.00  0.00     0.049 A 
ATOM     43  N   UNL A   1      43.079  27.548  27.432  1.00  0.00    -0.248 NA
ATOM     44  C   UNL A   1      42.592  25.763  26.013  1.00  0.00     0.031 C 
ATOM     45  C   UNL A   1      39.094  27.090  29.367  1.00  0.00     0.029 A 
ATOM     46  N   UNL A   1      40.821  28.450  28.981  1.00  0.00    -0.354 N 
ATOM     47  C   UNL A   1      44.150  27.339  26.570  1.00  0.00     0.074 A 
ATOM     48  C   UNL A   1      43.817  26.195  25.751  1.00  0.00     0.031 C 
ATOM     49  C   UNL A   1      38.797  28.282  29.909  1.00  0.00     0.029 A 
ATOM     50  C   UNL A   1      39.928  29.184  29.724  1.00  0.00     0.049 A 
ATOM     51  H   UNL A   1      41.696  28.798  28.694  1.00  0.00     0.167 HD
ATOM     52  C   UNL A   1      45.315  28.026  26.480  1.00  0.00     0.031 A 
ATOM     53  C   UNL A   1      40.015  30.428  30.235  1.00  0.00     0.031 A 
ATOM     54  C   UNL A   1      45.600  29.248  27.184  1.00  0.00     0.049 A 
ATOM     55  C   UNL A   1      41.298  31.199  30.104  1.00  0.00     0.074 A 
ATOM     56  C   UNL A   1      46.758  30.006  27.173  1.00  0.00     0.029 A 
ATOM     57  N   UNL A   1      44.687  29.925  27.976  1.00  0.00    -0.354 N 
ATOM     58  N   UNL A   1      42.390  30.888  29.450  1.00  0.00    -0.248 NA
ATOM     59  C   UNL A   1      41.373  32.479  30.827  1.00  0.00     0.031 C 
ATOM     60  C   UNL A   1      46.549  31.139  27.969  1.00  0.00     0.029 A 
ATOM     61  C   UNL A   1      45.249  31.099  28.445  1.00  0.00     0.049 A 
ATOM     62  H   UNL A   1      43.773  29.616  28.175  1.00  0.00     0.167 HD
ATOM     63  C   UNL A   1      43.279  31.928  29.685  1.00  0.00     0.074 A 
ATOM     64  C   UNL A   1      42.591  32.895  30.513  1.00  0.00     0.031 C 
ATOM     65  C   UNL A   1      44.560  32.059  29.264  1.00  0.00     0.031 A 
BRANCH  52  66
ATOM     66  C   UNL A   1      46.403  27.426  25.634  1.00  0.00    -0.014 A 
ATOM     67  C   UNL A   1      47.208  26.372  26.084  1.00  0.00     0.009 A 
ATOM     68  C   UNL A   1      46.608  27.936  24.340  1.00  0.00     0.009 A 
ATOM     69  C   UNL A   1      48.226  25.868  25.269  1.00  0.00     0.001 A 
ATOM     70  C   UNL A   1      47.606  27.413  23.519  1.00  0.00     0.001 A 
ATOM     71  C   UNL A   1      48.423  26.386  23.988  1.00  0.00     0.000 A 
ENDBRANCH  52  66
BRANCH  53  72
ATOM     72  C   UNL A   1      38.869  31.014  30.980  1.00  0.00    -0.014 A 
ATOM     73  C   UNL A   1      37.899  31.769  30.301  1.00  0.00     0.009 A 
ATOM     74  C   UNL A   1      38.748  30.842  32.367  1.00  0.00     0.009 A 
ATOM     75  C   UNL A   1      36.839  32.350  31.001  1.00  0.00     0.001 A 
ATOM     76  C   UNL A   1      37.670  31.398  33.058  1.00  0.00     0.001 A 
ATOM     77  C   UNL A   1      36.721  32.157  32.377  1.00  0.00     0.000 A 
ENDBRANCH  53  72
BRANCH  65  78
ATOM     78  C   UNL A   1      45.288  33.308  29.666  1.00  0.00    -0.014 A 
ATOM     79  C   UNL A   1      46.036  33.360  30.852  1.00  0.00     0.009 A 
ATOM     80  C   UNL A   1      45.235  34.441  28.840  1.00  0.00     0.009 A 
ATOM     81  C   UNL A   1      46.692  34.537  31.219  1.00  0.00     0.001 A 
ATOM     82  C   UNL A   1      45.908  35.610  29.201  1.00  0.00     0.001 A 
ATOM     83  C   UNL A   1      46.628  35.658  30.394  1.00  0.00     0.000 A 
ENDBRANCH  65  78
ENDBRANCH  39  40
ENDBRANCH  32  34
ENDBRANCH  31  32
ENDBRANCH  30  31
ENDBRANCH  29  30
ENDBRANCH   1  29
TORSDOF 17
ENDMDL
