MODEL 1
REMARK VINA RESULT:     -10.9      0.000      0.000
REMARK SMILES Cc1cc([C@H](C)NC(=O)N2CC[C@H](C(=O)OCCOC(=O)c3ccc(-c4c5nc(c(-c6ccccc6)c6ccc([nH]6)c(-c6ccccc6)c6nc(c(-c7ccccc7)c7ccc4[nH]7)C=C6)C=C5)cc3)[C@@H]2C)c(C)s1
REMARK SMILES IDX 17 1 16 2 14 3 15 4 13 5 10 6 11 7 70 8 12 9 71 10 8 11 7 12
REMARK SMILES IDX 9 14 5 15 6 16 4 17 1 18 2 19 3 20 74 21 72 22 73 23 18 24
REMARK SMILES IDX 19 25 20 26 21 27 22 28 23 29 69 30 24 31 68 32 25 33 26 34
REMARK SMILES IDX 27 35 62 36 28 37 67 38 61 39 63 40 29 41 66 42 60 43 59 44
REMARK SMILES IDX 30 46 52 47 37 48 51 49 38 50 41 51 50 52 64 53 39 54 40 55
REMARK SMILES IDX 49 57 65 58 42 59 31 60 32 61 36 62 33 63 35 64 34 65 53 66
REMARK SMILES IDX 54 67 58 68 55 69 57 70 56 71 43 72 44 73 48 74 45 75 47 76
REMARK SMILES IDX 46 77
REMARK H PARENT 7 13 63 45 41 56
REMARK Flexibility Score: inf
ROOT
ATOM      1  C   UNL A   1      30.938  29.702  24.372  1.00  0.00     0.274 C 
ENDROOT
BRANCH   1   2
ATOM      2  O   UNL A   1      31.679  28.928  23.398  1.00  0.00    -0.462 OA
BRANCH   2   3
ATOM      3  C   UNL A   1      30.943  28.184  22.521  1.00  0.00     0.311 C 
ATOM      4  O   UNL A   1      30.001  28.609  21.867  1.00  0.00    -0.252 OA
BRANCH   3   5
ATOM      5  C   UNL A   1      31.420  26.734  22.510  1.00  0.00     0.123 C 
ATOM      6  N   UNL A   1      31.864  25.758  24.662  1.00  0.00    -0.321 N 
ATOM      7  C   UNL A   1      33.021  26.551  24.277  1.00  0.00     0.122 C 
ATOM      8  C   UNL A   1      30.841  25.808  23.607  1.00  0.00     0.098 C 
ATOM      9  C   UNL A   1      32.928  26.660  22.764  1.00  0.00     0.039 C 
ATOM     10  C   UNL A   1      29.474  26.239  24.103  1.00  0.00     0.032 C 
BRANCH   6  11
ATOM     11  C   UNL A   1      31.835  25.215  25.914  1.00  0.00     0.318 C 
ATOM     12  N   UNL A   1      32.245  23.949  26.154  1.00  0.00    -0.331 N 
ATOM     13  H   UNL A   1      31.648  23.407  26.719  1.00  0.00     0.165 HD
ATOM     14  O   UNL A   1      31.402  25.849  26.879  1.00  0.00    -0.249 OA
BRANCH  12  15
ATOM     15  C   UNL A   1      33.450  23.279  25.689  1.00  0.00     0.112 C 
ATOM     16  C   UNL A   1      34.399  23.054  26.873  1.00  0.00     0.036 C 
BRANCH  15  17
ATOM     17  C   UNL A   1      33.061  21.979  24.997  1.00  0.00    -0.012 A 
ATOM     18  C   UNL A   1      32.609  18.194  25.094  1.00  0.00     0.056 C 
ATOM     19  C   UNL A   1      32.680  19.654  24.806  1.00  0.00     0.002 A 
ATOM     20  C   UNL A   1      32.927  20.703  25.666  1.00  0.00     0.021 A 
ATOM     21  S   UNL A   1      32.449  20.199  23.214  1.00  0.00    -0.146 S 
ATOM     22  C   UNL A   1      32.844  21.813  23.629  1.00  0.00     0.007 A 
ATOM     23  C   UNL A   1      32.905  22.796  22.508  1.00  0.00     0.057 C 
ENDBRANCH  15  17
ENDBRANCH  12  15
ENDBRANCH   6  11
ENDBRANCH   3   5
ENDBRANCH   2   3
ENDBRANCH   1   2
BRANCH   1  24
ATOM     24  C   UNL A   1      31.572  29.604  25.761  1.00  0.00     0.275 C 
BRANCH  24  25
ATOM     25  O   UNL A   1      32.840  30.278  25.739  1.00  0.00    -0.458 OA
BRANCH  25  26
ATOM     26  C   UNL A   1      33.091  31.123  26.770  1.00  0.00     0.338 C 
ATOM     27  O   UNL A   1      32.308  31.923  27.251  1.00  0.00    -0.246 OA
BRANCH  26  28
ATOM     28  C   UNL A   1      34.440  30.841  27.339  1.00  0.00     0.060 A 
ATOM     29  C   UNL A   1      34.829  29.535  27.652  1.00  0.00     0.016 A 
ATOM     30  C   UNL A   1      35.265  31.903  27.719  1.00  0.00     0.016 A 
ATOM     31  C   UNL A   1      35.955  29.310  28.438  1.00  0.00     0.010 A 
ATOM     32  C   UNL A   1      36.466  31.656  28.405  1.00  0.00     0.010 A 
ATOM     33  C   UNL A   1      36.816  30.355  28.800  1.00  0.00    -0.014 A 
BRANCH  33  34
ATOM     34  C   UNL A   1      38.072  30.073  29.557  1.00  0.00     0.031 A 
ATOM     35  C   UNL A   1      39.184  29.239  28.966  1.00  0.00     0.074 A 
ATOM     36  C   UNL A   1      38.241  30.576  30.799  1.00  0.00     0.049 A 
ATOM     37  N   UNL A   1      40.251  28.751  29.555  1.00  0.00    -0.248 NA
ATOM     38  C   UNL A   1      39.094  28.907  27.534  1.00  0.00     0.031 C 
ATOM     39  C   UNL A   1      37.303  31.459  31.497  1.00  0.00     0.029 A 
ATOM     40  N   UNL A   1      39.271  30.422  31.698  1.00  0.00    -0.354 N 
ATOM     41  C   UNL A   1      40.942  28.044  28.580  1.00  0.00     0.074 A 
ATOM     42  C   UNL A   1      40.173  28.153  27.358  1.00  0.00     0.031 C 
ATOM     43  C   UNL A   1      37.821  31.810  32.681  1.00  0.00     0.029 A 
ATOM     44  C   UNL A   1      39.062  31.076  32.887  1.00  0.00     0.049 A 
ATOM     45  H   UNL A   1      40.079  29.895  31.507  1.00  0.00     0.167 HD
ATOM     46  C   UNL A   1      42.109  27.363  28.692  1.00  0.00     0.031 A 
ATOM     47  C   UNL A   1      39.734  31.044  34.053  1.00  0.00     0.031 A 
ATOM     48  C   UNL A   1      42.886  27.247  29.900  1.00  0.00     0.049 A 
ATOM     49  C   UNL A   1      40.928  30.155  34.196  1.00  0.00     0.074 A 
ATOM     50  C   UNL A   1      44.079  26.568  30.093  1.00  0.00     0.029 A 
ATOM     51  N   UNL A   1      42.555  27.820  31.117  1.00  0.00    -0.354 N 
ATOM     52  N   UNL A   1      41.522  29.422  33.290  1.00  0.00    -0.248 NA
ATOM     53  C   UNL A   1      41.521  30.060  35.538  1.00  0.00     0.031 C 
ATOM     54  C   UNL A   1      44.440  26.682  31.441  1.00  0.00     0.029 A 
ATOM     55  C   UNL A   1      43.500  27.477  32.073  1.00  0.00     0.049 A 
ATOM     56  H   UNL A   1      41.767  28.386  31.278  1.00  0.00     0.167 HD
ATOM     57  C   UNL A   1      42.556  28.775  33.949  1.00  0.00     0.074 A 
ATOM     58  C   UNL A   1      42.524  29.220  35.327  1.00  0.00     0.031 C 
ATOM     59  C   UNL A   1      43.450  27.888  33.450  1.00  0.00     0.031 A 
BRANCH  46  60
ATOM     60  C   UNL A   1      42.620  26.639  27.479  1.00  0.00    -0.014 A 
ATOM     61  C   UNL A   1      43.547  27.235  26.613  1.00  0.00     0.009 A 
ATOM     62  C   UNL A   1      42.255  25.298  27.272  1.00  0.00     0.009 A 
ATOM     63  C   UNL A   1      44.098  26.501  25.560  1.00  0.00     0.001 A 
ATOM     64  C   UNL A   1      42.818  24.564  26.228  1.00  0.00     0.001 A 
ATOM     65  C   UNL A   1      43.739  25.166  25.372  1.00  0.00     0.000 A 
ENDBRANCH  46  60
BRANCH  47  66
ATOM     66  C   UNL A   1      39.204  31.804  35.213  1.00  0.00    -0.014 A 
ATOM     67  C   UNL A   1      39.549  33.148  35.410  1.00  0.00     0.009 A 
ATOM     68  C   UNL A   1      38.310  31.189  36.106  1.00  0.00     0.009 A 
ATOM     69  C   UNL A   1      39.002  33.862  36.478  1.00  0.00     0.001 A 
ATOM     70  C   UNL A   1      37.739  31.915  37.151  1.00  0.00     0.001 A 
ATOM     71  C   UNL A   1      38.089  33.250  37.338  1.00  0.00     0.000 A 
ENDBRANCH  47  66
BRANCH  59  72
ATOM     72  C   UNL A   1      44.472  27.346  34.406  1.00  0.00    -0.014 A 
ATOM     73  C   UNL A   1      44.228  26.171  35.132  1.00  0.00     0.009 A 
ATOM     74  C   UNL A   1      45.687  28.023  34.590  1.00  0.00     0.009 A 
ATOM     75  C   UNL A   1      45.168  25.702  36.052  1.00  0.00     0.001 A 
ATOM     76  C   UNL A   1      46.634  27.539  35.493  1.00  0.00     0.001 A 
ATOM     77  C   UNL A   1      46.370  26.387  36.231  1.00  0.00     0.000 A 
ENDBRANCH  59  72
ENDBRANCH  33  34
ENDBRANCH  26  28
ENDBRANCH  25  26
ENDBRANCH  24  25
ENDBRANCH   1  24
TORSDOF 14
ENDMDL
MODEL 2
REMARK VINA RESULT:     -10.9      3.698      6.855
REMARK SMILES Cc1cc([C@H](C)NC(=O)N2CC[C@H](C(=O)OCCOC(=O)c3ccc(-c4c5nc(c(-c6ccccc6)c6ccc([nH]6)c(-c6ccccc6)c6nc(c(-c7ccccc7)c7ccc4[nH]7)C=C6)C=C5)cc3)[C@@H]2C)c(C)s1
REMARK SMILES IDX 17 1 16 2 14 3 15 4 13 5 10 6 11 7 70 8 12 9 71 10 8 11 7 12
REMARK SMILES IDX 9 14 5 15 6 16 4 17 1 18 2 19 3 20 74 21 72 22 73 23 18 24
REMARK SMILES IDX 19 25 20 26 21 27 22 28 23 29 69 30 24 31 68 32 25 33 26 34
REMARK SMILES IDX 27 35 62 36 28 37 67 38 61 39 63 40 29 41 66 42 60 43 59 44
REMARK SMILES IDX 30 46 52 47 37 48 51 49 38 50 41 51 50 52 64 53 39 54 40 55
REMARK SMILES IDX 49 57 65 58 42 59 31 60 32 61 36 62 33 63 35 64 34 65 53 66
REMARK SMILES IDX 54 67 58 68 55 69 57 70 56 71 43 72 44 73 48 74 45 75 47 76
REMARK SMILES IDX 46 77
REMARK H PARENT 7 13 63 45 41 56
REMARK Flexibility Score: inf
ROOT
ATOM      1  C   UNL A   1      31.946  30.341  26.726  1.00  0.00     0.274 C 
ENDROOT
BRANCH   1   2
ATOM      2  O   UNL A   1      31.428  30.080  25.400  1.00  0.00    -0.462 OA
BRANCH   2   3
ATOM      3  C   UNL A   1      31.673  28.840  24.881  1.00  0.00     0.311 C 
ATOM      4  O   UNL A   1      31.427  27.786  25.450  1.00  0.00    -0.252 OA
BRANCH   3   5
ATOM      5  C   UNL A   1      32.350  28.950  23.517  1.00  0.00     0.123 C 
ATOM      6  N   UNL A   1      32.875  26.867  22.435  1.00  0.00    -0.321 N 
ATOM      7  C   UNL A   1      33.918  27.146  23.410  1.00  0.00     0.122 C 
ATOM      8  C   UNL A   1      31.881  27.951  22.431  1.00  0.00     0.098 C 
ATOM      9  C   UNL A   1      33.847  28.648  23.631  1.00  0.00     0.039 C 
ATOM     10  C   UNL A   1      30.455  27.472  22.626  1.00  0.00     0.032 C 
BRANCH   6  11
ATOM     11  C   UNL A   1      32.892  25.664  21.790  1.00  0.00     0.318 C 
ATOM     12  N   UNL A   1      32.934  24.492  22.464  1.00  0.00    -0.331 N 
ATOM     13  H   UNL A   1      33.584  23.833  22.131  1.00  0.00     0.165 HD
ATOM     14  O   UNL A   1      32.902  25.596  20.559  1.00  0.00    -0.249 OA
BRANCH  12  15
ATOM     15  C   UNL A   1      32.146  24.076  23.614  1.00  0.00     0.112 C 
ATOM     16  C   UNL A   1      30.667  23.996  23.218  1.00  0.00     0.036 C 
BRANCH  15  17
ATOM     17  C   UNL A   1      32.685  22.747  24.132  1.00  0.00    -0.012 A 
ATOM     18  C   UNL A   1      32.546  18.939  24.220  1.00  0.00     0.056 C 
ATOM     19  C   UNL A   1      32.821  20.397  24.342  1.00  0.00     0.002 A 
ATOM     20  C   UNL A   1      32.279  21.451  23.635  1.00  0.00     0.021 A 
ATOM     21  S   UNL A   1      33.939  20.938  25.501  1.00  0.00    -0.146 S 
ATOM     22  C   UNL A   1      33.583  22.584  25.185  1.00  0.00     0.007 A 
ATOM     23  C   UNL A   1      34.257  23.591  26.055  1.00  0.00     0.057 C 
ENDBRANCH  15  17
ENDBRANCH  12  15
ENDBRANCH   6  11
ENDBRANCH   3   5
ENDBRANCH   2   3
ENDBRANCH   1   2
BRANCH   1  24
ATOM     24  C   UNL A   1      33.472  30.447  26.718  1.00  0.00     0.275 C 
BRANCH  24  25
ATOM     25  O   UNL A   1      33.970  30.040  28.003  1.00  0.00    -0.458 OA
BRANCH  25  26
ATOM     26  C   UNL A   1      34.900  30.848  28.571  1.00  0.00     0.338 C 
ATOM     27  O   UNL A   1      34.691  31.929  29.094  1.00  0.00    -0.246 OA
BRANCH  26  28
ATOM     28  C   UNL A   1      36.222  30.159  28.594  1.00  0.00     0.060 A 
ATOM     29  C   UNL A   1      36.728  29.614  29.777  1.00  0.00     0.016 A 
ATOM     30  C   UNL A   1      37.042  30.200  27.461  1.00  0.00     0.016 A 
ATOM     31  C   UNL A   1      38.065  29.235  29.858  1.00  0.00     0.010 A 
ATOM     32  C   UNL A   1      38.353  29.700  27.519  1.00  0.00     0.010 A 
ATOM     33  C   UNL A   1      38.895  29.235  28.727  1.00  0.00    -0.014 A 
BRANCH  33  34
ATOM     34  C   UNL A   1      40.297  28.727  28.819  1.00  0.00     0.031 A 
ATOM     35  C   UNL A   1      41.444  29.630  29.204  1.00  0.00     0.074 A 
ATOM     36  C   UNL A   1      40.563  27.427  28.565  1.00  0.00     0.049 A 
ATOM     37  N   UNL A   1      42.734  29.393  29.151  1.00  0.00    -0.248 NA
ATOM     38  C   UNL A   1      41.109  30.971  29.713  1.00  0.00     0.031 C 
ATOM     39  C   UNL A   1      39.570  26.398  28.248  1.00  0.00     0.029 A 
ATOM     40  N   UNL A   1      41.756  26.744  28.540  1.00  0.00    -0.354 N 
ATOM     41  C   UNL A   1      43.359  30.550  29.597  1.00  0.00     0.074 A 
ATOM     42  C   UNL A   1      42.311  31.500  29.909  1.00  0.00     0.031 C 
ATOM     43  C   UNL A   1      40.182  25.215  28.117  1.00  0.00     0.029 A 
ATOM     44  C   UNL A   1      41.622  25.419  28.207  1.00  0.00     0.049 A 
ATOM     45  H   UNL A   1      42.623  27.164  28.743  1.00  0.00     0.167 HD
ATOM     46  C   UNL A   1      44.684  30.801  29.731  1.00  0.00     0.031 A 
ATOM     47  C   UNL A   1      42.536  24.473  27.923  1.00  0.00     0.031 A 
ATOM     48  C   UNL A   1      45.738  29.866  29.428  1.00  0.00     0.049 A 
ATOM     49  C   UNL A   1      43.990  24.823  27.921  1.00  0.00     0.074 A 
ATOM     50  C   UNL A   1      47.108  30.049  29.533  1.00  0.00     0.029 A 
ATOM     51  N   UNL A   1      45.547  28.576  28.961  1.00  0.00    -0.354 N 
ATOM     52  N   UNL A   1      44.565  25.948  28.260  1.00  0.00    -0.248 NA
ATOM     53  C   UNL A   1      44.918  23.781  27.458  1.00  0.00     0.031 C 
ATOM     54  C   UNL A   1      47.746  28.890  29.076  1.00  0.00     0.029 A 
ATOM     55  C   UNL A   1      46.773  27.967  28.737  1.00  0.00     0.049 A 
ATOM     56  H   UNL A   1      44.670  28.154  28.811  1.00  0.00     0.167 HD
ATOM     57  C   UNL A   1      45.922  25.754  28.049  1.00  0.00     0.074 A 
ATOM     58  C   UNL A   1      46.087  24.395  27.576  1.00  0.00     0.031 C 
ATOM     59  C   UNL A   1      46.938  26.631  28.233  1.00  0.00     0.031 A 
BRANCH  46  60
ATOM     60  C   UNL A   1      45.098  32.167  30.196  1.00  0.00    -0.014 A 
ATOM     61  C   UNL A   1      45.357  32.428  31.549  1.00  0.00     0.009 A 
ATOM     62  C   UNL A   1      45.345  33.173  29.247  1.00  0.00     0.009 A 
ATOM     63  C   UNL A   1      45.855  33.672  31.942  1.00  0.00     0.001 A 
ATOM     64  C   UNL A   1      45.856  34.410  29.642  1.00  0.00     0.001 A 
ATOM     65  C   UNL A   1      46.110  34.659  30.990  1.00  0.00     0.000 A 
ENDBRANCH  46  60
BRANCH  47  66
ATOM     66  C   UNL A   1      42.075  23.127  27.499  1.00  0.00    -0.014 A 
ATOM     67  C   UNL A   1      41.636  22.187  28.442  1.00  0.00     0.009 A 
ATOM     68  C   UNL A   1      42.033  22.796  26.133  1.00  0.00     0.009 A 
ATOM     69  C   UNL A   1      41.158  20.944  28.021  1.00  0.00     0.001 A 
ATOM     70  C   UNL A   1      41.524  21.567  25.716  1.00  0.00     0.001 A 
ATOM     71  C   UNL A   1      41.090  20.641  26.662  1.00  0.00     0.000 A 
ENDBRANCH  47  66
BRANCH  59  72
ATOM     72  C   UNL A   1      48.321  26.138  27.923  1.00  0.00    -0.014 A 
ATOM     73  C   UNL A   1      49.129  25.579  28.925  1.00  0.00     0.009 A 
ATOM     74  C   UNL A   1      48.826  26.243  26.619  1.00  0.00     0.009 A 
ATOM     75  C   UNL A   1      50.430  25.165  28.633  1.00  0.00     0.001 A 
ATOM     76  C   UNL A   1      50.119  25.807  26.325  1.00  0.00     0.001 A 
ATOM     77  C   UNL A   1      50.924  25.280  27.334  1.00  0.00     0.000 A 
ENDBRANCH  59  72
ENDBRANCH  33  34
ENDBRANCH  26  28
ENDBRANCH  25  26
ENDBRANCH  24  25
ENDBRANCH   1  24
TORSDOF 14
ENDMDL
MODEL 3
REMARK VINA RESULT:     -10.8      4.111      8.561
REMARK SMILES Cc1cc([C@H](C)NC(=O)N2CC[C@H](C(=O)OCCOC(=O)c3ccc(-c4c5nc(c(-c6ccccc6)c6ccc([nH]6)c(-c6ccccc6)c6nc(c(-c7ccccc7)c7ccc4[nH]7)C=C6)C=C5)cc3)[C@@H]2C)c(C)s1
REMARK SMILES IDX 17 1 16 2 14 3 15 4 13 5 10 6 11 7 70 8 12 9 71 10 8 11 7 12
REMARK SMILES IDX 9 14 5 15 6 16 4 17 1 18 2 19 3 20 74 21 72 22 73 23 18 24
REMARK SMILES IDX 19 25 20 26 21 27 22 28 23 29 69 30 24 31 68 32 25 33 26 34
REMARK SMILES IDX 27 35 62 36 28 37 67 38 61 39 63 40 29 41 66 42 60 43 59 44
REMARK SMILES IDX 30 46 52 47 37 48 51 49 38 50 41 51 50 52 64 53 39 54 40 55
REMARK SMILES IDX 49 57 65 58 42 59 31 60 32 61 36 62 33 63 35 64 34 65 53 66
REMARK SMILES IDX 54 67 58 68 55 69 57 70 56 71 43 72 44 73 48 74 45 75 47 76
REMARK SMILES IDX 46 77
REMARK H PARENT 7 13 63 45 41 56
REMARK Flexibility Score: inf
ROOT
ATOM      1  C   UNL A   1      37.707  20.195  24.989  1.00  0.00     0.274 C 
ENDROOT
BRANCH   1   2
ATOM      2  O   UNL A   1      36.785  21.252  24.631  1.00  0.00    -0.462 OA
BRANCH   2   3
ATOM      3  C   UNL A   1      35.454  20.967  24.747  1.00  0.00     0.311 C 
ATOM      4  O   UNL A   1      35.001  19.898  25.132  1.00  0.00    -0.252 OA
BRANCH   3   5
ATOM      5  C   UNL A   1      34.606  22.146  24.275  1.00  0.00     0.123 C 
ATOM      6  N   UNL A   1      32.872  22.861  25.780  1.00  0.00    -0.321 N 
ATOM      7  C   UNL A   1      32.382  21.708  25.040  1.00  0.00     0.122 C 
ATOM      8  C   UNL A   1      34.235  23.201  25.345  1.00  0.00     0.098 C 
ATOM      9  C   UNL A   1      33.237  21.664  23.785  1.00  0.00     0.039 C 
ATOM     10  C   UNL A   1      35.235  23.287  26.482  1.00  0.00     0.032 C 
BRANCH   6  11
ATOM     11  C   UNL A   1      32.104  23.358  26.793  1.00  0.00     0.318 C 
ATOM     12  N   UNL A   1      31.753  24.663  26.850  1.00  0.00    -0.331 N 
ATOM     13  H   UNL A   1      31.864  25.096  27.727  1.00  0.00     0.165 HD
ATOM     14  O   UNL A   1      31.722  22.641  27.721  1.00  0.00    -0.249 OA
BRANCH  12  15
ATOM     15  C   UNL A   1      31.235  25.513  25.789  1.00  0.00     0.112 C 
ATOM     16  C   UNL A   1      29.725  25.702  25.978  1.00  0.00     0.036 C 
BRANCH  15  17
ATOM     17  C   UNL A   1      31.994  26.834  25.793  1.00  0.00    -0.012 A 
ATOM     18  C   UNL A   1      32.396  30.406  27.061  1.00  0.00     0.056 C 
ATOM     19  C   UNL A   1      32.473  29.057  26.436  1.00  0.00     0.002 A 
ATOM     20  C   UNL A   1      31.734  27.925  26.706  1.00  0.00     0.021 A 
ATOM     21  S   UNL A   1      33.597  28.781  25.193  1.00  0.00    -0.146 S 
ATOM     22  C   UNL A   1      32.990  27.208  24.892  1.00  0.00     0.007 A 
ATOM     23  C   UNL A   1      33.586  26.470  23.739  1.00  0.00     0.057 C 
ENDBRANCH  15  17
ENDBRANCH  12  15
ENDBRANCH   6  11
ENDBRANCH   3   5
ENDBRANCH   2   3
ENDBRANCH   1   2
BRANCH   1  24
ATOM     24  C   UNL A   1      39.056  20.760  25.437  1.00  0.00     0.275 C 
BRANCH  24  25
ATOM     25  O   UNL A   1      39.818  19.708  26.049  1.00  0.00    -0.458 OA
BRANCH  25  26
ATOM     26  C   UNL A   1      41.166  19.784  25.915  1.00  0.00     0.338 C 
ATOM     27  O   UNL A   1      41.869  19.021  25.276  1.00  0.00    -0.246 OA
BRANCH  26  28
ATOM     28  C   UNL A   1      41.669  21.032  26.556  1.00  0.00     0.060 A 
ATOM     29  C   UNL A   1      41.569  21.221  27.937  1.00  0.00     0.016 A 
ATOM     30  C   UNL A   1      42.094  22.097  25.755  1.00  0.00     0.016 A 
ATOM     31  C   UNL A   1      41.770  22.484  28.487  1.00  0.00     0.010 A 
ATOM     32  C   UNL A   1      42.414  23.334  26.336  1.00  0.00     0.010 A 
ATOM     33  C   UNL A   1      42.230  23.556  27.710  1.00  0.00    -0.014 A 
BRANCH  33  34
ATOM     34  C   UNL A   1      42.535  24.874  28.344  1.00  0.00     0.031 A 
ATOM     35  C   UNL A   1      41.470  25.926  28.537  1.00  0.00     0.074 A 
ATOM     36  C   UNL A   1      43.787  25.144  28.773  1.00  0.00     0.049 A 
ATOM     37  N   UNL A   1      41.606  27.181  28.899  1.00  0.00    -0.248 NA
ATOM     38  C   UNL A   1      40.073  25.529  28.293  1.00  0.00     0.031 C 
ATOM     39  C   UNL A   1      44.922  24.219  28.732  1.00  0.00     0.029 A 
ATOM     40  N   UNL A   1      44.316  26.281  29.338  1.00  0.00    -0.354 N 
ATOM     41  C   UNL A   1      40.328  27.722  28.908  1.00  0.00     0.074 A 
ATOM     42  C   UNL A   1      39.422  26.667  28.504  1.00  0.00     0.031 C 
ATOM     43  C   UNL A   1      45.989  24.800  29.295  1.00  0.00     0.029 A 
ATOM     44  C   UNL A   1      45.657  26.181  29.616  1.00  0.00     0.049 A 
ATOM     45  H   UNL A   1      43.785  27.088  29.525  1.00  0.00     0.167 HD
ATOM     46  C   UNL A   1      39.942  28.984  29.219  1.00  0.00     0.031 A 
ATOM     47  C   UNL A   1      46.557  27.101  30.010  1.00  0.00     0.031 A 
ATOM     48  C   UNL A   1      40.831  30.044  29.624  1.00  0.00     0.049 A 
ATOM     49  C   UNL A   1      46.134  28.524  30.189  1.00  0.00     0.074 A 
ATOM     50  C   UNL A   1      40.515  31.353  29.952  1.00  0.00     0.029 A 
ATOM     51  N   UNL A   1      42.204  29.923  29.758  1.00  0.00    -0.354 N 
ATOM     52  N   UNL A   1      44.935  29.042  30.109  1.00  0.00    -0.248 NA
ATOM     53  C   UNL A   1      47.199  29.496  30.477  1.00  0.00     0.031 C 
ATOM     54  C   UNL A   1      41.704  32.039  30.229  1.00  0.00     0.029 A 
ATOM     55  C   UNL A   1      42.753  31.143  30.126  1.00  0.00     0.049 A 
ATOM     56  H   UNL A   1      42.715  29.094  29.615  1.00  0.00     0.167 HD
ATOM     57  C   UNL A   1      45.099  30.401  30.332  1.00  0.00     0.074 A 
ATOM     58  C   UNL A   1      46.509  30.624  30.574  1.00  0.00     0.031 C 
ATOM     59  C   UNL A   1      44.157  31.375  30.331  1.00  0.00     0.031 A 
BRANCH  46  60
ATOM     60  C   UNL A   1      38.484  29.324  29.101  1.00  0.00    -0.014 A 
ATOM     61  C   UNL A   1      37.638  29.298  30.218  1.00  0.00     0.009 A 
ATOM     62  C   UNL A   1      37.983  29.792  27.874  1.00  0.00     0.009 A 
ATOM     63  C   UNL A   1      36.315  29.732  30.108  1.00  0.00     0.001 A 
ATOM     64  C   UNL A   1      36.665  30.238  27.772  1.00  0.00     0.001 A 
ATOM     65  C   UNL A   1      35.832  30.208  28.889  1.00  0.00     0.000 A 
ENDBRANCH  46  60
BRANCH  47  66
ATOM     66  C   UNL A   1      47.982  26.705  30.144  1.00  0.00    -0.014 A 
ATOM     67  C   UNL A   1      48.867  26.828  29.065  1.00  0.00     0.009 A 
ATOM     68  C   UNL A   1      48.469  26.242  31.379  1.00  0.00     0.009 A 
ATOM     69  C   UNL A   1      50.215  26.499  29.223  1.00  0.00     0.001 A 
ATOM     70  C   UNL A   1      49.822  25.947  31.542  1.00  0.00     0.001 A 
ATOM     71  C   UNL A   1      50.693  26.073  30.462  1.00  0.00     0.000 A 
ENDBRANCH  47  66
BRANCH  59  72
ATOM     72  C   UNL A   1      44.628  32.772  30.608  1.00  0.00    -0.014 A 
ATOM     73  C   UNL A   1      44.738  33.248  31.924  1.00  0.00     0.009 A 
ATOM     74  C   UNL A   1      44.958  33.624  29.544  1.00  0.00     0.009 A 
ATOM     75  C   UNL A   1      45.135  34.565  32.166  1.00  0.00     0.001 A 
ATOM     76  C   UNL A   1      45.377  34.933  29.791  1.00  0.00     0.001 A 
ATOM     77  C   UNL A   1      45.454  35.406  31.100  1.00  0.00     0.000 A 
ENDBRANCH  59  72
ENDBRANCH  33  34
ENDBRANCH  26  28
ENDBRANCH  25  26
ENDBRANCH  24  25
ENDBRANCH   1  24
TORSDOF 14
ENDMDL
