MODEL 1
REMARK VINA RESULT:     -10.8      0.000      0.000
REMARK SMILES Cc1cc(C)c2c(=O)n(CCCC(=O)OCCOC(=O)c3ccc(-c4c5nc(c(-c6ccccc6)c6ccc([nH]6)c(-c6ccccc6)c6nc(c(-c7ccccc7)c7ccc4[nH]7)C=C6)C=C5)cc3)sc2n1
REMARK SMILES IDX 16 1 15 2 13 3 14 4 12 5 11 6 10 7 9 8 1 9 2 10 3 11 71 12
REMARK SMILES IDX 4 13 70 14 5 15 6 16 69 17 7 18 8 19 17 20 18 21 19 22 20 23
REMARK SMILES IDX 21 24 22 25 68 26 23 27 67 28 24 29 25 30 26 31 61 32 27 33
REMARK SMILES IDX 66 34 60 35 62 36 28 37 65 38 59 39 58 40 29 42 51 43 36 44
REMARK SMILES IDX 50 45 37 46 40 47 49 48 63 49 38 50 39 51 48 53 64 54 41 55
REMARK SMILES IDX 30 56 31 57 35 58 32 59 34 60 33 61 52 62 53 63 57 64 54 65
REMARK SMILES IDX 56 66 55 67 42 68 43 69 47 70 44 71 46 72 45 73
REMARK H PARENT 62 41 40 52
REMARK Flexibility Score: inf
ROOT
ATOM      1  C   UNL A   1      33.264  34.707  28.858  1.00  0.00     0.274 C 
ENDROOT
BRANCH   1   2
ATOM      2  O   UNL A   1      34.273  33.742  29.200  1.00  0.00    -0.462 OA
BRANCH   2   3
ATOM      3  C   UNL A   1      34.777  32.928  28.243  1.00  0.00     0.305 C 
ATOM      4  O   UNL A   1      35.672  33.246  27.467  1.00  0.00    -0.252 OA
BRANCH   3   5
ATOM      5  C   UNL A   1      34.078  31.579  28.187  1.00  0.00     0.124 C 
BRANCH   5   6
ATOM      6  C   UNL A   1      34.674  30.437  27.347  1.00  0.00     0.035 C 
BRANCH   6   7
ATOM      7  C   UNL A   1      34.008  29.051  27.364  1.00  0.00     0.139 C 
BRANCH   7   8
ATOM      8  N   UNL A   1      32.848  28.917  26.497  1.00  0.00    -0.262 N 
ATOM      9  C   UNL A   1      28.852  29.571  21.974  1.00  0.00     0.067 C 
ATOM     10  C   UNL A   1      29.659  28.964  23.079  1.00  0.00     0.039 A 
ATOM     11  C   UNL A   1      29.724  27.576  23.275  1.00  0.00     0.027 A 
ATOM     12  N   UNL A   1      30.297  29.842  23.879  1.00  0.00    -0.241 NA
ATOM     13  C   UNL A   1      30.545  27.043  24.284  1.00  0.00    -0.033 A 
ATOM     14  C   UNL A   1      31.075  29.299  24.823  1.00  0.00     0.146 A 
ATOM     15  C   UNL A   1      30.618  25.572  24.537  1.00  0.00     0.045 C 
ATOM     16  C   UNL A   1      31.280  27.950  25.033  1.00  0.00     0.081 A 
ATOM     17  S   UNL A   1      31.975  30.286  25.956  1.00  0.00    -0.035 S 
ATOM     18  C   UNL A   1      32.349  27.710  26.030  1.00  0.00     0.270 A 
ATOM     19  O   UNL A   1      32.743  26.592  26.329  1.00  0.00    -0.268 OA
ENDBRANCH   7   8
ENDBRANCH   6   7
ENDBRANCH   5   6
ENDBRANCH   3   5
ENDBRANCH   2   3
ENDBRANCH   1   2
BRANCH   1  20
ATOM     20  C   UNL A   1      33.007  35.622  30.044  1.00  0.00     0.275 C 
BRANCH  20  21
ATOM     21  O   UNL A   1      32.810  34.829  31.211  1.00  0.00    -0.458 OA
BRANCH  21  22
ATOM     22  C   UNL A   1      33.195  35.420  32.362  1.00  0.00     0.338 C 
ATOM     23  O   UNL A   1      32.810  36.485  32.818  1.00  0.00    -0.246 OA
BRANCH  22  24
ATOM     24  C   UNL A   1      34.272  34.645  32.970  1.00  0.00     0.060 A 
ATOM     25  C   UNL A   1      35.415  35.349  33.365  1.00  0.00     0.016 A 
ATOM     26  C   UNL A   1      34.261  33.255  32.809  1.00  0.00     0.016 A 
ATOM     27  C   UNL A   1      36.617  34.683  33.352  1.00  0.00     0.010 A 
ATOM     28  C   UNL A   1      35.462  32.598  32.774  1.00  0.00     0.010 A 
ATOM     29  C   UNL A   1      36.624  33.345  32.946  1.00  0.00    -0.014 A 
BRANCH  29  30
ATOM     30  C   UNL A   1      37.895  32.739  32.641  1.00  0.00     0.031 A 
ATOM     31  C   UNL A   1      38.829  32.651  33.773  1.00  0.00     0.074 A 
ATOM     32  C   UNL A   1      38.153  32.199  31.439  1.00  0.00     0.049 A 
ATOM     33  N   UNL A   1      39.971  33.238  33.893  1.00  0.00    -0.248 NA
ATOM     34  C   UNL A   1      38.392  31.900  34.956  1.00  0.00     0.031 C 
ATOM     35  C   UNL A   1      37.234  31.950  30.324  1.00  0.00     0.029 A 
ATOM     36  N   UNL A   1      39.316  31.646  31.017  1.00  0.00    -0.354 N 
ATOM     37  C   UNL A   1      40.476  32.824  35.117  1.00  0.00     0.074 A 
ATOM     38  C   UNL A   1      39.413  32.114  35.785  1.00  0.00     0.031 C 
ATOM     39  C   UNL A   1      37.823  31.097  29.454  1.00  0.00     0.029 A 
ATOM     40  C   UNL A   1      39.192  30.862  29.884  1.00  0.00     0.049 A 
ATOM     41  H   UNL A   1      40.176  31.790  31.476  1.00  0.00     0.167 HD
ATOM     42  C   UNL A   1      41.797  32.926  35.420  1.00  0.00     0.031 A 
ATOM     43  C   UNL A   1      40.139  30.029  29.393  1.00  0.00     0.031 A 
ATOM     44  C   UNL A   1      42.495  33.812  34.526  1.00  0.00     0.049 A 
ATOM     45  C   UNL A   1      41.446  30.453  29.951  1.00  0.00     0.074 A 
ATOM     46  C   UNL A   1      42.399  35.157  34.227  1.00  0.00     0.029 A 
ATOM     47  N   UNL A   1      43.206  33.248  33.493  1.00  0.00    -0.354 N 
ATOM     48  N   UNL A   1      42.033  31.570  29.627  1.00  0.00    -0.248 NA
ATOM     49  C   UNL A   1      41.910  29.849  31.191  1.00  0.00     0.031 C 
ATOM     50  C   UNL A   1      42.640  35.245  32.825  1.00  0.00     0.029 A 
ATOM     51  C   UNL A   1      42.903  33.956  32.356  1.00  0.00     0.049 A 
ATOM     52  H   UNL A   1      43.819  32.481  33.558  1.00  0.00     0.167 HD
ATOM     53  C   UNL A   1      42.607  32.027  30.805  1.00  0.00     0.074 A 
ATOM     54  C   UNL A   1      42.607  30.871  31.697  1.00  0.00     0.031 C 
ATOM     55  C   UNL A   1      42.762  33.365  31.042  1.00  0.00     0.031 A 
BRANCH  42  56
ATOM     56  C   UNL A   1      42.502  31.958  36.323  1.00  0.00    -0.014 A 
ATOM     57  C   UNL A   1      43.095  32.431  37.503  1.00  0.00     0.009 A 
ATOM     58  C   UNL A   1      42.813  30.639  35.936  1.00  0.00     0.009 A 
ATOM     59  C   UNL A   1      43.982  31.633  38.237  1.00  0.00     0.001 A 
ATOM     60  C   UNL A   1      43.660  29.826  36.689  1.00  0.00     0.001 A 
ATOM     61  C   UNL A   1      44.264  30.333  37.830  1.00  0.00     0.000 A 
ENDBRANCH  42  56
BRANCH  43  62
ATOM     62  C   UNL A   1      39.951  28.747  28.690  1.00  0.00    -0.014 A 
ATOM     63  C   UNL A   1      40.459  28.561  27.396  1.00  0.00     0.009 A 
ATOM     64  C   UNL A   1      39.501  27.613  29.391  1.00  0.00     0.009 A 
ATOM     65  C   UNL A   1      40.549  27.278  26.841  1.00  0.00     0.001 A 
ATOM     66  C   UNL A   1      39.586  26.334  28.835  1.00  0.00     0.001 A 
ATOM     67  C   UNL A   1      40.125  26.166  27.565  1.00  0.00     0.000 A 
ENDBRANCH  43  62
BRANCH  55  68
ATOM     68  C   UNL A   1      42.463  34.311  29.901  1.00  0.00    -0.014 A 
ATOM     69  C   UNL A   1      43.445  34.715  28.978  1.00  0.00     0.009 A 
ATOM     70  C   UNL A   1      41.136  34.695  29.661  1.00  0.00     0.009 A 
ATOM     71  C   UNL A   1      43.120  35.512  27.876  1.00  0.00     0.001 A 
ATOM     72  C   UNL A   1      40.806  35.472  28.546  1.00  0.00     0.001 A 
ATOM     73  C   UNL A   1      41.798  35.887  27.659  1.00  0.00     0.000 A 
ENDBRANCH  55  68
ENDBRANCH  29  30
ENDBRANCH  22  24
ENDBRANCH  21  22
ENDBRANCH  20  21
ENDBRANCH   1  20
TORSDOF 14
ENDMDL
MODEL 2
REMARK VINA RESULT:     -10.8      6.525     11.204
REMARK SMILES Cc1cc(C)c2c(=O)n(CCCC(=O)OCCOC(=O)c3ccc(-c4c5nc(c(-c6ccccc6)c6ccc([nH]6)c(-c6ccccc6)c6nc(c(-c7ccccc7)c7ccc4[nH]7)C=C6)C=C5)cc3)sc2n1
REMARK SMILES IDX 16 1 15 2 13 3 14 4 12 5 11 6 10 7 9 8 1 9 2 10 3 11 71 12
REMARK SMILES IDX 4 13 70 14 5 15 6 16 69 17 7 18 8 19 17 20 18 21 19 22 20 23
REMARK SMILES IDX 21 24 22 25 68 26 23 27 67 28 24 29 25 30 26 31 61 32 27 33
REMARK SMILES IDX 66 34 60 35 62 36 28 37 65 38 59 39 58 40 29 42 51 43 36 44
REMARK SMILES IDX 50 45 37 46 40 47 49 48 63 49 38 50 39 51 48 53 64 54 41 55
REMARK SMILES IDX 30 56 31 57 35 58 32 59 34 60 33 61 52 62 53 63 57 64 54 65
REMARK SMILES IDX 56 66 55 67 42 68 43 69 47 70 44 71 46 72 45 73
REMARK H PARENT 62 41 40 52
REMARK Flexibility Score: inf
ROOT
ATOM      1  C   UNL A   1      42.255  19.208  26.601  1.00  0.00     0.274 C 
ENDROOT
BRANCH   1   2
ATOM      2  O   UNL A   1      41.436  20.285  26.115  1.00  0.00    -0.462 OA
BRANCH   2   3
ATOM      3  C   UNL A   1      40.750  21.057  26.990  1.00  0.00     0.305 C 
ATOM      4  O   UNL A   1      40.967  21.092  28.197  1.00  0.00    -0.252 OA
BRANCH   3   5
ATOM      5  C   UNL A   1      39.632  21.847  26.331  1.00  0.00     0.124 C 
BRANCH   5   6
ATOM      6  C   UNL A   1      38.482  21.111  25.623  1.00  0.00     0.035 C 
BRANCH   6   7
ATOM      7  C   UNL A   1      37.592  21.869  24.623  1.00  0.00     0.139 C 
BRANCH   7   8
ATOM      8  N   UNL A   1      36.221  22.081  25.060  1.00  0.00    -0.262 N 
ATOM      9  C   UNL A   1      30.653  24.360  25.867  1.00  0.00     0.067 C 
ATOM     10  C   UNL A   1      31.785  23.389  25.742  1.00  0.00     0.039 A 
ATOM     11  C   UNL A   1      31.569  22.011  25.593  1.00  0.00     0.027 A 
ATOM     12  N   UNL A   1      33.019  23.929  25.802  1.00  0.00    -0.241 NA
ATOM     13  C   UNL A   1      32.657  21.140  25.412  1.00  0.00    -0.033 A 
ATOM     14  C   UNL A   1      34.031  23.072  25.618  1.00  0.00     0.146 A 
ATOM     15  C   UNL A   1      32.464  19.664  25.277  1.00  0.00     0.045 C 
ATOM     16  C   UNL A   1      33.917  21.719  25.370  1.00  0.00     0.081 A 
ATOM     17  S   UNL A   1      35.702  23.594  25.669  1.00  0.00    -0.035 S 
ATOM     18  C   UNL A   1      35.226  21.116  25.024  1.00  0.00     0.270 A 
ATOM     19  O   UNL A   1      35.356  19.943  24.706  1.00  0.00    -0.268 OA
ENDBRANCH   7   8
ENDBRANCH   6   7
ENDBRANCH   5   6
ENDBRANCH   3   5
ENDBRANCH   2   3
ENDBRANCH   1   2
BRANCH   1  20
ATOM     20  C   UNL A   1      43.160  18.709  25.488  1.00  0.00     0.275 C 
BRANCH  20  21
ATOM     21  O   UNL A   1      44.333  19.518  25.443  1.00  0.00    -0.458 OA
BRANCH  21  22
ATOM     22  C   UNL A   1      44.577  20.085  24.242  1.00  0.00     0.338 C 
ATOM     23  O   UNL A   1      44.571  19.544  23.148  1.00  0.00    -0.246 OA
BRANCH  22  24
ATOM     24  C   UNL A   1      44.985  21.473  24.434  1.00  0.00     0.060 A 
ATOM     25  C   UNL A   1      45.968  21.717  25.399  1.00  0.00     0.016 A 
ATOM     26  C   UNL A   1      44.161  22.483  23.926  1.00  0.00     0.016 A 
ATOM     27  C   UNL A   1      45.952  22.932  26.041  1.00  0.00     0.010 A 
ATOM     28  C   UNL A   1      44.130  23.684  24.582  1.00  0.00     0.010 A 
ATOM     29  C   UNL A   1      44.955  23.848  25.691  1.00  0.00    -0.014 A 
BRANCH  29  30
ATOM     30  C   UNL A   1      44.747  24.980  26.556  1.00  0.00     0.031 A 
ATOM     31  C   UNL A   1      45.786  26.018  26.484  1.00  0.00     0.074 A 
ATOM     32  C   UNL A   1      43.627  25.119  27.286  1.00  0.00     0.049 A 
ATOM     33  N   UNL A   1      46.590  26.386  27.422  1.00  0.00    -0.248 NA
ATOM     34  C   UNL A   1      46.023  26.650  25.180  1.00  0.00     0.031 C 
ATOM     35  C   UNL A   1      42.393  24.329  27.238  1.00  0.00     0.029 A 
ATOM     36  N   UNL A   1      43.335  26.106  28.166  1.00  0.00    -0.354 N 
ATOM     37  C   UNL A   1      47.359  27.403  26.875  1.00  0.00     0.074 A 
ATOM     38  C   UNL A   1      47.062  27.434  25.464  1.00  0.00     0.031 C 
ATOM     39  C   UNL A   1      41.416  25.006  27.884  1.00  0.00     0.029 A 
ATOM     40  C   UNL A   1      41.994  26.191  28.498  1.00  0.00     0.049 A 
ATOM     41  H   UNL A   1      44.017  26.712  28.539  1.00  0.00     0.167 HD
ATOM     42  C   UNL A   1      48.044  28.282  27.653  1.00  0.00     0.031 A 
ATOM     43  C   UNL A   1      41.410  27.211  29.169  1.00  0.00     0.031 A 
ATOM     44  C   UNL A   1      48.178  27.821  29.009  1.00  0.00     0.049 A 
ATOM     45  C   UNL A   1      42.476  27.943  29.895  1.00  0.00     0.074 A 
ATOM     46  C   UNL A   1      48.782  26.730  29.604  1.00  0.00     0.029 A 
ATOM     47  N   UNL A   1      47.304  28.323  29.944  1.00  0.00    -0.354 N 
ATOM     48  N   UNL A   1      43.129  27.440  30.905  1.00  0.00    -0.248 NA
ATOM     49  C   UNL A   1      43.123  29.071  29.242  1.00  0.00     0.031 C 
ATOM     50  C   UNL A   1      47.911  26.357  30.670  1.00  0.00     0.029 A 
ATOM     51  C   UNL A   1      46.845  27.260  30.684  1.00  0.00     0.049 A 
ATOM     52  H   UNL A   1      47.055  29.267  30.062  1.00  0.00     0.167 HD
ATOM     53  C   UNL A   1      44.433  27.886  30.745  1.00  0.00     0.074 A 
ATOM     54  C   UNL A   1      44.342  28.981  29.784  1.00  0.00     0.031 C 
ATOM     55  C   UNL A   1      45.492  27.140  31.184  1.00  0.00     0.031 A 
BRANCH  42  56
ATOM     56  C   UNL A   1      48.296  29.704  27.247  1.00  0.00    -0.014 A 
ATOM     57  C   UNL A   1      49.614  30.183  27.214  1.00  0.00     0.009 A 
ATOM     58  C   UNL A   1      47.266  30.660  27.131  1.00  0.00     0.009 A 
ATOM     59  C   UNL A   1      49.884  31.553  27.104  1.00  0.00     0.001 A 
ATOM     60  C   UNL A   1      47.532  32.020  26.976  1.00  0.00     0.001 A 
ATOM     61  C   UNL A   1      48.844  32.469  26.986  1.00  0.00     0.000 A 
ENDBRANCH  42  56
BRANCH  43  62
ATOM     62  C   UNL A   1      40.044  27.741  29.014  1.00  0.00    -0.014 A 
ATOM     63  C   UNL A   1      39.150  27.741  30.095  1.00  0.00     0.009 A 
ATOM     64  C   UNL A   1      39.699  28.490  27.873  1.00  0.00     0.009 A 
ATOM     65  C   UNL A   1      37.973  28.498  30.049  1.00  0.00     0.001 A 
ATOM     66  C   UNL A   1      38.522  29.241  27.826  1.00  0.00     0.001 A 
ATOM     67  C   UNL A   1      37.666  29.258  28.922  1.00  0.00     0.000 A 
ENDBRANCH  43  62
BRANCH  55  68
ATOM     68  C   UNL A   1      45.181  25.914  32.014  1.00  0.00    -0.014 A 
ATOM     69  C   UNL A   1      45.178  25.936  33.421  1.00  0.00     0.009 A 
ATOM     70  C   UNL A   1      44.744  24.747  31.371  1.00  0.00     0.009 A 
ATOM     71  C   UNL A   1      44.791  24.815  34.162  1.00  0.00     0.001 A 
ATOM     72  C   UNL A   1      44.335  23.634  32.112  1.00  0.00     0.001 A 
ATOM     73  C   UNL A   1      44.366  23.665  33.505  1.00  0.00     0.000 A 
ENDBRANCH  55  68
ENDBRANCH  29  30
ENDBRANCH  22  24
ENDBRANCH  21  22
ENDBRANCH  20  21
ENDBRANCH   1  20
TORSDOF 14
ENDMDL
MODEL 3
REMARK VINA RESULT:     -10.6      4.959      9.673
REMARK SMILES Cc1cc(C)c2c(=O)n(CCCC(=O)OCCOC(=O)c3ccc(-c4c5nc(c(-c6ccccc6)c6ccc([nH]6)c(-c6ccccc6)c6nc(c(-c7ccccc7)c7ccc4[nH]7)C=C6)C=C5)cc3)sc2n1
REMARK SMILES IDX 16 1 15 2 13 3 14 4 12 5 11 6 10 7 9 8 1 9 2 10 3 11 71 12
REMARK SMILES IDX 4 13 70 14 5 15 6 16 69 17 7 18 8 19 17 20 18 21 19 22 20 23
REMARK SMILES IDX 21 24 22 25 68 26 23 27 67 28 24 29 25 30 26 31 61 32 27 33
REMARK SMILES IDX 66 34 60 35 62 36 28 37 65 38 59 39 58 40 29 42 51 43 36 44
REMARK SMILES IDX 50 45 37 46 40 47 49 48 63 49 38 50 39 51 48 53 64 54 41 55
REMARK SMILES IDX 30 56 31 57 35 58 32 59 34 60 33 61 52 62 53 63 57 64 54 65
REMARK SMILES IDX 56 66 55 67 42 68 43 69 47 70 44 71 46 72 45 73
REMARK H PARENT 62 41 40 52
REMARK Flexibility Score: inf
ROOT
ATOM      1  C   UNL A   1      36.260  21.090  25.159  1.00  0.00     0.274 C 
ENDROOT
BRANCH   1   2
ATOM      2  O   UNL A   1      36.572  22.484  24.997  1.00  0.00    -0.462 OA
BRANCH   2   3
ATOM      3  C   UNL A   1      36.041  23.177  23.964  1.00  0.00     0.305 C 
ATOM      4  O   UNL A   1      36.308  22.974  22.784  1.00  0.00    -0.252 OA
BRANCH   3   5
ATOM      5  C   UNL A   1      35.106  24.288  24.416  1.00  0.00     0.124 C 
BRANCH   5   6
ATOM      6  C   UNL A   1      33.977  23.985  25.415  1.00  0.00     0.035 C 
BRANCH   6   7
ATOM      7  C   UNL A   1      32.510  24.090  24.962  1.00  0.00     0.139 C 
BRANCH   7   8
ATOM      8  N   UNL A   1      32.117  25.395  24.453  1.00  0.00    -0.262 N 
ATOM      9  C   UNL A   1      29.107  29.934  21.774  1.00  0.00     0.067 C 
ATOM     10  C   UNL A   1      29.994  29.179  22.713  1.00  0.00     0.039 A 
ATOM     11  C   UNL A   1      30.454  29.739  23.914  1.00  0.00     0.027 A 
ATOM     12  N   UNL A   1      30.333  27.937  22.315  1.00  0.00    -0.241 NA
ATOM     13  C   UNL A   1      31.231  28.973  24.800  1.00  0.00    -0.033 A 
ATOM     14  C   UNL A   1      31.068  27.233  23.185  1.00  0.00     0.146 A 
ATOM     15  C   UNL A   1      31.759  29.547  26.075  1.00  0.00     0.045 C 
ATOM     16  C   UNL A   1      31.486  27.662  24.429  1.00  0.00     0.081 A 
ATOM     17  S   UNL A   1      31.606  25.604  22.834  1.00  0.00    -0.035 S 
ATOM     18  C   UNL A   1      32.110  26.562  25.202  1.00  0.00     0.270 A 
ATOM     19  O   UNL A   1      32.499  26.694  26.354  1.00  0.00    -0.268 OA
ENDBRANCH   7   8
ENDBRANCH   6   7
ENDBRANCH   5   6
ENDBRANCH   3   5
ENDBRANCH   2   3
ENDBRANCH   1   2
BRANCH   1  20
ATOM     20  C   UNL A   1      37.496  20.251  24.881  1.00  0.00     0.275 C 
BRANCH  20  21
ATOM     21  O   UNL A   1      38.633  20.894  25.448  1.00  0.00    -0.458 OA
BRANCH  21  22
ATOM     22  C   UNL A   1      39.672  20.071  25.707  1.00  0.00     0.338 C 
ATOM     23  O   UNL A   1      39.718  18.860  25.558  1.00  0.00    -0.246 OA
BRANCH  22  24
ATOM     24  C   UNL A   1      40.751  20.831  26.329  1.00  0.00     0.060 A 
ATOM     25  C   UNL A   1      40.883  20.725  27.717  1.00  0.00     0.016 A 
ATOM     26  C   UNL A   1      41.347  21.861  25.591  1.00  0.00     0.016 A 
ATOM     27  C   UNL A   1      41.405  21.798  28.398  1.00  0.00     0.010 A 
ATOM     28  C   UNL A   1      41.845  22.939  26.273  1.00  0.00     0.010 A 
ATOM     29  C   UNL A   1      41.771  22.930  27.663  1.00  0.00    -0.014 A 
BRANCH  29  30
ATOM     30  C   UNL A   1      42.027  24.150  28.384  1.00  0.00     0.031 A 
ATOM     31  C   UNL A   1      41.049  25.223  28.157  1.00  0.00     0.074 A 
ATOM     32  C   UNL A   1      43.025  24.249  29.278  1.00  0.00     0.049 A 
ATOM     33  N   UNL A   1      41.260  26.371  27.610  1.00  0.00    -0.248 NA
ATOM     34  C   UNL A   1      39.646  24.944  28.490  1.00  0.00     0.031 C 
ATOM     35  C   UNL A   1      43.884  23.192  29.820  1.00  0.00     0.029 A 
ATOM     36  N   UNL A   1      43.395  25.347  29.981  1.00  0.00    -0.354 N 
ATOM     37  C   UNL A   1      40.040  27.032  27.646  1.00  0.00     0.074 A 
ATOM     38  C   UNL A   1      39.059  26.065  28.073  1.00  0.00     0.031 C 
ATOM     39  C   UNL A   1      44.513  23.662  30.923  1.00  0.00     0.029 A 
ATOM     40  C   UNL A   1      44.205  25.076  31.070  1.00  0.00     0.049 A 
ATOM     41  H   UNL A   1      43.114  26.259  29.738  1.00  0.00     0.167 HD
ATOM     42  C   UNL A   1      39.950  28.380  27.510  1.00  0.00     0.031 A 
ATOM     43  C   UNL A   1      44.526  25.951  32.051  1.00  0.00     0.031 A 
ATOM     44  C   UNL A   1      41.154  28.956  26.972  1.00  0.00     0.049 A 
ATOM     45  C   UNL A   1      44.294  27.319  31.530  1.00  0.00     0.074 A 
ATOM     46  C   UNL A   1      41.841  28.822  25.781  1.00  0.00     0.029 A 
ATOM     47  N   UNL A   1      42.040  29.527  27.855  1.00  0.00    -0.354 N 
ATOM     48  N   UNL A   1      45.018  27.859  30.591  1.00  0.00    -0.248 NA
ATOM     49  C   UNL A   1      42.995  27.941  31.742  1.00  0.00     0.031 C 
ATOM     50  C   UNL A   1      43.220  28.879  26.139  1.00  0.00     0.029 A 
ATOM     51  C   UNL A   1      43.294  29.078  27.519  1.00  0.00     0.049 A 
ATOM     52  H   UNL A   1      41.818  30.142  28.589  1.00  0.00     0.167 HD
ATOM     53  C   UNL A   1      44.121  28.582  29.818  1.00  0.00     0.074 A 
ATOM     54  C   UNL A   1      42.922  28.698  30.643  1.00  0.00     0.031 C 
ATOM     55  C   UNL A   1      44.332  28.767  28.479  1.00  0.00     0.031 A 
BRANCH  42  56
ATOM     56  C   UNL A   1      38.886  29.197  28.181  1.00  0.00    -0.014 A 
ATOM     57  C   UNL A   1      38.870  29.283  29.581  1.00  0.00     0.009 A 
ATOM     58  C   UNL A   1      37.754  29.687  27.499  1.00  0.00     0.009 A 
ATOM     59  C   UNL A   1      37.762  29.802  30.262  1.00  0.00     0.001 A 
ATOM     60  C   UNL A   1      36.667  30.246  28.171  1.00  0.00     0.001 A 
ATOM     61  C   UNL A   1      36.662  30.282  29.558  1.00  0.00     0.000 A 
ENDBRANCH  42  56
BRANCH  43  62
ATOM     62  C   UNL A   1      44.767  25.672  33.478  1.00  0.00    -0.014 A 
ATOM     63  C   UNL A   1      43.694  25.508  34.366  1.00  0.00     0.009 A 
ATOM     64  C   UNL A   1      46.052  25.304  33.922  1.00  0.00     0.009 A 
ATOM     65  C   UNL A   1      43.895  24.958  35.638  1.00  0.00     0.001 A 
ATOM     66  C   UNL A   1      46.253  24.760  35.193  1.00  0.00     0.001 A 
ATOM     67  C   UNL A   1      45.171  24.572  36.045  1.00  0.00     0.000 A 
ENDBRANCH  43  62
BRANCH  55  68
ATOM     68  C   UNL A   1      45.665  28.321  27.919  1.00  0.00    -0.014 A 
ATOM     69  C   UNL A   1      45.913  26.992  27.530  1.00  0.00     0.009 A 
ATOM     70  C   UNL A   1      46.646  29.284  27.642  1.00  0.00     0.009 A 
ATOM     71  C   UNL A   1      47.120  26.628  26.924  1.00  0.00     0.001 A 
ATOM     72  C   UNL A   1      47.843  28.925  27.015  1.00  0.00     0.001 A 
ATOM     73  C   UNL A   1      48.083  27.598  26.664  1.00  0.00     0.000 A 
ENDBRANCH  55  68
ENDBRANCH  29  30
ENDBRANCH  22  24
ENDBRANCH  21  22
ENDBRANCH  20  21
ENDBRANCH   1  20
TORSDOF 14
ENDMDL
