MODEL 1
REMARK VINA RESULT:     -12.5      0.000      0.000
REMARK SMILES C[C@@H](Oc1ccc2c(c1)OCO2)C(=O)N1CCn2nc(C(=O)OCCOC(=O)c3ccc(-c4c5nc(c(-c6ccccc6)c6ccc([nH]6)c(-c6ccccc6)c6nc(c(-c7ccccc7)c7ccc4[nH]7)C=C6)C=C5)cc3)cc2C1
REMARK SMILES IDX 24 1 23 2 21 3 22 4 20 5 15 6 16 7 79 8 17 9 78 10 18 11
REMARK SMILES IDX 77 12 19 13 13 14 14 15 2 16 1 17 3 18 4 19 5 20 9 21 6 22
REMARK SMILES IDX 8 23 7 24 10 25 12 26 11 27 25 28 26 29 27 30 28 31 29 32
REMARK SMILES IDX 30 33 76 34 31 35 75 36 32 37 33 38 34 39 69 40 35 41 74 42
REMARK SMILES IDX 68 43 70 44 36 45 73 46 67 47 66 48 37 50 59 51 44 52 58 53
REMARK SMILES IDX 45 54 48 55 57 56 71 57 46 58 47 59 56 61 72 62 49 63 38 64
REMARK SMILES IDX 39 65 43 66 40 67 42 68 41 69 60 70 61 71 65 72 62 73 64 74
REMARK SMILES IDX 63 75 50 76 51 77 55 78 52 79 54 80 53 81
REMARK H PARENT 70 49 48 60
REMARK Flexibility Score: inf
ROOT
ATOM      1  C   UNL A   1      42.315  18.451  26.259  1.00  0.00     0.275 C 
ENDROOT
BRANCH   1   2
ATOM      2  O   UNL A   1      41.377  19.385  25.701  1.00  0.00    -0.457 OA
BRANCH   2   3
ATOM      3  C   UNL A   1      41.005  20.419  26.524  1.00  0.00     0.358 C 
ATOM      4  O   UNL A   1      41.711  20.851  27.434  1.00  0.00    -0.244 OA
BRANCH   3   5
ATOM      5  C   UNL A   1      39.706  20.990  26.144  1.00  0.00     0.170 A 
ATOM      6  N   UNL A   1      35.534  22.426  24.799  1.00  0.00    -0.332 N 
ATOM      7  C   UNL A   1      36.193  23.705  25.089  1.00  0.00     0.143 C 
ATOM      8  C   UNL A   1      36.192  21.149  25.047  1.00  0.00     0.175 C 
ATOM      9  C   UNL A   1      37.552  23.713  25.775  1.00  0.00     0.166 C 
ATOM     10  C   UNL A   1      37.606  21.259  25.438  1.00  0.00     0.059 A 
ATOM     11  N   UNL A   1      38.179  22.425  25.815  1.00  0.00    -0.265 N 
ATOM     12  C   UNL A   1      38.604  20.316  25.547  1.00  0.00     0.063 A 
ATOM     13  N   UNL A   1      39.415  22.296  26.317  1.00  0.00    -0.165 NA
BRANCH   6  14
ATOM     14  C   UNL A   1      34.240  22.324  24.274  1.00  0.00     0.263 C 
ATOM     15  O   UNL A   1      33.991  22.709  23.126  1.00  0.00    -0.271 OA
BRANCH  14  16
ATOM     16  C   UNL A   1      33.092  21.786  25.152  1.00  0.00     0.259 C 
ATOM     17  C   UNL A   1      32.428  22.869  25.995  1.00  0.00     0.064 C 
BRANCH  16  18
ATOM     18  O   UNL A   1      32.181  21.144  24.247  1.00  0.00    -0.481 OA
BRANCH  18  19
ATOM     19  C   UNL A   1      32.366  19.798  24.128  1.00  0.00     0.124 A 
ATOM     20  C   UNL A   1      32.408  19.230  22.845  1.00  0.00     0.050 A 
ATOM     21  C   UNL A   1      32.695  19.050  25.260  1.00  0.00     0.097 A 
ATOM     22  C   UNL A   1      32.750  17.889  22.676  1.00  0.00     0.054 A 
ATOM     23  C   UNL A   1      33.046  17.730  25.062  1.00  0.00     0.169 A 
ATOM     24  C   UNL A   1      33.072  17.168  23.805  1.00  0.00     0.166 A 
ATOM     25  O   UNL A   1      33.434  16.851  26.025  1.00  0.00    -0.453 OA
ATOM     26  O   UNL A   1      33.473  15.869  23.821  1.00  0.00    -0.454 OA
ATOM     27  C   UNL A   1      33.738  15.687  25.227  1.00  0.00     0.468 C 
ENDBRANCH  18  19
ENDBRANCH  16  18
ENDBRANCH  14  16
ENDBRANCH   6  14
ENDBRANCH   3   5
ENDBRANCH   2   3
ENDBRANCH   1   2
BRANCH   1  28
ATOM     28  C   UNL A   1      43.645  18.492  25.516  1.00  0.00     0.275 C 
BRANCH  28  29
ATOM     29  O   UNL A   1      43.654  19.521  24.527  1.00  0.00    -0.458 OA
BRANCH  29  30
ATOM     30  C   UNL A   1      44.872  19.843  24.034  1.00  0.00     0.338 C 
ATOM     31  O   UNL A   1      45.703  19.074  23.580  1.00  0.00    -0.246 OA
BRANCH  30  32
ATOM     32  C   UNL A   1      45.156  21.250  24.348  1.00  0.00     0.060 A 
ATOM     33  C   UNL A   1      46.066  21.501  25.379  1.00  0.00     0.016 A 
ATOM     34  C   UNL A   1      44.301  22.249  23.859  1.00  0.00     0.016 A 
ATOM     35  C   UNL A   1      45.972  22.698  26.059  1.00  0.00     0.010 A 
ATOM     36  C   UNL A   1      44.194  23.433  24.550  1.00  0.00     0.010 A 
ATOM     37  C   UNL A   1      44.971  23.605  25.691  1.00  0.00    -0.014 A 
BRANCH  37  38
ATOM     38  C   UNL A   1      44.758  24.762  26.530  1.00  0.00     0.031 A 
ATOM     39  C   UNL A   1      45.820  25.785  26.453  1.00  0.00     0.074 A 
ATOM     40  C   UNL A   1      43.633  24.937  27.246  1.00  0.00     0.049 A 
ATOM     41  N   UNL A   1      46.629  26.146  27.390  1.00  0.00    -0.248 NA
ATOM     42  C   UNL A   1      46.084  26.401  25.146  1.00  0.00     0.031 C 
ATOM     43  C   UNL A   1      42.380  24.182  27.193  1.00  0.00     0.029 A 
ATOM     44  N   UNL A   1      43.353  25.942  28.114  1.00  0.00    -0.354 N 
ATOM     45  C   UNL A   1      47.437  27.132  26.839  1.00  0.00     0.074 A 
ATOM     46  C   UNL A   1      47.141  27.161  25.427  1.00  0.00     0.031 C 
ATOM     47  C   UNL A   1      41.410  24.896  27.813  1.00  0.00     0.029 A 
ATOM     48  C   UNL A   1      42.009  26.077  28.414  1.00  0.00     0.049 A 
ATOM     49  H   UNL A   1      44.048  26.526  28.498  1.00  0.00     0.167 HD
ATOM     50  C   UNL A   1      48.168  27.978  27.613  1.00  0.00     0.031 A 
ATOM     51  C   UNL A   1      41.441  27.137  29.041  1.00  0.00     0.031 A 
ATOM     52  C   UNL A   1      48.252  27.525  28.976  1.00  0.00     0.049 A 
ATOM     53  C   UNL A   1      42.517  27.862  29.762  1.00  0.00     0.074 A 
ATOM     54  C   UNL A   1      48.800  26.424  29.600  1.00  0.00     0.029 A 
ATOM     55  N   UNL A   1      47.370  28.073  29.877  1.00  0.00    -0.354 N 
ATOM     56  N   UNL A   1      43.144  27.371  30.793  1.00  0.00    -0.248 NA
ATOM     57  C   UNL A   1      43.211  28.939  29.071  1.00  0.00     0.031 C 
ATOM     58  C   UNL A   1      47.881  26.094  30.638  1.00  0.00     0.029 A 
ATOM     59  C   UNL A   1      46.854  27.040  30.617  1.00  0.00     0.049 A 
ATOM     60  H   UNL A   1      47.150  29.028  29.974  1.00  0.00     0.167 HD
ATOM     61  C   UNL A   1      44.467  27.754  30.622  1.00  0.00     0.074 A 
ATOM     62  C   UNL A   1      44.428  28.804  29.607  1.00  0.00     0.031 C 
ATOM     63  C   UNL A   1      45.493  26.991  31.104  1.00  0.00     0.031 A 
BRANCH  50  64
ATOM     64  C   UNL A   1      48.522  29.382  27.217  1.00  0.00    -0.014 A 
ATOM     65  C   UNL A   1      49.878  29.747  27.157  1.00  0.00     0.009 A 
ATOM     66  C   UNL A   1      47.577  30.422  27.159  1.00  0.00     0.009 A 
ATOM     67  C   UNL A   1      50.266  31.090  27.106  1.00  0.00     0.001 A 
ATOM     68  C   UNL A   1      47.959  31.763  27.066  1.00  0.00     0.001 A 
ATOM     69  C   UNL A   1      49.305  32.098  27.067  1.00  0.00     0.000 A 
ENDBRANCH  50  64
BRANCH  51  70
ATOM     70  C   UNL A   1      40.111  27.732  28.791  1.00  0.00    -0.014 A 
ATOM     71  C   UNL A   1      39.144  27.781  29.806  1.00  0.00     0.009 A 
ATOM     72  C   UNL A   1      39.884  28.500  27.633  1.00  0.00     0.009 A 
ATOM     73  C   UNL A   1      38.012  28.599  29.683  1.00  0.00     0.001 A 
ATOM     74  C   UNL A   1      38.753  29.313  27.507  1.00  0.00     0.001 A 
ATOM     75  C   UNL A   1      37.825  29.375  28.540  1.00  0.00     0.000 A 
ENDBRANCH  51  70
BRANCH  63  76
ATOM     76  C   UNL A   1      45.144  25.823  31.997  1.00  0.00    -0.014 A 
ATOM     77  C   UNL A   1      45.064  25.934  33.398  1.00  0.00     0.009 A 
ATOM     78  C   UNL A   1      44.721  24.626  31.403  1.00  0.00     0.009 A 
ATOM     79  C   UNL A   1      44.606  24.869  34.178  1.00  0.00     0.001 A 
ATOM     80  C   UNL A   1      44.242  23.569  32.180  1.00  0.00     0.001 A 
ATOM     81  C   UNL A   1      44.190  23.687  33.567  1.00  0.00     0.000 A 
ENDBRANCH  63  76
ENDBRANCH  37  38
ENDBRANCH  30  32
ENDBRANCH  29  30
ENDBRANCH  28  29
ENDBRANCH   1  28
TORSDOF 15
ENDMDL
MODEL 2
REMARK VINA RESULT:     -11.9      2.097      3.544
REMARK SMILES C[C@@H](Oc1ccc2c(c1)OCO2)C(=O)N1CCn2nc(C(=O)OCCOC(=O)c3ccc(-c4c5nc(c(-c6ccccc6)c6ccc([nH]6)c(-c6ccccc6)c6nc(c(-c7ccccc7)c7ccc4[nH]7)C=C6)C=C5)cc3)cc2C1
REMARK SMILES IDX 24 1 23 2 21 3 22 4 20 5 15 6 16 7 79 8 17 9 78 10 18 11
REMARK SMILES IDX 77 12 19 13 13 14 14 15 2 16 1 17 3 18 4 19 5 20 9 21 6 22
REMARK SMILES IDX 8 23 7 24 10 25 12 26 11 27 25 28 26 29 27 30 28 31 29 32
REMARK SMILES IDX 30 33 76 34 31 35 75 36 32 37 33 38 34 39 69 40 35 41 74 42
REMARK SMILES IDX 68 43 70 44 36 45 73 46 67 47 66 48 37 50 59 51 44 52 58 53
REMARK SMILES IDX 45 54 48 55 57 56 71 57 46 58 47 59 56 61 72 62 49 63 38 64
REMARK SMILES IDX 39 65 43 66 40 67 42 68 41 69 60 70 61 71 65 72 62 73 64 74
REMARK SMILES IDX 63 75 50 76 51 77 55 78 52 79 54 80 53 81
REMARK H PARENT 70 49 48 60
REMARK Flexibility Score: inf
ROOT
ATOM      1  C   UNL A   1      42.535  18.191  26.182  1.00  0.00     0.275 C 
ENDROOT
BRANCH   1   2
ATOM      2  O   UNL A   1      41.548  19.153  25.773  1.00  0.00    -0.457 OA
BRANCH   2   3
ATOM      3  C   UNL A   1      40.993  19.902  26.780  1.00  0.00     0.358 C 
ATOM      4  O   UNL A   1      41.422  19.914  27.933  1.00  0.00    -0.244 OA
BRANCH   3   5
ATOM      5  C   UNL A   1      39.882  20.736  26.304  1.00  0.00     0.170 A 
ATOM      6  N   UNL A   1      36.316  23.069  24.538  1.00  0.00    -0.332 N 
ATOM      7  C   UNL A   1      36.965  24.111  25.342  1.00  0.00     0.143 C 
ATOM      8  C   UNL A   1      36.795  21.692  24.533  1.00  0.00     0.175 C 
ATOM      9  C   UNL A   1      38.094  23.735  26.290  1.00  0.00     0.166 C 
ATOM     10  C   UNL A   1      38.062  21.485  25.251  1.00  0.00     0.059 A 
ATOM     11  N   UNL A   1      38.598  22.409  26.082  1.00  0.00    -0.265 N 
ATOM     12  C   UNL A   1      38.929  20.416  25.296  1.00  0.00     0.063 A 
ATOM     13  N   UNL A   1      39.648  21.972  26.791  1.00  0.00    -0.165 NA
BRANCH   6  14
ATOM     14  C   UNL A   1      35.200  23.300  23.725  1.00  0.00     0.263 C 
ATOM     15  O   UNL A   1      35.245  23.076  22.510  1.00  0.00    -0.271 OA
BRANCH  14  16
ATOM     16  C   UNL A   1      33.916  23.904  24.330  1.00  0.00     0.259 C 
ATOM     17  C   UNL A   1      33.539  23.285  25.671  1.00  0.00     0.064 C 
BRANCH  16  18
ATOM     18  O   UNL A   1      34.154  25.317  24.412  1.00  0.00    -0.481 OA
BRANCH  18  19
ATOM     19  C   UNL A   1      33.251  26.078  23.731  1.00  0.00     0.124 A 
ATOM     20  C   UNL A   1      32.770  25.616  22.495  1.00  0.00     0.050 A 
ATOM     21  C   UNL A   1      32.686  27.193  24.355  1.00  0.00     0.097 A 
ATOM     22  C   UNL A   1      31.733  26.285  21.845  1.00  0.00     0.054 A 
ATOM     23  C   UNL A   1      31.650  27.824  23.697  1.00  0.00     0.169 A 
ATOM     24  C   UNL A   1      31.189  27.381  22.477  1.00  0.00     0.166 A 
ATOM     25  O   UNL A   1      30.947  28.896  24.152  1.00  0.00    -0.453 OA
ATOM     26  O   UNL A   1      30.146  28.119  22.014  1.00  0.00    -0.454 OA
ATOM     27  C   UNL A   1      29.973  29.053  23.098  1.00  0.00     0.468 C 
ENDBRANCH  18  19
ENDBRANCH  16  18
ENDBRANCH  14  16
ENDBRANCH   6  14
ENDBRANCH   3   5
ENDBRANCH   2   3
ENDBRANCH   1   2
BRANCH   1  28
ATOM     28  C   UNL A   1      43.881  18.466  25.523  1.00  0.00     0.275 C 
BRANCH  28  29
ATOM     29  O   UNL A   1      43.773  19.485  24.529  1.00  0.00    -0.458 OA
BRANCH  29  30
ATOM     30  C   UNL A   1      44.937  19.851  23.943  1.00  0.00     0.338 C 
ATOM     31  O   UNL A   1      45.749  19.115  23.408  1.00  0.00    -0.246 OA
BRANCH  30  32
ATOM     32  C   UNL A   1      45.205  21.261  24.259  1.00  0.00     0.060 A 
ATOM     33  C   UNL A   1      46.136  21.520  25.269  1.00  0.00     0.016 A 
ATOM     34  C   UNL A   1      44.322  22.248  23.798  1.00  0.00     0.016 A 
ATOM     35  C   UNL A   1      46.039  22.711  25.960  1.00  0.00     0.010 A 
ATOM     36  C   UNL A   1      44.214  23.426  24.499  1.00  0.00     0.010 A 
ATOM     37  C   UNL A   1      45.016  23.604  25.622  1.00  0.00    -0.014 A 
BRANCH  37  38
ATOM     38  C   UNL A   1      44.804  24.752  26.473  1.00  0.00     0.031 A 
ATOM     39  C   UNL A   1      45.867  25.774  26.406  1.00  0.00     0.074 A 
ATOM     40  C   UNL A   1      43.679  24.922  27.190  1.00  0.00     0.049 A 
ATOM     41  N   UNL A   1      46.677  26.124  27.347  1.00  0.00    -0.248 NA
ATOM     42  C   UNL A   1      46.132  26.404  25.106  1.00  0.00     0.031 C 
ATOM     43  C   UNL A   1      42.425  24.169  27.130  1.00  0.00     0.029 A 
ATOM     44  N   UNL A   1      43.401  25.918  28.070  1.00  0.00    -0.354 N 
ATOM     45  C   UNL A   1      47.486  27.116  26.805  1.00  0.00     0.074 A 
ATOM     46  C   UNL A   1      47.191  27.160  25.395  1.00  0.00     0.031 C 
ATOM     47  C   UNL A   1      41.457  24.878  27.758  1.00  0.00     0.029 A 
ATOM     48  C   UNL A   1      42.057  26.052  28.371  1.00  0.00     0.049 A 
ATOM     49  H   UNL A   1      44.097  26.496  28.459  1.00  0.00     0.167 HD
ATOM     50  C   UNL A   1      48.219  27.952  27.588  1.00  0.00     0.031 A 
ATOM     51  C   UNL A   1      41.491  27.106  29.009  1.00  0.00     0.031 A 
ATOM     52  C   UNL A   1      48.302  27.485  28.947  1.00  0.00     0.049 A 
ATOM     53  C   UNL A   1      42.568  27.822  29.738  1.00  0.00     0.074 A 
ATOM     54  C   UNL A   1      48.849  26.376  29.559  1.00  0.00     0.029 A 
ATOM     55  N   UNL A   1      47.421  28.025  29.853  1.00  0.00    -0.354 N 
ATOM     56  N   UNL A   1      43.194  27.319  30.763  1.00  0.00    -0.248 NA
ATOM     57  C   UNL A   1      43.263  28.904  29.058  1.00  0.00     0.031 C 
ATOM     58  C   UNL A   1      47.930  26.037  30.593  1.00  0.00     0.029 A 
ATOM     59  C   UNL A   1      46.904  26.984  30.583  1.00  0.00     0.049 A 
ATOM     60  H   UNL A   1      47.203  28.979  29.961  1.00  0.00     0.167 HD
ATOM     61  C   UNL A   1      44.518  27.701  30.595  1.00  0.00     0.074 A 
ATOM     62  C   UNL A   1      44.481  28.763  29.592  1.00  0.00     0.031 C 
ATOM     63  C   UNL A   1      45.543  26.932  31.070  1.00  0.00     0.031 A 
BRANCH  50  64
ATOM     64  C   UNL A   1      48.574  29.360  27.207  1.00  0.00    -0.014 A 
ATOM     65  C   UNL A   1      49.932  29.722  27.147  1.00  0.00     0.009 A 
ATOM     66  C   UNL A   1      47.632  30.403  27.164  1.00  0.00     0.009 A 
ATOM     67  C   UNL A   1      50.322  31.065  27.110  1.00  0.00     0.001 A 
ATOM     68  C   UNL A   1      48.017  31.743  27.085  1.00  0.00     0.001 A 
ATOM     69  C   UNL A   1      49.364  32.075  27.086  1.00  0.00     0.000 A 
ENDBRANCH  50  64
BRANCH  51  70
ATOM     70  C   UNL A   1      40.162  27.706  28.765  1.00  0.00    -0.014 A 
ATOM     71  C   UNL A   1      39.201  27.759  29.786  1.00  0.00     0.009 A 
ATOM     72  C   UNL A   1      39.931  28.472  27.608  1.00  0.00     0.009 A 
ATOM     73  C   UNL A   1      38.071  28.582  29.668  1.00  0.00     0.001 A 
ATOM     74  C   UNL A   1      38.803  29.289  27.488  1.00  0.00     0.001 A 
ATOM     75  C   UNL A   1      37.881  29.356  28.526  1.00  0.00     0.000 A 
ENDBRANCH  51  70
BRANCH  63  76
ATOM     76  C   UNL A   1      45.192  25.755  31.950  1.00  0.00    -0.014 A 
ATOM     77  C   UNL A   1      45.193  25.831  33.356  1.00  0.00     0.009 A 
ATOM     78  C   UNL A   1      44.687  24.594  31.350  1.00  0.00     0.009 A 
ATOM     79  C   UNL A   1      44.732  24.764  34.133  1.00  0.00     0.001 A 
ATOM     80  C   UNL A   1      44.206  23.537  32.125  1.00  0.00     0.001 A 
ATOM     81  C   UNL A   1      44.233  23.619  33.515  1.00  0.00     0.000 A 
ENDBRANCH  63  76
ENDBRANCH  37  38
ENDBRANCH  30  32
ENDBRANCH  29  30
ENDBRANCH  28  29
ENDBRANCH   1  28
TORSDOF 15
ENDMDL
MODEL 3
REMARK VINA RESULT:     -11.3      2.371      4.245
REMARK SMILES C[C@@H](Oc1ccc2c(c1)OCO2)C(=O)N1CCn2nc(C(=O)OCCOC(=O)c3ccc(-c4c5nc(c(-c6ccccc6)c6ccc([nH]6)c(-c6ccccc6)c6nc(c(-c7ccccc7)c7ccc4[nH]7)C=C6)C=C5)cc3)cc2C1
REMARK SMILES IDX 24 1 23 2 21 3 22 4 20 5 15 6 16 7 79 8 17 9 78 10 18 11
REMARK SMILES IDX 77 12 19 13 13 14 14 15 2 16 1 17 3 18 4 19 5 20 9 21 6 22
REMARK SMILES IDX 8 23 7 24 10 25 12 26 11 27 25 28 26 29 27 30 28 31 29 32
REMARK SMILES IDX 30 33 76 34 31 35 75 36 32 37 33 38 34 39 69 40 35 41 74 42
REMARK SMILES IDX 68 43 70 44 36 45 73 46 67 47 66 48 37 50 59 51 44 52 58 53
REMARK SMILES IDX 45 54 48 55 57 56 71 57 46 58 47 59 56 61 72 62 49 63 38 64
REMARK SMILES IDX 39 65 43 66 40 67 42 68 41 69 60 70 61 71 65 72 62 73 64 74
REMARK SMILES IDX 63 75 50 76 51 77 55 78 52 79 54 80 53 81
REMARK H PARENT 70 49 48 60
REMARK Flexibility Score: inf
ROOT
ATOM      1  C   UNL A   1      42.456  19.335  26.409  1.00  0.00     0.275 C 
ENDROOT
BRANCH   1   2
ATOM      2  O   UNL A   1      41.194  19.867  25.974  1.00  0.00    -0.457 OA
BRANCH   2   3
ATOM      3  C   UNL A   1      40.959  21.180  26.296  1.00  0.00     0.358 C 
ATOM      4  O   UNL A   1      41.838  21.956  26.668  1.00  0.00    -0.244 OA
BRANCH   3   5
ATOM      5  C   UNL A   1      39.558  21.563  26.076  1.00  0.00     0.170 A 
ATOM      6  N   UNL A   1      35.235  23.096  25.593  1.00  0.00    -0.332 N 
ATOM      7  C   UNL A   1      35.086  21.697  25.176  1.00  0.00     0.143 C 
ATOM      8  C   UNL A   1      36.534  23.664  25.931  1.00  0.00     0.175 C 
ATOM      9  C   UNL A   1      36.326  20.836  24.975  1.00  0.00     0.166 C 
ATOM     10  C   UNL A   1      37.631  22.684  25.986  1.00  0.00     0.059 A 
ATOM     11  N   UNL A   1      37.523  21.428  25.496  1.00  0.00    -0.265 N 
ATOM     12  C   UNL A   1      38.920  22.774  26.463  1.00  0.00     0.063 A 
ATOM     13  N   UNL A   1      38.677  20.747  25.462  1.00  0.00    -0.165 NA
BRANCH   6  14
ATOM     14  C   UNL A   1      34.163  23.991  25.695  1.00  0.00     0.263 C 
ATOM     15  O   UNL A   1      33.318  23.867  26.589  1.00  0.00    -0.271 OA
BRANCH  14  16
ATOM     16  C   UNL A   1      33.988  25.109  24.647  1.00  0.00     0.259 C 
ATOM     17  C   UNL A   1      34.207  24.626  23.217  1.00  0.00     0.064 C 
BRANCH  16  18
ATOM     18  O   UNL A   1      32.673  25.642  24.864  1.00  0.00    -0.481 OA
BRANCH  18  19
ATOM     19  C   UNL A   1      32.649  26.977  25.139  1.00  0.00     0.124 A 
ATOM     20  C   UNL A   1      31.548  27.737  24.712  1.00  0.00     0.050 A 
ATOM     21  C   UNL A   1      33.612  27.518  25.993  1.00  0.00     0.097 A 
ATOM     22  C   UNL A   1      31.411  29.067  25.109  1.00  0.00     0.054 A 
ATOM     23  C   UNL A   1      33.442  28.830  26.383  1.00  0.00     0.169 A 
ATOM     24  C   UNL A   1      32.371  29.582  25.951  1.00  0.00     0.166 A 
ATOM     25  O   UNL A   1      34.245  29.524  27.235  1.00  0.00    -0.453 OA
ATOM     26  O   UNL A   1      32.370  30.837  26.473  1.00  0.00    -0.454 OA
ATOM     27  C   UNL A   1      33.538  30.780  27.316  1.00  0.00     0.468 C 
ENDBRANCH  18  19
ENDBRANCH  16  18
ENDBRANCH  14  16
ENDBRANCH   6  14
ENDBRANCH   3   5
ENDBRANCH   2   3
ENDBRANCH   1   2
BRANCH   1  28
ATOM     28  C   UNL A   1      43.385  19.081  25.228  1.00  0.00     0.275 C 
BRANCH  28  29
ATOM     29  O   UNL A   1      43.703  20.295  24.549  1.00  0.00    -0.458 OA
BRANCH  29  30
ATOM     30  C   UNL A   1      45.016  20.622  24.525  1.00  0.00     0.338 C 
ATOM     31  O   UNL A   1      45.961  19.851  24.514  1.00  0.00    -0.246 OA
BRANCH  30  32
ATOM     32  C   UNL A   1      45.151  22.066  24.760  1.00  0.00     0.060 A 
ATOM     33  C   UNL A   1      46.081  22.470  25.723  1.00  0.00     0.016 A 
ATOM     34  C   UNL A   1      44.160  22.936  24.281  1.00  0.00     0.016 A 
ATOM     35  C   UNL A   1      45.886  23.680  26.356  1.00  0.00     0.010 A 
ATOM     36  C   UNL A   1      43.955  24.133  24.926  1.00  0.00     0.010 A 
ATOM     37  C   UNL A   1      44.769  24.448  26.009  1.00  0.00    -0.014 A 
BRANCH  37  38
ATOM     38  C   UNL A   1      44.468  25.614  26.809  1.00  0.00     0.031 A 
ATOM     39  C   UNL A   1      45.398  26.746  26.624  1.00  0.00     0.074 A 
ATOM     40  C   UNL A   1      43.372  25.696  27.583  1.00  0.00     0.049 A 
ATOM     41  N   UNL A   1      46.210  27.242  27.495  1.00  0.00    -0.248 NA
ATOM     42  C   UNL A   1      45.517  27.322  25.279  1.00  0.00     0.031 C 
ATOM     43  C   UNL A   1      42.214  24.801  27.639  1.00  0.00     0.029 A 
ATOM     44  N   UNL A   1      43.025  26.705  28.423  1.00  0.00    -0.354 N 
ATOM     45  C   UNL A   1      46.867  28.286  26.853  1.00  0.00     0.074 A 
ATOM     46  C   UNL A   1      46.493  28.211  25.462  1.00  0.00     0.031 C 
ATOM     47  C   UNL A   1      41.203  25.431  28.284  1.00  0.00     0.029 A 
ATOM     48  C   UNL A   1      41.692  26.701  28.797  1.00  0.00     0.049 A 
ATOM     49  H   UNL A   1      43.667  27.381  28.738  1.00  0.00     0.167 HD
ATOM     50  C   UNL A   1      47.536  29.246  27.544  1.00  0.00     0.031 A 
ATOM     51  C   UNL A   1      41.041  27.719  29.410  1.00  0.00     0.031 A 
ATOM     52  C   UNL A   1      47.746  28.874  28.918  1.00  0.00     0.049 A 
ATOM     53  C   UNL A   1      42.063  28.597  30.034  1.00  0.00     0.074 A 
ATOM     54  C   UNL A   1      48.452  27.875  29.555  1.00  0.00     0.029 A 
ATOM     55  N   UNL A   1      46.857  29.363  29.846  1.00  0.00    -0.354 N 
ATOM     56  N   UNL A   1      42.798  28.232  31.045  1.00  0.00    -0.248 NA
ATOM     57  C   UNL A   1      42.588  29.709  29.256  1.00  0.00     0.031 C 
ATOM     58  C   UNL A   1      47.636  27.495  30.660  1.00  0.00     0.029 A 
ATOM     59  C   UNL A   1      46.506  28.316  30.661  1.00  0.00     0.049 A 
ATOM     60  H   UNL A   1      46.534  30.290  29.915  1.00  0.00     0.167 HD
ATOM     61  C   UNL A   1      44.056  28.753  30.778  1.00  0.00     0.074 A 
ATOM     62  C   UNL A   1      43.841  29.741  29.723  1.00  0.00     0.031 C 
ATOM     63  C   UNL A   1      45.189  28.137  31.230  1.00  0.00     0.031 A 
BRANCH  50  64
ATOM     64  C   UNL A   1      47.702  30.660  27.068  1.00  0.00    -0.014 A 
ATOM     65  C   UNL A   1      48.972  31.258  27.151  1.00  0.00     0.009 A 
ATOM     66  C   UNL A   1      46.614  31.507  26.791  1.00  0.00     0.009 A 
ATOM     67  C   UNL A   1      49.131  32.642  27.024  1.00  0.00     0.001 A 
ATOM     68  C   UNL A   1      46.775  32.885  26.623  1.00  0.00     0.001 A 
ATOM     69  C   UNL A   1      48.031  33.455  26.767  1.00  0.00     0.000 A 
ENDBRANCH  50  64
BRANCH  51  70
ATOM     70  C   UNL A   1      39.639  28.147  29.215  1.00  0.00    -0.014 A 
ATOM     71  C   UNL A   1      38.749  28.203  30.299  1.00  0.00     0.009 A 
ATOM     72  C   UNL A   1      39.245  28.761  28.011  1.00  0.00     0.009 A 
ATOM     73  C   UNL A   1      37.528  28.885  30.191  1.00  0.00     0.001 A 
ATOM     74  C   UNL A   1      38.027  29.437  27.902  1.00  0.00     0.001 A 
ATOM     75  C   UNL A   1      37.175  29.513  28.998  1.00  0.00     0.000 A 
ENDBRANCH  51  70
BRANCH  63  76
ATOM     76  C   UNL A   1      45.028  26.983  32.191  1.00  0.00    -0.014 A 
ATOM     77  C   UNL A   1      44.953  27.160  33.586  1.00  0.00     0.009 A 
ATOM     78  C   UNL A   1      44.776  25.706  31.672  1.00  0.00     0.009 A 
ATOM     79  C   UNL A   1      44.667  26.085  34.433  1.00  0.00     0.001 A 
ATOM     80  C   UNL A   1      44.468  24.636  32.516  1.00  0.00     0.001 A 
ATOM     81  C   UNL A   1      44.420  24.823  33.895  1.00  0.00     0.000 A 
ENDBRANCH  63  76
ENDBRANCH  37  38
ENDBRANCH  30  32
ENDBRANCH  29  30
ENDBRANCH  28  29
ENDBRANCH   1  28
TORSDOF 15
ENDMDL
