MODEL 1
REMARK VINA RESULT:     -11.7      0.000      0.000
REMARK SMILES NS(=O)(=O)c1ccc(-n2nc(C(=O)NCCCC(=O)OCCOC(=O)c3ccc(-c4c5nc(c(-c6ccccc6)c6ccc([nH]6)c(-c6ccccc6)c6nc(c(-c7ccccc7)c7ccc4[nH]7)C=C6)C=C5)cc3)cc2-c2ccccc2)cc1
REMARK SMILES IDX 18 1 19 2 17 3 16 4 15 5 14 6 12 7 13 8 11 10 9 11 10 12
REMARK SMILES IDX 75 13 74 14 8 15 5 16 6 17 83 18 7 19 82 20 2 21 3 22 4 23
REMARK SMILES IDX 1 24 76 27 77 28 81 29 78 30 80 31 79 32 20 33 21 34 22 35
REMARK SMILES IDX 23 36 24 37 25 38 26 39 27 40 73 41 28 42 72 43 29 44 30 45
REMARK SMILES IDX 31 46 66 47 32 48 71 49 65 50 67 51 33 52 70 53 64 54 63 55
REMARK SMILES IDX 34 57 56 58 41 59 55 60 42 61 45 62 54 63 68 64 43 65 44 66
REMARK SMILES IDX 53 68 69 69 46 70 35 71 36 72 40 73 37 74 39 75 38 76 57 77
REMARK SMILES IDX 58 78 62 79 59 80 61 81 60 82 47 83 48 84 52 85 49 86 51 87
REMARK SMILES IDX 50 88
REMARK H PARENT 14 9 1 25 1 26 67 56 45 67
REMARK Flexibility Score: inf
ROOT
ATOM      1  C   UNL A   1      34.629  22.301  26.082  1.00  0.00     0.305 C 
ATOM      2  O   UNL A   1      34.236  23.259  26.737  1.00  0.00    -0.252 OA
ENDROOT
BRANCH   1   3
ATOM      3  C   UNL A   1      33.952  20.950  26.104  1.00  0.00     0.124 C 
BRANCH   3   4
ATOM      4  C   UNL A   1      33.016  20.610  24.947  1.00  0.00     0.033 C 
BRANCH   4   5
ATOM      5  C   UNL A   1      32.307  21.767  24.249  1.00  0.00     0.117 C 
BRANCH   5   6
ATOM      6  N   UNL A   1      32.920  22.104  22.978  1.00  0.00    -0.351 N 
ATOM      7  C   UNL A   1      32.995  23.301  22.295  1.00  0.00     0.271 C 
ATOM      8  O   UNL A   1      33.419  23.247  21.139  1.00  0.00    -0.267 OA
ATOM      9  H   UNL A   1      33.358  21.349  22.524  1.00  0.00     0.163 HD
BRANCH   7  10
ATOM     10  C   UNL A   1      32.617  24.573  22.943  1.00  0.00     0.151 A 
ATOM     11  N   UNL A   1      31.556  26.413  23.256  1.00  0.00    -0.232 N 
ATOM     12  N   UNL A   1      31.494  25.236  22.591  1.00  0.00    -0.162 NA
ATOM     13  C   UNL A   1      32.531  26.400  24.242  1.00  0.00     0.075 A 
ATOM     14  C   UNL A   1      33.309  25.302  23.943  1.00  0.00     0.065 A 
BRANCH  11  15
ATOM     15  C   UNL A   1      30.689  27.487  22.936  1.00  0.00     0.065 A 
ATOM     16  C   UNL A   1      29.111  29.745  22.615  1.00  0.00     0.082 A 
ATOM     17  C   UNL A   1      30.419  29.753  22.131  1.00  0.00     0.024 A 
ATOM     18  C   UNL A   1      28.567  28.595  23.204  1.00  0.00     0.024 A 
ATOM     19  C   UNL A   1      31.213  28.624  22.298  1.00  0.00     0.030 A 
ATOM     20  C   UNL A   1      29.351  27.445  23.335  1.00  0.00     0.030 A 
BRANCH  16  21
ATOM     21  S   UNL A   1      28.143  31.216  22.500  1.00  0.00     0.238 S 
ATOM     22  O   UNL A   1      27.080  31.165  23.486  1.00  0.00    -0.207 OA
ATOM     23  O   UNL A   1      27.899  31.502  21.112  1.00  0.00    -0.207 OA
BRANCH  21  24
ATOM     24  N   UNL A   1      29.200  32.392  23.061  1.00  0.00    -0.225 NA
ATOM     25  H   UNL A   1      29.123  32.462  24.076  1.00  0.00     0.137 HD
ATOM     26  H   UNL A   1      28.963  33.290  22.639  1.00  0.00     0.137 HD
ENDBRANCH  21  24
ENDBRANCH  16  21
ENDBRANCH  11  15
BRANCH  13  27
ATOM     27  C   UNL A   1      32.645  27.326  25.371  1.00  0.00     0.000 A 
ATOM     28  C   UNL A   1      33.639  28.317  25.404  1.00  0.00     0.010 A 
ATOM     29  C   UNL A   1      31.712  27.272  26.413  1.00  0.00     0.010 A 
ATOM     30  C   UNL A   1      33.712  29.215  26.470  1.00  0.00     0.001 A 
ATOM     31  C   UNL A   1      31.778  28.177  27.472  1.00  0.00     0.001 A 
ATOM     32  C   UNL A   1      32.780  29.147  27.502  1.00  0.00     0.000 A 
ENDBRANCH  13  27
ENDBRANCH   7  10
ENDBRANCH   5   6
ENDBRANCH   4   5
ENDBRANCH   3   4
ENDBRANCH   1   3
BRANCH   1  33
ATOM     33  O   UNL A   1      35.750  22.297  25.315  1.00  0.00    -0.462 OA
BRANCH  33  34
ATOM     34  C   UNL A   1      36.435  21.039  25.177  1.00  0.00     0.274 C 
BRANCH  34  35
ATOM     35  C   UNL A   1      37.948  21.209  25.196  1.00  0.00     0.275 C 
BRANCH  35  36
ATOM     36  O   UNL A   1      38.349  22.394  25.884  1.00  0.00    -0.458 OA
BRANCH  36  37
ATOM     37  C   UNL A   1      39.506  22.277  26.572  1.00  0.00     0.338 C 
ATOM     38  O   UNL A   1      39.964  21.260  27.068  1.00  0.00    -0.246 OA
BRANCH  37  39
ATOM     39  C   UNL A   1      40.042  23.604  26.881  1.00  0.00     0.060 A 
ATOM     40  C   UNL A   1      41.180  23.690  27.689  1.00  0.00     0.016 A 
ATOM     41  C   UNL A   1      39.242  24.722  26.614  1.00  0.00     0.016 A 
ATOM     42  C   UNL A   1      41.440  24.880  28.343  1.00  0.00     0.010 A 
ATOM     43  C   UNL A   1      39.485  25.896  27.288  1.00  0.00     0.010 A 
ATOM     44  C   UNL A   1      40.546  25.948  28.190  1.00  0.00    -0.014 A 
BRANCH  44  45
ATOM     45  C   UNL A   1      40.856  27.218  28.821  1.00  0.00     0.031 A 
ATOM     46  C   UNL A   1      42.028  27.872  28.188  1.00  0.00     0.074 A 
ATOM     47  C   UNL A   1      40.074  27.799  29.754  1.00  0.00     0.049 A 
ATOM     48  N   UNL A   1      43.176  28.090  28.731  1.00  0.00    -0.248 NA
ATOM     49  C   UNL A   1      41.991  28.136  26.737  1.00  0.00     0.031 C 
ATOM     50  C   UNL A   1      38.766  27.357  30.245  1.00  0.00     0.029 A 
ATOM     51  N   UNL A   1      40.238  28.991  30.392  1.00  0.00    -0.354 N 
ATOM     52  C   UNL A   1      43.937  28.725  27.758  1.00  0.00     0.074 A 
ATOM     53  C   UNL A   1      43.242  28.539  26.512  1.00  0.00     0.031 C 
ATOM     54  C   UNL A   1      38.159  28.384  30.884  1.00  0.00     0.029 A 
ATOM     55  C   UNL A   1      39.075  29.512  30.950  1.00  0.00     0.049 A 
ATOM     56  H   UNL A   1      41.109  29.447  30.454  1.00  0.00     0.167 HD
ATOM     57  C   UNL A   1      44.914  29.604  28.109  1.00  0.00     0.031 A 
ATOM     58  C   UNL A   1      38.864  30.793  31.365  1.00  0.00     0.031 A 
ATOM     59  C   UNL A   1      45.285  29.446  29.494  1.00  0.00     0.049 A 
ATOM     60  C   UNL A   1      40.194  31.429  31.538  1.00  0.00     0.074 A 
ATOM     61  C   UNL A   1      45.746  28.389  30.255  1.00  0.00     0.029 A 
ATOM     62  N   UNL A   1      44.782  30.367  30.383  1.00  0.00    -0.354 N 
ATOM     63  N   UNL A   1      41.020  31.098  32.487  1.00  0.00    -0.248 NA
ATOM     64  C   UNL A   1      40.796  32.058  30.371  1.00  0.00     0.031 C 
ATOM     65  C   UNL A   1      45.058  28.507  31.497  1.00  0.00     0.029 A 
ATOM     66  C   UNL A   1      44.305  29.682  31.468  1.00  0.00     0.049 A 
ATOM     67  H   UNL A   1      44.768  31.343  30.261  1.00  0.00     0.167 HD
ATOM     68  C   UNL A   1      42.253  31.021  31.856  1.00  0.00     0.074 A 
ATOM     69  C   UNL A   1      42.069  31.701  30.571  1.00  0.00     0.031 C 
ATOM     70  C   UNL A   1      43.213  30.151  32.287  1.00  0.00     0.031 A 
BRANCH  57  71
ATOM     71  C   UNL A   1      45.158  30.893  27.360  1.00  0.00    -0.014 A 
ATOM     72  C   UNL A   1      46.484  31.229  27.036  1.00  0.00     0.009 A 
ATOM     73  C   UNL A   1      44.201  31.919  27.242  1.00  0.00     0.009 A 
ATOM     74  C   UNL A   1      46.846  32.543  26.720  1.00  0.00     0.001 A 
ATOM     75  C   UNL A   1      44.551  33.222  26.883  1.00  0.00     0.001 A 
ATOM     76  C   UNL A   1      45.880  33.541  26.656  1.00  0.00     0.000 A 
ENDBRANCH  57  71
BRANCH  58  77
ATOM     77  C   UNL A   1      37.617  31.599  31.343  1.00  0.00    -0.014 A 
ATOM     78  C   UNL A   1      36.536  31.291  32.193  1.00  0.00     0.009 A 
ATOM     79  C   UNL A   1      37.582  32.842  30.687  1.00  0.00     0.009 A 
ATOM     80  C   UNL A   1      35.491  32.205  32.401  1.00  0.00     0.001 A 
ATOM     81  C   UNL A   1      36.538  33.752  30.892  1.00  0.00     0.001 A 
ATOM     82  C   UNL A   1      35.500  33.442  31.762  1.00  0.00     0.000 A 
ENDBRANCH  58  77
BRANCH  70  83
ATOM     83  C   UNL A   1      43.026  29.457  33.613  1.00  0.00    -0.014 A 
ATOM     84  C   UNL A   1      42.214  28.325  33.803  1.00  0.00     0.009 A 
ATOM     85  C   UNL A   1      43.835  29.878  34.681  1.00  0.00     0.009 A 
ATOM     86  C   UNL A   1      42.191  27.660  35.035  1.00  0.00     0.001 A 
ATOM     87  C   UNL A   1      43.832  29.200  35.899  1.00  0.00     0.001 A 
ATOM     88  C   UNL A   1      43.004  28.097  36.080  1.00  0.00     0.000 A 
ENDBRANCH  70  83
ENDBRANCH  44  45
ENDBRANCH  37  39
ENDBRANCH  36  37
ENDBRANCH  35  36
ENDBRANCH  34  35
ENDBRANCH  33  34
ENDBRANCH   1  33
TORSDOF 19
ENDMDL
MODEL 2
REMARK VINA RESULT:     -11.5      3.304      8.480
REMARK SMILES NS(=O)(=O)c1ccc(-n2nc(C(=O)NCCCC(=O)OCCOC(=O)c3ccc(-c4c5nc(c(-c6ccccc6)c6ccc([nH]6)c(-c6ccccc6)c6nc(c(-c7ccccc7)c7ccc4[nH]7)C=C6)C=C5)cc3)cc2-c2ccccc2)cc1
REMARK SMILES IDX 18 1 19 2 17 3 16 4 15 5 14 6 12 7 13 8 11 10 9 11 10 12
REMARK SMILES IDX 75 13 74 14 8 15 5 16 6 17 83 18 7 19 82 20 2 21 3 22 4 23
REMARK SMILES IDX 1 24 76 27 77 28 81 29 78 30 80 31 79 32 20 33 21 34 22 35
REMARK SMILES IDX 23 36 24 37 25 38 26 39 27 40 73 41 28 42 72 43 29 44 30 45
REMARK SMILES IDX 31 46 66 47 32 48 71 49 65 50 67 51 33 52 70 53 64 54 63 55
REMARK SMILES IDX 34 57 56 58 41 59 55 60 42 61 45 62 54 63 68 64 43 65 44 66
REMARK SMILES IDX 53 68 69 69 46 70 35 71 36 72 40 73 37 74 39 75 38 76 57 77
REMARK SMILES IDX 58 78 62 79 59 80 61 81 60 82 47 83 48 84 52 85 49 86 51 87
REMARK SMILES IDX 50 88
REMARK H PARENT 14 9 1 25 1 26 67 56 45 67
REMARK Flexibility Score: inf
ROOT
ATOM      1  C   UNL A   1      30.918  28.631  23.319  1.00  0.00     0.305 C 
ATOM      2  O   UNL A   1      31.762  28.252  22.515  1.00  0.00    -0.252 OA
ENDROOT
BRANCH   1   3
ATOM      3  C   UNL A   1      29.440  28.356  23.157  1.00  0.00     0.124 C 
BRANCH   3   4
ATOM      4  C   UNL A   1      28.912  27.015  23.660  1.00  0.00     0.033 C 
BRANCH   4   5
ATOM      5  C   UNL A   1      29.921  26.037  24.256  1.00  0.00     0.117 C 
BRANCH   5   6
ATOM      6  N   UNL A   1      29.524  25.565  25.569  1.00  0.00    -0.351 N 
ATOM      7  C   UNL A   1      29.914  24.457  26.291  1.00  0.00     0.271 C 
ATOM      8  O   UNL A   1      29.265  24.209  27.310  1.00  0.00    -0.267 OA
ATOM      9  H   UNL A   1      28.864  26.135  26.025  1.00  0.00     0.163 HD
BRANCH   7  10
ATOM     10  C   UNL A   1      31.074  23.643  25.872  1.00  0.00     0.151 A 
ATOM     11  N   UNL A   1      32.167  21.904  25.251  1.00  0.00    -0.232 N 
ATOM     12  N   UNL A   1      30.914  22.401  25.364  1.00  0.00    -0.162 NA
ATOM     13  C   UNL A   1      33.131  22.889  25.396  1.00  0.00     0.075 A 
ATOM     14  C   UNL A   1      32.454  23.956  25.945  1.00  0.00     0.065 A 
BRANCH  11  15
ATOM     15  C   UNL A   1      32.394  20.526  25.006  1.00  0.00     0.065 A 
ATOM     16  C   UNL A   1      33.192  17.913  24.528  1.00  0.00     0.082 A 
ATOM     17  C   UNL A   1      33.095  18.367  25.844  1.00  0.00     0.024 A 
ATOM     18  C   UNL A   1      32.834  18.738  23.452  1.00  0.00     0.024 A 
ATOM     19  C   UNL A   1      32.702  19.679  26.083  1.00  0.00     0.030 A 
ATOM     20  C   UNL A   1      32.400  20.044  23.694  1.00  0.00     0.030 A 
BRANCH  16  21
ATOM     21  S   UNL A   1      33.796  16.283  24.223  1.00  0.00     0.238 S 
ATOM     22  O   UNL A   1      34.251  16.194  22.849  1.00  0.00    -0.207 OA
ATOM     23  O   UNL A   1      32.881  15.336  24.800  1.00  0.00    -0.207 OA
BRANCH  21  24
ATOM     24  N   UNL A   1      35.194  16.235  25.149  1.00  0.00    -0.225 NA
ATOM     25  H   UNL A   1      35.379  15.273  25.435  1.00  0.00     0.137 HD
ATOM     26  H   UNL A   1      35.074  16.818  25.976  1.00  0.00     0.137 HD
ENDBRANCH  21  24
ENDBRANCH  16  21
ENDBRANCH  11  15
BRANCH  13  27
ATOM     27  C   UNL A   1      34.536  22.805  24.987  1.00  0.00     0.000 A 
ATOM     28  C   UNL A   1      34.914  22.955  23.643  1.00  0.00     0.010 A 
ATOM     29  C   UNL A   1      35.534  22.636  25.953  1.00  0.00     0.010 A 
ATOM     30  C   UNL A   1      36.259  22.909  23.273  1.00  0.00     0.001 A 
ATOM     31  C   UNL A   1      36.878  22.601  25.585  1.00  0.00     0.001 A 
ATOM     32  C   UNL A   1      37.241  22.735  24.245  1.00  0.00     0.000 A 
ENDBRANCH  13  27
ENDBRANCH   7  10
ENDBRANCH   5   6
ENDBRANCH   4   5
ENDBRANCH   3   4
ENDBRANCH   1   3
BRANCH   1  33
ATOM     33  O   UNL A   1      31.177  29.398  24.409  1.00  0.00    -0.462 OA
BRANCH  33  34
ATOM     34  C   UNL A   1      32.557  29.521  24.800  1.00  0.00     0.274 C 
BRANCH  34  35
ATOM     35  C   UNL A   1      32.711  30.250  26.128  1.00  0.00     0.275 C 
BRANCH  35  36
ATOM     36  O   UNL A   1      34.061  30.244  26.593  1.00  0.00    -0.458 OA
BRANCH  36  37
ATOM     37  C   UNL A   1      34.312  31.120  27.590  1.00  0.00     0.338 C 
ATOM     38  O   UNL A   1      33.767  32.195  27.776  1.00  0.00    -0.246 OA
BRANCH  37  39
ATOM     39  C   UNL A   1      35.530  30.729  28.304  1.00  0.00     0.060 A 
ATOM     40  C   UNL A   1      36.476  31.718  28.595  1.00  0.00     0.016 A 
ATOM     41  C   UNL A   1      35.836  29.367  28.400  1.00  0.00     0.016 A 
ATOM     42  C   UNL A   1      37.778  31.333  28.854  1.00  0.00     0.010 A 
ATOM     43  C   UNL A   1      37.137  28.986  28.629  1.00  0.00     0.010 A 
ATOM     44  C   UNL A   1      38.108  29.972  28.796  1.00  0.00    -0.014 A 
BRANCH  44  45
ATOM     45  C   UNL A   1      39.459  29.562  29.135  1.00  0.00     0.031 A 
ATOM     46  C   UNL A   1      39.668  29.529  30.604  1.00  0.00     0.074 A 
ATOM     47  C   UNL A   1      40.353  29.114  28.231  1.00  0.00     0.049 A 
ATOM     48  N   UNL A   1      40.449  30.292  31.289  1.00  0.00    -0.248 NA
ATOM     49  C   UNL A   1      38.770  28.696  31.427  1.00  0.00     0.031 C 
ATOM     50  C   UNL A   1      40.148  28.861  26.802  1.00  0.00     0.029 A 
ATOM     51  N   UNL A   1      41.628  28.675  28.426  1.00  0.00    -0.354 N 
ATOM     52  C   UNL A   1      40.309  29.882  32.610  1.00  0.00     0.074 A 
ATOM     53  C   UNL A   1      39.131  29.058  32.658  1.00  0.00     0.031 C 
ATOM     54  C   UNL A   1      41.154  28.082  26.338  1.00  0.00     0.029 A 
ATOM     55  C   UNL A   1      42.127  27.879  27.400  1.00  0.00     0.049 A 
ATOM     56  H   UNL A   1      42.152  28.903  29.228  1.00  0.00     0.167 HD
ATOM     57  C   UNL A   1      41.343  30.008  33.485  1.00  0.00     0.031 A 
ATOM     58  C   UNL A   1      43.217  27.063  27.450  1.00  0.00     0.031 A 
ATOM     59  C   UNL A   1      42.331  30.938  32.994  1.00  0.00     0.049 A 
ATOM     60  C   UNL A   1      44.037  27.485  28.613  1.00  0.00     0.074 A 
ATOM     61  C   UNL A   1      42.299  32.261  32.598  1.00  0.00     0.029 A 
ATOM     62  N   UNL A   1      43.473  30.402  32.446  1.00  0.00    -0.354 N 
ATOM     63  N   UNL A   1      44.691  28.610  28.648  1.00  0.00    -0.248 NA
ATOM     64  C   UNL A   1      43.720  26.902  29.908  1.00  0.00     0.031 C 
ATOM     65  C   UNL A   1      43.138  32.318  31.448  1.00  0.00     0.029 A 
ATOM     66  C   UNL A   1      43.720  31.061  31.272  1.00  0.00     0.049 A 
ATOM     67  H   UNL A   1      44.014  29.674  32.828  1.00  0.00     0.167 HD
ATOM     68  C   UNL A   1      44.440  29.112  29.916  1.00  0.00     0.074 A 
ATOM     69  C   UNL A   1      43.903  27.980  30.677  1.00  0.00     0.031 C 
ATOM     70  C   UNL A   1      44.394  30.457  30.147  1.00  0.00     0.031 A 
BRANCH  57  71
ATOM     71  C   UNL A   1      41.683  28.947  34.504  1.00  0.00    -0.014 A 
ATOM     72  C   UNL A   1      42.287  29.353  35.707  1.00  0.00     0.009 A 
ATOM     73  C   UNL A   1      41.727  27.570  34.211  1.00  0.00     0.009 A 
ATOM     74  C   UNL A   1      42.989  28.449  36.511  1.00  0.00     0.001 A 
ATOM     75  C   UNL A   1      42.388  26.657  35.033  1.00  0.00     0.001 A 
ATOM     76  C   UNL A   1      43.049  27.103  36.167  1.00  0.00     0.000 A 
ENDBRANCH  57  71
BRANCH  58  77
ATOM     77  C   UNL A   1      43.461  25.771  26.758  1.00  0.00    -0.014 A 
ATOM     78  C   UNL A   1      44.079  25.728  25.493  1.00  0.00     0.009 A 
ATOM     79  C   UNL A   1      43.340  24.556  27.455  1.00  0.00     0.009 A 
ATOM     80  C   UNL A   1      44.585  24.526  24.971  1.00  0.00     0.001 A 
ATOM     81  C   UNL A   1      43.841  23.356  26.933  1.00  0.00     0.001 A 
ATOM     82  C   UNL A   1      44.478  23.344  25.698  1.00  0.00     0.000 A 
ENDBRANCH  58  77
BRANCH  70  83
ATOM     83  C   UNL A   1      44.873  31.398  29.070  1.00  0.00    -0.014 A 
ATOM     84  C   UNL A   1      46.207  31.817  28.925  1.00  0.00     0.009 A 
ATOM     85  C   UNL A   1      43.956  31.746  28.065  1.00  0.00     0.009 A 
ATOM     86  C   UNL A   1      46.598  32.590  27.825  1.00  0.00     0.001 A 
ATOM     87  C   UNL A   1      44.351  32.493  26.956  1.00  0.00     0.001 A 
ATOM     88  C   UNL A   1      45.669  32.922  26.839  1.00  0.00     0.000 A 
ENDBRANCH  70  83
ENDBRANCH  44  45
ENDBRANCH  37  39
ENDBRANCH  36  37
ENDBRANCH  35  36
ENDBRANCH  34  35
ENDBRANCH  33  34
ENDBRANCH   1  33
TORSDOF 19
ENDMDL
MODEL 3
REMARK VINA RESULT:     -11.1      1.985      2.830
REMARK SMILES NS(=O)(=O)c1ccc(-n2nc(C(=O)NCCCC(=O)OCCOC(=O)c3ccc(-c4c5nc(c(-c6ccccc6)c6ccc([nH]6)c(-c6ccccc6)c6nc(c(-c7ccccc7)c7ccc4[nH]7)C=C6)C=C5)cc3)cc2-c2ccccc2)cc1
REMARK SMILES IDX 18 1 19 2 17 3 16 4 15 5 14 6 12 7 13 8 11 10 9 11 10 12
REMARK SMILES IDX 75 13 74 14 8 15 5 16 6 17 83 18 7 19 82 20 2 21 3 22 4 23
REMARK SMILES IDX 1 24 76 27 77 28 81 29 78 30 80 31 79 32 20 33 21 34 22 35
REMARK SMILES IDX 23 36 24 37 25 38 26 39 27 40 73 41 28 42 72 43 29 44 30 45
REMARK SMILES IDX 31 46 66 47 32 48 71 49 65 50 67 51 33 52 70 53 64 54 63 55
REMARK SMILES IDX 34 57 56 58 41 59 55 60 42 61 45 62 54 63 68 64 43 65 44 66
REMARK SMILES IDX 53 68 69 69 46 70 35 71 36 72 40 73 37 74 39 75 38 76 57 77
REMARK SMILES IDX 58 78 62 79 59 80 61 81 60 82 47 83 48 84 52 85 49 86 51 87
REMARK SMILES IDX 50 88
REMARK H PARENT 14 9 1 25 1 26 67 56 45 67
REMARK Flexibility Score: inf
ROOT
ATOM      1  C   UNL A   1      37.502  23.095  25.947  1.00  0.00     0.305 C 
ATOM      2  O   UNL A   1      36.879  24.103  26.257  1.00  0.00    -0.252 OA
ENDROOT
BRANCH   1   3
ATOM      3  C   UNL A   1      36.835  21.789  25.582  1.00  0.00     0.124 C 
BRANCH   3   4
ATOM      4  C   UNL A   1      35.759  21.822  24.500  1.00  0.00     0.033 C 
BRANCH   4   5
ATOM      5  C   UNL A   1      34.303  21.884  24.953  1.00  0.00     0.117 C 
BRANCH   5   6
ATOM      6  N   UNL A   1      33.375  21.618  23.870  1.00  0.00    -0.351 N 
ATOM      7  C   UNL A   1      32.308  22.348  23.389  1.00  0.00     0.271 C 
ATOM      8  O   UNL A   1      31.578  21.781  22.572  1.00  0.00    -0.267 OA
ATOM      9  H   UNL A   1      33.534  20.770  23.396  1.00  0.00     0.163 HD
BRANCH   7  10
ATOM     10  C   UNL A   1      32.089  23.746  23.812  1.00  0.00     0.151 A 
ATOM     11  N   UNL A   1      31.248  25.721  23.808  1.00  0.00    -0.232 N 
ATOM     12  N   UNL A   1      31.041  24.464  23.351  1.00  0.00    -0.162 NA
ATOM     13  C   UNL A   1      32.233  25.763  24.782  1.00  0.00     0.075 A 
ATOM     14  C   UNL A   1      32.877  24.549  24.674  1.00  0.00     0.065 A 
BRANCH  11  15
ATOM     15  C   UNL A   1      30.502  26.819  23.309  1.00  0.00     0.065 A 
ATOM     16  C   UNL A   1      29.121  29.130  22.648  1.00  0.00     0.082 A 
ATOM     17  C   UNL A   1      30.487  29.051  22.375  1.00  0.00     0.024 A 
ATOM     18  C   UNL A   1      28.429  28.040  23.194  1.00  0.00     0.024 A 
ATOM     19  C   UNL A   1      31.180  27.895  22.713  1.00  0.00     0.030 A 
ATOM     20  C   UNL A   1      29.118  26.862  23.496  1.00  0.00     0.030 A 
BRANCH  16  21
ATOM     21  S   UNL A   1      28.265  30.639  22.319  1.00  0.00     0.238 S 
ATOM     22  O   UNL A   1      27.496  31.015  23.490  1.00  0.00    -0.207 OA
ATOM     23  O   UNL A   1      27.690  30.566  21.004  1.00  0.00    -0.207 OA
BRANCH  21  24
ATOM     24  N   UNL A   1      29.514  31.756  22.242  1.00  0.00    -0.225 NA
ATOM     25  H   UNL A   1      29.175  32.615  21.809  1.00  0.00     0.137 HD
ATOM     26  H   UNL A   1      30.278  31.373  21.686  1.00  0.00     0.137 HD
ENDBRANCH  21  24
ENDBRANCH  16  21
ENDBRANCH  11  15
BRANCH  13  27
ATOM     27  C   UNL A   1      32.471  26.846  25.739  1.00  0.00     0.000 A 
ATOM     28  C   UNL A   1      31.502  27.203  26.691  1.00  0.00     0.010 A 
ATOM     29  C   UNL A   1      33.706  27.503  25.755  1.00  0.00     0.010 A 
ATOM     30  C   UNL A   1      31.757  28.213  27.621  1.00  0.00     0.001 A 
ATOM     31  C   UNL A   1      33.965  28.505  26.691  1.00  0.00     0.001 A 
ATOM     32  C   UNL A   1      32.989  28.862  27.622  1.00  0.00     0.000 A 
ENDBRANCH  13  27
ENDBRANCH   7  10
ENDBRANCH   5   6
ENDBRANCH   4   5
ENDBRANCH   3   4
ENDBRANCH   1   3
BRANCH   1  33
ATOM     33  O   UNL A   1      38.857  22.990  25.956  1.00  0.00    -0.462 OA
BRANCH  33  34
ATOM     34  C   UNL A   1      39.404  21.714  26.336  1.00  0.00     0.274 C 
BRANCH  34  35
ATOM     35  C   UNL A   1      40.721  21.860  27.087  1.00  0.00     0.275 C 
BRANCH  35  36
ATOM     36  O   UNL A   1      41.248  23.185  26.998  1.00  0.00    -0.458 OA
BRANCH  36  37
ATOM     37  C   UNL A   1      41.841  23.627  28.128  1.00  0.00     0.338 C 
ATOM     38  O   UNL A   1      42.187  22.955  29.085  1.00  0.00    -0.246 OA
BRANCH  37  39
ATOM     39  C   UNL A   1      41.792  25.090  28.179  1.00  0.00     0.060 A 
ATOM     40  C   UNL A   1      42.644  25.753  29.069  1.00  0.00     0.016 A 
ATOM     41  C   UNL A   1      40.711  25.741  27.571  1.00  0.00     0.016 A 
ATOM     42  C   UNL A   1      42.326  27.042  29.454  1.00  0.00     0.010 A 
ATOM     43  C   UNL A   1      40.380  27.012  27.978  1.00  0.00     0.010 A 
ATOM     44  C   UNL A   1      41.154  27.630  28.958  1.00  0.00    -0.014 A 
BRANCH  44  45
ATOM     45  C   UNL A   1      40.857  29.007  29.308  1.00  0.00     0.031 A 
ATOM     46  C   UNL A   1      41.952  29.923  28.903  1.00  0.00     0.074 A 
ATOM     47  C   UNL A   1      39.666  29.415  29.791  1.00  0.00     0.049 A 
ATOM     48  N   UNL A   1      42.722  30.598  29.686  1.00  0.00    -0.248 NA
ATOM     49  C   UNL A   1      42.369  29.943  27.488  1.00  0.00     0.031 C 
ATOM     50  C   UNL A   1      38.444  28.627  29.971  1.00  0.00     0.029 A 
ATOM     51  N   UNL A   1      39.258  30.670  30.125  1.00  0.00    -0.354 N 
ATOM     52  C   UNL A   1      43.579  31.305  28.851  1.00  0.00     0.074 A 
ATOM     53  C   UNL A   1      43.457  30.712  27.546  1.00  0.00     0.031 C 
ATOM     54  C   UNL A   1      37.391  29.466  30.121  1.00  0.00     0.029 A 
ATOM     55  C   UNL A   1      37.877  30.836  30.165  1.00  0.00     0.049 A 
ATOM     56  H   UNL A   1      39.888  31.400  30.322  1.00  0.00     0.167 HD
ATOM     57  C   UNL A   1      44.083  32.508  29.238  1.00  0.00     0.031 A 
ATOM     58  C   UNL A   1      37.190  32.013  30.161  1.00  0.00     0.031 A 
ATOM     59  C   UNL A   1      43.960  32.690  30.664  1.00  0.00     0.049 A 
ATOM     60  C   UNL A   1      38.141  33.085  30.549  1.00  0.00     0.074 A 
ATOM     61  C   UNL A   1      44.387  31.979  31.769  1.00  0.00     0.029 A 
ATOM     62  N   UNL A   1      42.940  33.503  31.102  1.00  0.00    -0.354 N 
ATOM     63  N   UNL A   1      38.627  33.199  31.751  1.00  0.00    -0.248 NA
ATOM     64  C   UNL A   1      38.926  33.704  29.491  1.00  0.00     0.031 C 
ATOM     65  C   UNL A   1      43.294  32.034  32.681  1.00  0.00     0.029 A 
ATOM     66  C   UNL A   1      42.312  32.862  32.135  1.00  0.00     0.049 A 
ATOM     67  H   UNL A   1      42.705  34.386  30.738  1.00  0.00     0.167 HD
ATOM     68  C   UNL A   1      39.975  33.458  31.551  1.00  0.00     0.074 A 
ATOM     69  C   UNL A   1      40.087  33.838  30.140  1.00  0.00     0.031 C 
ATOM     70  C   UNL A   1      40.914  33.043  32.451  1.00  0.00     0.031 A 
BRANCH  57  71
ATOM     71  C   UNL A   1      44.219  33.678  28.293  1.00  0.00    -0.014 A 
ATOM     72  C   UNL A   1      45.510  34.165  28.023  1.00  0.00     0.009 A 
ATOM     73  C   UNL A   1      43.142  34.503  27.915  1.00  0.00     0.009 A 
ATOM     74  C   UNL A   1      45.711  35.450  27.507  1.00  0.00     0.001 A 
ATOM     75  C   UNL A   1      43.337  35.768  27.358  1.00  0.00     0.001 A 
ATOM     76  C   UNL A   1      44.623  36.256  27.187  1.00  0.00     0.000 A 
ENDBRANCH  57  71
BRANCH  58  77
ATOM     77  C   UNL A   1      35.865  32.330  29.570  1.00  0.00    -0.014 A 
ATOM     78  C   UNL A   1      35.110  33.430  30.023  1.00  0.00     0.009 A 
ATOM     79  C   UNL A   1      35.454  31.720  28.371  1.00  0.00     0.009 A 
ATOM     80  C   UNL A   1      34.019  33.917  29.285  1.00  0.00     0.001 A 
ATOM     81  C   UNL A   1      34.363  32.204  27.638  1.00  0.00     0.001 A 
ATOM     82  C   UNL A   1      33.655  33.313  28.085  1.00  0.00     0.000 A 
ENDBRANCH  58  77
BRANCH  70  83
ATOM     83  C   UNL A   1      40.460  32.528  33.794  1.00  0.00    -0.014 A 
ATOM     84  C   UNL A   1      40.523  33.271  34.986  1.00  0.00     0.009 A 
ATOM     85  C   UNL A   1      39.792  31.293  33.818  1.00  0.00     0.009 A 
ATOM     86  C   UNL A   1      39.964  32.772  36.169  1.00  0.00     0.001 A 
ATOM     87  C   UNL A   1      39.213  30.808  34.990  1.00  0.00     0.001 A 
ATOM     88  C   UNL A   1      39.306  31.543  36.167  1.00  0.00     0.000 A 
ENDBRANCH  70  83
ENDBRANCH  44  45
ENDBRANCH  37  39
ENDBRANCH  36  37
ENDBRANCH  35  36
ENDBRANCH  34  35
ENDBRANCH  33  34
ENDBRANCH   1  33
TORSDOF 19
ENDMDL
