MODEL 1
REMARK VINA RESULT:     -11.8      0.000      0.000
REMARK SMILES O=C(OCCOC(=O)[C@H]1[NH2+]CC[C@H]1c1cccc(Oc2ccccc2)c1)c1ccc(-c2c3nc(c(-c4ccccc4)c4ccc([nH]4)c(-c4ccccc4)c4nc(c(-c5ccccc5)c5ccc2[nH]5)C=C4)C=C3)cc1
REMARK SMILES IDX 5 1 4 2 3 3 2 4 1 5 27 6 28 7 74 8 29 9 73 10 30 11 31 12
REMARK SMILES IDX 32 13 67 14 33 15 72 16 66 17 68 18 34 19 71 20 65 21 64 22
REMARK SMILES IDX 35 24 57 25 42 26 56 27 43 28 46 29 55 30 69 31 44 32 45 33
REMARK SMILES IDX 54 35 70 36 47 37 36 38 37 39 41 40 38 41 40 42 39 43 58 44
REMARK SMILES IDX 59 45 63 46 60 47 62 48 61 49 48 50 49 51 53 52 50 53 52 54
REMARK SMILES IDX 51 55 6 56 7 57 8 58 9 59 10 60 13 61 11 62 12 65 14 66
REMARK SMILES IDX 15 67 26 68 16 69 18 70 17 71 19 72 20 73 21 74 25 75 22 76
REMARK SMILES IDX 24 77 23 78
REMARK H PARENT 68 23 46 34 10 63 10 64
REMARK Flexibility Score: inf
ROOT
ATOM      1  C   UNL A   1      32.022  30.814  26.397  1.00  0.00     0.274 C 
ENDROOT
BRANCH   1   2
ATOM      2  C   UNL A   1      31.430  32.112  26.933  1.00  0.00     0.275 C 
BRANCH   2   3
ATOM      3  O   UNL A   1      32.325  33.234  26.947  1.00  0.00    -0.458 OA
BRANCH   3   4
ATOM      4  C   UNL A   1      32.985  33.795  27.985  1.00  0.00     0.338 C 
ATOM      5  O   UNL A   1      32.537  34.828  28.479  1.00  0.00    -0.246 OA
BRANCH   4   6
ATOM      6  C   UNL A   1      34.262  33.251  28.543  1.00  0.00     0.060 A 
ATOM      7  C   UNL A   1      35.550  33.548  28.084  1.00  0.00     0.016 A 
ATOM      8  C   UNL A   1      34.135  32.350  29.614  1.00  0.00     0.016 A 
ATOM      9  C   UNL A   1      36.684  33.057  28.737  1.00  0.00     0.010 A 
ATOM     10  C   UNL A   1      35.264  31.831  30.255  1.00  0.00     0.010 A 
ATOM     11  C   UNL A   1      36.547  32.195  29.824  1.00  0.00    -0.014 A 
BRANCH  11  12
ATOM     12  C   UNL A   1      37.735  31.497  30.357  1.00  0.00     0.031 A 
ATOM     13  C   UNL A   1      38.127  31.810  31.765  1.00  0.00     0.074 A 
ATOM     14  C   UNL A   1      38.417  30.586  29.638  1.00  0.00     0.049 A 
ATOM     15  N   UNL A   1      39.057  31.267  32.501  1.00  0.00    -0.248 NA
ATOM     16  C   UNL A   1      37.344  32.858  32.446  1.00  0.00     0.031 C 
ATOM     17  C   UNL A   1      38.084  30.152  28.285  1.00  0.00     0.029 A 
ATOM     18  N   UNL A   1      39.544  29.865  29.945  1.00  0.00    -0.354 N 
ATOM     19  C   UNL A   1      38.938  31.874  33.742  1.00  0.00     0.074 A 
ATOM     20  C   UNL A   1      37.918  32.891  33.635  1.00  0.00     0.031 C 
ATOM     21  C   UNL A   1      39.017  29.282  27.857  1.00  0.00     0.029 A 
ATOM     22  C   UNL A   1      39.995  29.078  28.913  1.00  0.00     0.049 A 
ATOM     23  H   UNL A   1      39.986  29.908  30.824  1.00  0.00     0.167 HD
ATOM     24  C   UNL A   1      39.589  31.578  34.887  1.00  0.00     0.031 A 
ATOM     25  C   UNL A   1      41.068  28.268  28.836  1.00  0.00     0.031 A 
ATOM     26  C   UNL A   1      40.640  30.607  34.967  1.00  0.00     0.049 A 
ATOM     27  C   UNL A   1      41.886  28.066  30.080  1.00  0.00     0.074 A 
ATOM     28  C   UNL A   1      41.393  30.233  36.063  1.00  0.00     0.029 A 
ATOM     29  N   UNL A   1      41.103  29.872  33.884  1.00  0.00    -0.354 N 
ATOM     30  N   UNL A   1      41.711  28.587  31.272  1.00  0.00    -0.248 NA
ATOM     31  C   UNL A   1      43.007  27.123  29.989  1.00  0.00     0.031 C 
ATOM     32  C   UNL A   1      42.349  29.308  35.629  1.00  0.00     0.029 A 
ATOM     33  C   UNL A   1      42.152  29.063  34.277  1.00  0.00     0.049 A 
ATOM     34  H   UNL A   1      40.738  29.920  32.971  1.00  0.00     0.167 HD
ATOM     35  C   UNL A   1      42.657  27.986  32.089  1.00  0.00     0.074 A 
ATOM     36  C   UNL A   1      43.408  27.070  31.251  1.00  0.00     0.031 C 
ATOM     37  C   UNL A   1      42.870  28.157  33.417  1.00  0.00     0.031 A 
BRANCH  24  38
ATOM     38  C   UNL A   1      39.170  32.356  36.098  1.00  0.00    -0.014 A 
ATOM     39  C   UNL A   1      38.131  31.894  36.926  1.00  0.00     0.009 A 
ATOM     40  C   UNL A   1      39.738  33.611  36.353  1.00  0.00     0.009 A 
ATOM     41  C   UNL A   1      37.627  32.702  37.946  1.00  0.00     0.001 A 
ATOM     42  C   UNL A   1      39.251  34.405  37.392  1.00  0.00     0.001 A 
ATOM     43  C   UNL A   1      38.186  33.958  38.176  1.00  0.00     0.000 A 
ENDBRANCH  24  38
BRANCH  25  44
ATOM     44  C   UNL A   1      41.400  27.552  27.573  1.00  0.00    -0.014 A 
ATOM     45  C   UNL A   1      42.230  28.141  26.606  1.00  0.00     0.009 A 
ATOM     46  C   UNL A   1      40.859  26.283  27.310  1.00  0.00     0.009 A 
ATOM     47  C   UNL A   1      42.478  27.495  25.390  1.00  0.00     0.001 A 
ATOM     48  C   UNL A   1      41.127  25.629  26.103  1.00  0.00     0.001 A 
ATOM     49  C   UNL A   1      41.927  26.240  25.140  1.00  0.00     0.000 A 
ENDBRANCH  25  44
BRANCH  37  50
ATOM     50  C   UNL A   1      43.916  27.289  34.052  1.00  0.00    -0.014 A 
ATOM     51  C   UNL A   1      45.265  27.670  34.087  1.00  0.00     0.009 A 
ATOM     52  C   UNL A   1      43.525  26.089  34.667  1.00  0.00     0.009 A 
ATOM     53  C   UNL A   1      46.210  26.845  34.698  1.00  0.00     0.001 A 
ATOM     54  C   UNL A   1      44.466  25.285  35.306  1.00  0.00     0.001 A 
ATOM     55  C   UNL A   1      45.809  25.658  35.312  1.00  0.00     0.000 A 
ENDBRANCH  37  50
ENDBRANCH  11  12
ENDBRANCH   4   6
ENDBRANCH   3   4
ENDBRANCH   2   3
ENDBRANCH   1   2
BRANCH   1  56
ATOM     56  O   UNL A   1      32.389  29.846  27.391  1.00  0.00    -0.458 OA
BRANCH  56  57
ATOM     57  C   UNL A   1      32.070  28.546  27.089  1.00  0.00     0.365 C 
ATOM     58  O   UNL A   1      31.229  27.882  27.671  1.00  0.00    -0.245 OA
BRANCH  57  59
ATOM     59  C   UNL A   1      32.980  27.938  26.019  1.00  0.00     0.301 C 
ATOM     60  N   UNL A   1      33.408  26.562  26.324  1.00  0.00    -0.334 N 
ATOM     61  C   UNL A   1      32.461  27.835  24.566  1.00  0.00     0.095 C 
ATOM     62  C   UNL A   1      34.122  26.112  25.135  1.00  0.00     0.262 C 
ATOM     63  H   UNL A   1      32.598  25.968  26.501  1.00  0.00     0.347 HD
ATOM     64  H   UNL A   1      33.992  26.519  27.159  1.00  0.00     0.347 HD
ATOM     65  C   UNL A   1      33.541  26.902  23.967  1.00  0.00     0.076 C 
BRANCH  61  66
ATOM     66  C   UNL A   1      31.000  27.412  24.373  1.00  0.00    -0.034 A 
ATOM     67  C   UNL A   1      30.420  26.263  24.915  1.00  0.00     0.004 A 
ATOM     68  C   UNL A   1      30.189  28.167  23.506  1.00  0.00     0.051 A 
ATOM     69  C   UNL A   1      29.072  25.948  24.691  1.00  0.00     0.004 A 
ATOM     70  C   UNL A   1      28.845  27.866  23.248  1.00  0.00     0.127 A 
ATOM     71  C   UNL A   1      28.284  26.756  23.872  1.00  0.00     0.047 A 
BRANCH  70  72
ATOM     72  O   UNL A   1      27.999  28.571  22.410  1.00  0.00    -0.457 OA
BRANCH  72  73
ATOM     73  C   UNL A   1      28.070  29.944  22.366  1.00  0.00     0.127 A 
ATOM     74  C   UNL A   1      28.402  30.537  21.146  1.00  0.00     0.047 A 
ATOM     75  C   UNL A   1      27.853  30.743  23.490  1.00  0.00     0.047 A 
ATOM     76  C   UNL A   1      28.386  31.929  21.022  1.00  0.00     0.004 A 
ATOM     77  C   UNL A   1      27.791  32.129  23.355  1.00  0.00     0.004 A 
ATOM     78  C   UNL A   1      28.045  32.722  22.119  1.00  0.00     0.000 A 
ENDBRANCH  72  73
ENDBRANCH  70  72
ENDBRANCH  61  66
ENDBRANCH  57  59
ENDBRANCH  56  57
ENDBRANCH   1  56
TORSDOF 14
ENDMDL
MODEL 2
REMARK VINA RESULT:     -11.7      5.821     10.487
REMARK SMILES O=C(OCCOC(=O)[C@H]1[NH2+]CC[C@H]1c1cccc(Oc2ccccc2)c1)c1ccc(-c2c3nc(c(-c4ccccc4)c4ccc([nH]4)c(-c4ccccc4)c4nc(c(-c5ccccc5)c5ccc2[nH]5)C=C4)C=C3)cc1
REMARK SMILES IDX 5 1 4 2 3 3 2 4 1 5 27 6 28 7 74 8 29 9 73 10 30 11 31 12
REMARK SMILES IDX 32 13 67 14 33 15 72 16 66 17 68 18 34 19 71 20 65 21 64 22
REMARK SMILES IDX 35 24 57 25 42 26 56 27 43 28 46 29 55 30 69 31 44 32 45 33
REMARK SMILES IDX 54 35 70 36 47 37 36 38 37 39 41 40 38 41 40 42 39 43 58 44
REMARK SMILES IDX 59 45 63 46 60 47 62 48 61 49 48 50 49 51 53 52 50 53 52 54
REMARK SMILES IDX 51 55 6 56 7 57 8 58 9 59 10 60 13 61 11 62 12 65 14 66
REMARK SMILES IDX 15 67 26 68 16 69 18 70 17 71 19 72 20 73 21 74 25 75 22 76
REMARK SMILES IDX 24 77 23 78
REMARK H PARENT 68 23 46 34 10 63 10 64
REMARK Flexibility Score: inf
ROOT
ATOM      1  C   UNL A   1      38.173  21.000  25.369  1.00  0.00     0.274 C 
ENDROOT
BRANCH   1   2
ATOM      2  C   UNL A   1      38.715  19.638  24.953  1.00  0.00     0.275 C 
BRANCH   2   3
ATOM      3  O   UNL A   1      39.713  19.085  25.822  1.00  0.00    -0.458 OA
BRANCH   3   4
ATOM      4  C   UNL A   1      41.009  19.440  25.980  1.00  0.00     0.338 C 
ATOM      5  O   UNL A   1      41.883  18.632  25.671  1.00  0.00    -0.246 OA
BRANCH   4   6
ATOM      6  C   UNL A   1      41.441  20.752  26.553  1.00  0.00     0.060 A 
ATOM      7  C   UNL A   1      41.383  21.117  27.903  1.00  0.00     0.016 A 
ATOM      8  C   UNL A   1      41.935  21.696  25.636  1.00  0.00     0.016 A 
ATOM      9  C   UNL A   1      41.900  22.337  28.348  1.00  0.00     0.010 A 
ATOM     10  C   UNL A   1      42.428  22.930  26.070  1.00  0.00     0.010 A 
ATOM     11  C   UNL A   1      42.424  23.250  27.433  1.00  0.00    -0.014 A 
BRANCH  11  12
ATOM     12  C   UNL A   1      42.749  24.622  27.876  1.00  0.00     0.031 A 
ATOM     13  C   UNL A   1      44.199  24.968  27.987  1.00  0.00     0.074 A 
ATOM     14  C   UNL A   1      41.799  25.540  28.128  1.00  0.00     0.049 A 
ATOM     15  N   UNL A   1      44.752  26.120  28.251  1.00  0.00    -0.248 NA
ATOM     16  C   UNL A   1      45.157  23.875  27.738  1.00  0.00     0.031 C 
ATOM     17  C   UNL A   1      40.361  25.335  27.985  1.00  0.00     0.029 A 
ATOM     18  N   UNL A   1      41.902  26.836  28.568  1.00  0.00    -0.354 N 
ATOM     19  C   UNL A   1      46.117  25.898  28.153  1.00  0.00     0.074 A 
ATOM     20  C   UNL A   1      46.314  24.489  27.904  1.00  0.00     0.031 C 
ATOM     21  C   UNL A   1      39.713  26.444  28.384  1.00  0.00     0.029 A 
ATOM     22  C   UNL A   1      40.689  27.446  28.783  1.00  0.00     0.049 A 
ATOM     23  H   UNL A   1      42.765  27.287  28.716  1.00  0.00     0.167 HD
ATOM     24  C   UNL A   1      47.121  26.799  28.217  1.00  0.00     0.031 A 
ATOM     25  C   UNL A   1      40.399  28.681  29.235  1.00  0.00     0.031 A 
ATOM     26  C   UNL A   1      46.918  28.184  28.523  1.00  0.00     0.049 A 
ATOM     27  C   UNL A   1      41.540  29.633  29.456  1.00  0.00     0.074 A 
ATOM     28  C   UNL A   1      47.854  29.192  28.640  1.00  0.00     0.029 A 
ATOM     29  N   UNL A   1      45.677  28.748  28.788  1.00  0.00    -0.354 N 
ATOM     30  N   UNL A   1      42.824  29.432  29.279  1.00  0.00    -0.248 NA
ATOM     31  C   UNL A   1      41.192  30.995  29.879  1.00  0.00     0.031 C 
ATOM     32  C   UNL A   1      47.183  30.357  29.029  1.00  0.00     0.029 A 
ATOM     33  C   UNL A   1      45.823  30.086  29.096  1.00  0.00     0.049 A 
ATOM     34  H   UNL A   1      44.820  28.264  28.761  1.00  0.00     0.167 HD
ATOM     35  C   UNL A   1      43.434  30.657  29.504  1.00  0.00     0.074 A 
ATOM     36  C   UNL A   1      42.375  31.591  29.841  1.00  0.00     0.031 C 
ATOM     37  C   UNL A   1      44.745  30.988  29.418  1.00  0.00     0.031 A 
BRANCH  24  38
ATOM     38  C   UNL A   1      48.499  26.261  27.976  1.00  0.00    -0.014 A 
ATOM     39  C   UNL A   1      49.318  25.871  29.052  1.00  0.00     0.009 A 
ATOM     40  C   UNL A   1      49.026  26.245  26.678  1.00  0.00     0.009 A 
ATOM     41  C   UNL A   1      50.655  25.537  28.838  1.00  0.00     0.001 A 
ATOM     42  C   UNL A   1      50.357  25.884  26.464  1.00  0.00     0.001 A 
ATOM     43  C   UNL A   1      51.175  25.547  27.544  1.00  0.00     0.000 A 
ENDBRANCH  24  38
BRANCH  25  44
ATOM     44  C   UNL A   1      38.989  29.107  29.452  1.00  0.00    -0.014 A 
ATOM     45  C   UNL A   1      38.370  28.944  30.702  1.00  0.00     0.009 A 
ATOM     46  C   UNL A   1      38.237  29.650  28.396  1.00  0.00     0.009 A 
ATOM     47  C   UNL A   1      37.023  29.278  30.879  1.00  0.00     0.001 A 
ATOM     48  C   UNL A   1      36.897  30.003  28.583  1.00  0.00     0.001 A 
ATOM     49  C   UNL A   1      36.288  29.807  29.820  1.00  0.00     0.000 A 
ENDBRANCH  25  44
BRANCH  37  50
ATOM     50  C   UNL A   1      45.095  32.431  29.628  1.00  0.00    -0.014 A 
ATOM     51  C   UNL A   1      45.404  32.935  30.900  1.00  0.00     0.009 A 
ATOM     52  C   UNL A   1      45.160  33.287  28.517  1.00  0.00     0.009 A 
ATOM     53  C   UNL A   1      45.739  34.279  31.058  1.00  0.00     0.001 A 
ATOM     54  C   UNL A   1      45.529  34.621  28.674  1.00  0.00     0.001 A 
ATOM     55  C   UNL A   1      45.808  35.119  29.945  1.00  0.00     0.000 A 
ENDBRANCH  37  50
ENDBRANCH  11  12
ENDBRANCH   4   6
ENDBRANCH   3   4
ENDBRANCH   2   3
ENDBRANCH   1   2
BRANCH   1  56
ATOM     56  O   UNL A   1      36.755  21.170  25.227  1.00  0.00    -0.458 OA
BRANCH  56  57
ATOM     57  C   UNL A   1      36.362  22.313  24.579  1.00  0.00     0.365 C 
ATOM     58  O   UNL A   1      36.816  22.703  23.517  1.00  0.00    -0.245 OA
BRANCH  57  59
ATOM     59  C   UNL A   1      35.375  23.154  25.392  1.00  0.00     0.301 C 
ATOM     60  N   UNL A   1      35.231  24.534  24.897  1.00  0.00    -0.334 N 
ATOM     61  C   UNL A   1      33.912  22.670  25.523  1.00  0.00     0.095 C 
ATOM     62  C   UNL A   1      34.152  25.113  25.688  1.00  0.00     0.262 C 
ATOM     63  H   UNL A   1      34.989  24.535  23.906  1.00  0.00     0.347 HD
ATOM     64  H   UNL A   1      36.098  25.065  24.987  1.00  0.00     0.347 HD
ATOM     65  C   UNL A   1      33.265  23.947  26.112  1.00  0.00     0.076 C 
BRANCH  61  66
ATOM     66  C   UNL A   1      33.254  22.079  24.271  1.00  0.00    -0.034 A 
ATOM     67  C   UNL A   1      32.871  22.812  23.145  1.00  0.00     0.004 A 
ATOM     68  C   UNL A   1      32.907  20.716  24.272  1.00  0.00     0.051 A 
ATOM     69  C   UNL A   1      32.275  22.194  22.037  1.00  0.00     0.004 A 
ATOM     70  C   UNL A   1      32.293  20.075  23.187  1.00  0.00     0.127 A 
ATOM     71  C   UNL A   1      32.001  20.826  22.054  1.00  0.00     0.047 A 
BRANCH  70  72
ATOM     72  O   UNL A   1      31.932  18.741  23.129  1.00  0.00    -0.457 OA
BRANCH  72  73
ATOM     73  C   UNL A   1      32.667  17.804  23.818  1.00  0.00     0.127 A 
ATOM     74  C   UNL A   1      33.807  17.288  23.197  1.00  0.00     0.047 A 
ATOM     75  C   UNL A   1      32.297  17.340  25.082  1.00  0.00     0.047 A 
ATOM     76  C   UNL A   1      34.644  16.414  23.893  1.00  0.00     0.004 A 
ATOM     77  C   UNL A   1      33.156  16.505  25.794  1.00  0.00     0.004 A 
ATOM     78  C   UNL A   1      34.334  16.051  25.205  1.00  0.00     0.000 A 
ENDBRANCH  72  73
ENDBRANCH  70  72
ENDBRANCH  61  66
ENDBRANCH  57  59
ENDBRANCH  56  57
ENDBRANCH   1  56
TORSDOF 14
ENDMDL
MODEL 3
REMARK VINA RESULT:     -11.5      4.694      9.267
REMARK SMILES O=C(OCCOC(=O)[C@H]1[NH2+]CC[C@H]1c1cccc(Oc2ccccc2)c1)c1ccc(-c2c3nc(c(-c4ccccc4)c4ccc([nH]4)c(-c4ccccc4)c4nc(c(-c5ccccc5)c5ccc2[nH]5)C=C4)C=C3)cc1
REMARK SMILES IDX 5 1 4 2 3 3 2 4 1 5 27 6 28 7 74 8 29 9 73 10 30 11 31 12
REMARK SMILES IDX 32 13 67 14 33 15 72 16 66 17 68 18 34 19 71 20 65 21 64 22
REMARK SMILES IDX 35 24 57 25 42 26 56 27 43 28 46 29 55 30 69 31 44 32 45 33
REMARK SMILES IDX 54 35 70 36 47 37 36 38 37 39 41 40 38 41 40 42 39 43 58 44
REMARK SMILES IDX 59 45 63 46 60 47 62 48 61 49 48 50 49 51 53 52 50 53 52 54
REMARK SMILES IDX 51 55 6 56 7 57 8 58 9 59 10 60 13 61 11 62 12 65 14 66
REMARK SMILES IDX 15 67 26 68 16 69 18 70 17 71 19 72 20 73 21 74 25 75 22 76
REMARK SMILES IDX 24 77 23 78
REMARK H PARENT 68 23 46 34 10 63 10 64
REMARK Flexibility Score: inf
ROOT
ATOM      1  C   UNL A   1      37.877  20.932  25.539  1.00  0.00     0.274 C 
ENDROOT
BRANCH   1   2
ATOM      2  C   UNL A   1      38.622  19.779  24.877  1.00  0.00     0.275 C 
BRANCH   2   3
ATOM      3  O   UNL A   1      39.602  19.131  25.700  1.00  0.00    -0.458 OA
BRANCH   3   4
ATOM      4  C   UNL A   1      40.878  19.493  25.965  1.00  0.00     0.338 C 
ATOM      5  O   UNL A   1      41.781  18.700  25.706  1.00  0.00    -0.246 OA
BRANCH   4   6
ATOM      6  C   UNL A   1      41.253  20.795  26.599  1.00  0.00     0.060 A 
ATOM      7  C   UNL A   1      41.091  21.127  27.948  1.00  0.00     0.016 A 
ATOM      8  C   UNL A   1      41.801  21.766  25.743  1.00  0.00     0.016 A 
ATOM      9  C   UNL A   1      41.561  22.341  28.459  1.00  0.00     0.010 A 
ATOM     10  C   UNL A   1      42.247  22.994  26.239  1.00  0.00     0.010 A 
ATOM     11  C   UNL A   1      42.140  23.280  27.606  1.00  0.00    -0.014 A 
BRANCH  11  12
ATOM     12  C   UNL A   1      42.416  24.644  28.104  1.00  0.00     0.031 A 
ATOM     13  C   UNL A   1      43.834  24.958  28.460  1.00  0.00     0.074 A 
ATOM     14  C   UNL A   1      41.457  25.585  28.195  1.00  0.00     0.049 A 
ATOM     15  N   UNL A   1      44.359  26.097  28.819  1.00  0.00    -0.248 NA
ATOM     16  C   UNL A   1      44.795  23.843  28.371  1.00  0.00     0.031 C 
ATOM     17  C   UNL A   1      40.061  25.412  27.810  1.00  0.00     0.029 A 
ATOM     18  N   UNL A   1      41.514  26.878  28.652  1.00  0.00    -0.354 N 
ATOM     19  C   UNL A   1      45.716  25.844  28.952  1.00  0.00     0.074 A 
ATOM     20  C   UNL A   1      45.921  24.431  28.734  1.00  0.00     0.031 C 
ATOM     21  C   UNL A   1      39.380  26.535  28.098  1.00  0.00     0.029 A 
ATOM     22  C   UNL A   1      40.296  27.515  28.661  1.00  0.00     0.049 A 
ATOM     23  H   UNL A   1      42.349  27.308  28.945  1.00  0.00     0.167 HD
ATOM     24  C   UNL A   1      46.714  26.722  29.189  1.00  0.00     0.031 A 
ATOM     25  C   UNL A   1      39.961  28.756  29.062  1.00  0.00     0.031 A 
ATOM     26  C   UNL A   1      46.493  28.111  29.462  1.00  0.00     0.049 A 
ATOM     27  C   UNL A   1      41.069  29.682  29.477  1.00  0.00     0.074 A 
ATOM     28  C   UNL A   1      47.419  29.097  29.740  1.00  0.00     0.029 A 
ATOM     29  N   UNL A   1      45.239  28.702  29.516  1.00  0.00    -0.354 N 
ATOM     30  N   UNL A   1      42.360  29.451  29.520  1.00  0.00    -0.248 NA
ATOM     31  C   UNL A   1      40.686  31.051  29.841  1.00  0.00     0.031 C 
ATOM     32  C   UNL A   1      46.718  30.276  30.015  1.00  0.00     0.029 A 
ATOM     33  C   UNL A   1      45.361  30.037  29.850  1.00  0.00     0.049 A 
ATOM     34  H   UNL A   1      44.388  28.238  29.341  1.00  0.00     0.167 HD
ATOM     35  C   UNL A   1      42.950  30.662  29.850  1.00  0.00     0.074 A 
ATOM     36  C   UNL A   1      41.871  31.620  30.006  1.00  0.00     0.031 C 
ATOM     37  C   UNL A   1      44.265  30.963  29.988  1.00  0.00     0.031 A 
BRANCH  24  38
ATOM     38  C   UNL A   1      48.101  26.152  29.182  1.00  0.00    -0.014 A 
ATOM     39  C   UNL A   1      48.715  25.738  30.379  1.00  0.00     0.009 A 
ATOM     40  C   UNL A   1      48.842  26.130  27.993  1.00  0.00     0.009 A 
ATOM     41  C   UNL A   1      50.062  25.374  30.393  1.00  0.00     0.001 A 
ATOM     42  C   UNL A   1      50.181  25.738  28.007  1.00  0.00     0.001 A 
ATOM     43  C   UNL A   1      50.795  25.377  29.208  1.00  0.00     0.000 A 
ENDBRANCH  24  38
BRANCH  25  44
ATOM     44  C   UNL A   1      38.544  29.214  29.039  1.00  0.00    -0.014 A 
ATOM     45  C   UNL A   1      37.983  29.767  27.877  1.00  0.00     0.009 A 
ATOM     46  C   UNL A   1      37.750  29.133  30.195  1.00  0.00     0.009 A 
ATOM     47  C   UNL A   1      36.676  30.264  27.882  1.00  0.00     0.001 A 
ATOM     48  C   UNL A   1      36.435  29.610  30.192  1.00  0.00     0.001 A 
ATOM     49  C   UNL A   1      35.903  30.185  29.040  1.00  0.00     0.000 A 
ENDBRANCH  25  44
BRANCH  37  50
ATOM     50  C   UNL A   1      44.606  32.397  30.260  1.00  0.00    -0.014 A 
ATOM     51  C   UNL A   1      44.797  33.318  29.220  1.00  0.00     0.009 A 
ATOM     52  C   UNL A   1      44.692  32.838  31.590  1.00  0.00     0.009 A 
ATOM     53  C   UNL A   1      45.100  34.648  29.509  1.00  0.00     0.001 A 
ATOM     54  C   UNL A   1      44.961  34.175  31.875  1.00  0.00     0.001 A 
ATOM     55  C   UNL A   1      45.175  35.077  30.835  1.00  0.00     0.000 A 
ENDBRANCH  37  50
ENDBRANCH  11  12
ENDBRANCH   4   6
ENDBRANCH   3   4
ENDBRANCH   2   3
ENDBRANCH   1   2
BRANCH   1  56
ATOM     56  O   UNL A   1      37.400  21.951  24.647  1.00  0.00    -0.458 OA
BRANCH  56  57
ATOM     57  C   UNL A   1      36.489  22.823  25.186  1.00  0.00     0.365 C 
ATOM     58  O   UNL A   1      36.580  24.038  25.147  1.00  0.00    -0.245 OA
BRANCH  57  59
ATOM     59  C   UNL A   1      35.385  22.122  25.981  1.00  0.00     0.301 C 
ATOM     60  N   UNL A   1      34.939  22.880  27.162  1.00  0.00    -0.334 N 
ATOM     61  C   UNL A   1      34.060  21.765  25.267  1.00  0.00     0.095 C 
ATOM     62  C   UNL A   1      33.798  22.137  27.685  1.00  0.00     0.262 C 
ATOM     63  H   UNL A   1      34.659  23.825  26.896  1.00  0.00     0.347 HD
ATOM     64  H   UNL A   1      35.680  22.979  27.856  1.00  0.00     0.347 HD
ATOM     65  C   UNL A   1      33.190  21.403  26.495  1.00  0.00     0.076 C 
BRANCH  61  66
ATOM     66  C   UNL A   1      33.486  22.804  24.297  1.00  0.00    -0.034 A 
ATOM     67  C   UNL A   1      33.718  22.830  22.921  1.00  0.00     0.004 A 
ATOM     68  C   UNL A   1      32.750  23.882  24.823  1.00  0.00     0.051 A 
ATOM     69  C   UNL A   1      33.153  23.817  22.101  1.00  0.00     0.004 A 
ATOM     70  C   UNL A   1      32.189  24.893  24.031  1.00  0.00     0.127 A 
ATOM     71  C   UNL A   1      32.378  24.836  22.654  1.00  0.00     0.047 A 
BRANCH  70  72
ATOM     72  O   UNL A   1      31.455  25.973  24.489  1.00  0.00    -0.457 OA
BRANCH  72  73
ATOM     73  C   UNL A   1      32.024  26.860  25.373  1.00  0.00     0.127 A 
ATOM     74  C   UNL A   1      31.313  27.163  26.537  1.00  0.00     0.047 A 
ATOM     75  C   UNL A   1      33.253  27.477  25.131  1.00  0.00     0.047 A 
ATOM     76  C   UNL A   1      31.892  27.976  27.514  1.00  0.00     0.004 A 
ATOM     77  C   UNL A   1      33.850  28.250  26.126  1.00  0.00     0.004 A 
ATOM     78  C   UNL A   1      33.176  28.490  27.322  1.00  0.00     0.000 A 
ENDBRANCH  72  73
ENDBRANCH  70  72
ENDBRANCH  61  66
ENDBRANCH  57  59
ENDBRANCH  56  57
ENDBRANCH   1  56
TORSDOF 14
ENDMDL
