MODEL 1
REMARK VINA RESULT:      -9.7      0.000      0.000
REMARK SMILES CC(C)[C@@H]([NH2+][C@@H]1CSCC(C)(C)C1)C(=O)OCCOC(=O)c1ccc(-c2c3nc(c(-c4ccccc4)c4ccc([nH]4)c(-c4ccccc4)c4nc(c(-c5ccccc5)c5ccc2[nH]5)C=C4)C=C3)cc1
REMARK SMILES IDX 17 1 16 2 14 3 15 4 4 5 2 6 1 7 3 8 5 9 6 12 7 13 13 14 8 15
REMARK SMILES IDX 10 16 9 17 11 18 12 19 18 20 19 21 20 22 21 23 22 24 23 25
REMARK SMILES IDX 69 26 24 27 68 28 25 29 26 30 27 31 62 32 28 33 67 34 61 35
REMARK SMILES IDX 63 36 29 37 66 38 60 39 59 40 30 42 52 43 37 44 51 45 38 46
REMARK SMILES IDX 41 47 50 48 64 49 39 50 40 51 49 53 65 54 42 55 31 56 32 57
REMARK SMILES IDX 36 58 33 59 35 60 34 61 53 62 54 63 58 64 55 65 57 66 56 67
REMARK SMILES IDX 43 68 44 69 48 70 45 71 47 72 46 73
REMARK H PARENT 5 10 5 11 63 41 41 52
REMARK Flexibility Score: inf
ROOT
ATOM      1  C   UNL A   1      36.076  21.462  25.117  1.00  0.00     0.274 C 
ENDROOT
BRANCH   1   2
ATOM      2  O   UNL A   1      35.296  21.314  26.323  1.00  0.00    -0.458 OA
BRANCH   2   3
ATOM      3  C   UNL A   1      33.948  21.271  26.133  1.00  0.00     0.365 C 
ATOM      4  O   UNL A   1      33.130  21.481  27.022  1.00  0.00    -0.245 OA
BRANCH   3   5
ATOM      5  C   UNL A   1      33.530  20.840  24.710  1.00  0.00     0.296 C 
BRANCH   5   6
ATOM      6  C   UNL A   1      33.149  19.329  24.589  1.00  0.00     0.053 C 
ATOM      7  C   UNL A   1      32.338  19.053  23.310  1.00  0.00     0.014 C 
ATOM      8  C   UNL A   1      34.355  18.383  24.579  1.00  0.00     0.014 C 
ENDBRANCH   5   6
BRANCH   5   9
ATOM      9  N   UNL A   1      32.382  21.663  24.301  1.00  0.00    -0.331 N 
ATOM     10  H   UNL A   1      32.011  22.085  25.153  1.00  0.00     0.347 HD
ATOM     11  H   UNL A   1      31.799  20.997  23.795  1.00  0.00     0.347 HD
BRANCH   9  12
ATOM     12  C   UNL A   1      32.536  22.754  23.331  1.00  0.00     0.193 C 
ATOM     13  C   UNL A   1      33.814  23.627  23.273  1.00  0.00     0.134 C 
ATOM     14  C   UNL A   1      31.302  23.657  23.541  1.00  0.00     0.073 C 
ATOM     15  S   UNL A   1      33.821  25.165  24.263  1.00  0.00    -0.155 SA
ATOM     16  C   UNL A   1      31.212  24.305  24.960  1.00  0.00    -0.021 C 
ATOM     17  C   UNL A   1      32.592  24.724  25.522  1.00  0.00     0.076 C 
ATOM     18  C   UNL A   1      30.548  23.347  25.981  1.00  0.00     0.012 C 
ATOM     19  C   UNL A   1      30.290  25.538  24.856  1.00  0.00     0.012 C 
ENDBRANCH   9  12
ENDBRANCH   5   9
ENDBRANCH   3   5
ENDBRANCH   2   3
ENDBRANCH   1   2
BRANCH   1  20
ATOM     20  C   UNL A   1      37.291  20.529  25.057  1.00  0.00     0.275 C 
BRANCH  20  21
ATOM     21  O   UNL A   1      38.526  21.270  25.019  1.00  0.00    -0.458 OA
BRANCH  21  22
ATOM     22  C   UNL A   1      39.381  21.030  26.036  1.00  0.00     0.338 C 
ATOM     23  O   UNL A   1      39.881  19.965  26.352  1.00  0.00    -0.246 OA
BRANCH  22  24
ATOM     24  C   UNL A   1      39.766  22.289  26.693  1.00  0.00     0.060 A 
ATOM     25  C   UNL A   1      39.220  23.479  26.205  1.00  0.00     0.016 A 
ATOM     26  C   UNL A   1      40.785  22.320  27.644  1.00  0.00     0.016 A 
ATOM     27  C   UNL A   1      39.706  24.710  26.628  1.00  0.00     0.010 A 
ATOM     28  C   UNL A   1      41.283  23.556  28.067  1.00  0.00     0.010 A 
ATOM     29  C   UNL A   1      40.771  24.752  27.531  1.00  0.00    -0.014 A 
BRANCH  29  30
ATOM     30  C   UNL A   1      41.458  26.041  27.761  1.00  0.00     0.031 A 
ATOM     31  C   UNL A   1      40.797  27.064  28.642  1.00  0.00     0.074 A 
ATOM     32  C   UNL A   1      42.681  26.271  27.256  1.00  0.00     0.049 A 
ATOM     33  N   UNL A   1      41.166  28.288  28.912  1.00  0.00    -0.248 NA
ATOM     34  C   UNL A   1      39.555  26.643  29.315  1.00  0.00     0.031 C 
ATOM     35  C   UNL A   1      43.469  25.320  26.474  1.00  0.00     0.029 A 
ATOM     36  N   UNL A   1      43.476  27.386  27.336  1.00  0.00    -0.354 N 
ATOM     37  C   UNL A   1      40.190  28.795  29.761  1.00  0.00     0.074 A 
ATOM     38  C   UNL A   1      39.214  27.746  29.963  1.00  0.00     0.031 C 
ATOM     39  C   UNL A   1      44.638  25.896  26.140  1.00  0.00     0.029 A 
ATOM     40  C   UNL A   1      44.656  27.266  26.646  1.00  0.00     0.049 A 
ATOM     41  H   UNL A   1      43.224  28.193  27.840  1.00  0.00     0.167 HD
ATOM     42  C   UNL A   1      40.110  30.027  30.315  1.00  0.00     0.031 A 
ATOM     43  C   UNL A   1      45.625  28.173  26.424  1.00  0.00     0.031 A 
ATOM     44  C   UNL A   1      41.078  31.069  30.111  1.00  0.00     0.049 A 
ATOM     45  C   UNL A   1      45.476  29.561  26.985  1.00  0.00     0.074 A 
ATOM     46  C   UNL A   1      41.069  32.365  30.593  1.00  0.00     0.029 A 
ATOM     47  N   UNL A   1      42.236  30.925  29.365  1.00  0.00    -0.354 N 
ATOM     48  N   UNL A   1      44.519  30.052  27.735  1.00  0.00    -0.248 NA
ATOM     49  C   UNL A   1      46.540  30.521  26.661  1.00  0.00     0.031 C 
ATOM     50  C   UNL A   1      42.211  33.016  30.111  1.00  0.00     0.029 A 
ATOM     51  C   UNL A   1      42.948  32.111  29.364  1.00  0.00     0.049 A 
ATOM     52  H   UNL A   1      42.513  30.100  28.902  1.00  0.00     0.167 HD
ATOM     53  C   UNL A   1      44.872  31.371  27.985  1.00  0.00     0.074 A 
ATOM     54  C   UNL A   1      46.139  31.599  27.320  1.00  0.00     0.031 C 
ATOM     55  C   UNL A   1      44.206  32.312  28.697  1.00  0.00     0.031 A 
BRANCH  42  56
ATOM     56  C   UNL A   1      38.899  30.320  31.150  1.00  0.00    -0.014 A 
ATOM     57  C   UNL A   1      38.893  30.095  32.534  1.00  0.00     0.009 A 
ATOM     58  C   UNL A   1      37.744  30.830  30.536  1.00  0.00     0.009 A 
ATOM     59  C   UNL A   1      37.742  30.346  33.284  1.00  0.00     0.001 A 
ATOM     60  C   UNL A   1      36.601  31.100  31.291  1.00  0.00     0.001 A 
ATOM     61  C   UNL A   1      36.599  30.850  32.662  1.00  0.00     0.000 A 
ENDBRANCH  42  56
BRANCH  43  62
ATOM     62  C   UNL A   1      46.801  27.817  25.592  1.00  0.00    -0.014 A 
ATOM     63  C   UNL A   1      47.995  27.386  26.188  1.00  0.00     0.009 A 
ATOM     64  C   UNL A   1      46.738  27.924  24.193  1.00  0.00     0.009 A 
ATOM     65  C   UNL A   1      49.110  27.087  25.399  1.00  0.00     0.001 A 
ATOM     66  C   UNL A   1      47.847  27.602  23.407  1.00  0.00     0.001 A 
ATOM     67  C   UNL A   1      49.033  27.192  24.011  1.00  0.00     0.000 A 
ENDBRANCH  43  62
BRANCH  55  68
ATOM     68  C   UNL A   1      44.857  33.659  28.817  1.00  0.00    -0.014 A 
ATOM     69  C   UNL A   1      44.583  34.682  27.897  1.00  0.00     0.009 A 
ATOM     70  C   UNL A   1      45.734  33.913  29.883  1.00  0.00     0.009 A 
ATOM     71  C   UNL A   1      45.200  35.927  28.026  1.00  0.00     0.001 A 
ATOM     72  C   UNL A   1      46.334  35.165  30.021  1.00  0.00     0.001 A 
ATOM     73  C   UNL A   1      46.072  36.169  29.087  1.00  0.00     0.000 A 
ENDBRANCH  55  68
ENDBRANCH  29  30
ENDBRANCH  22  24
ENDBRANCH  21  22
ENDBRANCH  20  21
ENDBRANCH   1  20
TORSDOF 14
ENDMDL
MODEL 2
REMARK VINA RESULT:      -9.7      0.707      6.169
REMARK SMILES CC(C)[C@@H]([NH2+][C@@H]1CSCC(C)(C)C1)C(=O)OCCOC(=O)c1ccc(-c2c3nc(c(-c4ccccc4)c4ccc([nH]4)c(-c4ccccc4)c4nc(c(-c5ccccc5)c5ccc2[nH]5)C=C4)C=C3)cc1
REMARK SMILES IDX 17 1 16 2 14 3 15 4 4 5 2 6 1 7 3 8 5 9 6 12 7 13 13 14 8 15
REMARK SMILES IDX 10 16 9 17 11 18 12 19 18 20 19 21 20 22 21 23 22 24 23 25
REMARK SMILES IDX 69 26 24 27 68 28 25 29 26 30 27 31 62 32 28 33 67 34 61 35
REMARK SMILES IDX 63 36 29 37 66 38 60 39 59 40 30 42 52 43 37 44 51 45 38 46
REMARK SMILES IDX 41 47 50 48 64 49 39 50 40 51 49 53 65 54 42 55 31 56 32 57
REMARK SMILES IDX 36 58 33 59 35 60 34 61 53 62 54 63 58 64 55 65 57 66 56 67
REMARK SMILES IDX 43 68 44 69 48 70 45 71 47 72 46 73
REMARK H PARENT 5 10 5 11 63 41 41 52
REMARK Flexibility Score: inf
ROOT
ATOM      1  C   UNL A   1      36.197  21.847  24.249  1.00  0.00     0.274 C 
ENDROOT
BRANCH   1   2
ATOM      2  O   UNL A   1      35.362  22.289  25.340  1.00  0.00    -0.458 OA
BRANCH   2   3
ATOM      3  C   UNL A   1      34.321  21.464  25.639  1.00  0.00     0.365 C 
ATOM      4  O   UNL A   1      33.990  21.174  26.783  1.00  0.00    -0.245 OA
BRANCH   3   5
ATOM      5  C   UNL A   1      33.639  20.844  24.398  1.00  0.00     0.296 C 
BRANCH   5   6
ATOM      6  C   UNL A   1      33.370  19.309  24.522  1.00  0.00     0.053 C 
ATOM      7  C   UNL A   1      32.491  18.797  23.367  1.00  0.00     0.014 C 
ATOM      8  C   UNL A   1      34.641  18.454  24.543  1.00  0.00     0.014 C 
ENDBRANCH   5   6
BRANCH   5   9
ATOM      9  N   UNL A   1      32.365  21.544  24.178  1.00  0.00    -0.331 N 
ATOM     10  H   UNL A   1      32.177  22.076  25.028  1.00  0.00     0.347 HD
ATOM     11  H   UNL A   1      31.732  20.783  23.933  1.00  0.00     0.347 HD
BRANCH   9  12
ATOM     12  C   UNL A   1      32.193  22.476  23.059  1.00  0.00     0.193 C 
ATOM     13  C   UNL A   1      33.367  23.321  22.506  1.00  0.00     0.134 C 
ATOM     14  C   UNL A   1      31.040  23.409  23.484  1.00  0.00     0.073 C 
ATOM     15  S   UNL A   1      33.604  24.990  23.216  1.00  0.00    -0.155 SA
ATOM     16  C   UNL A   1      31.339  24.263  24.759  1.00  0.00    -0.021 C 
ATOM     17  C   UNL A   1      32.807  24.751  24.829  1.00  0.00     0.076 C 
ATOM     18  C   UNL A   1      31.033  23.473  26.056  1.00  0.00     0.012 C 
ATOM     19  C   UNL A   1      30.382  25.473  24.749  1.00  0.00     0.012 C 
ENDBRANCH   9  12
ENDBRANCH   5   9
ENDBRANCH   3   5
ENDBRANCH   2   3
ENDBRANCH   1   2
BRANCH   1  20
ATOM     20  C   UNL A   1      37.418  21.038  24.701  1.00  0.00     0.275 C 
BRANCH  20  21
ATOM     21  O   UNL A   1      37.855  21.431  26.017  1.00  0.00    -0.458 OA
BRANCH  21  22
ATOM     22  C   UNL A   1      39.192  21.448  26.205  1.00  0.00     0.338 C 
ATOM     23  O   UNL A   1      40.009  20.632  25.818  1.00  0.00    -0.246 OA
BRANCH  22  24
ATOM     24  C   UNL A   1      39.601  22.697  26.868  1.00  0.00     0.060 A 
ATOM     25  C   UNL A   1      38.938  23.876  26.517  1.00  0.00     0.016 A 
ATOM     26  C   UNL A   1      40.737  22.741  27.675  1.00  0.00     0.016 A 
ATOM     27  C   UNL A   1      39.418  25.111  26.934  1.00  0.00     0.010 A 
ATOM     28  C   UNL A   1      41.228  23.983  28.090  1.00  0.00     0.010 A 
ATOM     29  C   UNL A   1      40.591  25.172  27.688  1.00  0.00    -0.014 A 
BRANCH  29  30
ATOM     30  C   UNL A   1      41.241  26.485  27.889  1.00  0.00     0.031 A 
ATOM     31  C   UNL A   1      42.572  26.738  27.238  1.00  0.00     0.074 A 
ATOM     32  C   UNL A   1      40.626  27.461  28.576  1.00  0.00     0.049 A 
ATOM     33  N   UNL A   1      43.366  27.772  27.347  1.00  0.00    -0.248 NA
ATOM     34  C   UNL A   1      43.071  25.684  26.338  1.00  0.00     0.031 C 
ATOM     35  C   UNL A   1      39.292  27.373  29.166  1.00  0.00     0.029 A 
ATOM     36  N   UNL A   1      41.053  28.727  28.888  1.00  0.00    -0.354 N 
ATOM     37  C   UNL A   1      44.468  27.482  26.554  1.00  0.00     0.074 A 
ATOM     38  C   UNL A   1      44.244  26.178  25.969  1.00  0.00     0.031 C 
ATOM     39  C   UNL A   1      39.009  28.539  29.774  1.00  0.00     0.029 A 
ATOM     40  C   UNL A   1      40.159  29.431  29.655  1.00  0.00     0.049 A 
ATOM     41  H   UNL A   1      41.916  29.095  28.590  1.00  0.00     0.167 HD
ATOM     42  C   UNL A   1      45.574  28.232  26.341  1.00  0.00     0.031 A 
ATOM     43  C   UNL A   1      40.274  30.646  30.221  1.00  0.00     0.031 A 
ATOM     44  C   UNL A   1      45.799  29.525  26.925  1.00  0.00     0.049 A 
ATOM     45  C   UNL A   1      41.545  31.429  30.034  1.00  0.00     0.074 A 
ATOM     46  C   UNL A   1      46.903  30.349  26.806  1.00  0.00     0.029 A 
ATOM     47  N   UNL A   1      44.890  30.184  27.737  1.00  0.00    -0.354 N 
ATOM     48  N   UNL A   1      42.610  31.121  29.334  1.00  0.00    -0.248 NA
ATOM     49  C   UNL A   1      41.629  32.724  30.723  1.00  0.00     0.031 C 
ATOM     50  C   UNL A   1      46.674  31.498  27.573  1.00  0.00     0.029 A 
ATOM     51  C   UNL A   1      45.411  31.403  28.135  1.00  0.00     0.049 A 
ATOM     52  H   UNL A   1      44.005  29.838  27.994  1.00  0.00     0.167 HD
ATOM     53  C   UNL A   1      43.484  32.188  29.485  1.00  0.00     0.074 A 
ATOM     54  C   UNL A   1      42.818  33.159  30.330  1.00  0.00     0.031 C 
ATOM     55  C   UNL A   1      44.729  32.351  28.974  1.00  0.00     0.031 A 
BRANCH  42  56
ATOM     56  C   UNL A   1      46.646  27.634  25.478  1.00  0.00    -0.014 A 
ATOM     57  C   UNL A   1      46.787  27.999  24.130  1.00  0.00     0.009 A 
ATOM     58  C   UNL A   1      47.527  26.689  26.025  1.00  0.00     0.009 A 
ATOM     59  C   UNL A   1      47.772  27.404  23.339  1.00  0.00     0.001 A 
ATOM     60  C   UNL A   1      48.524  26.112  25.238  1.00  0.00     0.001 A 
ATOM     61  C   UNL A   1      48.641  26.464  23.894  1.00  0.00     0.000 A 
ENDBRANCH  42  56
BRANCH  43  62
ATOM     62  C   UNL A   1      39.173  31.183  31.061  1.00  0.00    -0.014 A 
ATOM     63  C   UNL A   1      39.131  30.921  32.438  1.00  0.00     0.009 A 
ATOM     64  C   UNL A   1      38.148  31.947  30.482  1.00  0.00     0.009 A 
ATOM     65  C   UNL A   1      38.073  31.399  33.215  1.00  0.00     0.001 A 
ATOM     66  C   UNL A   1      37.104  32.442  31.266  1.00  0.00     0.001 A 
ATOM     67  C   UNL A   1      37.063  32.161  32.630  1.00  0.00     0.000 A 
ENDBRANCH  43  62
BRANCH  55  68
ATOM     68  C   UNL A   1      45.430  33.640  29.292  1.00  0.00    -0.014 A 
ATOM     69  C   UNL A   1      45.272  34.771  28.478  1.00  0.00     0.009 A 
ATOM     70  C   UNL A   1      46.235  33.727  30.438  1.00  0.00     0.009 A 
ATOM     71  C   UNL A   1      45.935  35.960  28.791  1.00  0.00     0.001 A 
ATOM     72  C   UNL A   1      46.879  34.922  30.759  1.00  0.00     0.001 A 
ATOM     73  C   UNL A   1      46.735  36.035  29.930  1.00  0.00     0.000 A 
ENDBRANCH  55  68
ENDBRANCH  29  30
ENDBRANCH  22  24
ENDBRANCH  21  22
ENDBRANCH  20  21
ENDBRANCH   1  20
TORSDOF 14
ENDMDL
MODEL 3
REMARK VINA RESULT:      -9.6      4.138      8.869
REMARK SMILES CC(C)[C@@H]([NH2+][C@@H]1CSCC(C)(C)C1)C(=O)OCCOC(=O)c1ccc(-c2c3nc(c(-c4ccccc4)c4ccc([nH]4)c(-c4ccccc4)c4nc(c(-c5ccccc5)c5ccc2[nH]5)C=C4)C=C3)cc1
REMARK SMILES IDX 17 1 16 2 14 3 15 4 4 5 2 6 1 7 3 8 5 9 6 12 7 13 13 14 8 15
REMARK SMILES IDX 10 16 9 17 11 18 12 19 18 20 19 21 20 22 21 23 22 24 23 25
REMARK SMILES IDX 69 26 24 27 68 28 25 29 26 30 27 31 62 32 28 33 67 34 61 35
REMARK SMILES IDX 63 36 29 37 66 38 60 39 59 40 30 42 52 43 37 44 51 45 38 46
REMARK SMILES IDX 41 47 50 48 64 49 39 50 40 51 49 53 65 54 42 55 31 56 32 57
REMARK SMILES IDX 36 58 33 59 35 60 34 61 53 62 54 63 58 64 55 65 57 66 56 67
REMARK SMILES IDX 43 68 44 69 48 70 45 71 47 72 46 73
REMARK H PARENT 5 10 5 11 63 41 41 52
REMARK Flexibility Score: inf
ROOT
ATOM      1  C   UNL A   1      32.679  29.432  24.831  1.00  0.00     0.274 C 
ENDROOT
BRANCH   1   2
ATOM      2  O   UNL A   1      33.048  28.121  25.309  1.00  0.00    -0.458 OA
BRANCH   2   3
ATOM      3  C   UNL A   1      33.155  27.167  24.344  1.00  0.00     0.365 C 
ATOM      4  O   UNL A   1      33.899  27.261  23.374  1.00  0.00    -0.245 OA
BRANCH   3   5
ATOM      5  C   UNL A   1      32.182  25.980  24.527  1.00  0.00     0.296 C 
BRANCH   5   6
ATOM      6  C   UNL A   1      31.013  25.951  23.490  1.00  0.00     0.053 C 
ATOM      7  C   UNL A   1      30.285  24.595  23.500  1.00  0.00     0.014 C 
ATOM      8  C   UNL A   1      29.957  27.039  23.714  1.00  0.00     0.014 C 
ENDBRANCH   5   6
BRANCH   5   9
ATOM      9  N   UNL A   1      32.955  24.734  24.421  1.00  0.00    -0.331 N 
ATOM     10  H   UNL A   1      33.695  24.910  23.741  1.00  0.00     0.347 HD
ATOM     11  H   UNL A   1      32.238  24.046  24.191  1.00  0.00     0.347 HD
BRANCH   9  12
ATOM     12  C   UNL A   1      33.604  24.140  25.596  1.00  0.00     0.193 C 
ATOM     13  C   UNL A   1      35.129  24.257  25.838  1.00  0.00     0.134 C 
ATOM     14  C   UNL A   1      33.196  22.652  25.573  1.00  0.00     0.073 C 
ATOM     15  S   UNL A   1      36.184  22.911  25.187  1.00  0.00    -0.155 SA
ATOM     16  C   UNL A   1      33.696  21.866  24.317  1.00  0.00    -0.021 C 
ATOM     17  C   UNL A   1      35.111  22.297  23.859  1.00  0.00     0.076 C 
ATOM     18  C   UNL A   1      32.730  22.037  23.119  1.00  0.00     0.012 C 
ATOM     19  C   UNL A   1      33.692  20.364  24.671  1.00  0.00     0.012 C 
ENDBRANCH   9  12
ENDBRANCH   5   9
ENDBRANCH   3   5
ENDBRANCH   2   3
ENDBRANCH   1   2
BRANCH   1  20
ATOM     20  C   UNL A   1      31.772  30.202  25.797  1.00  0.00     0.275 C 
BRANCH  20  21
ATOM     21  O   UNL A   1      32.384  30.349  27.093  1.00  0.00    -0.458 OA
BRANCH  21  22
ATOM     22  C   UNL A   1      33.104  31.477  27.274  1.00  0.00     0.338 C 
ATOM     23  O   UNL A   1      32.704  32.627  27.247  1.00  0.00    -0.246 OA
BRANCH  22  24
ATOM     24  C   UNL A   1      34.489  31.149  27.648  1.00  0.00     0.060 A 
ATOM     25  C   UNL A   1      34.806  29.808  27.885  1.00  0.00     0.016 A 
ATOM     26  C   UNL A   1      35.409  32.153  27.945  1.00  0.00     0.016 A 
ATOM     27  C   UNL A   1      36.024  29.456  28.452  1.00  0.00     0.010 A 
ATOM     28  C   UNL A   1      36.634  31.804  28.523  1.00  0.00     0.010 A 
ATOM     29  C   UNL A   1      36.927  30.458  28.814  1.00  0.00    -0.014 A 
BRANCH  29  30
ATOM     30  C   UNL A   1      38.086  30.101  29.659  1.00  0.00     0.031 A 
ATOM     31  C   UNL A   1      39.165  29.234  29.076  1.00  0.00     0.074 A 
ATOM     32  C   UNL A   1      38.214  30.599  30.900  1.00  0.00     0.049 A 
ATOM     33  N   UNL A   1      40.221  28.722  29.652  1.00  0.00    -0.248 NA
ATOM     34  C   UNL A   1      39.038  28.906  27.645  1.00  0.00     0.031 C 
ATOM     35  C   UNL A   1      37.288  31.532  31.541  1.00  0.00     0.029 A 
ATOM     36  N   UNL A   1      39.188  30.386  31.843  1.00  0.00    -0.354 N 
ATOM     37  C   UNL A   1      40.868  27.989  28.666  1.00  0.00     0.074 A 
ATOM     38  C   UNL A   1      40.089  28.123  27.454  1.00  0.00     0.031 C 
ATOM     39  C   UNL A   1      37.738  31.809  32.778  1.00  0.00     0.029 A 
ATOM     40  C   UNL A   1      38.953  31.038  33.027  1.00  0.00     0.049 A 
ATOM     41  H   UNL A   1      39.978  29.821  31.684  1.00  0.00     0.167 HD
ATOM     42  C   UNL A   1      42.006  27.263  28.764  1.00  0.00     0.031 A 
ATOM     43  C   UNL A   1      39.629  30.990  34.190  1.00  0.00     0.031 A 
ATOM     44  C   UNL A   1      42.777  27.128  29.969  1.00  0.00     0.049 A 
ATOM     45  C   UNL A   1      40.846  30.113  34.298  1.00  0.00     0.074 A 
ATOM     46  C   UNL A   1      43.921  26.381  30.185  1.00  0.00     0.029 A 
ATOM     47  N   UNL A   1      42.479  27.764  31.163  1.00  0.00    -0.354 N 
ATOM     48  N   UNL A   1      41.417  29.374  33.378  1.00  0.00    -0.248 NA
ATOM     49  C   UNL A   1      41.507  30.061  35.609  1.00  0.00     0.031 C 
ATOM     50  C   UNL A   1      44.300  26.544  31.523  1.00  0.00     0.029 A 
ATOM     51  C   UNL A   1      43.414  27.422  32.124  1.00  0.00     0.049 A 
ATOM     52  H   UNL A   1      41.716  28.370  31.306  1.00  0.00     0.167 HD
ATOM     53  C   UNL A   1      42.511  28.780  33.994  1.00  0.00     0.074 A 
ATOM     54  C   UNL A   1      42.534  29.260  35.361  1.00  0.00     0.031 C 
ATOM     55  C   UNL A   1      43.415  27.914  33.476  1.00  0.00     0.031 A 
BRANCH  42  56
ATOM     56  C   UNL A   1      42.443  26.515  27.539  1.00  0.00    -0.014 A 
ATOM     57  C   UNL A   1      41.999  25.209  27.282  1.00  0.00     0.009 A 
ATOM     58  C   UNL A   1      43.317  27.130  26.629  1.00  0.00     0.009 A 
ATOM     59  C   UNL A   1      42.446  24.523  26.151  1.00  0.00     0.001 A 
ATOM     60  C   UNL A   1      43.746  26.449  25.489  1.00  0.00     0.001 A 
ATOM     61  C   UNL A   1      43.316  25.145  25.255  1.00  0.00     0.000 A 
ENDBRANCH  42  56
BRANCH  43  62
ATOM     62  C   UNL A   1      39.144  31.758  35.364  1.00  0.00    -0.014 A 
ATOM     63  C   UNL A   1      38.261  31.176  36.284  1.00  0.00     0.009 A 
ATOM     64  C   UNL A   1      39.553  33.088  35.559  1.00  0.00     0.009 A 
ATOM     65  C   UNL A   1      37.781  31.918  37.368  1.00  0.00     0.001 A 
ATOM     66  C   UNL A   1      39.089  33.818  36.655  1.00  0.00     0.001 A 
ATOM     67  C   UNL A   1      38.198  33.235  37.554  1.00  0.00     0.000 A 
ENDBRANCH  43  62
BRANCH  55  68
ATOM     68  C   UNL A   1      44.518  27.459  34.387  1.00  0.00    -0.014 A 
ATOM     69  C   UNL A   1      45.710  28.190  34.503  1.00  0.00     0.009 A 
ATOM     70  C   UNL A   1      44.347  26.300  35.159  1.00  0.00     0.009 A 
ATOM     71  C   UNL A   1      46.724  27.749  35.355  1.00  0.00     0.001 A 
ATOM     72  C   UNL A   1      45.354  25.873  36.025  1.00  0.00     0.001 A 
ATOM     73  C   UNL A   1      46.545  26.594  36.116  1.00  0.00     0.000 A 
ENDBRANCH  55  68
ENDBRANCH  29  30
ENDBRANCH  22  24
ENDBRANCH  21  22
ENDBRANCH  20  21
ENDBRANCH   1  20
TORSDOF 14
ENDMDL
