MODEL 1
REMARK VINA RESULT:     -11.7      0.000      0.000
REMARK SMILES C[C@H](C(=O)OCCOC(=O)c1ccc(-c2c3nc(c(-c4ccccc4)c4ccc([nH]4)c(-c4ccccc4)c4nc(c(-c5ccccc5)c5ccc2[nH]5)C=C4)C=C3)cc1)c1ccc2c3cc(Cl)ccc3n(C(=O)c3cocn3)c2c1
REMARK SMILES IDX 6 1 5 2 3 3 4 4 2 5 1 6 59 7 60 8 79 9 61 10 78 11 62 12
REMARK SMILES IDX 70 13 63 14 69 15 64 16 68 17 65 18 67 19 66 20 71 21 72 22
REMARK SMILES IDX 73 23 74 24 77 25 75 26 76 27 7 28 8 29 9 30 10 31 11 32
REMARK SMILES IDX 12 33 58 34 13 35 57 36 14 37 15 38 16 39 51 40 17 41 56 42
REMARK SMILES IDX 50 43 52 44 18 45 55 46 49 47 48 48 19 50 41 51 26 52 40 53
REMARK SMILES IDX 27 54 30 55 39 56 53 57 28 58 29 59 38 61 54 62 31 63 20 64
REMARK SMILES IDX 21 65 25 66 22 67 24 68 23 69 42 70 43 71 47 72 44 73 46 74
REMARK SMILES IDX 45 75 32 76 33 77 37 78 34 79 36 80 35 81
REMARK H PARENT 52 49 30 60
REMARK Flexibility Score: inf
ROOT
ATOM      1  C   UNL A   1      32.390  30.051  25.394  1.00  0.00     0.274 C 
ENDROOT
BRANCH   1   2
ATOM      2  O   UNL A   1      31.099  29.445  25.190  1.00  0.00    -0.462 OA
BRANCH   2   3
ATOM      3  C   UNL A   1      31.046  28.432  24.278  1.00  0.00     0.313 C 
ATOM      4  O   UNL A   1      31.140  28.587  23.065  1.00  0.00    -0.252 OA
BRANCH   3   5
ATOM      5  C   UNL A   1      30.763  27.090  24.947  1.00  0.00     0.126 C 
ATOM      6  C   UNL A   1      29.557  26.402  24.291  1.00  0.00     0.025 C 
BRANCH   5   7
ATOM      7  C   UNL A   1      31.984  26.178  25.047  1.00  0.00    -0.032 A 
ATOM      8  C   UNL A   1      33.251  26.762  25.129  1.00  0.00     0.005 A 
ATOM      9  C   UNL A   1      31.884  24.774  25.058  1.00  0.00     0.032 A 
ATOM     10  C   UNL A   1      34.404  25.985  25.277  1.00  0.00     0.011 A 
ATOM     11  C   UNL A   1      33.054  23.988  25.174  1.00  0.00     0.058 A 
ATOM     12  C   UNL A   1      34.304  24.580  25.324  1.00  0.00     0.008 A 
ATOM     13  N   UNL A   1      33.227  22.596  25.240  1.00  0.00    -0.274 N 
ATOM     14  C   UNL A   1      35.259  23.541  25.503  1.00  0.00     0.009 A 
ATOM     15  C   UNL A   1      34.591  22.318  25.384  1.00  0.00     0.057 A 
ATOM     16  C   UNL A   1      36.652  23.553  25.732  1.00  0.00     0.031 A 
ATOM     17  C   UNL A   1      35.311  21.104  25.368  1.00  0.00     0.029 A 
ATOM     18  C   UNL A   1      37.347  22.347  25.797  1.00  0.00     0.041 A 
ATOM     19  C   UNL A   1      36.692  21.139  25.598  1.00  0.00     0.023 A 
ATOM     20  Cl  UNL A   1      39.041  22.360  26.103  1.00  0.00    -0.084 Cl
BRANCH  13  21
ATOM     21  C   UNL A   1      32.160  21.665  25.173  1.00  0.00     0.284 C 
ATOM     22  O   UNL A   1      31.175  21.932  25.854  1.00  0.00    -0.266 OA
BRANCH  21  23
ATOM     23  C   UNL A   1      32.210  20.407  24.426  1.00  0.00     0.167 A 
ATOM     24  C   UNL A   1      32.257  20.183  23.067  1.00  0.00     0.231 A 
ATOM     25  N   UNL A   1      32.357  19.185  25.067  1.00  0.00    -0.211 NA
ATOM     26  O   UNL A   1      32.418  18.846  22.848  1.00  0.00    -0.451 OA
ATOM     27  C   UNL A   1      32.495  18.318  24.096  1.00  0.00     0.308 A 
ENDBRANCH  21  23
ENDBRANCH  13  21
ENDBRANCH   5   7
ENDBRANCH   3   5
ENDBRANCH   2   3
ENDBRANCH   1   2
BRANCH   1  28
ATOM     28  C   UNL A   1      32.684  30.175  26.885  1.00  0.00     0.275 C 
BRANCH  28  29
ATOM     29  O   UNL A   1      34.058  29.825  27.125  1.00  0.00    -0.458 OA
BRANCH  29  30
ATOM     30  C   UNL A   1      34.715  30.583  28.027  1.00  0.00     0.338 C 
ATOM     31  O   UNL A   1      34.338  31.628  28.539  1.00  0.00    -0.246 OA
BRANCH  30  32
ATOM     32  C   UNL A   1      36.034  29.985  28.282  1.00  0.00     0.060 A 
ATOM     33  C   UNL A   1      36.334  29.444  29.533  1.00  0.00     0.016 A 
ATOM     34  C   UNL A   1      37.010  30.042  27.289  1.00  0.00     0.016 A 
ATOM     35  C   UNL A   1      37.637  29.039  29.823  1.00  0.00     0.010 A 
ATOM     36  C   UNL A   1      38.292  29.552  27.553  1.00  0.00     0.010 A 
ATOM     37  C   UNL A   1      38.631  29.081  28.835  1.00  0.00    -0.014 A 
BRANCH  37  38
ATOM     38  C   UNL A   1      40.026  28.661  29.140  1.00  0.00     0.031 A 
ATOM     39  C   UNL A   1      40.978  29.609  29.826  1.00  0.00     0.074 A 
ATOM     40  C   UNL A   1      40.456  27.433  28.790  1.00  0.00     0.049 A 
ATOM     41  N   UNL A   1      42.259  29.462  30.070  1.00  0.00    -0.248 NA
ATOM     42  C   UNL A   1      40.424  30.888  30.291  1.00  0.00     0.031 C 
ATOM     43  C   UNL A   1      39.646  26.400  28.143  1.00  0.00     0.029 A 
ATOM     44  N   UNL A   1      41.693  26.849  28.923  1.00  0.00    -0.354 N 
ATOM     45  C   UNL A   1      42.659  30.635  30.700  1.00  0.00     0.074 A 
ATOM     46  C   UNL A   1      41.499  31.494  30.773  1.00  0.00     0.031 C 
ATOM     47  C   UNL A   1      40.401  25.307  27.946  1.00  0.00     0.029 A 
ATOM     48  C   UNL A   1      41.763  25.585  28.391  1.00  0.00     0.049 A 
ATOM     49  H   UNL A   1      42.456  27.294  29.357  1.00  0.00     0.167 HD
ATOM     50  C   UNL A   1      43.877  30.962  31.195  1.00  0.00     0.031 A 
ATOM     51  C   UNL A   1      42.809  24.753  28.237  1.00  0.00     0.031 A 
ATOM     52  C   UNL A   1      45.031  30.110  31.155  1.00  0.00     0.049 A 
ATOM     53  C   UNL A   1      44.172  25.182  28.698  1.00  0.00     0.074 A 
ATOM     54  C   UNL A   1      46.295  30.347  31.669  1.00  0.00     0.029 A 
ATOM     55  N   UNL A   1      45.065  28.859  30.564  1.00  0.00    -0.354 N 
ATOM     56  N   UNL A   1      44.526  26.281  29.318  1.00  0.00    -0.248 NA
ATOM     57  C   UNL A   1      45.282  24.256  28.430  1.00  0.00     0.031 C 
ATOM     58  C   UNL A   1      47.107  29.253  31.347  1.00  0.00     0.029 A 
ATOM     59  C   UNL A   1      46.337  28.325  30.666  1.00  0.00     0.049 A 
ATOM     60  H   UNL A   1      44.298  28.415  30.135  1.00  0.00     0.167 HD
ATOM     61  C   UNL A   1      45.893  26.171  29.530  1.00  0.00     0.074 A 
ATOM     62  C   UNL A   1      46.304  24.893  28.987  1.00  0.00     0.031 C 
ATOM     63  C   UNL A   1      46.734  27.052  30.125  1.00  0.00     0.031 A 
BRANCH  50  64
ATOM     64  C   UNL A   1      44.023  32.316  31.823  1.00  0.00    -0.014 A 
ATOM     65  C   UNL A   1      44.494  33.406  31.077  1.00  0.00     0.009 A 
ATOM     66  C   UNL A   1      43.647  32.513  33.159  1.00  0.00     0.009 A 
ATOM     67  C   UNL A   1      44.624  34.664  31.669  1.00  0.00     0.001 A 
ATOM     68  C   UNL A   1      43.758  33.776  33.743  1.00  0.00     0.001 A 
ATOM     69  C   UNL A   1      44.254  34.848  33.001  1.00  0.00     0.000 A 
ENDBRANCH  50  64
BRANCH  51  70
ATOM     70  C   UNL A   1      42.616  23.442  27.566  1.00  0.00    -0.014 A 
ATOM     71  C   UNL A   1      42.215  22.315  28.297  1.00  0.00     0.009 A 
ATOM     72  C   UNL A   1      42.836  23.314  26.184  1.00  0.00     0.009 A 
ATOM     73  C   UNL A   1      42.053  21.082  27.660  1.00  0.00     0.001 A 
ATOM     74  C   UNL A   1      42.645  22.088  25.547  1.00  0.00     0.001 A 
ATOM     75  C   UNL A   1      42.262  20.971  26.286  1.00  0.00     0.000 A 
ENDBRANCH  51  70
BRANCH  63  76
ATOM     76  C   UNL A   1      48.175  26.653  30.243  1.00  0.00    -0.014 A 
ATOM     77  C   UNL A   1      48.631  25.903  31.336  1.00  0.00     0.009 A 
ATOM     78  C   UNL A   1      49.080  27.002  29.228  1.00  0.00     0.009 A 
ATOM     79  C   UNL A   1      49.974  25.531  31.425  1.00  0.00     0.001 A 
ATOM     80  C   UNL A   1      50.416  26.607  29.307  1.00  0.00     0.001 A 
ATOM     81  C   UNL A   1      50.864  25.879  30.409  1.00  0.00     0.000 A 
ENDBRANCH  63  76
ENDBRANCH  37  38
ENDBRANCH  30  32
ENDBRANCH  29  30
ENDBRANCH  28  29
ENDBRANCH   1  28
TORSDOF 14
ENDMDL
MODEL 2
REMARK VINA RESULT:     -11.7      5.297     10.559
REMARK SMILES C[C@H](C(=O)OCCOC(=O)c1ccc(-c2c3nc(c(-c4ccccc4)c4ccc([nH]4)c(-c4ccccc4)c4nc(c(-c5ccccc5)c5ccc2[nH]5)C=C4)C=C3)cc1)c1ccc2c3cc(Cl)ccc3n(C(=O)c3cocn3)c2c1
REMARK SMILES IDX 6 1 5 2 3 3 4 4 2 5 1 6 59 7 60 8 79 9 61 10 78 11 62 12
REMARK SMILES IDX 70 13 63 14 69 15 64 16 68 17 65 18 67 19 66 20 71 21 72 22
REMARK SMILES IDX 73 23 74 24 77 25 75 26 76 27 7 28 8 29 9 30 10 31 11 32
REMARK SMILES IDX 12 33 58 34 13 35 57 36 14 37 15 38 16 39 51 40 17 41 56 42
REMARK SMILES IDX 50 43 52 44 18 45 55 46 49 47 48 48 19 50 41 51 26 52 40 53
REMARK SMILES IDX 27 54 30 55 39 56 53 57 28 58 29 59 38 61 54 62 31 63 20 64
REMARK SMILES IDX 21 65 25 66 22 67 24 68 23 69 42 70 43 71 47 72 44 73 46 74
REMARK SMILES IDX 45 75 32 76 33 77 37 78 34 79 36 80 35 81
REMARK H PARENT 52 49 30 60
REMARK Flexibility Score: inf
ROOT
ATOM      1  C   UNL A   1      32.668  35.892  29.687  1.00  0.00     0.274 C 
ENDROOT
BRANCH   1   2
ATOM      2  O   UNL A   1      32.262  36.684  30.820  1.00  0.00    -0.462 OA
BRANCH   2   3
ATOM      3  C   UNL A   1      32.358  36.083  32.041  1.00  0.00     0.313 C 
ATOM      4  O   UNL A   1      31.428  35.524  32.613  1.00  0.00    -0.252 OA
BRANCH   3   5
ATOM      5  C   UNL A   1      33.745  36.271  32.651  1.00  0.00     0.126 C 
ATOM      6  C   UNL A   1      33.653  37.042  33.976  1.00  0.00     0.025 C 
BRANCH   5   7
ATOM      7  C   UNL A   1      34.549  34.979  32.770  1.00  0.00    -0.032 A 
ATOM      8  C   UNL A   1      34.214  33.903  31.943  1.00  0.00     0.005 A 
ATOM      9  C   UNL A   1      35.612  34.827  33.681  1.00  0.00     0.032 A 
ATOM     10  C   UNL A   1      34.947  32.711  31.965  1.00  0.00     0.011 A 
ATOM     11  C   UNL A   1      36.330  33.610  33.726  1.00  0.00     0.058 A 
ATOM     12  C   UNL A   1      36.033  32.569  32.851  1.00  0.00     0.008 A 
ATOM     13  N   UNL A   1      37.430  33.217  34.504  1.00  0.00    -0.274 N 
ATOM     14  C   UNL A   1      36.974  31.527  33.080  1.00  0.00     0.009 A 
ATOM     15  C   UNL A   1      37.791  31.912  34.147  1.00  0.00     0.057 A 
ATOM     16  C   UNL A   1      37.173  30.270  32.470  1.00  0.00     0.031 A 
ATOM     17  C   UNL A   1      38.726  31.010  34.698  1.00  0.00     0.029 A 
ATOM     18  C   UNL A   1      38.155  29.414  32.967  1.00  0.00     0.041 A 
ATOM     19  C   UNL A   1      38.909  29.769  34.077  1.00  0.00     0.023 A 
ATOM     20  Cl  UNL A   1      38.416  27.892  32.206  1.00  0.00    -0.084 Cl
BRANCH  13  21
ATOM     21  C   UNL A   1      38.045  34.045  35.477  1.00  0.00     0.284 C 
ATOM     22  O   UNL A   1      38.749  34.948  35.039  1.00  0.00    -0.266 OA
BRANCH  21  23
ATOM     23  C   UNL A   1      37.949  33.830  36.922  1.00  0.00     0.167 A 
ATOM     24  C   UNL A   1      37.062  33.066  37.649  1.00  0.00     0.231 A 
ATOM     25  N   UNL A   1      38.911  34.319  37.795  1.00  0.00    -0.211 NA
ATOM     26  O   UNL A   1      37.444  33.078  38.959  1.00  0.00    -0.451 OA
ATOM     27  C   UNL A   1      38.575  33.829  38.962  1.00  0.00     0.308 A 
ENDBRANCH  21  23
ENDBRANCH  13  21
ENDBRANCH   5   7
ENDBRANCH   3   5
ENDBRANCH   2   3
ENDBRANCH   1   2
BRANCH   1  28
ATOM     28  C   UNL A   1      33.518  36.729  28.737  1.00  0.00     0.275 C 
BRANCH  28  29
ATOM     29  O   UNL A   1      34.400  35.860  28.006  1.00  0.00    -0.458 OA
BRANCH  29  30
ATOM     30  C   UNL A   1      34.158  34.537  28.120  1.00  0.00     0.338 C 
ATOM     31  O   UNL A   1      33.082  33.964  28.016  1.00  0.00    -0.246 OA
BRANCH  30  32
ATOM     32  C   UNL A   1      35.413  33.850  28.460  1.00  0.00     0.060 A 
ATOM     33  C   UNL A   1      35.533  32.471  28.287  1.00  0.00     0.016 A 
ATOM     34  C   UNL A   1      36.452  34.578  29.037  1.00  0.00     0.016 A 
ATOM     35  C   UNL A   1      36.656  31.801  28.772  1.00  0.00     0.010 A 
ATOM     36  C   UNL A   1      37.615  33.918  29.440  1.00  0.00     0.010 A 
ATOM     37  C   UNL A   1      37.716  32.517  29.349  1.00  0.00    -0.014 A 
BRANCH  37  38
ATOM     38  C   UNL A   1      38.913  31.809  29.879  1.00  0.00     0.031 A 
ATOM     39  C   UNL A   1      39.293  30.448  29.353  1.00  0.00     0.074 A 
ATOM     40  C   UNL A   1      39.659  32.374  30.848  1.00  0.00     0.049 A 
ATOM     41  N   UNL A   1      40.231  29.632  29.771  1.00  0.00    -0.248 NA
ATOM     42  C   UNL A   1      38.516  29.933  28.217  1.00  0.00     0.031 C 
ATOM     43  C   UNL A   1      39.430  33.693  31.439  1.00  0.00     0.029 A 
ATOM     44  N   UNL A   1      40.763  31.899  31.515  1.00  0.00    -0.354 N 
ATOM     45  C   UNL A   1      40.142  28.507  28.959  1.00  0.00     0.074 A 
ATOM     46  C   UNL A   1      39.043  28.729  28.046  1.00  0.00     0.031 C 
ATOM     47  C   UNL A   1      40.368  33.927  32.370  1.00  0.00     0.029 A 
ATOM     48  C   UNL A   1      41.223  32.751  32.489  1.00  0.00     0.049 A 
ATOM     49  H   UNL A   1      41.183  31.032  31.314  1.00  0.00     0.167 HD
ATOM     50  C   UNL A   1      40.918  27.397  28.955  1.00  0.00     0.031 A 
ATOM     51  C   UNL A   1      42.196  32.593  33.406  1.00  0.00     0.031 A 
ATOM     52  C   UNL A   1      42.031  27.174  29.834  1.00  0.00     0.049 A 
ATOM     53  C   UNL A   1      42.973  31.309  33.450  1.00  0.00     0.074 A 
ATOM     54  C   UNL A   1      42.896  26.094  29.872  1.00  0.00     0.029 A 
ATOM     55  N   UNL A   1      42.428  28.044  30.835  1.00  0.00    -0.354 N 
ATOM     56  N   UNL A   1      42.895  30.269  32.656  1.00  0.00    -0.248 NA
ATOM     57  C   UNL A   1      43.967  31.175  34.524  1.00  0.00     0.031 C 
ATOM     58  C   UNL A   1      43.792  26.291  30.928  1.00  0.00     0.029 A 
ATOM     59  C   UNL A   1      43.504  27.509  31.522  1.00  0.00     0.049 A 
ATOM     60  H   UNL A   1      42.008  28.913  31.029  1.00  0.00     0.167 HD
ATOM     61  C   UNL A   1      43.841  29.367  33.122  1.00  0.00     0.074 A 
ATOM     62  C   UNL A   1      44.491  29.986  34.259  1.00  0.00     0.031 C 
ATOM     63  C   UNL A   1      44.145  28.134  32.648  1.00  0.00     0.031 A 
BRANCH  50  64
ATOM     64  C   UNL A   1      40.582  26.326  27.960  1.00  0.00    -0.014 A 
ATOM     65  C   UNL A   1      41.220  26.280  26.712  1.00  0.00     0.009 A 
ATOM     66  C   UNL A   1      39.649  25.332  28.289  1.00  0.00     0.009 A 
ATOM     67  C   UNL A   1      40.902  25.278  25.793  1.00  0.00     0.001 A 
ATOM     68  C   UNL A   1      39.349  24.320  27.376  1.00  0.00     0.001 A 
ATOM     69  C   UNL A   1      39.968  24.298  26.126  1.00  0.00     0.000 A 
ENDBRANCH  50  64
BRANCH  51  70
ATOM     70  C   UNL A   1      42.456  33.668  34.397  1.00  0.00    -0.014 A 
ATOM     71  C   UNL A   1      43.295  34.747  34.081  1.00  0.00     0.009 A 
ATOM     72  C   UNL A   1      41.864  33.617  35.670  1.00  0.00     0.009 A 
ATOM     73  C   UNL A   1      43.547  35.744  35.026  1.00  0.00     0.001 A 
ATOM     74  C   UNL A   1      42.095  34.630  36.601  1.00  0.00     0.001 A 
ATOM     75  C   UNL A   1      42.943  35.688  36.282  1.00  0.00     0.000 A 
ENDBRANCH  51  70
BRANCH  63  76
ATOM     76  C   UNL A   1      45.244  27.384  33.341  1.00  0.00    -0.014 A 
ATOM     77  C   UNL A   1      44.962  26.476  34.372  1.00  0.00     0.009 A 
ATOM     78  C   UNL A   1      46.574  27.562  32.931  1.00  0.00     0.009 A 
ATOM     79  C   UNL A   1      45.997  25.779  34.998  1.00  0.00     0.001 A 
ATOM     80  C   UNL A   1      47.604  26.845  33.542  1.00  0.00     0.001 A 
ATOM     81  C   UNL A   1      47.315  25.960  34.581  1.00  0.00     0.000 A 
ENDBRANCH  63  76
ENDBRANCH  37  38
ENDBRANCH  30  32
ENDBRANCH  29  30
ENDBRANCH  28  29
ENDBRANCH   1  28
TORSDOF 14
ENDMDL
MODEL 3
REMARK VINA RESULT:     -11.5      3.210      7.284
REMARK SMILES C[C@H](C(=O)OCCOC(=O)c1ccc(-c2c3nc(c(-c4ccccc4)c4ccc([nH]4)c(-c4ccccc4)c4nc(c(-c5ccccc5)c5ccc2[nH]5)C=C4)C=C3)cc1)c1ccc2c3cc(Cl)ccc3n(C(=O)c3cocn3)c2c1
REMARK SMILES IDX 6 1 5 2 3 3 4 4 2 5 1 6 59 7 60 8 79 9 61 10 78 11 62 12
REMARK SMILES IDX 70 13 63 14 69 15 64 16 68 17 65 18 67 19 66 20 71 21 72 22
REMARK SMILES IDX 73 23 74 24 77 25 75 26 76 27 7 28 8 29 9 30 10 31 11 32
REMARK SMILES IDX 12 33 58 34 13 35 57 36 14 37 15 38 16 39 51 40 17 41 56 42
REMARK SMILES IDX 50 43 52 44 18 45 55 46 49 47 48 48 19 50 41 51 26 52 40 53
REMARK SMILES IDX 27 54 30 55 39 56 53 57 28 58 29 59 38 61 54 62 31 63 20 64
REMARK SMILES IDX 21 65 25 66 22 67 24 68 23 69 42 70 43 71 47 72 44 73 46 74
REMARK SMILES IDX 45 75 32 76 33 77 37 78 34 79 36 80 35 81
REMARK H PARENT 52 49 30 60
REMARK Flexibility Score: inf
ROOT
ATOM      1  C   UNL A   1      34.776  20.788  24.890  1.00  0.00     0.274 C 
ENDROOT
BRANCH   1   2
ATOM      2  O   UNL A   1      33.761  21.805  24.777  1.00  0.00    -0.462 OA
BRANCH   2   3
ATOM      3  C   UNL A   1      32.552  21.515  25.337  1.00  0.00     0.313 C 
ATOM      4  O   UNL A   1      31.868  20.540  25.043  1.00  0.00    -0.252 OA
BRANCH   3   5
ATOM      5  C   UNL A   1      32.110  22.604  26.311  1.00  0.00     0.126 C 
ATOM      6  C   UNL A   1      33.188  22.845  27.378  1.00  0.00     0.025 C 
BRANCH   5   7
ATOM      7  C   UNL A   1      31.647  23.892  25.633  1.00  0.00    -0.032 A 
ATOM      8  C   UNL A   1      30.994  23.802  24.400  1.00  0.00     0.005 A 
ATOM      9  C   UNL A   1      31.854  25.164  26.198  1.00  0.00     0.032 A 
ATOM     10  C   UNL A   1      30.498  24.938  23.754  1.00  0.00     0.011 A 
ATOM     11  C   UNL A   1      31.382  26.316  25.526  1.00  0.00     0.058 A 
ATOM     12  C   UNL A   1      30.673  26.210  24.333  1.00  0.00     0.008 A 
ATOM     13  N   UNL A   1      31.429  27.673  25.880  1.00  0.00    -0.274 N 
ATOM     14  C   UNL A   1      30.261  27.519  23.955  1.00  0.00     0.009 A 
ATOM     15  C   UNL A   1      30.790  28.421  24.884  1.00  0.00     0.057 A 
ATOM     16  C   UNL A   1      29.496  28.003  22.873  1.00  0.00     0.031 A 
ATOM     17  C   UNL A   1      30.671  29.812  24.682  1.00  0.00     0.029 A 
ATOM     18  C   UNL A   1      29.313  29.377  22.723  1.00  0.00     0.041 A 
ATOM     19  C   UNL A   1      29.907  30.272  23.603  1.00  0.00     0.023 A 
ATOM     20  Cl  UNL A   1      28.358  29.967  21.418  1.00  0.00    -0.084 Cl
BRANCH  13  21
ATOM     21  C   UNL A   1      32.033  28.158  27.067  1.00  0.00     0.284 C 
ATOM     22  O   UNL A   1      31.477  27.845  28.115  1.00  0.00    -0.266 OA
BRANCH  21  23
ATOM     23  C   UNL A   1      33.193  29.051  27.097  1.00  0.00     0.167 A 
ATOM     24  C   UNL A   1      33.261  30.413  27.295  1.00  0.00     0.231 A 
ATOM     25  N   UNL A   1      34.490  28.559  27.051  1.00  0.00    -0.211 NA
ATOM     26  O   UNL A   1      34.573  30.782  27.360  1.00  0.00    -0.451 OA
ATOM     27  C   UNL A   1      35.248  29.611  27.231  1.00  0.00     0.308 A 
ENDBRANCH  21  23
ENDBRANCH  13  21
ENDBRANCH   5   7
ENDBRANCH   3   5
ENDBRANCH   2   3
ENDBRANCH   1   2
BRANCH   1  28
ATOM     28  C   UNL A   1      36.153  21.386  24.620  1.00  0.00     0.275 C 
BRANCH  28  29
ATOM     29  O   UNL A   1      36.896  21.428  25.850  1.00  0.00    -0.458 OA
BRANCH  29  30
ATOM     30  C   UNL A   1      38.231  21.265  25.743  1.00  0.00     0.338 C 
ATOM     31  O   UNL A   1      38.831  20.289  25.314  1.00  0.00    -0.246 OA
BRANCH  30  32
ATOM     32  C   UNL A   1      38.902  22.455  26.289  1.00  0.00     0.060 A 
ATOM     33  C   UNL A   1      38.344  23.721  26.118  1.00  0.00     0.016 A 
ATOM     34  C   UNL A   1      40.145  22.312  26.903  1.00  0.00     0.016 A 
ATOM     35  C   UNL A   1      39.067  24.857  26.482  1.00  0.00     0.010 A 
ATOM     36  C   UNL A   1      40.828  23.446  27.350  1.00  0.00     0.010 A 
ATOM     37  C   UNL A   1      40.315  24.735  27.109  1.00  0.00    -0.014 A 
BRANCH  37  38
ATOM     38  C   UNL A   1      41.098  25.941  27.490  1.00  0.00     0.031 A 
ATOM     39  C   UNL A   1      40.498  26.990  28.392  1.00  0.00     0.074 A 
ATOM     40  C   UNL A   1      42.348  26.115  27.017  1.00  0.00     0.049 A 
ATOM     41  N   UNL A   1      40.983  28.159  28.740  1.00  0.00    -0.248 NA
ATOM     42  C   UNL A   1      39.181  26.694  28.973  1.00  0.00     0.031 C 
ATOM     43  C   UNL A   1      43.070  25.178  26.156  1.00  0.00     0.029 A 
ATOM     44  N   UNL A   1      43.232  27.154  27.190  1.00  0.00    -0.354 N 
ATOM     45  C   UNL A   1      40.023  28.736  29.563  1.00  0.00     0.074 A 
ATOM     46  C   UNL A   1      38.917  27.808  29.639  1.00  0.00     0.031 C 
ATOM     47  C   UNL A   1      44.287  25.676  25.885  1.00  0.00     0.029 A 
ATOM     48  C   UNL A   1      44.406  26.996  26.497  1.00  0.00     0.049 A 
ATOM     49  H   UNL A   1      43.040  27.936  27.756  1.00  0.00     0.167 HD
ATOM     50  C   UNL A   1      40.065  29.921  30.217  1.00  0.00     0.031 A 
ATOM     51  C   UNL A   1      45.449  27.830  26.335  1.00  0.00     0.031 A 
ATOM     52  C   UNL A   1      41.167  30.840  30.175  1.00  0.00     0.049 A 
ATOM     53  C   UNL A   1      45.425  29.183  26.984  1.00  0.00     0.074 A 
ATOM     54  C   UNL A   1      41.308  32.046  30.840  1.00  0.00     0.029 A 
ATOM     55  N   UNL A   1      42.314  30.658  29.422  1.00  0.00    -0.354 N 
ATOM     56  N   UNL A   1      44.523  29.701  27.783  1.00  0.00    -0.248 NA
ATOM     57  C   UNL A   1      46.561  30.072  26.702  1.00  0.00     0.031 C 
ATOM     58  C   UNL A   1      42.526  32.616  30.452  1.00  0.00     0.029 A 
ATOM     59  C   UNL A   1      43.154  31.746  29.575  1.00  0.00     0.049 A 
ATOM     60  H   UNL A   1      42.503  29.871  28.861  1.00  0.00     0.167 HD
ATOM     61  C   UNL A   1      44.992  30.964  28.113  1.00  0.00     0.074 A 
ATOM     62  C   UNL A   1      46.263  31.133  27.441  1.00  0.00     0.031 C 
ATOM     63  C   UNL A   1      44.417  31.903  28.905  1.00  0.00     0.031 A 
BRANCH  50  64
ATOM     64  C   UNL A   1      38.867  30.295  31.039  1.00  0.00    -0.014 A 
ATOM     65  C   UNL A   1      37.792  30.988  30.465  1.00  0.00     0.009 A 
ATOM     66  C   UNL A   1      38.795  29.915  32.386  1.00  0.00     0.009 A 
ATOM     67  C   UNL A   1      36.680  31.330  31.237  1.00  0.00     0.001 A 
ATOM     68  C   UNL A   1      37.673  30.239  33.150  1.00  0.00     0.001 A 
ATOM     69  C   UNL A   1      36.620  30.954  32.578  1.00  0.00     0.000 A 
ENDBRANCH  50  64
BRANCH  51  70
ATOM     70  C   UNL A   1      46.589  27.426  25.472  1.00  0.00    -0.014 A 
ATOM     71  C   UNL A   1      47.620  26.621  25.978  1.00  0.00     0.009 A 
ATOM     72  C   UNL A   1      46.650  27.850  24.134  1.00  0.00     0.009 A 
ATOM     73  C   UNL A   1      48.696  26.261  25.164  1.00  0.00     0.001 A 
ATOM     74  C   UNL A   1      47.713  27.464  23.316  1.00  0.00     0.001 A 
ATOM     75  C   UNL A   1      48.738  26.677  23.833  1.00  0.00     0.000 A 
ENDBRANCH  51  70
BRANCH  63  76
ATOM     76  C   UNL A   1      45.171  33.183  29.109  1.00  0.00    -0.014 A 
ATOM     77  C   UNL A   1      45.916  33.406  30.276  1.00  0.00     0.009 A 
ATOM     78  C   UNL A   1      45.165  34.163  28.104  1.00  0.00     0.009 A 
ATOM     79  C   UNL A   1      46.620  34.599  30.446  1.00  0.00     0.001 A 
ATOM     80  C   UNL A   1      45.891  35.345  28.266  1.00  0.00     0.001 A 
ATOM     81  C   UNL A   1      46.611  35.565  29.439  1.00  0.00     0.000 A 
ENDBRANCH  63  76
ENDBRANCH  37  38
ENDBRANCH  30  32
ENDBRANCH  29  30
ENDBRANCH  28  29
ENDBRANCH   1  28
TORSDOF 14
ENDMDL
