MODEL 1
REMARK VINA RESULT:     -11.1      0.000      0.000
REMARK SMILES O=C(OCCOC(=O)[C@H]1CC(=O)N(c2cccc(OC(F)(F)F)c2)C1)c1ccc(-c2c3nc(c(-c4ccccc4)c4ccc([nH]4)c(-c4ccccc4)c4nc(c(-c5ccccc5)c5ccc2[nH]5)C=C4)C=C3)cc1
REMARK SMILES IDX 5 1 4 2 3 3 2 4 1 5 26 6 27 7 73 8 28 9 72 10 29 11 30 12
REMARK SMILES IDX 31 13 66 14 32 15 71 16 65 17 67 18 33 19 70 20 64 21 63 22
REMARK SMILES IDX 34 24 56 25 41 26 55 27 42 28 45 29 54 30 68 31 43 32 44 33
REMARK SMILES IDX 53 35 69 36 46 37 35 38 36 39 40 40 37 41 39 42 38 43 57 44
REMARK SMILES IDX 58 45 62 46 59 47 61 48 60 49 47 50 48 51 52 52 49 53 51 54
REMARK SMILES IDX 50 55 6 56 7 57 8 58 9 59 10 60 25 61 11 62 13 63 12 64
REMARK SMILES IDX 14 65 15 66 24 67 16 68 18 69 17 70 19 71 20 72 21 73 22 74
REMARK SMILES IDX 23 75
REMARK H PARENT 67 23 45 34
REMARK Flexibility Score: inf
ROOT
ATOM      1  C   UNL A   1      43.901  20.382  25.357  1.00  0.00     0.274 C 
ENDROOT
BRANCH   1   2
ATOM      2  C   UNL A   1      44.541  21.655  24.796  1.00  0.00     0.275 C 
BRANCH   2   3
ATOM      3  O   UNL A   1      43.742  22.844  24.887  1.00  0.00    -0.458 OA
BRANCH   3   4
ATOM      4  C   UNL A   1      44.160  24.106  25.137  1.00  0.00     0.338 C 
ATOM      5  O   UNL A   1      45.141  24.557  24.552  1.00  0.00    -0.246 OA
BRANCH   4   6
ATOM      6  C   UNL A   1      43.592  24.897  26.264  1.00  0.00     0.060 A 
ATOM      7  C   UNL A   1      42.628  24.450  27.173  1.00  0.00     0.016 A 
ATOM      8  C   UNL A   1      44.059  26.211  26.381  1.00  0.00     0.016 A 
ATOM      9  C   UNL A   1      42.228  25.250  28.252  1.00  0.00     0.010 A 
ATOM     10  C   UNL A   1      43.665  27.010  27.453  1.00  0.00     0.010 A 
ATOM     11  C   UNL A   1      42.753  26.533  28.406  1.00  0.00    -0.014 A 
BRANCH  11  12
ATOM     12  C   UNL A   1      42.206  27.480  29.407  1.00  0.00     0.031 A 
ATOM     13  C   UNL A   1      42.847  27.463  30.770  1.00  0.00     0.074 A 
ATOM     14  C   UNL A   1      41.147  28.272  29.139  1.00  0.00     0.049 A 
ATOM     15  N   UNL A   1      42.528  28.130  31.847  1.00  0.00    -0.248 NA
ATOM     16  C   UNL A   1      44.002  26.560  30.944  1.00  0.00     0.031 C 
ATOM     17  C   UNL A   1      40.462  28.393  27.851  1.00  0.00     0.029 A 
ATOM     18  N   UNL A   1      40.416  29.089  29.970  1.00  0.00    -0.354 N 
ATOM     19  C   UNL A   1      43.438  27.727  32.816  1.00  0.00     0.074 A 
ATOM     20  C   UNL A   1      44.275  26.710  32.228  1.00  0.00     0.031 C 
ATOM     21  C   UNL A   1      39.364  29.160  27.999  1.00  0.00     0.029 A 
ATOM     22  C   UNL A   1      39.270  29.590  29.389  1.00  0.00     0.049 A 
ATOM     23  H   UNL A   1      40.686  29.296  30.893  1.00  0.00     0.167 HD
ATOM     24  C   UNL A   1      43.575  28.177  34.083  1.00  0.00     0.031 A 
ATOM     25  C   UNL A   1      38.250  30.278  29.943  1.00  0.00     0.031 A 
ATOM     26  C   UNL A   1      42.675  29.124  34.678  1.00  0.00     0.049 A 
ATOM     27  C   UNL A   1      38.339  30.646  31.399  1.00  0.00     0.074 A 
ATOM     28  C   UNL A   1      42.720  29.695  35.935  1.00  0.00     0.029 A 
ATOM     29  N   UNL A   1      41.531  29.605  34.053  1.00  0.00    -0.354 N 
ATOM     30  N   UNL A   1      39.274  30.358  32.271  1.00  0.00    -0.248 NA
ATOM     31  C   UNL A   1      37.245  31.468  31.934  1.00  0.00     0.031 C 
ATOM     32  C   UNL A   1      41.561  30.462  36.100  1.00  0.00     0.029 A 
ATOM     33  C   UNL A   1      40.831  30.422  34.920  1.00  0.00     0.049 A 
ATOM     34  H   UNL A   1      41.260  29.393  33.131  1.00  0.00     0.167 HD
ATOM     35  C   UNL A   1      38.915  31.007  33.441  1.00  0.00     0.074 A 
ATOM     36  C   UNL A   1      37.655  31.676  33.178  1.00  0.00     0.031 C 
ATOM     37  C   UNL A   1      39.586  31.079  34.617  1.00  0.00     0.031 A 
BRANCH  24  38
ATOM     38  C   UNL A   1      44.705  27.593  34.885  1.00  0.00    -0.014 A 
ATOM     39  C   UNL A   1      44.523  26.439  35.668  1.00  0.00     0.009 A 
ATOM     40  C   UNL A   1      45.946  28.246  34.924  1.00  0.00     0.009 A 
ATOM     41  C   UNL A   1      45.531  25.995  36.527  1.00  0.00     0.001 A 
ATOM     42  C   UNL A   1      46.965  27.779  35.757  1.00  0.00     0.001 A 
ATOM     43  C   UNL A   1      46.751  26.668  36.571  1.00  0.00     0.000 A 
ENDBRANCH  24  38
BRANCH  25  44
ATOM     44  C   UNL A   1      37.041  30.662  29.163  1.00  0.00    -0.014 A 
ATOM     45  C   UNL A   1      36.074  29.718  28.798  1.00  0.00     0.009 A 
ATOM     46  C   UNL A   1      36.895  31.977  28.699  1.00  0.00     0.009 A 
ATOM     47  C   UNL A   1      34.978  30.093  28.009  1.00  0.00     0.001 A 
ATOM     48  C   UNL A   1      35.785  32.363  27.942  1.00  0.00     0.001 A 
ATOM     49  C   UNL A   1      34.827  31.417  27.595  1.00  0.00     0.000 A 
ENDBRANCH  25  44
BRANCH  37  50
ATOM     50  C   UNL A   1      39.023  31.999  35.658  1.00  0.00    -0.014 A 
ATOM     51  C   UNL A   1      38.150  31.546  36.655  1.00  0.00     0.009 A 
ATOM     52  C   UNL A   1      39.419  33.346  35.649  1.00  0.00     0.009 A 
ATOM     53  C   UNL A   1      37.657  32.438  37.609  1.00  0.00     0.001 A 
ATOM     54  C   UNL A   1      38.950  34.227  36.620  1.00  0.00     0.001 A 
ATOM     55  C   UNL A   1      38.063  33.774  37.594  1.00  0.00     0.000 A 
ENDBRANCH  37  50
ENDBRANCH  11  12
ENDBRANCH   4   6
ENDBRANCH   3   4
ENDBRANCH   2   3
ENDBRANCH   1   2
BRANCH   1  56
ATOM     56  O   UNL A   1      42.817  20.586  26.283  1.00  0.00    -0.462 OA
BRANCH  56  57
ATOM     57  C   UNL A   1      41.782  19.713  26.157  1.00  0.00     0.311 C 
ATOM     58  O   UNL A   1      41.904  18.562  25.752  1.00  0.00    -0.252 OA
BRANCH  57  59
ATOM     59  C   UNL A   1      40.432  20.271  26.552  1.00  0.00     0.128 C 
ATOM     60  C   UNL A   1      40.566  21.707  27.041  1.00  0.00     0.117 C 
ATOM     61  C   UNL A   1      39.352  20.313  25.490  1.00  0.00     0.141 C 
ATOM     62  C   UNL A   1      39.337  22.418  26.529  1.00  0.00     0.227 C 
ATOM     63  N   UNL A   1      38.600  21.517  25.765  1.00  0.00    -0.311 N 
ATOM     64  O   UNL A   1      39.064  23.576  26.809  1.00  0.00    -0.274 OA
BRANCH  63  65
ATOM     65  C   UNL A   1      37.282  21.748  25.298  1.00  0.00     0.047 A 
ATOM     66  C   UNL A   1      36.960  23.006  24.777  1.00  0.00     0.026 A 
ATOM     67  C   UNL A   1      36.310  20.732  25.242  1.00  0.00     0.073 A 
ATOM     68  C   UNL A   1      35.731  23.225  24.160  1.00  0.00     0.006 A 
ATOM     69  C   UNL A   1      35.042  20.987  24.709  1.00  0.00     0.131 A 
ATOM     70  C   UNL A   1      34.767  22.222  24.134  1.00  0.00     0.047 A 
BRANCH  69  71
ATOM     71  O   UNL A   1      34.078  20.024  24.587  1.00  0.00    -0.406 OA
BRANCH  71  72
ATOM     72  C   UNL A   1      33.066  20.111  25.587  1.00  0.00     0.573 C 
ATOM     73  F   UNL A   1      33.521  20.790  26.662  1.00  0.00    -0.132 F 
ATOM     74  F   UNL A   1      31.953  20.695  25.110  1.00  0.00    -0.132 F 
ATOM     75  F   UNL A   1      32.748  18.857  25.980  1.00  0.00    -0.132 F 
ENDBRANCH  71  72
ENDBRANCH  69  71
ENDBRANCH  63  65
ENDBRANCH  57  59
ENDBRANCH  56  57
ENDBRANCH   1  56
TORSDOF 14
ENDMDL
MODEL 2
REMARK VINA RESULT:     -11.0      5.233     10.633
REMARK SMILES O=C(OCCOC(=O)[C@H]1CC(=O)N(c2cccc(OC(F)(F)F)c2)C1)c1ccc(-c2c3nc(c(-c4ccccc4)c4ccc([nH]4)c(-c4ccccc4)c4nc(c(-c5ccccc5)c5ccc2[nH]5)C=C4)C=C3)cc1
REMARK SMILES IDX 5 1 4 2 3 3 2 4 1 5 26 6 27 7 73 8 28 9 72 10 29 11 30 12
REMARK SMILES IDX 31 13 66 14 32 15 71 16 65 17 67 18 33 19 70 20 64 21 63 22
REMARK SMILES IDX 34 24 56 25 41 26 55 27 42 28 45 29 54 30 68 31 43 32 44 33
REMARK SMILES IDX 53 35 69 36 46 37 35 38 36 39 40 40 37 41 39 42 38 43 57 44
REMARK SMILES IDX 58 45 62 46 59 47 61 48 60 49 47 50 48 51 52 52 49 53 51 54
REMARK SMILES IDX 50 55 6 56 7 57 8 58 9 59 10 60 25 61 11 62 13 63 12 64
REMARK SMILES IDX 14 65 15 66 24 67 16 68 18 69 17 70 19 71 20 72 21 73 22 74
REMARK SMILES IDX 23 75
REMARK H PARENT 67 23 45 34
REMARK Flexibility Score: inf
ROOT
ATOM      1  C   UNL A   1      34.006  34.857  30.930  1.00  0.00     0.274 C 
ENDROOT
BRANCH   1   2
ATOM      2  C   UNL A   1      34.395  34.500  32.368  1.00  0.00     0.275 C 
BRANCH   2   3
ATOM      3  O   UNL A   1      34.764  33.132  32.591  1.00  0.00    -0.458 OA
BRANCH   3   4
ATOM      4  C   UNL A   1      35.795  32.661  33.330  1.00  0.00     0.338 C 
ATOM      5  O   UNL A   1      35.891  32.965  34.516  1.00  0.00    -0.246 OA
BRANCH   4   6
ATOM      6  C   UNL A   1      36.941  31.955  32.693  1.00  0.00     0.060 A 
ATOM      7  C   UNL A   1      37.935  31.235  33.365  1.00  0.00     0.016 A 
ATOM      8  C   UNL A   1      37.023  32.062  31.301  1.00  0.00     0.016 A 
ATOM      9  C   UNL A   1      38.920  30.534  32.657  1.00  0.00     0.010 A 
ATOM     10  C   UNL A   1      38.000  31.366  30.592  1.00  0.00     0.010 A 
ATOM     11  C   UNL A   1      38.953  30.585  31.263  1.00  0.00    -0.014 A 
BRANCH  11  12
ATOM     12  C   UNL A   1      40.092  30.031  30.493  1.00  0.00     0.031 A 
ATOM     13  C   UNL A   1      41.224  30.977  30.190  1.00  0.00     0.074 A 
ATOM     14  C   UNL A   1      40.092  28.764  30.028  1.00  0.00     0.049 A 
ATOM     15  N   UNL A   1      42.305  30.781  29.483  1.00  0.00    -0.248 NA
ATOM     16  C   UNL A   1      41.117  32.336  30.757  1.00  0.00     0.031 C 
ATOM     17  C   UNL A   1      39.066  27.751  30.279  1.00  0.00     0.029 A 
ATOM     18  N   UNL A   1      40.971  28.129  29.182  1.00  0.00    -0.354 N 
ATOM     19  C   UNL A   1      42.997  31.985  29.522  1.00  0.00     0.074 A 
ATOM     20  C   UNL A   1      42.188  32.926  30.257  1.00  0.00     0.031 C 
ATOM     21  C   UNL A   1      39.326  26.658  29.534  1.00  0.00     0.029 A 
ATOM     22  C   UNL A   1      40.539  26.889  28.759  1.00  0.00     0.049 A 
ATOM     23  H   UNL A   1      41.830  28.522  28.904  1.00  0.00     0.167 HD
ATOM     24  C   UNL A   1      44.210  32.277  29.001  1.00  0.00     0.031 A 
ATOM     25  C   UNL A   1      41.053  26.069  27.819  1.00  0.00     0.031 A 
ATOM     26  C   UNL A   1      44.958  31.355  28.196  1.00  0.00     0.049 A 
ATOM     27  C   UNL A   1      42.328  26.474  27.132  1.00  0.00     0.074 A 
ATOM     28  C   UNL A   1      46.214  31.506  27.641  1.00  0.00     0.029 A 
ATOM     29  N   UNL A   1      44.482  30.113  27.795  1.00  0.00    -0.354 N 
ATOM     30  N   UNL A   1      43.035  27.568  27.275  1.00  0.00    -0.248 NA
ATOM     31  C   UNL A   1      42.893  25.508  26.179  1.00  0.00     0.031 C 
ATOM     32  C   UNL A   1      46.466  30.386  26.840  1.00  0.00     0.029 A 
ATOM     33  C   UNL A   1      45.396  29.509  26.953  1.00  0.00     0.049 A 
ATOM     34  H   UNL A   1      43.621  29.722  28.069  1.00  0.00     0.167 HD
ATOM     35  C   UNL A   1      44.156  27.402  26.478  1.00  0.00     0.074 A 
ATOM     36  C   UNL A   1      44.018  26.116  25.824  1.00  0.00     0.031 C 
ATOM     37  C   UNL A   1      45.227  28.222  26.331  1.00  0.00     0.031 A 
BRANCH  24  38
ATOM     38  C   UNL A   1      44.737  33.662  29.263  1.00  0.00    -0.014 A 
ATOM     39  C   UNL A   1      45.507  33.944  30.406  1.00  0.00     0.009 A 
ATOM     40  C   UNL A   1      44.394  34.715  28.403  1.00  0.00     0.009 A 
ATOM     41  C   UNL A   1      45.859  35.259  30.719  1.00  0.00     0.001 A 
ATOM     42  C   UNL A   1      44.777  36.024  28.701  1.00  0.00     0.001 A 
ATOM     43  C   UNL A   1      45.492  36.298  29.867  1.00  0.00     0.000 A 
ENDBRANCH  24  38
BRANCH  25  44
ATOM     44  C   UNL A   1      40.386  24.794  27.434  1.00  0.00    -0.014 A 
ATOM     45  C   UNL A   1      40.928  23.551  27.779  1.00  0.00     0.009 A 
ATOM     46  C   UNL A   1      39.236  24.819  26.632  1.00  0.00     0.009 A 
ATOM     47  C   UNL A   1      40.315  22.366  27.350  1.00  0.00     0.001 A 
ATOM     48  C   UNL A   1      38.602  23.639  26.232  1.00  0.00     0.001 A 
ATOM     49  C   UNL A   1      39.145  22.411  26.590  1.00  0.00     0.000 A 
ENDBRANCH  25  44
BRANCH  37  50
ATOM     50  C   UNL A   1      46.371  27.695  25.518  1.00  0.00    -0.014 A 
ATOM     51  C   UNL A   1      46.533  28.020  24.165  1.00  0.00     0.009 A 
ATOM     52  C   UNL A   1      47.325  26.882  26.151  1.00  0.00     0.009 A 
ATOM     53  C   UNL A   1      47.620  27.512  23.451  1.00  0.00     0.001 A 
ATOM     54  C   UNL A   1      48.424  26.401  25.444  1.00  0.00     0.001 A 
ATOM     55  C   UNL A   1      48.566  26.709  24.092  1.00  0.00     0.000 A 
ENDBRANCH  37  50
ENDBRANCH  11  12
ENDBRANCH   4   6
ENDBRANCH   3   4
ENDBRANCH   2   3
ENDBRANCH   1   2
BRANCH   1  56
ATOM     56  O   UNL A   1      34.064  33.774  29.983  1.00  0.00    -0.462 OA
BRANCH  56  57
ATOM     57  C   UNL A   1      33.445  34.014  28.796  1.00  0.00     0.311 C 
ATOM     58  O   UNL A   1      32.731  34.989  28.583  1.00  0.00    -0.252 OA
BRANCH  57  59
ATOM     59  C   UNL A   1      33.691  32.969  27.731  1.00  0.00     0.128 C 
ATOM     60  C   UNL A   1      34.922  32.138  28.067  1.00  0.00     0.117 C 
ATOM     61  C   UNL A   1      32.591  31.959  27.469  1.00  0.00     0.141 C 
ATOM     62  C   UNL A   1      34.587  30.734  27.628  1.00  0.00     0.227 C 
ATOM     63  N   UNL A   1      33.279  30.728  27.152  1.00  0.00    -0.311 N 
ATOM     64  O   UNL A   1      35.385  29.809  27.663  1.00  0.00    -0.274 OA
BRANCH  63  65
ATOM     65  C   UNL A   1      32.681  29.647  26.455  1.00  0.00     0.047 A 
ATOM     66  C   UNL A   1      32.184  28.564  27.187  1.00  0.00     0.026 A 
ATOM     67  C   UNL A   1      32.475  29.667  25.064  1.00  0.00     0.073 A 
ATOM     68  C   UNL A   1      31.446  27.562  26.560  1.00  0.00     0.006 A 
ATOM     69  C   UNL A   1      31.818  28.609  24.425  1.00  0.00     0.131 A 
ATOM     70  C   UNL A   1      31.271  27.577  25.179  1.00  0.00     0.047 A 
BRANCH  69  71
ATOM     71  O   UNL A   1      31.549  28.599  23.084  1.00  0.00    -0.406 OA
BRANCH  71  72
ATOM     72  C   UNL A   1      30.268  29.133  22.763  1.00  0.00     0.573 C 
ATOM     73  F   UNL A   1      29.853  29.981  23.728  1.00  0.00    -0.132 F 
ATOM     74  F   UNL A   1      30.281  29.758  21.573  1.00  0.00    -0.132 F 
ATOM     75  F   UNL A   1      29.387  28.109  22.691  1.00  0.00    -0.132 F 
ENDBRANCH  71  72
ENDBRANCH  69  71
ENDBRANCH  63  65
ENDBRANCH  57  59
ENDBRANCH  56  57
ENDBRANCH   1  56
TORSDOF 14
ENDMDL
MODEL 3
REMARK VINA RESULT:     -10.9      5.062     10.041
REMARK SMILES O=C(OCCOC(=O)[C@H]1CC(=O)N(c2cccc(OC(F)(F)F)c2)C1)c1ccc(-c2c3nc(c(-c4ccccc4)c4ccc([nH]4)c(-c4ccccc4)c4nc(c(-c5ccccc5)c5ccc2[nH]5)C=C4)C=C3)cc1
REMARK SMILES IDX 5 1 4 2 3 3 2 4 1 5 26 6 27 7 73 8 28 9 72 10 29 11 30 12
REMARK SMILES IDX 31 13 66 14 32 15 71 16 65 17 67 18 33 19 70 20 64 21 63 22
REMARK SMILES IDX 34 24 56 25 41 26 55 27 42 28 45 29 54 30 68 31 43 32 44 33
REMARK SMILES IDX 53 35 69 36 46 37 35 38 36 39 40 40 37 41 39 42 38 43 57 44
REMARK SMILES IDX 58 45 62 46 59 47 61 48 60 49 47 50 48 51 52 52 49 53 51 54
REMARK SMILES IDX 50 55 6 56 7 57 8 58 9 59 10 60 25 61 11 62 13 63 12 64
REMARK SMILES IDX 14 65 15 66 24 67 16 68 18 69 17 70 19 71 20 72 21 73 22 74
REMARK SMILES IDX 23 75
REMARK H PARENT 67 23 45 34
REMARK Flexibility Score: inf
ROOT
ATOM      1  C   UNL A   1      32.800  35.312  29.040  1.00  0.00     0.274 C 
ENDROOT
BRANCH   1   2
ATOM      2  C   UNL A   1      32.985  36.511  29.974  1.00  0.00     0.275 C 
BRANCH   2   3
ATOM      3  O   UNL A   1      32.234  36.468  31.196  1.00  0.00    -0.458 OA
BRANCH   3   4
ATOM      4  C   UNL A   1      32.703  36.279  32.451  1.00  0.00     0.338 C 
ATOM      5  O   UNL A   1      32.390  37.056  33.348  1.00  0.00    -0.246 OA
BRANCH   4   6
ATOM      6  C   UNL A   1      33.766  35.275  32.733  1.00  0.00     0.060 A 
ATOM      7  C   UNL A   1      33.561  33.980  33.221  1.00  0.00     0.016 A 
ATOM      8  C   UNL A   1      35.080  35.702  32.510  1.00  0.00     0.016 A 
ATOM      9  C   UNL A   1      34.630  33.087  33.366  1.00  0.00     0.010 A 
ATOM     10  C   UNL A   1      36.147  34.817  32.652  1.00  0.00     0.010 A 
ATOM     11  C   UNL A   1      35.932  33.496  33.072  1.00  0.00    -0.014 A 
BRANCH  11  12
ATOM     12  C   UNL A   1      37.104  32.653  33.407  1.00  0.00     0.031 A 
ATOM     13  C   UNL A   1      37.890  33.048  34.630  1.00  0.00     0.074 A 
ATOM     14  C   UNL A   1      37.492  31.624  32.625  1.00  0.00     0.049 A 
ATOM     15  N   UNL A   1      38.989  32.535  35.113  1.00  0.00    -0.248 NA
ATOM     16  C   UNL A   1      37.367  34.186  35.410  1.00  0.00     0.031 C 
ATOM     17  C   UNL A   1      36.797  31.133  31.434  1.00  0.00     0.029 A 
ATOM     18  N   UNL A   1      38.619  30.837  32.687  1.00  0.00    -0.354 N 
ATOM     19  C   UNL A   1      39.284  33.285  36.244  1.00  0.00     0.074 A 
ATOM     20  C   UNL A   1      38.295  34.331  36.339  1.00  0.00     0.031 C 
ATOM     21  C   UNL A   1      37.553  30.195  30.830  1.00  0.00     0.029 A 
ATOM     22  C   UNL A   1      38.782  30.013  31.593  1.00  0.00     0.049 A 
ATOM     23  H   UNL A   1      39.250  30.860  33.442  1.00  0.00     0.167 HD
ATOM     24  C   UNL A   1      40.285  33.109  37.136  1.00  0.00     0.031 A 
ATOM     25  C   UNL A   1      39.831  29.240  31.243  1.00  0.00     0.031 A 
ATOM     26  C   UNL A   1      41.311  32.120  36.974  1.00  0.00     0.049 A 
ATOM     27  C   UNL A   1      41.012  29.167  32.172  1.00  0.00     0.074 A 
ATOM     28  C   UNL A   1      42.358  31.807  37.819  1.00  0.00     0.029 A 
ATOM     29  N   UNL A   1      41.436  31.308  35.854  1.00  0.00    -0.354 N 
ATOM     30  N   UNL A   1      41.216  29.795  33.303  1.00  0.00    -0.248 NA
ATOM     31  C   UNL A   1      42.090  28.246  31.787  1.00  0.00     0.031 C 
ATOM     32  C   UNL A   1      43.161  30.859  37.175  1.00  0.00     0.029 A 
ATOM     33  C   UNL A   1      42.575  30.533  35.959  1.00  0.00     0.049 A 
ATOM     34  H   UNL A   1      40.806  31.288  35.096  1.00  0.00     0.167 HD
ATOM     35  C   UNL A   1      42.415  29.307  33.798  1.00  0.00     0.074 A 
ATOM     36  C   UNL A   1      42.912  28.356  32.823  1.00  0.00     0.031 C 
ATOM     37  C   UNL A   1      43.030  29.589  34.973  1.00  0.00     0.031 A 
BRANCH  24  38
ATOM     38  C   UNL A   1      40.311  34.050  38.309  1.00  0.00    -0.014 A 
ATOM     39  C   UNL A   1      41.056  35.243  38.270  1.00  0.00     0.009 A 
ATOM     40  C   UNL A   1      39.651  33.705  39.497  1.00  0.00     0.009 A 
ATOM     41  C   UNL A   1      41.198  36.029  39.416  1.00  0.00     0.001 A 
ATOM     42  C   UNL A   1      39.767  34.512  40.631  1.00  0.00     0.001 A 
ATOM     43  C   UNL A   1      40.555  35.662  40.595  1.00  0.00     0.000 A 
ENDBRANCH  24  38
BRANCH  25  44
ATOM     44  C   UNL A   1      39.858  28.480  29.962  1.00  0.00    -0.014 A 
ATOM     45  C   UNL A   1      40.308  29.064  28.773  1.00  0.00     0.009 A 
ATOM     46  C   UNL A   1      39.341  27.177  29.910  1.00  0.00     0.009 A 
ATOM     47  C   UNL A   1      40.263  28.347  27.569  1.00  0.00     0.001 A 
ATOM     48  C   UNL A   1      39.328  26.447  28.718  1.00  0.00     0.001 A 
ATOM     49  C   UNL A   1      39.788  27.035  27.545  1.00  0.00     0.000 A 
ENDBRANCH  25  44
BRANCH  37  50
ATOM     50  C   UNL A   1      44.244  28.775  35.308  1.00  0.00    -0.014 A 
ATOM     51  C   UNL A   1      44.153  27.540  35.962  1.00  0.00     0.009 A 
ATOM     52  C   UNL A   1      45.503  29.255  34.915  1.00  0.00     0.009 A 
ATOM     53  C   UNL A   1      45.311  26.814  36.246  1.00  0.00     0.001 A 
ATOM     54  C   UNL A   1      46.654  28.515  35.173  1.00  0.00     0.001 A 
ATOM     55  C   UNL A   1      46.558  27.299  35.846  1.00  0.00     0.000 A 
ENDBRANCH  37  50
ENDBRANCH  11  12
ENDBRANCH   4   6
ENDBRANCH   3   4
ENDBRANCH   2   3
ENDBRANCH   1   2
BRANCH   1  56
ATOM     56  O   UNL A   1      34.003  34.807  28.429  1.00  0.00    -0.462 OA
BRANCH  56  57
ATOM     57  C   UNL A   1      34.375  33.563  28.834  1.00  0.00     0.311 C 
ATOM     58  O   UNL A   1      34.664  33.279  29.991  1.00  0.00    -0.252 OA
BRANCH  57  59
ATOM     59  C   UNL A   1      34.419  32.526  27.733  1.00  0.00     0.128 C 
ATOM     60  C   UNL A   1      35.548  31.532  27.975  1.00  0.00     0.117 C 
ATOM     61  C   UNL A   1      33.183  31.676  27.518  1.00  0.00     0.141 C 
ATOM     62  C   UNL A   1      35.005  30.198  27.528  1.00  0.00     0.227 C 
ATOM     63  N   UNL A   1      33.682  30.375  27.133  1.00  0.00    -0.311 N 
ATOM     64  O   UNL A   1      35.676  29.176  27.495  1.00  0.00    -0.274 OA
BRANCH  63  65
ATOM     65  C   UNL A   1      32.908  29.402  26.452  1.00  0.00     0.047 A 
ATOM     66  C   UNL A   1      32.287  28.393  27.194  1.00  0.00     0.026 A 
ATOM     67  C   UNL A   1      32.655  29.471  25.070  1.00  0.00     0.073 A 
ATOM     68  C   UNL A   1      31.388  27.517  26.588  1.00  0.00     0.006 A 
ATOM     69  C   UNL A   1      31.828  28.527  24.449  1.00  0.00     0.131 A 
ATOM     70  C   UNL A   1      31.166  27.576  25.215  1.00  0.00     0.047 A 
BRANCH  69  71
ATOM     71  O   UNL A   1      31.511  28.575  23.119  1.00  0.00    -0.406 OA
BRANCH  71  72
ATOM     72  C   UNL A   1      30.227  29.140  22.867  1.00  0.00     0.573 C 
ATOM     73  F   UNL A   1      29.900  30.023  23.833  1.00  0.00    -0.132 F 
ATOM     74  F   UNL A   1      30.182  29.735  21.663  1.00  0.00    -0.132 F 
ATOM     75  F   UNL A   1      29.315  28.142  22.878  1.00  0.00    -0.132 F 
ENDBRANCH  71  72
ENDBRANCH  69  71
ENDBRANCH  63  65
ENDBRANCH  57  59
ENDBRANCH  56  57
ENDBRANCH   1  56
TORSDOF 14
ENDMDL
