MODEL 1
REMARK VINA RESULT:     -11.9      0.000      0.000
REMARK SMILES CN1C(=O)C[C@@H](C(=O)OCCOC(=O)c2ccc(-c3c4nc(c(-c5ccccc5)c5ccc([nH]5)c(-c5ccccc5)c5nc(c(-c6ccccc6)c6ccc3[nH]6)C=C5)C=C4)cc2)C12CCN(c1ccc(Cl)cn1)CC2
REMARK SMILES IDX 11 1 10 2 9 3 7 4 8 5 6 6 1 7 2 8 3 9 63 10 4 11 5 12 64 13
REMARK SMILES IDX 75 14 65 15 74 16 66 17 67 18 68 19 73 20 69 21 72 22 70 23
REMARK SMILES IDX 71 24 12 25 13 26 14 27 15 28 16 29 62 30 17 31 61 32 18 33
REMARK SMILES IDX 19 34 20 35 55 36 21 37 60 38 54 39 56 40 22 41 59 42 53 43
REMARK SMILES IDX 52 44 23 46 45 47 30 48 44 49 31 50 34 51 43 52 57 53 32 54
REMARK SMILES IDX 33 55 42 57 58 58 35 59 24 60 25 61 29 62 26 63 28 64 27 65
REMARK SMILES IDX 46 66 47 67 51 68 48 69 50 70 49 71 36 72 37 73 41 74 38 75
REMARK SMILES IDX 40 76 39 77
REMARK H PARENT 56 45 34 56
REMARK Flexibility Score: inf
ROOT
ATOM      1  C   UNL A   1      35.669  20.913  25.230  1.00  0.00     0.275 C 
ENDROOT
BRANCH   1   2
ATOM      2  C   UNL A   1      35.319  21.930  24.141  1.00  0.00     0.274 C 
BRANCH   2   3
ATOM      3  O   UNL A   1      33.991  22.466  24.324  1.00  0.00    -0.462 OA
BRANCH   3   4
ATOM      4  C   UNL A   1      33.854  23.768  23.999  1.00  0.00     0.311 C 
ATOM      5  O   UNL A   1      34.208  24.244  22.923  1.00  0.00    -0.252 OA
BRANCH   4   6
ATOM      6  C   UNL A   1      33.229  24.661  25.056  1.00  0.00     0.134 C 
ATOM      7  C   UNL A   1      30.106  23.346  26.655  1.00  0.00     0.147 C 
ATOM      8  N   UNL A   1      31.437  23.781  26.273  1.00  0.00    -0.339 N 
ATOM      9  C   UNL A   1      32.571  23.354  26.947  1.00  0.00     0.223 C 
ATOM     10  C   UNL A   1      31.703  24.839  25.283  1.00  0.00     0.060 C 
ATOM     11  O   UNL A   1      32.625  22.546  27.850  1.00  0.00    -0.275 OA
ATOM     12  C   UNL A   1      33.747  24.114  26.399  1.00  0.00     0.118 C 
ATOM     13  C   UNL A   1      30.762  24.718  24.061  1.00  0.00     0.051 C 
ATOM     14  C   UNL A   1      31.465  26.238  25.960  1.00  0.00     0.051 C 
ATOM     15  C   UNL A   1      30.826  25.917  23.131  1.00  0.00     0.120 C 
ATOM     16  C   UNL A   1      31.434  27.422  24.977  1.00  0.00     0.120 C 
ATOM     17  N   UNL A   1      30.499  27.100  23.913  1.00  0.00    -0.356 N 
BRANCH  17  18
ATOM     18  C   UNL A   1      29.863  28.133  23.241  1.00  0.00     0.128 A 
ATOM     19  C   UNL A   1      28.467  28.219  23.295  1.00  0.00     0.048 A 
ATOM     20  N   UNL A   1      30.590  29.044  22.561  1.00  0.00    -0.238 NA
ATOM     21  C   UNL A   1      27.793  29.228  22.607  1.00  0.00     0.026 A 
ATOM     22  C   UNL A   1      29.913  30.017  21.896  1.00  0.00     0.134 A 
ATOM     23  C   UNL A   1      28.534  30.140  21.878  1.00  0.00     0.059 A 
ATOM     24  Cl  UNL A   1      27.763  31.382  20.980  1.00  0.00    -0.083 Cl
ENDBRANCH  17  18
ENDBRANCH   4   6
ENDBRANCH   3   4
ENDBRANCH   2   3
ENDBRANCH   1   2
BRANCH   1  25
ATOM     25  O   UNL A   1      36.687  21.436  26.106  1.00  0.00    -0.458 OA
BRANCH  25  26
ATOM     26  C   UNL A   1      37.962  21.165  25.749  1.00  0.00     0.338 C 
ATOM     27  O   UNL A   1      38.374  20.149  25.213  1.00  0.00    -0.246 OA
BRANCH  26  28
ATOM     28  C   UNL A   1      38.849  22.305  26.054  1.00  0.00     0.060 A 
ATOM     29  C   UNL A   1      40.024  22.129  26.788  1.00  0.00     0.016 A 
ATOM     30  C   UNL A   1      38.426  23.593  25.722  1.00  0.00     0.016 A 
ATOM     31  C   UNL A   1      40.739  23.235  27.247  1.00  0.00     0.010 A 
ATOM     32  C   UNL A   1      39.193  24.696  26.103  1.00  0.00     0.010 A 
ATOM     33  C   UNL A   1      40.346  24.533  26.891  1.00  0.00    -0.014 A 
BRANCH  33  34
ATOM     34  C   UNL A   1      41.138  25.720  27.312  1.00  0.00     0.031 A 
ATOM     35  C   UNL A   1      40.548  26.745  28.244  1.00  0.00     0.074 A 
ATOM     36  C   UNL A   1      42.381  25.907  26.826  1.00  0.00     0.049 A 
ATOM     37  N   UNL A   1      41.010  27.927  28.573  1.00  0.00    -0.248 NA
ATOM     38  C   UNL A   1      39.266  26.402  28.879  1.00  0.00     0.031 C 
ATOM     39  C   UNL A   1      43.098  24.984  25.944  1.00  0.00     0.029 A 
ATOM     40  N   UNL A   1      43.256  26.951  26.997  1.00  0.00    -0.354 N 
ATOM     41  C   UNL A   1      40.064  28.478  29.429  1.00  0.00     0.074 A 
ATOM     42  C   UNL A   1      38.990  27.514  29.549  1.00  0.00     0.031 C 
ATOM     43  C   UNL A   1      44.308  25.494  25.665  1.00  0.00     0.029 A 
ATOM     44  C   UNL A   1      44.420  26.810  26.282  1.00  0.00     0.049 A 
ATOM     45  H   UNL A   1      43.068  27.725  27.577  1.00  0.00     0.167 HD
ATOM     46  C   UNL A   1      40.086  29.677  30.061  1.00  0.00     0.031 A 
ATOM     47  C   UNL A   1      45.448  27.660  26.100  1.00  0.00     0.031 A 
ATOM     48  C   UNL A   1      41.149  30.642  29.948  1.00  0.00     0.049 A 
ATOM     49  C   UNL A   1      45.407  29.018  26.736  1.00  0.00     0.074 A 
ATOM     50  C   UNL A   1      41.257  31.883  30.551  1.00  0.00     0.029 A 
ATOM     51  N   UNL A   1      42.290  30.470  29.181  1.00  0.00    -0.354 N 
ATOM     52  N   UNL A   1      44.495  29.536  27.520  1.00  0.00    -0.248 NA
ATOM     53  C   UNL A   1      46.538  29.913  26.447  1.00  0.00     0.031 C 
ATOM     54  C   UNL A   1      42.443  32.483  30.114  1.00  0.00     0.029 A 
ATOM     55  C   UNL A   1      43.098  31.592  29.280  1.00  0.00     0.049 A 
ATOM     56  H   UNL A   1      42.497  29.670  28.646  1.00  0.00     0.167 HD
ATOM     57  C   UNL A   1      44.950  30.808  27.838  1.00  0.00     0.074 A 
ATOM     58  C   UNL A   1      46.225  30.979  27.173  1.00  0.00     0.031 C 
ATOM     59  C   UNL A   1      44.362  31.751  28.613  1.00  0.00     0.031 A 
BRANCH  46  60
ATOM     60  C   UNL A   1      38.903  30.030  30.920  1.00  0.00    -0.014 A 
ATOM     61  C   UNL A   1      37.779  30.673  30.381  1.00  0.00     0.009 A 
ATOM     62  C   UNL A   1      38.896  29.668  32.276  1.00  0.00     0.009 A 
ATOM     63  C   UNL A   1      36.679  30.970  31.191  1.00  0.00     0.001 A 
ATOM     64  C   UNL A   1      37.786  29.944  33.077  1.00  0.00     0.001 A 
ATOM     65  C   UNL A   1      36.683  30.600  32.536  1.00  0.00     0.000 A 
ENDBRANCH  46  60
BRANCH  47  66
ATOM     66  C   UNL A   1      46.590  27.262  25.236  1.00  0.00    -0.014 A 
ATOM     67  C   UNL A   1      47.524  26.318  25.684  1.00  0.00     0.009 A 
ATOM     68  C   UNL A   1      46.749  27.827  23.961  1.00  0.00     0.009 A 
ATOM     69  C   UNL A   1      48.606  25.959  24.877  1.00  0.00     0.001 A 
ATOM     70  C   UNL A   1      47.814  27.444  23.145  1.00  0.00     0.001 A 
ATOM     71  C   UNL A   1      48.746  26.516  23.607  1.00  0.00     0.000 A 
ENDBRANCH  47  66
BRANCH  59  72
ATOM     72  C   UNL A   1      45.115  33.034  28.812  1.00  0.00    -0.014 A 
ATOM     73  C   UNL A   1      44.928  34.129  27.954  1.00  0.00     0.009 A 
ATOM     74  C   UNL A   1      46.013  33.153  29.884  1.00  0.00     0.009 A 
ATOM     75  C   UNL A   1      45.653  35.307  28.147  1.00  0.00     0.001 A 
ATOM     76  C   UNL A   1      46.718  34.340  30.088  1.00  0.00     0.001 A 
ATOM     77  C   UNL A   1      46.546  35.412  29.214  1.00  0.00     0.000 A 
ENDBRANCH  59  72
ENDBRANCH  33  34
ENDBRANCH  26  28
ENDBRANCH  25  26
ENDBRANCH   1  25
TORSDOF 12
ENDMDL
MODEL 2
REMARK VINA RESULT:     -11.9      3.348      7.306
REMARK SMILES CN1C(=O)C[C@@H](C(=O)OCCOC(=O)c2ccc(-c3c4nc(c(-c5ccccc5)c5ccc([nH]5)c(-c5ccccc5)c5nc(c(-c6ccccc6)c6ccc3[nH]6)C=C5)C=C4)cc2)C12CCN(c1ccc(Cl)cn1)CC2
REMARK SMILES IDX 11 1 10 2 9 3 7 4 8 5 6 6 1 7 2 8 3 9 63 10 4 11 5 12 64 13
REMARK SMILES IDX 75 14 65 15 74 16 66 17 67 18 68 19 73 20 69 21 72 22 70 23
REMARK SMILES IDX 71 24 12 25 13 26 14 27 15 28 16 29 62 30 17 31 61 32 18 33
REMARK SMILES IDX 19 34 20 35 55 36 21 37 60 38 54 39 56 40 22 41 59 42 53 43
REMARK SMILES IDX 52 44 23 46 45 47 30 48 44 49 31 50 34 51 43 52 57 53 32 54
REMARK SMILES IDX 33 55 42 57 58 58 35 59 24 60 25 61 29 62 26 63 28 64 27 65
REMARK SMILES IDX 46 66 47 67 51 68 48 69 50 70 49 71 36 72 37 73 41 74 38 75
REMARK SMILES IDX 40 76 39 77
REMARK H PARENT 56 45 34 56
REMARK Flexibility Score: inf
ROOT
ATOM      1  C   UNL A   1      33.420  31.110  27.217  1.00  0.00     0.275 C 
ENDROOT
BRANCH   1   2
ATOM      2  C   UNL A   1      32.175  30.379  26.708  1.00  0.00     0.274 C 
BRANCH   2   3
ATOM      3  O   UNL A   1      32.343  29.934  25.345  1.00  0.00    -0.462 OA
BRANCH   3   4
ATOM      4  C   UNL A   1      31.229  29.991  24.587  1.00  0.00     0.311 C 
ATOM      5  O   UNL A   1      30.323  30.804  24.764  1.00  0.00    -0.252 OA
BRANCH   4   6
ATOM      6  C   UNL A   1      31.124  28.970  23.469  1.00  0.00     0.134 C 
ATOM      7  C   UNL A   1      28.428  26.398  23.866  1.00  0.00     0.147 C 
ATOM      8  N   UNL A   1      29.301  27.508  23.526  1.00  0.00    -0.339 N 
ATOM      9  C   UNL A   1      28.832  28.639  22.875  1.00  0.00     0.223 C 
ATOM     10  C   UNL A   1      30.767  27.471  23.663  1.00  0.00     0.060 C 
ATOM     11  O   UNL A   1      27.683  28.888  22.577  1.00  0.00    -0.275 OA
ATOM     12  C   UNL A   1      30.016  29.503  22.542  1.00  0.00     0.118 C 
ATOM     13  C   UNL A   1      31.194  26.781  24.979  1.00  0.00     0.051 C 
ATOM     14  C   UNL A   1      31.367  26.661  22.456  1.00  0.00     0.051 C 
ATOM     15  C   UNL A   1      32.685  26.498  25.054  1.00  0.00     0.120 C 
ATOM     16  C   UNL A   1      32.856  26.303  22.609  1.00  0.00     0.120 C 
ATOM     17  N   UNL A   1      33.037  25.675  23.907  1.00  0.00    -0.356 N 
BRANCH  17  18
ATOM     18  C   UNL A   1      34.082  24.780  24.082  1.00  0.00     0.128 A 
ATOM     19  C   UNL A   1      34.664  24.657  25.349  1.00  0.00     0.048 A 
ATOM     20  N   UNL A   1      34.512  24.033  23.043  1.00  0.00    -0.238 NA
ATOM     21  C   UNL A   1      35.735  23.787  25.554  1.00  0.00     0.026 A 
ATOM     22  C   UNL A   1      35.559  23.195  23.265  1.00  0.00     0.134 A 
ATOM     23  C   UNL A   1      36.203  23.050  24.482  1.00  0.00     0.059 A 
ATOM     24  Cl  UNL A   1      37.541  21.991  24.660  1.00  0.00    -0.083 Cl
ENDBRANCH  17  18
ENDBRANCH   4   6
ENDBRANCH   3   4
ENDBRANCH   2   3
ENDBRANCH   1   2
BRANCH   1  25
ATOM     25  O   UNL A   1      34.239  30.229  28.010  1.00  0.00    -0.458 OA
BRANCH  25  26
ATOM     26  C   UNL A   1      35.071  30.835  28.888  1.00  0.00     0.338 C 
ATOM     27  O   UNL A   1      34.806  31.773  29.622  1.00  0.00    -0.246 OA
BRANCH  26  28
ATOM     28  C   UNL A   1      36.395  30.182  28.895  1.00  0.00     0.060 A 
ATOM     29  C   UNL A   1      36.946  29.681  30.075  1.00  0.00     0.016 A 
ATOM     30  C   UNL A   1      37.158  30.199  27.726  1.00  0.00     0.016 A 
ATOM     31  C   UNL A   1      38.276  29.260  30.108  1.00  0.00     0.010 A 
ATOM     32  C   UNL A   1      38.460  29.692  27.739  1.00  0.00     0.010 A 
ATOM     33  C   UNL A   1      39.043  29.237  28.935  1.00  0.00    -0.014 A 
BRANCH  33  34
ATOM     34  C   UNL A   1      40.439  28.725  28.938  1.00  0.00     0.031 A 
ATOM     35  C   UNL A   1      41.596  29.650  29.208  1.00  0.00     0.074 A 
ATOM     36  C   UNL A   1      40.681  27.429  28.656  1.00  0.00     0.049 A 
ATOM     37  N   UNL A   1      42.881  29.429  29.071  1.00  0.00    -0.248 NA
ATOM     38  C   UNL A   1      41.266  31.003  29.681  1.00  0.00     0.031 C 
ATOM     39  C   UNL A   1      39.662  26.407  28.409  1.00  0.00     0.029 A 
ATOM     40  N   UNL A   1      41.869  26.755  28.515  1.00  0.00    -0.354 N 
ATOM     41  C   UNL A   1      43.509  30.620  29.414  1.00  0.00     0.074 A 
ATOM     42  C   UNL A   1      42.465  31.569  29.740  1.00  0.00     0.031 C 
ATOM     43  C   UNL A   1      40.267  25.234  28.165  1.00  0.00     0.029 A 
ATOM     44  C   UNL A   1      41.710  25.438  28.160  1.00  0.00     0.049 A 
ATOM     45  H   UNL A   1      42.749  27.175  28.657  1.00  0.00     0.167 HD
ATOM     46  C   UNL A   1      44.834  30.901  29.457  1.00  0.00     0.031 A 
ATOM     47  C   UNL A   1      42.618  24.505  27.819  1.00  0.00     0.031 A 
ATOM     48  C   UNL A   1      45.879  29.965  29.134  1.00  0.00     0.049 A 
ATOM     49  C   UNL A   1      44.074  24.866  27.784  1.00  0.00     0.074 A 
ATOM     50  C   UNL A   1      47.250  30.161  29.148  1.00  0.00     0.029 A 
ATOM     51  N   UNL A   1      45.668  28.653  28.741  1.00  0.00    -0.354 N 
ATOM     52  N   UNL A   1      44.650  26.003  28.085  1.00  0.00    -0.248 NA
ATOM     53  C   UNL A   1      45.003  23.811  27.350  1.00  0.00     0.031 C 
ATOM     54  C   UNL A   1      47.867  28.981  28.720  1.00  0.00     0.029 A 
ATOM     55  C   UNL A   1      46.882  28.035  28.490  1.00  0.00     0.049 A 
ATOM     56  H   UNL A   1      44.787  28.224  28.654  1.00  0.00     0.167 HD
ATOM     57  C   UNL A   1      46.011  25.796  27.898  1.00  0.00     0.074 A 
ATOM     58  C   UNL A   1      46.174  24.422  27.471  1.00  0.00     0.031 C 
ATOM     59  C   UNL A   1      47.033  26.669  28.065  1.00  0.00     0.031 A 
BRANCH  46  60
ATOM     60  C   UNL A   1      45.235  32.298  29.845  1.00  0.00    -0.014 A 
ATOM     61  C   UNL A   1      45.357  33.313  28.884  1.00  0.00     0.009 A 
ATOM     62  C   UNL A   1      45.443  32.612  31.197  1.00  0.00     0.009 A 
ATOM     63  C   UNL A   1      45.707  34.611  29.268  1.00  0.00     0.001 A 
ATOM     64  C   UNL A   1      45.768  33.914  31.580  1.00  0.00     0.001 A 
ATOM     65  C   UNL A   1      45.906  34.910  30.616  1.00  0.00     0.000 A 
ENDBRANCH  46  60
BRANCH  47  66
ATOM     66  C   UNL A   1      42.167  23.141  27.439  1.00  0.00    -0.014 A 
ATOM     67  C   UNL A   1      41.887  22.833  26.100  1.00  0.00     0.009 A 
ATOM     68  C   UNL A   1      42.016  22.143  28.414  1.00  0.00     0.009 A 
ATOM     69  C   UNL A   1      41.447  21.555  25.748  1.00  0.00     0.001 A 
ATOM     70  C   UNL A   1      41.605  20.858  28.055  1.00  0.00     0.001 A 
ATOM     71  C   UNL A   1      41.313  20.568  26.723  1.00  0.00     0.000 A 
ENDBRANCH  47  66
BRANCH  59  72
ATOM     72  C   UNL A   1      48.419  26.148  27.823  1.00  0.00    -0.014 A 
ATOM     73  C   UNL A   1      49.167  25.561  28.855  1.00  0.00     0.009 A 
ATOM     74  C   UNL A   1      48.978  26.232  26.538  1.00  0.00     0.009 A 
ATOM     75  C   UNL A   1      50.463  25.100  28.611  1.00  0.00     0.001 A 
ATOM     76  C   UNL A   1      50.264  25.748  26.293  1.00  0.00     0.001 A 
ATOM     77  C   UNL A   1      51.009  25.192  27.331  1.00  0.00     0.000 A 
ENDBRANCH  59  72
ENDBRANCH  33  34
ENDBRANCH  26  28
ENDBRANCH  25  26
ENDBRANCH   1  25
TORSDOF 12
ENDMDL
MODEL 3
REMARK VINA RESULT:     -11.8      3.597      7.148
REMARK SMILES CN1C(=O)C[C@@H](C(=O)OCCOC(=O)c2ccc(-c3c4nc(c(-c5ccccc5)c5ccc([nH]5)c(-c5ccccc5)c5nc(c(-c6ccccc6)c6ccc3[nH]6)C=C5)C=C4)cc2)C12CCN(c1ccc(Cl)cn1)CC2
REMARK SMILES IDX 11 1 10 2 9 3 7 4 8 5 6 6 1 7 2 8 3 9 63 10 4 11 5 12 64 13
REMARK SMILES IDX 75 14 65 15 74 16 66 17 67 18 68 19 73 20 69 21 72 22 70 23
REMARK SMILES IDX 71 24 12 25 13 26 14 27 15 28 16 29 62 30 17 31 61 32 18 33
REMARK SMILES IDX 19 34 20 35 55 36 21 37 60 38 54 39 56 40 22 41 59 42 53 43
REMARK SMILES IDX 52 44 23 46 45 47 30 48 44 49 31 50 34 51 43 52 57 53 32 54
REMARK SMILES IDX 33 55 42 57 58 58 35 59 24 60 25 61 29 62 26 63 28 64 27 65
REMARK SMILES IDX 46 66 47 67 51 68 48 69 50 70 49 71 36 72 37 73 41 74 38 75
REMARK SMILES IDX 40 76 39 77
REMARK H PARENT 56 45 34 56
REMARK Flexibility Score: inf
ROOT
ATOM      1  C   UNL A   1      32.601  30.487  26.766  1.00  0.00     0.275 C 
ENDROOT
BRANCH   1   2
ATOM      2  C   UNL A   1      32.196  29.833  25.443  1.00  0.00     0.274 C 
BRANCH   2   3
ATOM      3  O   UNL A   1      33.054  28.718  25.119  1.00  0.00    -0.462 OA
BRANCH   3   4
ATOM      4  C   UNL A   1      33.203  28.481  23.800  1.00  0.00     0.311 C 
ATOM      5  O   UNL A   1      33.794  29.238  23.032  1.00  0.00    -0.252 OA
BRANCH   4   6
ATOM      6  C   UNL A   1      32.582  27.199  23.274  1.00  0.00     0.134 C 
ATOM      7  C   UNL A   1      29.986  25.631  25.474  1.00  0.00     0.147 C 
ATOM      8  N   UNL A   1      30.775  26.320  24.469  1.00  0.00    -0.339 N 
ATOM      9  C   UNL A   1      30.214  27.244  23.600  1.00  0.00     0.223 C 
ATOM     10  C   UNL A   1      32.173  25.984  24.150  1.00  0.00     0.060 C 
ATOM     11  O   UNL A   1      29.069  27.644  23.598  1.00  0.00    -0.275 OA
ATOM     12  C   UNL A   1      31.267  27.638  22.603  1.00  0.00     0.118 C 
ATOM     13  C   UNL A   1      32.991  25.695  25.430  1.00  0.00     0.051 C 
ATOM     14  C   UNL A   1      32.189  24.697  23.246  1.00  0.00     0.051 C 
ATOM     15  C   UNL A   1      34.364  25.108  25.148  1.00  0.00     0.120 C 
ATOM     16  C   UNL A   1      33.582  24.068  23.062  1.00  0.00     0.120 C 
ATOM     17  N   UNL A   1      34.172  23.888  24.377  1.00  0.00    -0.356 N 
BRANCH  17  18
ATOM     18  C   UNL A   1      35.109  22.883  24.563  1.00  0.00     0.128 A 
ATOM     19  C   UNL A   1      36.470  23.200  24.477  1.00  0.00     0.048 A 
ATOM     20  N   UNL A   1      34.704  21.626  24.838  1.00  0.00    -0.238 NA
ATOM     21  C   UNL A   1      37.439  22.208  24.631  1.00  0.00     0.026 A 
ATOM     22  C   UNL A   1      35.665  20.675  24.980  1.00  0.00     0.134 A 
ATOM     23  C   UNL A   1      37.025  20.912  24.873  1.00  0.00     0.059 A 
ATOM     24  Cl  UNL A   1      38.165  19.640  25.035  1.00  0.00    -0.083 Cl
ENDBRANCH  17  18
ENDBRANCH   4   6
ENDBRANCH   3   4
ENDBRANCH   2   3
ENDBRANCH   1   2
BRANCH   1  25
ATOM     25  O   UNL A   1      33.795  29.874  27.293  1.00  0.00    -0.458 OA
BRANCH  25  26
ATOM     26  C   UNL A   1      34.548  30.656  28.099  1.00  0.00     0.338 C 
ATOM     27  O   UNL A   1      34.221  31.717  28.606  1.00  0.00    -0.246 OA
BRANCH  26  28
ATOM     28  C   UNL A   1      35.866  30.039  28.351  1.00  0.00     0.060 A 
ATOM     29  C   UNL A   1      36.199  29.538  29.610  1.00  0.00     0.016 A 
ATOM     30  C   UNL A   1      36.833  30.091  27.346  1.00  0.00     0.016 A 
ATOM     31  C   UNL A   1      37.511  29.153  29.889  1.00  0.00     0.010 A 
ATOM     32  C   UNL A   1      38.123  29.618  27.600  1.00  0.00     0.010 A 
ATOM     33  C   UNL A   1      38.484  29.165  28.881  1.00  0.00    -0.014 A 
BRANCH  33  34
ATOM     34  C   UNL A   1      39.870  28.690  29.143  1.00  0.00     0.031 A 
ATOM     35  C   UNL A   1      40.903  29.619  29.725  1.00  0.00     0.074 A 
ATOM     36  C   UNL A   1      40.221  27.430  28.819  1.00  0.00     0.049 A 
ATOM     37  N   UNL A   1      42.196  29.444  29.849  1.00  0.00    -0.248 NA
ATOM     38  C   UNL A   1      40.421  30.917  30.220  1.00  0.00     0.031 C 
ATOM     39  C   UNL A   1      39.323  26.407  28.281  1.00  0.00     0.029 A 
ATOM     40  N   UNL A   1      41.440  26.801  28.883  1.00  0.00    -0.354 N 
ATOM     41  C   UNL A   1      42.684  30.617  30.410  1.00  0.00     0.074 A 
ATOM     42  C   UNL A   1      41.555  31.507  30.578  1.00  0.00     0.031 C 
ATOM     43  C   UNL A   1      40.016  25.275  28.081  1.00  0.00     0.029 A 
ATOM     44  C   UNL A   1      41.417  25.516  28.401  1.00  0.00     0.049 A 
ATOM     45  H   UNL A   1      42.251  27.230  29.242  1.00  0.00     0.167 HD
ATOM     46  C   UNL A   1      43.957  30.927  30.757  1.00  0.00     0.031 A 
ATOM     47  C   UNL A   1      42.416  24.639  28.190  1.00  0.00     0.031 A 
ATOM     48  C   UNL A   1      45.087  30.049  30.593  1.00  0.00     0.049 A 
ATOM     49  C   UNL A   1      43.830  25.039  28.496  1.00  0.00     0.074 A 
ATOM     50  C   UNL A   1      46.414  30.279  30.915  1.00  0.00     0.029 A 
ATOM     51  N   UNL A   1      45.020  28.771  30.064  1.00  0.00    -0.354 N 
ATOM     52  N   UNL A   1      44.280  26.161  29.001  1.00  0.00    -0.248 NA
ATOM     53  C   UNL A   1      44.874  24.049  28.189  1.00  0.00     0.031 C 
ATOM     54  C   UNL A   1      47.158  29.156  30.539  1.00  0.00     0.029 A 
ATOM     55  C   UNL A   1      46.286  28.207  30.031  1.00  0.00     0.049 A 
ATOM     56  H   UNL A   1      44.197  28.328  29.756  1.00  0.00     0.167 HD
ATOM     57  C   UNL A   1      45.657  26.005  29.093  1.00  0.00     0.074 A 
ATOM     58  C   UNL A   1      45.966  24.677  28.606  1.00  0.00     0.031 C 
ATOM     59  C   UNL A   1      46.582  26.887  29.542  1.00  0.00     0.031 A 
BRANCH  46  60
ATOM     60  C   UNL A   1      44.206  32.296  31.329  1.00  0.00    -0.014 A 
ATOM     61  C   UNL A   1      44.165  32.524  32.713  1.00  0.00     0.009 A 
ATOM     62  C   UNL A   1      44.536  33.358  30.473  1.00  0.00     0.009 A 
ATOM     63  C   UNL A   1      44.425  33.798  33.226  1.00  0.00     0.001 A 
ATOM     64  C   UNL A   1      44.818  34.624  30.991  1.00  0.00     0.001 A 
ATOM     65  C   UNL A   1      44.755  34.844  32.365  1.00  0.00     0.000 A 
ENDBRANCH  46  60
BRANCH  47  66
ATOM     66  C   UNL A   1      42.115  23.301  27.618  1.00  0.00    -0.014 A 
ATOM     67  C   UNL A   1      41.889  22.203  28.459  1.00  0.00     0.009 A 
ATOM     68  C   UNL A   1      42.053  23.119  26.227  1.00  0.00     0.009 A 
ATOM     69  C   UNL A   1      41.623  20.943  27.918  1.00  0.00     0.001 A 
ATOM     70  C   UNL A   1      41.758  21.866  25.690  1.00  0.00     0.001 A 
ATOM     71  C   UNL A   1      41.551  20.777  26.535  1.00  0.00     0.000 A 
ENDBRANCH  47  66
BRANCH  59  72
ATOM     72  C   UNL A   1      48.009  26.424  29.563  1.00  0.00    -0.014 A 
ATOM     73  C   UNL A   1      48.832  26.550  28.433  1.00  0.00     0.009 A 
ATOM     74  C   UNL A   1      48.542  25.869  30.737  1.00  0.00     0.009 A 
ATOM     75  C   UNL A   1      50.152  26.094  28.468  1.00  0.00     0.001 A 
ATOM     76  C   UNL A   1      49.869  25.437  30.776  1.00  0.00     0.001 A 
ATOM     77  C   UNL A   1      50.669  25.541  29.639  1.00  0.00     0.000 A 
ENDBRANCH  59  72
ENDBRANCH  33  34
ENDBRANCH  26  28
ENDBRANCH  25  26
ENDBRANCH   1  25
TORSDOF 12
ENDMDL
