MODEL 1
REMARK VINA RESULT:     -12.1      0.000      0.000
REMARK SMILES CC1(C)Oc2ccc(NC(=O)[C@H]3CC=CC[C@@H]3C(=O)OCCOC(=O)c3ccc(-c4c5nc(c(-c6ccccc6)c6ccc([nH]6)c(-c6ccccc6)c6nc(c(-c7ccccc7)c7ccc4[nH]7)C=C6)C=C5)cc3)cc2NC1=O
REMARK SMILES IDX 21 1 20 2 18 3 19 4 17 5 12 6 13 7 14 8 16 9 15 10 10 11
REMARK SMILES IDX 9 12 11 14 8 15 1 16 2 17 3 18 4 19 77 20 5 21 76 22 78 23
REMARK SMILES IDX 6 24 75 25 7 27 74 28 22 29 23 30 24 31 25 32 26 33 27 34
REMARK SMILES IDX 73 35 28 36 72 37 29 38 30 39 31 40 66 41 32 42 71 43 65 44
REMARK SMILES IDX 67 45 33 46 70 47 64 48 63 49 34 51 56 52 41 53 55 54 42 55
REMARK SMILES IDX 45 56 54 57 68 58 43 59 44 60 53 62 69 63 46 64 35 65 36 66
REMARK SMILES IDX 40 67 37 68 39 69 38 70 57 71 58 72 62 73 59 74 61 75 60 76
REMARK SMILES IDX 47 77 48 78 52 79 49 80 51 81 50 82
REMARK H PARENT 9 13 76 26 67 50 45 61
REMARK Flexibility Score: inf
ROOT
ATOM      1  C   UNL A   1      36.280  22.962  23.345  1.00  0.00     0.274 C 
ENDROOT
BRANCH   1   2
ATOM      2  O   UNL A   1      34.934  23.434  23.095  1.00  0.00    -0.462 OA
BRANCH   2   3
ATOM      3  C   UNL A   1      34.280  23.989  24.145  1.00  0.00     0.310 C 
ATOM      4  O   UNL A   1      34.795  24.777  24.934  1.00  0.00    -0.252 OA
BRANCH   3   5
ATOM      5  C   UNL A   1      32.798  23.613  24.227  1.00  0.00     0.116 C 
ATOM      6  C   UNL A   1      32.317  22.943  25.531  1.00  0.00     0.097 C 
ATOM      7  C   UNL A   1      32.778  21.453  25.499  1.00  0.00     0.041 C 
ATOM      8  C   UNL A   1      32.622  20.789  24.152  1.00  0.00    -0.030 C 
ATOM      9  C   UNL A   1      32.333  22.939  22.943  1.00  0.00     0.043 C 
ATOM     10  C   UNL A   1      32.404  21.453  23.010  1.00  0.00    -0.030 C 
BRANCH   6  11
ATOM     11  C   UNL A   1      30.788  22.965  25.920  1.00  0.00     0.228 C 
ATOM     12  N   UNL A   1      29.952  24.046  25.983  1.00  0.00    -0.326 N 
ATOM     13  H   UNL A   1      29.005  23.812  26.122  1.00  0.00     0.169 HD
ATOM     14  O   UNL A   1      30.228  21.904  26.238  1.00  0.00    -0.274 OA
BRANCH  12  15
ATOM     15  C   UNL A   1      30.189  25.415  25.891  1.00  0.00     0.043 A 
ATOM     16  C   UNL A   1      33.543  29.010  23.106  1.00  0.00     0.067 C 
ATOM     17  C   UNL A   1      32.481  27.946  22.789  1.00  0.00     0.182 C 
ATOM     18  C   UNL A   1      32.606  26.963  21.590  1.00  0.00     0.067 C 
ATOM     19  O   UNL A   1      32.661  27.143  23.940  1.00  0.00    -0.476 OA
ATOM     20  C   UNL A   1      31.077  28.561  22.504  1.00  0.00     0.268 C 
ATOM     21  C   UNL A   1      31.615  27.319  24.820  1.00  0.00     0.144 A 
ATOM     22  N   UNL A   1      30.055  27.848  23.113  1.00  0.00    -0.319 N 
ATOM     23  O   UNL A   1      30.879  29.449  21.679  1.00  0.00    -0.270 OA
ATOM     24  C   UNL A   1      31.925  27.010  26.127  1.00  0.00     0.051 A 
ATOM     25  C   UNL A   1      30.355  27.123  24.272  1.00  0.00     0.086 A 
ATOM     26  H   UNL A   1      29.144  27.850  22.739  1.00  0.00     0.170 HD
ATOM     27  C   UNL A   1      31.174  26.003  26.687  1.00  0.00     0.030 A 
ATOM     28  C   UNL A   1      29.598  26.113  24.819  1.00  0.00     0.056 A 
ENDBRANCH  12  15
ENDBRANCH   6  11
ENDBRANCH   3   5
ENDBRANCH   2   3
ENDBRANCH   1   2
BRANCH   1  29
ATOM     29  C   UNL A   1      36.243  21.654  24.143  1.00  0.00     0.275 C 
BRANCH  29  30
ATOM     30  O   UNL A   1      36.755  21.882  25.471  1.00  0.00    -0.458 OA
BRANCH  30  31
ATOM     31  C   UNL A   1      38.070  21.632  25.673  1.00  0.00     0.338 C 
ATOM     32  O   UNL A   1      38.666  20.604  25.336  1.00  0.00    -0.246 OA
BRANCH  31  33
ATOM     33  C   UNL A   1      38.730  22.777  26.359  1.00  0.00     0.060 A 
ATOM     34  C   UNL A   1      40.007  22.666  26.924  1.00  0.00     0.016 A 
ATOM     35  C   UNL A   1      38.114  24.018  26.407  1.00  0.00     0.016 A 
ATOM     36  C   UNL A   1      40.667  23.794  27.483  1.00  0.00     0.010 A 
ATOM     37  C   UNL A   1      38.790  25.116  26.960  1.00  0.00     0.010 A 
ATOM     38  C   UNL A   1      40.089  25.078  27.468  1.00  0.00    -0.014 A 
BRANCH  38  39
ATOM     39  C   UNL A   1      40.893  26.335  27.770  1.00  0.00     0.031 A 
ATOM     40  C   UNL A   1      42.323  26.634  27.349  1.00  0.00     0.074 A 
ATOM     41  C   UNL A   1      40.485  27.152  28.761  1.00  0.00     0.049 A 
ATOM     42  N   UNL A   1      42.952  27.728  26.990  1.00  0.00    -0.248 NA
ATOM     43  C   UNL A   1      43.236  25.528  27.514  1.00  0.00     0.031 C 
ATOM     44  C   UNL A   1      39.318  26.945  29.615  1.00  0.00     0.029 A 
ATOM     45  N   UNL A   1      41.041  28.323  29.221  1.00  0.00    -0.354 N 
ATOM     46  C   UNL A   1      44.283  27.343  26.737  1.00  0.00     0.074 A 
ATOM     47  C   UNL A   1      44.393  25.944  27.038  1.00  0.00     0.031 C 
ATOM     48  C   UNL A   1      39.192  27.998  30.437  1.00  0.00     0.029 A 
ATOM     49  C   UNL A   1      40.260  28.955  30.154  1.00  0.00     0.049 A 
ATOM     50  H   UNL A   1      41.909  28.671  28.913  1.00  0.00     0.167 HD
ATOM     51  C   UNL A   1      45.400  28.067  26.483  1.00  0.00     0.031 A 
ATOM     52  C   UNL A   1      40.344  30.200  30.657  1.00  0.00     0.031 A 
ATOM     53  C   UNL A   1      45.472  29.473  26.740  1.00  0.00     0.049 A 
ATOM     54  C   UNL A   1      41.421  31.135  30.181  1.00  0.00     0.074 A 
ATOM     55  C   UNL A   1      46.487  30.368  26.460  1.00  0.00     0.029 A 
ATOM     56  N   UNL A   1      44.543  30.135  27.522  1.00  0.00    -0.354 N 
ATOM     57  N   UNL A   1      42.456  30.886  29.416  1.00  0.00    -0.248 NA
ATOM     58  C   UNL A   1      41.306  32.540  30.599  1.00  0.00     0.031 C 
ATOM     59  C   UNL A   1      46.216  31.548  27.165  1.00  0.00     0.029 A 
ATOM     60  C   UNL A   1      44.985  31.411  27.790  1.00  0.00     0.049 A 
ATOM     61  H   UNL A   1      43.693  29.752  27.838  1.00  0.00     0.167 HD
ATOM     62  C   UNL A   1      43.110  32.105  29.251  1.00  0.00     0.074 A 
ATOM     63  C   UNL A   1      42.341  33.092  29.978  1.00  0.00     0.031 C 
ATOM     64  C   UNL A   1      44.239  32.379  28.549  1.00  0.00     0.031 A 
BRANCH  51  65
ATOM     65  C   UNL A   1      46.648  27.329  26.040  1.00  0.00    -0.014 A 
ATOM     66  C   UNL A   1      47.639  26.937  26.956  1.00  0.00     0.009 A 
ATOM     67  C   UNL A   1      46.861  27.053  24.676  1.00  0.00     0.009 A 
ATOM     68  C   UNL A   1      48.809  26.303  26.520  1.00  0.00     0.001 A 
ATOM     69  C   UNL A   1      48.019  26.397  24.246  1.00  0.00     0.001 A 
ATOM     70  C   UNL A   1      48.996  26.029  25.166  1.00  0.00     0.000 A 
ENDBRANCH  51  65
BRANCH  52  71
ATOM     71  C   UNL A   1      39.216  30.668  31.499  1.00  0.00    -0.014 A 
ATOM     72  C   UNL A   1      39.221  30.491  32.889  1.00  0.00     0.009 A 
ATOM     73  C   UNL A   1      38.058  31.156  30.871  1.00  0.00     0.009 A 
ATOM     74  C   UNL A   1      38.072  30.774  33.633  1.00  0.00     0.001 A 
ATOM     75  C   UNL A   1      36.920  31.454  31.620  1.00  0.00     0.001 A 
ATOM     76  C   UNL A   1      36.925  31.253  32.999  1.00  0.00     0.000 A 
ENDBRANCH  52  71
BRANCH  64  77
ATOM     77  C   UNL A   1      44.753  33.790  28.526  1.00  0.00    -0.014 A 
ATOM     78  C   UNL A   1      44.378  34.634  27.468  1.00  0.00     0.009 A 
ATOM     79  C   UNL A   1      45.709  34.238  29.449  1.00  0.00     0.009 A 
ATOM     80  C   UNL A   1      44.960  35.893  27.325  1.00  0.00     0.001 A 
ATOM     81  C   UNL A   1      46.268  35.511  29.319  1.00  0.00     0.001 A 
ATOM     82  C   UNL A   1      45.902  36.331  28.252  1.00  0.00     0.000 A 
ENDBRANCH  64  77
ENDBRANCH  38  39
ENDBRANCH  31  33
ENDBRANCH  30  31
ENDBRANCH  29  30
ENDBRANCH   1  29
TORSDOF 13
ENDMDL
MODEL 2
REMARK VINA RESULT:     -12.0      3.524      8.418
REMARK SMILES CC1(C)Oc2ccc(NC(=O)[C@H]3CC=CC[C@@H]3C(=O)OCCOC(=O)c3ccc(-c4c5nc(c(-c6ccccc6)c6ccc([nH]6)c(-c6ccccc6)c6nc(c(-c7ccccc7)c7ccc4[nH]7)C=C6)C=C5)cc3)cc2NC1=O
REMARK SMILES IDX 21 1 20 2 18 3 19 4 17 5 12 6 13 7 14 8 16 9 15 10 10 11
REMARK SMILES IDX 9 12 11 14 8 15 1 16 2 17 3 18 4 19 77 20 5 21 76 22 78 23
REMARK SMILES IDX 6 24 75 25 7 27 74 28 22 29 23 30 24 31 25 32 26 33 27 34
REMARK SMILES IDX 73 35 28 36 72 37 29 38 30 39 31 40 66 41 32 42 71 43 65 44
REMARK SMILES IDX 67 45 33 46 70 47 64 48 63 49 34 51 56 52 41 53 55 54 42 55
REMARK SMILES IDX 45 56 54 57 68 58 43 59 44 60 53 62 69 63 46 64 35 65 36 66
REMARK SMILES IDX 40 67 37 68 39 69 38 70 57 71 58 72 62 73 59 74 61 75 60 76
REMARK SMILES IDX 47 77 48 78 52 79 49 80 51 81 50 82
REMARK H PARENT 9 13 76 26 67 50 45 61
REMARK Flexibility Score: inf
ROOT
ATOM      1  C   UNL A   1      32.649  29.553  25.494  1.00  0.00     0.274 C 
ENDROOT
BRANCH   1   2
ATOM      2  O   UNL A   1      31.710  28.468  25.692  1.00  0.00    -0.462 OA
BRANCH   2   3
ATOM      3  C   UNL A   1      32.230  27.278  26.080  1.00  0.00     0.310 C 
ATOM      4  O   UNL A   1      33.413  27.106  26.362  1.00  0.00    -0.252 OA
BRANCH   3   5
ATOM      5  C   UNL A   1      31.193  26.159  26.219  1.00  0.00     0.116 C 
ATOM      6  C   UNL A   1      31.702  24.710  26.069  1.00  0.00     0.097 C 
ATOM      7  C   UNL A   1      31.916  24.436  24.549  1.00  0.00     0.041 C 
ATOM      8  C   UNL A   1      30.832  25.000  23.662  1.00  0.00    -0.030 C 
ATOM      9  C   UNL A   1      29.929  26.486  25.434  1.00  0.00     0.043 C 
ATOM     10  C   UNL A   1      29.930  25.904  24.065  1.00  0.00    -0.030 C 
BRANCH   6  11
ATOM     11  C   UNL A   1      30.868  23.509  26.662  1.00  0.00     0.228 C 
ATOM     12  N   UNL A   1      31.192  22.179  26.662  1.00  0.00    -0.326 N 
ATOM     13  H   UNL A   1      30.586  21.620  27.202  1.00  0.00     0.169 HD
ATOM     14  O   UNL A   1      29.765  23.736  27.183  1.00  0.00    -0.274 OA
BRANCH  12  15
ATOM     15  C   UNL A   1      32.216  21.470  26.042  1.00  0.00     0.043 A 
ATOM     16  C   UNL A   1      36.929  22.440  23.080  1.00  0.00     0.067 C 
ATOM     17  C   UNL A   1      36.354  22.764  24.468  1.00  0.00     0.182 C 
ATOM     18  C   UNL A   1      36.554  24.143  25.161  1.00  0.00     0.067 C 
ATOM     19  O   UNL A   1      34.982  22.723  24.124  1.00  0.00    -0.476 OA
ATOM     20  C   UNL A   1      36.888  21.810  25.579  1.00  0.00     0.268 C 
ATOM     21  C   UNL A   1      34.396  21.576  24.614  1.00  0.00     0.144 A 
ATOM     22  N   UNL A   1      35.888  21.403  26.451  1.00  0.00    -0.319 N 
ATOM     23  O   UNL A   1      38.081  21.603  25.782  1.00  0.00    -0.270 OA
ATOM     24  C   UNL A   1      33.261  21.193  23.933  1.00  0.00     0.051 A 
ATOM     25  C   UNL A   1      34.572  21.368  25.975  1.00  0.00     0.086 A 
ATOM     26  H   UNL A   1      36.098  21.148  27.378  1.00  0.00     0.170 HD
ATOM     27  C   UNL A   1      32.112  21.142  24.689  1.00  0.00     0.030 A 
ATOM     28  C   UNL A   1      33.431  21.324  26.741  1.00  0.00     0.056 A 
ENDBRANCH  12  15
ENDBRANCH   6  11
ENDBRANCH   3   5
ENDBRANCH   2   3
ENDBRANCH   1   2
BRANCH   1  29
ATOM     29  C   UNL A   1      32.325  30.713  26.442  1.00  0.00     0.275 C 
BRANCH  29  30
ATOM     30  O   UNL A   1      33.167  30.634  27.609  1.00  0.00    -0.458 OA
BRANCH  30  31
ATOM     31  C   UNL A   1      34.064  31.631  27.787  1.00  0.00     0.338 C 
ATOM     32  O   UNL A   1      33.815  32.840  27.735  1.00  0.00    -0.246 OA
BRANCH  31  33
ATOM     33  C   UNL A   1      35.420  31.083  28.067  1.00  0.00     0.060 A 
ATOM     34  C   UNL A   1      36.494  31.909  28.424  1.00  0.00     0.016 A 
ATOM     35  C   UNL A   1      35.646  29.716  28.039  1.00  0.00     0.016 A 
ATOM     36  C   UNL A   1      37.755  31.363  28.790  1.00  0.00     0.010 A 
ATOM     37  C   UNL A   1      36.898  29.203  28.410  1.00  0.00     0.010 A 
ATOM     38  C   UNL A   1      37.977  29.974  28.844  1.00  0.00    -0.014 A 
BRANCH  38  39
ATOM     39  C   UNL A   1      39.199  29.372  29.525  1.00  0.00     0.031 A 
ATOM     40  C   UNL A   1      39.765  29.737  30.887  1.00  0.00     0.074 A 
ATOM     41  C   UNL A   1      40.091  28.685  28.783  1.00  0.00     0.049 A 
ATOM     42  N   UNL A   1      40.345  29.050  31.842  1.00  0.00    -0.248 NA
ATOM     43  C   UNL A   1      39.824  31.157  31.146  1.00  0.00     0.031 C 
ATOM     44  C   UNL A   1      40.013  28.461  27.342  1.00  0.00     0.029 A 
ATOM     45  N   UNL A   1      41.259  28.066  29.162  1.00  0.00    -0.354 N 
ATOM     46  C   UNL A   1      40.657  29.980  32.852  1.00  0.00     0.074 A 
ATOM     47  C   UNL A   1      40.267  31.279  32.381  1.00  0.00     0.031 C 
ATOM     48  C   UNL A   1      41.039  27.680  26.970  1.00  0.00     0.029 A 
ATOM     49  C   UNL A   1      41.832  27.341  28.150  1.00  0.00     0.049 A 
ATOM     50  H   UNL A   1      41.645  28.137  30.066  1.00  0.00     0.167 HD
ATOM     51  C   UNL A   1      41.387  29.868  33.990  1.00  0.00     0.031 A 
ATOM     52  C   UNL A   1      42.827  26.435  28.186  1.00  0.00     0.031 A 
ATOM     53  C   UNL A   1      42.274  28.769  34.221  1.00  0.00     0.049 A 
ATOM     54  C   UNL A   1      43.475  26.079  29.495  1.00  0.00     0.074 A 
ATOM     55  C   UNL A   1      43.013  28.456  35.346  1.00  0.00     0.029 A 
ATOM     56  N   UNL A   1      42.677  27.914  33.212  1.00  0.00    -0.354 N 
ATOM     57  N   UNL A   1      43.334  26.641  30.671  1.00  0.00    -0.248 NA
ATOM     58  C   UNL A   1      44.383  24.923  29.488  1.00  0.00     0.031 C 
ATOM     59  C   UNL A   1      43.941  27.473  34.981  1.00  0.00     0.029 A 
ATOM     60  C   UNL A   1      43.700  27.110  33.664  1.00  0.00     0.049 A 
ATOM     61  H   UNL A   1      42.291  27.883  32.307  1.00  0.00     0.167 HD
ATOM     62  C   UNL A   1      44.125  25.901  31.546  1.00  0.00     0.074 A 
ATOM     63  C   UNL A   1      44.725  24.838  30.767  1.00  0.00     0.031 C 
ATOM     64  C   UNL A   1      44.325  26.081  32.876  1.00  0.00     0.031 A 
BRANCH  51  65
ATOM     65  C   UNL A   1      41.353  31.016  34.980  1.00  0.00    -0.014 A 
ATOM     66  C   UNL A   1      42.440  31.893  35.130  1.00  0.00     0.009 A 
ATOM     67  C   UNL A   1      40.230  31.203  35.809  1.00  0.00     0.009 A 
ATOM     68  C   UNL A   1      42.409  32.916  36.087  1.00  0.00     0.001 A 
ATOM     69  C   UNL A   1      40.192  32.240  36.746  1.00  0.00     0.001 A 
ATOM     70  C   UNL A   1      41.285  33.091  36.891  1.00  0.00     0.000 A 
ENDBRANCH  51  65
BRANCH  52  71
ATOM     71  C   UNL A   1      43.080  25.658  26.949  1.00  0.00    -0.014 A 
ATOM     72  C   UNL A   1      42.384  24.472  26.677  1.00  0.00     0.009 A 
ATOM     73  C   UNL A   1      44.147  26.036  26.117  1.00  0.00     0.009 A 
ATOM     74  C   UNL A   1      42.770  23.667  25.602  1.00  0.00     0.001 A 
ATOM     75  C   UNL A   1      44.517  25.238  25.035  1.00  0.00     0.001 A 
ATOM     76  C   UNL A   1      43.834  24.049  24.785  1.00  0.00     0.000 A 
ENDBRANCH  52  71
BRANCH  64  77
ATOM     77  C   UNL A   1      45.239  25.139  33.606  1.00  0.00    -0.014 A 
ATOM     78  C   UNL A   1      46.612  25.430  33.663  1.00  0.00     0.009 A 
ATOM     79  C   UNL A   1      44.782  23.911  34.102  1.00  0.00     0.009 A 
ATOM     80  C   UNL A   1      47.512  24.504  34.189  1.00  0.00     0.001 A 
ATOM     81  C   UNL A   1      45.682  22.997  34.654  1.00  0.00     0.001 A 
ATOM     82  C   UNL A   1      47.046  23.290  34.687  1.00  0.00     0.000 A 
ENDBRANCH  64  77
ENDBRANCH  38  39
ENDBRANCH  31  33
ENDBRANCH  30  31
ENDBRANCH  29  30
ENDBRANCH   1  29
TORSDOF 13
ENDMDL
MODEL 3
REMARK VINA RESULT:     -11.9      1.347      2.073
REMARK SMILES CC1(C)Oc2ccc(NC(=O)[C@H]3CC=CC[C@@H]3C(=O)OCCOC(=O)c3ccc(-c4c5nc(c(-c6ccccc6)c6ccc([nH]6)c(-c6ccccc6)c6nc(c(-c7ccccc7)c7ccc4[nH]7)C=C6)C=C5)cc3)cc2NC1=O
REMARK SMILES IDX 21 1 20 2 18 3 19 4 17 5 12 6 13 7 14 8 16 9 15 10 10 11
REMARK SMILES IDX 9 12 11 14 8 15 1 16 2 17 3 18 4 19 77 20 5 21 76 22 78 23
REMARK SMILES IDX 6 24 75 25 7 27 74 28 22 29 23 30 24 31 25 32 26 33 27 34
REMARK SMILES IDX 73 35 28 36 72 37 29 38 30 39 31 40 66 41 32 42 71 43 65 44
REMARK SMILES IDX 67 45 33 46 70 47 64 48 63 49 34 51 56 52 41 53 55 54 42 55
REMARK SMILES IDX 45 56 54 57 68 58 43 59 44 60 53 62 69 63 46 64 35 65 36 66
REMARK SMILES IDX 40 67 37 68 39 69 38 70 57 71 58 72 62 73 59 74 61 75 60 76
REMARK SMILES IDX 47 77 48 78 52 79 49 80 51 81 50 82
REMARK H PARENT 9 13 76 26 67 50 45 61
REMARK Flexibility Score: inf
ROOT
ATOM      1  C   UNL A   1      36.520  22.721  23.458  1.00  0.00     0.274 C 
ENDROOT
BRANCH   1   2
ATOM      2  O   UNL A   1      35.452  23.578  23.929  1.00  0.00    -0.462 OA
BRANCH   2   3
ATOM      3  C   UNL A   1      34.283  23.522  23.246  1.00  0.00     0.310 C 
ATOM      4  O   UNL A   1      34.204  23.329  22.036  1.00  0.00    -0.252 OA
BRANCH   3   5
ATOM      5  C   UNL A   1      33.037  23.641  24.130  1.00  0.00     0.116 C 
ATOM      6  C   UNL A   1      33.146  24.542  25.377  1.00  0.00     0.097 C 
ATOM      7  C   UNL A   1      33.942  23.756  26.463  1.00  0.00     0.041 C 
ATOM      8  C   UNL A   1      33.574  22.296  26.561  1.00  0.00    -0.030 C 
ATOM      9  C   UNL A   1      32.405  22.276  24.370  1.00  0.00     0.043 C 
ATOM     10  C   UNL A   1      32.869  21.637  25.632  1.00  0.00    -0.030 C 
BRANCH   6  11
ATOM     11  C   UNL A   1      31.845  25.120  26.057  1.00  0.00     0.228 C 
ATOM     12  N   UNL A   1      31.086  26.184  25.652  1.00  0.00    -0.326 N 
ATOM     13  H   UNL A   1      30.244  26.289  26.153  1.00  0.00     0.169 HD
ATOM     14  O   UNL A   1      31.427  24.601  27.104  1.00  0.00    -0.274 OA
BRANCH  12  15
ATOM     15  C   UNL A   1      31.281  27.146  24.665  1.00  0.00     0.043 A 
ATOM     16  C   UNL A   1      28.249  30.333  21.118  1.00  0.00     0.067 C 
ATOM     17  C   UNL A   1      28.391  30.111  22.632  1.00  0.00     0.182 C 
ATOM     18  C   UNL A   1      27.171  30.097  23.598  1.00  0.00     0.067 C 
ATOM     19  O   UNL A   1      28.839  28.770  22.591  1.00  0.00    -0.476 OA
ATOM     20  C   UNL A   1      29.282  31.190  23.318  1.00  0.00     0.268 C 
ATOM     21  C   UNL A   1      30.184  28.701  22.881  1.00  0.00     0.144 A 
ATOM     22  N   UNL A   1      30.154  30.641  24.248  1.00  0.00    -0.319 N 
ATOM     23  O   UNL A   1      29.100  32.398  23.200  1.00  0.00    -0.270 OA
ATOM     24  C   UNL A   1      30.808  27.577  22.384  1.00  0.00     0.051 A 
ATOM     25  C   UNL A   1      30.555  29.311  24.072  1.00  0.00     0.086 A 
ATOM     26  H   UNL A   1      30.480  31.170  25.011  1.00  0.00     0.170 HD
ATOM     27  C   UNL A   1      31.381  26.758  23.328  1.00  0.00     0.030 A 
ATOM     28  C   UNL A   1      31.121  28.499  25.026  1.00  0.00     0.056 A 
ENDBRANCH  12  15
ENDBRANCH   6  11
ENDBRANCH   3   5
ENDBRANCH   2   3
ENDBRANCH   1   2
BRANCH   1  29
ATOM     29  C   UNL A   1      36.613  21.463  24.329  1.00  0.00     0.275 C 
BRANCH  29  30
ATOM     30  O   UNL A   1      37.102  21.816  25.638  1.00  0.00    -0.458 OA
BRANCH  30  31
ATOM     31  C   UNL A   1      38.431  21.681  25.853  1.00  0.00     0.338 C 
ATOM     32  O   UNL A   1      39.116  20.704  25.534  1.00  0.00    -0.246 OA
BRANCH  31  33
ATOM     33  C   UNL A   1      38.985  22.886  26.531  1.00  0.00     0.060 A 
ATOM     34  C   UNL A   1      40.223  22.865  27.186  1.00  0.00     0.016 A 
ATOM     35  C   UNL A   1      38.308  24.095  26.482  1.00  0.00     0.016 A 
ATOM     36  C   UNL A   1      40.787  24.047  27.738  1.00  0.00     0.010 A 
ATOM     37  C   UNL A   1      38.889  25.248  27.030  1.00  0.00     0.010 A 
ATOM     38  C   UNL A   1      40.150  25.298  27.627  1.00  0.00    -0.014 A 
BRANCH  38  39
ATOM     39  C   UNL A   1      40.868  26.606  27.925  1.00  0.00     0.031 A 
ATOM     40  C   UNL A   1      42.250  27.025  27.450  1.00  0.00     0.074 A 
ATOM     41  C   UNL A   1      40.446  27.367  28.955  1.00  0.00     0.049 A 
ATOM     42  N   UNL A   1      42.777  28.172  27.092  1.00  0.00    -0.248 NA
ATOM     43  C   UNL A   1      43.252  25.990  27.545  1.00  0.00     0.031 C 
ATOM     44  C   UNL A   1      39.338  27.050  29.854  1.00  0.00     0.029 A 
ATOM     45  N   UNL A   1      40.930  28.566  29.421  1.00  0.00    -0.354 N 
ATOM     46  C   UNL A   1      44.120  27.897  26.771  1.00  0.00     0.074 A 
ATOM     47  C   UNL A   1      44.350  26.504  27.030  1.00  0.00     0.031 C 
ATOM     48  C   UNL A   1      39.170  28.071  30.708  1.00  0.00     0.029 A 
ATOM     49  C   UNL A   1      40.148  29.114  30.404  1.00  0.00     0.049 A 
ATOM     50  H   UNL A   1      41.754  28.987  29.084  1.00  0.00     0.167 HD
ATOM     51  C   UNL A   1      45.166  28.712  26.487  1.00  0.00     0.031 A 
ATOM     52  C   UNL A   1      40.159  30.350  30.936  1.00  0.00     0.031 A 
ATOM     53  C   UNL A   1      45.142  30.112  26.778  1.00  0.00     0.049 A 
ATOM     54  C   UNL A   1      41.139  31.376  30.437  1.00  0.00     0.074 A 
ATOM     55  C   UNL A   1      46.072  31.090  26.477  1.00  0.00     0.029 A 
ATOM     56  N   UNL A   1      44.203  30.682  27.617  1.00  0.00    -0.354 N 
ATOM     57  N   UNL A   1      42.154  31.226  29.621  1.00  0.00    -0.248 NA
ATOM     58  C   UNL A   1      40.937  32.758  30.897  1.00  0.00     0.031 C 
ATOM     59  C   UNL A   1      45.744  32.228  27.224  1.00  0.00     0.029 A 
ATOM     60  C   UNL A   1      44.558  31.982  27.900  1.00  0.00     0.049 A 
ATOM     61  H   UNL A   1      43.400  30.227  27.960  1.00  0.00     0.167 HD
ATOM     62  C   UNL A   1      42.704  32.495  29.459  1.00  0.00     0.074 A 
ATOM     63  C   UNL A   1      41.896  33.403  30.246  1.00  0.00     0.031 C 
ATOM     64  C   UNL A   1      43.776  32.872  28.716  1.00  0.00     0.031 A 
BRANCH  51  65
ATOM     65  C   UNL A   1      46.445  28.082  25.970  1.00  0.00    -0.014 A 
ATOM     66  C   UNL A   1      46.613  27.759  24.613  1.00  0.00     0.009 A 
ATOM     67  C   UNL A   1      47.489  27.767  26.861  1.00  0.00     0.009 A 
ATOM     68  C   UNL A   1      47.782  27.129  24.165  1.00  0.00     0.001 A 
ATOM     69  C   UNL A   1      48.665  27.162  26.406  1.00  0.00     0.001 A 
ATOM     70  C   UNL A   1      48.807  26.835  25.061  1.00  0.00     0.000 A 
ENDBRANCH  51  65
BRANCH  52  71
ATOM     71  C   UNL A   1      39.040  30.710  31.838  1.00  0.00    -0.014 A 
ATOM     72  C   UNL A   1      37.849  31.257  31.342  1.00  0.00     0.009 A 
ATOM     73  C   UNL A   1      39.240  30.644  33.227  1.00  0.00     0.009 A 
ATOM     74  C   UNL A   1      36.887  31.755  32.225  1.00  0.00     0.001 A 
ATOM     75  C   UNL A   1      38.270  31.126  34.105  1.00  0.00     0.001 A 
ATOM     76  C   UNL A   1      37.099  31.690  33.603  1.00  0.00     0.000 A 
ENDBRANCH  52  71
BRANCH  64  77
ATOM     77  C   UNL A   1      44.179  34.318  28.708  1.00  0.00    -0.014 A 
ATOM     78  C   UNL A   1      43.719  35.148  27.672  1.00  0.00     0.009 A 
ATOM     79  C   UNL A   1      45.116  34.824  29.620  1.00  0.00     0.009 A 
ATOM     80  C   UNL A   1      44.200  36.450  27.540  1.00  0.00     0.001 A 
ATOM     81  C   UNL A   1      45.573  36.138  29.502  1.00  0.00     0.001 A 
ATOM     82  C   UNL A   1      45.124  36.945  28.457  1.00  0.00     0.000 A 
ENDBRANCH  64  77
ENDBRANCH  38  39
ENDBRANCH  31  33
ENDBRANCH  30  31
ENDBRANCH  29  30
ENDBRANCH   1  29
TORSDOF 13
ENDMDL
