MODEL 1
REMARK VINA RESULT:     -10.0      0.000      0.000
REMARK SMILES CCCC[C@@H](C(=O)OCCOC(=O)c1ccc(-c2c3nc(c(-c4ccccc4)c4ccc([nH]4)c(-c4ccccc4)c4nc(c(-c5ccccc5)c5ccc2[nH]5)C=C4)C=C3)cc1)[C@]1(O)COc2cc(O)ccc21
REMARK SMILES IDX 9 1 8 2 6 3 7 4 5 5 4 6 3 7 2 8 1 9 62 10 64 11 72 12 65 13
REMARK SMILES IDX 66 14 71 15 67 16 70 17 68 18 63 19 69 21 10 23 11 24 12 25
REMARK SMILES IDX 13 26 14 27 15 28 61 29 16 30 60 31 17 32 18 33 19 34 54 35
REMARK SMILES IDX 20 36 59 37 53 38 55 39 21 40 58 41 52 42 51 43 22 45 44 46
REMARK SMILES IDX 29 47 43 48 30 49 33 50 42 51 56 52 31 53 32 54 41 56 57 57
REMARK SMILES IDX 34 58 23 59 24 60 28 61 25 62 27 63 26 64 45 65 46 66 50 67
REMARK SMILES IDX 47 68 49 69 48 70 35 71 36 72 40 73 37 74 39 75 38 76
REMARK H PARENT 63 20 69 22 55 44 33 55
REMARK Flexibility Score: inf
ROOT
ATOM      1  C   UNL A   1      38.061  19.657  24.986  1.00  0.00     0.274 C 
ENDROOT
BRANCH   1   2
ATOM      2  O   UNL A   1      37.219  20.818  25.033  1.00  0.00    -0.462 OA
BRANCH   2   3
ATOM      3  C   UNL A   1      35.883  20.586  24.918  1.00  0.00     0.312 C 
ATOM      4  O   UNL A   1      35.359  19.481  24.992  1.00  0.00    -0.252 OA
BRANCH   3   5
ATOM      5  C   UNL A   1      35.100  21.882  24.746  1.00  0.00     0.139 C 
BRANCH   5   6
ATOM      6  C   UNL A   1      35.658  22.712  23.550  1.00  0.00     0.019 C 
BRANCH   6   7
ATOM      7  C   UNL A   1      34.626  23.340  22.602  1.00  0.00     0.001 C 
BRANCH   7   8
ATOM      8  C   UNL A   1      33.202  22.811  22.748  1.00  0.00    -0.003 C 
ATOM      9  C   UNL A   1      32.162  23.915  22.842  1.00  0.00     0.004 C 
ENDBRANCH   7   8
ENDBRANCH   6   7
ENDBRANCH   5   6
BRANCH   5  10
ATOM     10  C   UNL A   1      35.014  22.694  26.093  1.00  0.00     0.140 C 
ATOM     11  C   UNL A   1      34.310  21.899  27.207  1.00  0.00     0.270 C 
ATOM     12  C   UNL A   1      34.027  23.838  26.147  1.00  0.00     0.030 A 
ATOM     13  O   UNL A   1      32.911  21.992  26.896  1.00  0.00    -0.490 OA
ATOM     14  C   UNL A   1      32.801  23.305  26.535  1.00  0.00     0.129 A 
ATOM     15  C   UNL A   1      34.128  25.202  25.953  1.00  0.00     0.014 A 
ATOM     16  C   UNL A   1      31.634  24.027  26.592  1.00  0.00     0.093 A 
ATOM     17  C   UNL A   1      32.966  25.986  26.103  1.00  0.00     0.047 A 
ATOM     18  C   UNL A   1      31.730  25.388  26.388  1.00  0.00     0.119 A 
BRANCH  10  19
ATOM     19  O   UNL A   1      36.317  23.073  26.529  1.00  0.00    -0.381 OA
ATOM     20  H   UNL A   1      36.953  22.382  26.283  1.00  0.00     0.212 HD
ENDBRANCH  10  19
BRANCH  18  21
ATOM     21  O   UNL A   1      30.581  26.113  26.512  1.00  0.00    -0.508 OA
ATOM     22  H   UNL A   1      29.985  26.172  25.792  1.00  0.00     0.293 HD
ENDBRANCH  18  21
ENDBRANCH   5  10
ENDBRANCH   3   5
ENDBRANCH   2   3
ENDBRANCH   1   2
BRANCH   1  23
ATOM     23  C   UNL A   1      39.316  19.913  25.827  1.00  0.00     0.275 C 
BRANCH  23  24
ATOM     24  O   UNL A   1      40.469  19.291  25.219  1.00  0.00    -0.458 OA
BRANCH  24  25
ATOM     25  C   UNL A   1      41.590  19.209  25.981  1.00  0.00     0.338 C 
ATOM     26  O   UNL A   1      42.337  18.249  26.093  1.00  0.00    -0.246 OA
BRANCH  25  27
ATOM     27  C   UNL A   1      41.898  20.547  26.542  1.00  0.00     0.060 A 
ATOM     28  C   UNL A   1      42.224  21.559  25.633  1.00  0.00     0.016 A 
ATOM     29  C   UNL A   1      41.739  20.852  27.899  1.00  0.00     0.016 A 
ATOM     30  C   UNL A   1      42.232  22.891  26.045  1.00  0.00     0.010 A 
ATOM     31  C   UNL A   1      41.832  22.185  28.329  1.00  0.00     0.010 A 
ATOM     32  C   UNL A   1      42.050  23.213  27.398  1.00  0.00    -0.014 A 
BRANCH  32  33
ATOM     33  C   UNL A   1      42.380  24.594  27.828  1.00  0.00     0.031 A 
ATOM     34  C   UNL A   1      43.840  24.941  27.883  1.00  0.00     0.074 A 
ATOM     35  C   UNL A   1      41.448  25.541  28.052  1.00  0.00     0.049 A 
ATOM     36  N   UNL A   1      44.420  26.082  28.150  1.00  0.00    -0.248 NA
ATOM     37  C   UNL A   1      44.776  23.851  27.548  1.00  0.00     0.031 C 
ATOM     38  C   UNL A   1      40.002  25.374  27.910  1.00  0.00     0.029 A 
ATOM     39  N   UNL A   1      41.596  26.858  28.424  1.00  0.00    -0.354 N 
ATOM     40  C   UNL A   1      45.779  25.849  27.988  1.00  0.00     0.074 A 
ATOM     41  C   UNL A   1      45.941  24.468  27.598  1.00  0.00     0.031 C 
ATOM     42  C   UNL A   1      39.398  26.547  28.185  1.00  0.00     0.029 A 
ATOM     43  C   UNL A   1      40.408  27.537  28.560  1.00  0.00     0.049 A 
ATOM     44  H   UNL A   1      42.474  27.276  28.579  1.00  0.00     0.167 HD
ATOM     45  C   UNL A   1      46.813  26.699  28.172  1.00  0.00     0.031 A 
ATOM     46  C   UNL A   1      40.174  28.805  28.960  1.00  0.00     0.031 A 
ATOM     47  C   UNL A   1      46.669  28.035  28.667  1.00  0.00     0.049 A 
ATOM     48  C   UNL A   1      41.350  29.684  29.328  1.00  0.00     0.074 A 
ATOM     49  C   UNL A   1      47.655  28.935  29.024  1.00  0.00     0.029 A 
ATOM     50  N   UNL A   1      45.451  28.649  28.905  1.00  0.00    -0.354 N 
ATOM     51  N   UNL A   1      42.635  29.443  29.216  1.00  0.00    -0.248 NA
ATOM     52  C   UNL A   1      41.039  31.009  29.891  1.00  0.00     0.031 C 
ATOM     53  C   UNL A   1      47.029  30.080  29.528  1.00  0.00     0.029 A 
ATOM     54  C   UNL A   1      45.656  29.914  29.423  1.00  0.00     0.049 A 
ATOM     55  H   UNL A   1      44.569  28.246  28.730  1.00  0.00     0.167 HD
ATOM     56  C   UNL A   1      43.281  30.588  29.668  1.00  0.00     0.074 A 
ATOM     57  C   UNL A   1      42.249  31.533  30.039  1.00  0.00     0.031 C 
ATOM     58  C   UNL A   1      44.610  30.838  29.772  1.00  0.00     0.031 A 
BRANCH  45  59
ATOM     59  C   UNL A   1      48.182  26.132  27.940  1.00  0.00    -0.014 A 
ATOM     60  C   UNL A   1      48.897  25.510  28.975  1.00  0.00     0.009 A 
ATOM     61  C   UNL A   1      48.795  26.305  26.691  1.00  0.00     0.009 A 
ATOM     62  C   UNL A   1      50.219  25.112  28.775  1.00  0.00     0.001 A 
ATOM     63  C   UNL A   1      50.109  25.883  26.487  1.00  0.00     0.001 A 
ATOM     64  C   UNL A   1      50.824  25.300  27.532  1.00  0.00     0.000 A 
ENDBRANCH  45  59
BRANCH  46  65
ATOM     65  C   UNL A   1      38.784  29.331  29.101  1.00  0.00    -0.014 A 
ATOM     66  C   UNL A   1      38.051  29.136  30.284  1.00  0.00     0.009 A 
ATOM     67  C   UNL A   1      38.148  29.956  28.017  1.00  0.00     0.009 A 
ATOM     68  C   UNL A   1      36.708  29.520  30.363  1.00  0.00     0.001 A 
ATOM     69  C   UNL A   1      36.815  30.368  28.109  1.00  0.00     0.001 A 
ATOM     70  C   UNL A   1      36.092  30.138  29.277  1.00  0.00     0.000 A 
ENDBRANCH  46  65
BRANCH  58  71
ATOM     71  C   UNL A   1      45.029  32.196  30.263  1.00  0.00    -0.014 A 
ATOM     72  C   UNL A   1      45.311  32.429  31.618  1.00  0.00     0.009 A 
ATOM     73  C   UNL A   1      45.222  33.234  29.338  1.00  0.00     0.009 A 
ATOM     74  C   UNL A   1      45.754  33.685  32.038  1.00  0.00     0.001 A 
ATOM     75  C   UNL A   1      45.692  34.478  29.757  1.00  0.00     0.001 A 
ATOM     76  C   UNL A   1      45.951  34.705  31.106  1.00  0.00     0.000 A 
ENDBRANCH  58  71
ENDBRANCH  32  33
ENDBRANCH  25  27
ENDBRANCH  24  25
ENDBRANCH  23  24
ENDBRANCH   1  23
TORSDOF 17
ENDMDL
MODEL 2
REMARK VINA RESULT:      -9.9      0.879      6.102
REMARK SMILES CCCC[C@@H](C(=O)OCCOC(=O)c1ccc(-c2c3nc(c(-c4ccccc4)c4ccc([nH]4)c(-c4ccccc4)c4nc(c(-c5ccccc5)c5ccc2[nH]5)C=C4)C=C3)cc1)[C@]1(O)COc2cc(O)ccc21
REMARK SMILES IDX 9 1 8 2 6 3 7 4 5 5 4 6 3 7 2 8 1 9 62 10 64 11 72 12 65 13
REMARK SMILES IDX 66 14 71 15 67 16 70 17 68 18 63 19 69 21 10 23 11 24 12 25
REMARK SMILES IDX 13 26 14 27 15 28 61 29 16 30 60 31 17 32 18 33 19 34 54 35
REMARK SMILES IDX 20 36 59 37 53 38 55 39 21 40 58 41 52 42 51 43 22 45 44 46
REMARK SMILES IDX 29 47 43 48 30 49 33 50 42 51 56 52 31 53 32 54 41 56 57 57
REMARK SMILES IDX 34 58 23 59 24 60 28 61 25 62 27 63 26 64 45 65 46 66 50 67
REMARK SMILES IDX 47 68 49 69 48 70 35 71 36 72 40 73 37 74 39 75 38 76
REMARK H PARENT 63 20 69 22 55 44 33 55
REMARK Flexibility Score: inf
ROOT
ATOM      1  C   UNL A   1      37.910  19.984  25.144  1.00  0.00     0.274 C 
ENDROOT
BRANCH   1   2
ATOM      2  O   UNL A   1      36.952  21.035  25.334  1.00  0.00    -0.462 OA
BRANCH   2   3
ATOM      3  C   UNL A   1      35.672  20.741  24.976  1.00  0.00     0.312 C 
ATOM      4  O   UNL A   1      35.224  19.607  24.860  1.00  0.00    -0.252 OA
BRANCH   3   5
ATOM      5  C   UNL A   1      34.836  22.001  24.795  1.00  0.00     0.139 C 
BRANCH   5   6
ATOM      6  C   UNL A   1      35.285  22.788  23.526  1.00  0.00     0.019 C 
BRANCH   6   7
ATOM      7  C   UNL A   1      34.172  23.331  22.618  1.00  0.00     0.001 C 
BRANCH   7   8
ATOM      8  C   UNL A   1      32.829  22.617  22.737  1.00  0.00    -0.003 C 
ATOM      9  C   UNL A   1      31.691  23.547  23.126  1.00  0.00     0.004 C 
ENDBRANCH   7   8
ENDBRANCH   6   7
ENDBRANCH   5   6
BRANCH   5  10
ATOM     10  C   UNL A   1      34.809  22.877  26.104  1.00  0.00     0.140 C 
ATOM     11  C   UNL A   1      34.160  22.136  27.287  1.00  0.00     0.270 C 
ATOM     12  C   UNL A   1      33.822  24.021  26.150  1.00  0.00     0.030 A 
ATOM     13  O   UNL A   1      32.749  22.212  27.037  1.00  0.00    -0.490 OA
ATOM     14  C   UNL A   1      32.618  23.507  26.619  1.00  0.00     0.129 A 
ATOM     15  C   UNL A   1      33.910  25.375  25.886  1.00  0.00     0.014 A 
ATOM     16  C   UNL A   1      31.452  24.229  26.697  1.00  0.00     0.093 A 
ATOM     17  C   UNL A   1      32.753  26.164  26.052  1.00  0.00     0.047 A 
ATOM     18  C   UNL A   1      31.534  25.579  26.424  1.00  0.00     0.119 A 
BRANCH  10  19
ATOM     19  O   UNL A   1      36.130  23.278  26.460  1.00  0.00    -0.381 OA
ATOM     20  H   UNL A   1      36.593  22.532  26.874  1.00  0.00     0.212 HD
ENDBRANCH  10  19
BRANCH  18  21
ATOM     21  O   UNL A   1      30.390  26.308  26.567  1.00  0.00    -0.508 OA
ATOM     22  H   UNL A   1      29.559  25.915  26.384  1.00  0.00     0.293 HD
ENDBRANCH  18  21
ENDBRANCH   5  10
ENDBRANCH   3   5
ENDBRANCH   2   3
ENDBRANCH   1   2
BRANCH   1  23
ATOM     23  C   UNL A   1      39.321  20.556  25.317  1.00  0.00     0.275 C 
BRANCH  23  24
ATOM     24  O   UNL A   1      40.147  19.646  26.078  1.00  0.00    -0.458 OA
BRANCH  24  25
ATOM     25  C   UNL A   1      41.491  19.778  25.936  1.00  0.00     0.338 C 
ATOM     26  O   UNL A   1      42.235  19.076  25.270  1.00  0.00    -0.246 OA
BRANCH  25  27
ATOM     27  C   UNL A   1      41.928  21.040  26.582  1.00  0.00     0.060 A 
ATOM     28  C   UNL A   1      42.482  22.021  25.752  1.00  0.00     0.016 A 
ATOM     29  C   UNL A   1      41.679  21.325  27.930  1.00  0.00     0.016 A 
ATOM     30  C   UNL A   1      42.637  23.325  26.221  1.00  0.00     0.010 A 
ATOM     31  C   UNL A   1      41.917  22.616  28.425  1.00  0.00     0.010 A 
ATOM     32  C   UNL A   1      42.370  23.629  27.564  1.00  0.00    -0.014 A 
BRANCH  32  33
ATOM     33  C   UNL A   1      42.848  24.934  28.083  1.00  0.00     0.031 A 
ATOM     34  C   UNL A   1      41.799  25.991  28.289  1.00  0.00     0.074 A 
ATOM     35  C   UNL A   1      44.120  25.157  28.465  1.00  0.00     0.049 A 
ATOM     36  N   UNL A   1      41.908  27.191  28.795  1.00  0.00    -0.248 NA
ATOM     37  C   UNL A   1      40.424  25.619  27.907  1.00  0.00     0.031 C 
ATOM     38  C   UNL A   1      45.209  24.182  28.438  1.00  0.00     0.029 A 
ATOM     39  N   UNL A   1      44.702  26.291  28.986  1.00  0.00    -0.354 N 
ATOM     40  C   UNL A   1      40.617  27.700  28.814  1.00  0.00     0.074 A 
ATOM     41  C   UNL A   1      39.741  26.685  28.276  1.00  0.00     0.031 C 
ATOM     42  C   UNL A   1      46.325  24.757  28.927  1.00  0.00     0.029 A 
ATOM     43  C   UNL A   1      46.041  26.152  29.266  1.00  0.00     0.049 A 
ATOM     44  H   UNL A   1      44.205  27.126  29.143  1.00  0.00     0.167 HD
ATOM     45  C   UNL A   1      40.190  28.916  29.218  1.00  0.00     0.031 A 
ATOM     46  C   UNL A   1      46.930  27.059  29.725  1.00  0.00     0.031 A 
ATOM     47  C   UNL A   1      41.064  29.967  29.645  1.00  0.00     0.049 A 
ATOM     48  C   UNL A   1      46.457  28.469  30.005  1.00  0.00     0.074 A 
ATOM     49  C   UNL A   1      40.756  31.280  29.943  1.00  0.00     0.029 A 
ATOM     50  N   UNL A   1      42.433  29.823  29.805  1.00  0.00    -0.354 N 
ATOM     51  N   UNL A   1      45.240  28.959  29.977  1.00  0.00    -0.248 NA
ATOM     52  C   UNL A   1      47.488  29.457  30.368  1.00  0.00     0.031 C 
ATOM     53  C   UNL A   1      41.951  31.947  30.234  1.00  0.00     0.029 A 
ATOM     54  C   UNL A   1      42.991  31.031  30.180  1.00  0.00     0.049 A 
ATOM     55  H   UNL A   1      42.934  28.985  29.673  1.00  0.00     0.167 HD
ATOM     56  C   UNL A   1      45.355  30.295  30.342  1.00  0.00     0.074 A 
ATOM     57  C   UNL A   1      46.757  30.538  30.605  1.00  0.00     0.031 C 
ATOM     58  C   UNL A   1      44.389  31.241  30.447  1.00  0.00     0.031 A 
BRANCH  45  59
ATOM     59  C   UNL A   1      38.719  29.176  29.087  1.00  0.00    -0.014 A 
ATOM     60  C   UNL A   1      38.165  29.624  27.878  1.00  0.00     0.009 A 
ATOM     61  C   UNL A   1      37.896  29.056  30.216  1.00  0.00     0.009 A 
ATOM     62  C   UNL A   1      36.819  29.990  27.815  1.00  0.00     0.001 A 
ATOM     63  C   UNL A   1      36.546  29.398  30.143  1.00  0.00     0.001 A 
ATOM     64  C   UNL A   1      36.012  29.878  28.947  1.00  0.00     0.000 A 
ENDBRANCH  45  59
BRANCH  46  65
ATOM     65  C   UNL A   1      48.372  26.713  29.902  1.00  0.00    -0.014 A 
ATOM     66  C   UNL A   1      49.305  26.944  28.877  1.00  0.00     0.009 A 
ATOM     67  C   UNL A   1      48.808  26.065  31.069  1.00  0.00     0.009 A 
ATOM     68  C   UNL A   1      50.627  26.503  29.002  1.00  0.00     0.001 A 
ATOM     69  C   UNL A   1      50.137  25.653  31.204  1.00  0.00     0.001 A 
ATOM     70  C   UNL A   1      51.042  25.860  30.166  1.00  0.00     0.000 A 
ENDBRANCH  46  65
BRANCH  58  71
ATOM     71  C   UNL A   1      44.801  32.613  30.905  1.00  0.00    -0.014 A 
ATOM     72  C   UNL A   1      45.158  33.614  29.990  1.00  0.00     0.009 A 
ATOM     73  C   UNL A   1      44.751  32.926  32.274  1.00  0.00     0.009 A 
ATOM     74  C   UNL A   1      45.481  34.896  30.440  1.00  0.00     0.001 A 
ATOM     75  C   UNL A   1      45.046  34.214  32.716  1.00  0.00     0.001 A 
ATOM     76  C   UNL A   1      45.417  35.196  31.801  1.00  0.00     0.000 A 
ENDBRANCH  58  71
ENDBRANCH  32  33
ENDBRANCH  25  27
ENDBRANCH  24  25
ENDBRANCH  23  24
ENDBRANCH   1  23
TORSDOF 17
ENDMDL
MODEL 3
REMARK VINA RESULT:      -9.8      2.724      4.427
REMARK SMILES CCCC[C@@H](C(=O)OCCOC(=O)c1ccc(-c2c3nc(c(-c4ccccc4)c4ccc([nH]4)c(-c4ccccc4)c4nc(c(-c5ccccc5)c5ccc2[nH]5)C=C4)C=C3)cc1)[C@]1(O)COc2cc(O)ccc21
REMARK SMILES IDX 9 1 8 2 6 3 7 4 5 5 4 6 3 7 2 8 1 9 62 10 64 11 72 12 65 13
REMARK SMILES IDX 66 14 71 15 67 16 70 17 68 18 63 19 69 21 10 23 11 24 12 25
REMARK SMILES IDX 13 26 14 27 15 28 61 29 16 30 60 31 17 32 18 33 19 34 54 35
REMARK SMILES IDX 20 36 59 37 53 38 55 39 21 40 58 41 52 42 51 43 22 45 44 46
REMARK SMILES IDX 29 47 43 48 30 49 33 50 42 51 56 52 31 53 32 54 41 56 57 57
REMARK SMILES IDX 34 58 23 59 24 60 28 61 25 62 27 63 26 64 45 65 46 66 50 67
REMARK SMILES IDX 47 68 49 69 48 70 35 71 36 72 40 73 37 74 39 75 38 76
REMARK H PARENT 63 20 69 22 55 44 33 55
REMARK Flexibility Score: inf
ROOT
ATOM      1  C   UNL A   1      36.357  22.013  24.217  1.00  0.00     0.274 C 
ENDROOT
BRANCH   1   2
ATOM      2  O   UNL A   1      35.261  21.168  24.598  1.00  0.00    -0.462 OA
BRANCH   2   3
ATOM      3  C   UNL A   1      34.275  21.765  25.320  1.00  0.00     0.312 C 
ATOM      4  O   UNL A   1      33.786  21.307  26.345  1.00  0.00    -0.252 OA
BRANCH   3   5
ATOM      5  C   UNL A   1      33.889  23.117  24.732  1.00  0.00     0.139 C 
BRANCH   5   6
ATOM      6  C   UNL A   1      33.733  24.187  25.855  1.00  0.00     0.019 C 
BRANCH   6   7
ATOM      7  C   UNL A   1      34.418  25.541  25.622  1.00  0.00     0.001 C 
BRANCH   7   8
ATOM      8  C   UNL A   1      33.520  26.763  25.793  1.00  0.00    -0.003 C 
ATOM      9  C   UNL A   1      33.720  27.806  24.705  1.00  0.00     0.004 C 
ENDBRANCH   7   8
ENDBRANCH   6   7
ENDBRANCH   5   6
BRANCH   5  10
ATOM     10  C   UNL A   1      32.633  23.005  23.788  1.00  0.00     0.140 C 
ATOM     11  C   UNL A   1      33.027  22.704  22.330  1.00  0.00     0.270 C 
ATOM     12  C   UNL A   1      31.919  24.290  23.434  1.00  0.00     0.030 A 
ATOM     13  O   UNL A   1      33.486  23.959  21.807  1.00  0.00    -0.490 OA
ATOM     14  C   UNL A   1      32.556  24.821  22.317  1.00  0.00     0.129 A 
ATOM     15  C   UNL A   1      30.811  24.942  23.942  1.00  0.00     0.014 A 
ATOM     16  C   UNL A   1      32.252  26.042  21.767  1.00  0.00     0.093 A 
ATOM     17  C   UNL A   1      30.412  26.151  23.335  1.00  0.00     0.047 A 
ATOM     18  C   UNL A   1      31.152  26.702  22.279  1.00  0.00     0.119 A 
BRANCH  10  19
ATOM     19  O   UNL A   1      31.745  21.995  24.260  1.00  0.00    -0.381 OA
ATOM     20  H   UNL A   1      30.837  22.337  24.257  1.00  0.00     0.212 HD
ENDBRANCH  10  19
BRANCH  18  21
ATOM     21  O   UNL A   1      30.811  27.882  21.688  1.00  0.00    -0.508 OA
ATOM     22  H   UNL A   1      29.981  28.274  21.871  1.00  0.00     0.293 HD
ENDBRANCH  18  21
ENDBRANCH   5  10
ENDBRANCH   3   5
ENDBRANCH   2   3
ENDBRANCH   1   2
BRANCH   1  23
ATOM     23  C   UNL A   1      37.525  21.785  25.182  1.00  0.00     0.275 C 
BRANCH  23  24
ATOM     24  O   UNL A   1      37.969  23.039  25.746  1.00  0.00    -0.458 OA
BRANCH  24  25
ATOM     25  C   UNL A   1      39.218  23.060  26.277  1.00  0.00     0.338 C 
ATOM     26  O   UNL A   1      40.074  22.193  26.185  1.00  0.00    -0.246 OA
BRANCH  25  27
ATOM     27  C   UNL A   1      39.479  24.400  26.859  1.00  0.00     0.060 A 
ATOM     28  C   UNL A   1      39.030  24.624  28.165  1.00  0.00     0.016 A 
ATOM     29  C   UNL A   1      40.259  25.365  26.213  1.00  0.00     0.016 A 
ATOM     30  C   UNL A   1      39.489  25.729  28.880  1.00  0.00     0.010 A 
ATOM     31  C   UNL A   1      40.651  26.521  26.905  1.00  0.00     0.010 A 
ATOM     32  C   UNL A   1      40.291  26.693  28.252  1.00  0.00    -0.014 A 
BRANCH  32  33
ATOM     33  C   UNL A   1      40.486  27.988  28.949  1.00  0.00     0.031 A 
ATOM     34  C   UNL A   1      41.849  28.230  29.532  1.00  0.00     0.074 A 
ATOM     35  C   UNL A   1      39.553  28.960  28.978  1.00  0.00     0.049 A 
ATOM     36  N   UNL A   1      42.329  29.290  30.127  1.00  0.00    -0.248 NA
ATOM     37  C   UNL A   1      42.820  27.130  29.381  1.00  0.00     0.031 C 
ATOM     38  C   UNL A   1      38.237  28.906  28.345  1.00  0.00     0.029 A 
ATOM     39  N   UNL A   1      39.595  30.210  29.552  1.00  0.00    -0.354 N 
ATOM     40  C   UNL A   1      43.659  28.990  30.395  1.00  0.00     0.074 A 
ATOM     41  C   UNL A   1      43.913  27.659  29.897  1.00  0.00     0.031 C 
ATOM     42  C   UNL A   1      37.600  30.074  28.559  1.00  0.00     0.029 A 
ATOM     43  C   UNL A   1      38.446  30.944  29.378  1.00  0.00     0.049 A 
ATOM     44  H   UNL A   1      40.378  30.548  30.044  1.00  0.00     0.167 HD
ATOM     45  C   UNL A   1      44.588  29.743  31.023  1.00  0.00     0.031 A 
ATOM     46  C   UNL A   1      38.118  32.167  29.845  1.00  0.00     0.031 A 
ATOM     47  C   UNL A   1      44.314  31.016  31.619  1.00  0.00     0.049 A 
ATOM     48  C   UNL A   1      39.118  32.917  30.698  1.00  0.00     0.074 A 
ATOM     49  C   UNL A   1      45.141  31.800  32.400  1.00  0.00     0.029 A 
ATOM     50  N   UNL A   1      43.100  31.675  31.520  1.00  0.00    -0.354 N 
ATOM     51  N   UNL A   1      40.361  32.608  30.986  1.00  0.00    -0.248 NA
ATOM     52  C   UNL A   1      38.664  34.182  31.300  1.00  0.00     0.031 C 
ATOM     53  C   UNL A   1      44.406  32.915  32.818  1.00  0.00     0.029 A 
ATOM     54  C   UNL A   1      43.145  32.853  32.243  1.00  0.00     0.049 A 
ATOM     55  H   UNL A   1      42.320  31.354  31.010  1.00  0.00     0.167 HD
ATOM     56  C   UNL A   1      40.841  33.646  31.777  1.00  0.00     0.074 A 
ATOM     57  C   UNL A   1      39.764  34.604  31.909  1.00  0.00     0.031 C 
ATOM     58  C   UNL A   1      42.062  33.794  32.348  1.00  0.00     0.031 A 
BRANCH  45  59
ATOM     59  C   UNL A   1      45.942  29.120  31.183  1.00  0.00    -0.014 A 
ATOM     60  C   UNL A   1      46.260  28.351  32.313  1.00  0.00     0.009 A 
ATOM     61  C   UNL A   1      46.938  29.384  30.231  1.00  0.00     0.009 A 
ATOM     62  C   UNL A   1      47.565  27.894  32.508  1.00  0.00     0.001 A 
ATOM     63  C   UNL A   1      48.234  28.905  30.416  1.00  0.00     0.001 A 
ATOM     64  C   UNL A   1      48.551  28.174  31.560  1.00  0.00     0.000 A 
ENDBRANCH  45  59
BRANCH  46  65
ATOM     65  C   UNL A   1      36.772  32.762  29.588  1.00  0.00    -0.014 A 
ATOM     66  C   UNL A   1      35.731  32.634  30.523  1.00  0.00     0.009 A 
ATOM     67  C   UNL A   1      36.495  33.387  28.362  1.00  0.00     0.009 A 
ATOM     68  C   UNL A   1      34.441  33.084  30.222  1.00  0.00     0.001 A 
ATOM     69  C   UNL A   1      35.213  33.863  28.074  1.00  0.00     0.001 A 
ATOM     70  C   UNL A   1      34.184  33.700  28.999  1.00  0.00     0.000 A 
ENDBRANCH  46  65
BRANCH  58  71
ATOM     71  C   UNL A   1      42.320  35.053  33.129  1.00  0.00    -0.014 A 
ATOM     72  C   UNL A   1      41.875  35.198  34.451  1.00  0.00     0.009 A 
ATOM     73  C   UNL A   1      43.092  36.075  32.553  1.00  0.00     0.009 A 
ATOM     74  C   UNL A   1      42.178  36.353  35.173  1.00  0.00     0.001 A 
ATOM     75  C   UNL A   1      43.417  37.215  33.286  1.00  0.00     0.001 A 
ATOM     76  C   UNL A   1      42.955  37.358  34.593  1.00  0.00     0.000 A 
ENDBRANCH  58  71
ENDBRANCH  32  33
ENDBRANCH  25  27
ENDBRANCH  24  25
ENDBRANCH  23  24
ENDBRANCH   1  23
TORSDOF 17
ENDMDL
