MODEL 1
REMARK VINA RESULT:     -11.1      0.000      0.000
REMARK SMILES O=C(OCCOC(=O)c1cn(C2CC2)c2cc(N3CC[NH2+]CC3)ccc2c1=O)c1ccc(-c2c3nc(c(-c4ccccc4)c4ccc([nH]4)c(-c4ccccc4)c4nc(c(-c5ccccc5)c5ccc2[nH]5)C=C4)C=C3)cc1
REMARK SMILES IDX 4 1 3 2 2 3 1 4 29 5 30 6 76 7 31 8 75 9 32 10 33 11 34 12
REMARK SMILES IDX 69 13 35 14 74 15 68 16 70 17 36 18 73 19 67 20 66 21 37 23
REMARK SMILES IDX 59 24 44 25 58 26 45 27 48 28 57 29 71 30 46 31 47 32 56 34
REMARK SMILES IDX 72 35 49 36 38 37 39 38 43 39 40 40 42 41 41 42 60 43 61 44
REMARK SMILES IDX 65 45 62 46 64 47 63 48 50 49 51 50 55 51 52 52 54 53 53 54
REMARK SMILES IDX 5 55 6 56 7 57 8 58 9 59 10 60 27 61 11 62 26 63 28 64 15 65
REMARK SMILES IDX 25 66 16 67 24 68 17 69 12 70 13 71 14 72 18 73 19 74 23 75
REMARK SMILES IDX 20 76 22 77 21 78
REMARK H PARENT 70 22 48 33 21 79 21 80
REMARK Flexibility Score: inf
ROOT
ATOM      1  C   UNL A   1      34.247  34.757  31.718  1.00  0.00     0.275 C 
ENDROOT
BRANCH   1   2
ATOM      2  O   UNL A   1      34.641  33.374  31.715  1.00  0.00    -0.458 OA
BRANCH   2   3
ATOM      3  C   UNL A   1      35.655  32.808  32.416  1.00  0.00     0.338 C 
ATOM      4  O   UNL A   1      35.618  32.772  33.642  1.00  0.00    -0.246 OA
BRANCH   3   5
ATOM      5  C   UNL A   1      36.921  32.394  31.745  1.00  0.00     0.060 A 
ATOM      6  C   UNL A   1      37.752  31.521  32.460  1.00  0.00     0.016 A 
ATOM      7  C   UNL A   1      37.305  32.755  30.450  1.00  0.00     0.016 A 
ATOM      8  C   UNL A   1      38.985  31.114  31.938  1.00  0.00     0.010 A 
ATOM      9  C   UNL A   1      38.525  32.321  29.912  1.00  0.00     0.010 A 
ATOM     10  C   UNL A   1      39.386  31.507  30.650  1.00  0.00    -0.014 A 
BRANCH  10  11
ATOM     11  C   UNL A   1      40.579  30.876  30.030  1.00  0.00     0.031 A 
ATOM     12  C   UNL A   1      40.675  29.415  29.698  1.00  0.00     0.074 A 
ATOM     13  C   UNL A   1      41.644  31.661  29.775  1.00  0.00     0.049 A 
ATOM     14  N   UNL A   1      41.451  28.844  28.809  1.00  0.00    -0.248 NA
ATOM     15  C   UNL A   1      39.820  28.469  30.429  1.00  0.00     0.031 C 
ATOM     16  C   UNL A   1      41.757  33.073  30.147  1.00  0.00     0.029 A 
ATOM     17  N   UNL A   1      42.833  31.379  29.159  1.00  0.00    -0.354 N 
ATOM     18  C   UNL A   1      41.060  27.513  28.761  1.00  0.00     0.074 A 
ATOM     19  C   UNL A   1      40.112  27.316  29.830  1.00  0.00     0.031 C 
ATOM     20  C   UNL A   1      42.953  33.534  29.751  1.00  0.00     0.029 A 
ATOM     21  C   UNL A   1      43.690  32.450  29.110  1.00  0.00     0.049 A 
ATOM     22  H   UNL A   1      43.053  30.495  28.787  1.00  0.00     0.167 HD
ATOM     23  C   UNL A   1      41.418  26.588  27.841  1.00  0.00     0.031 A 
ATOM     24  C   UNL A   1      44.933  32.549  28.603  1.00  0.00     0.031 A 
ATOM     25  C   UNL A   1      42.536  26.747  26.955  1.00  0.00     0.049 A 
ATOM     26  C   UNL A   1      45.498  31.384  27.843  1.00  0.00     0.074 A 
ATOM     27  C   UNL A   1      43.008  25.861  26.004  1.00  0.00     0.029 A 
ATOM     28  N   UNL A   1      43.423  27.805  27.005  1.00  0.00    -0.354 N 
ATOM     29  N   UNL A   1      44.910  30.261  27.505  1.00  0.00    -0.248 NA
ATOM     30  C   UNL A   1      46.880  31.507  27.365  1.00  0.00     0.031 C 
ATOM     31  C   UNL A   1      44.259  26.320  25.584  1.00  0.00     0.029 A 
ATOM     32  C   UNL A   1      44.515  27.534  26.205  1.00  0.00     0.049 A 
ATOM     33  H   UNL A   1      43.297  28.628  27.531  1.00  0.00     0.167 HD
ATOM     34  C   UNL A   1      45.830  29.567  26.728  1.00  0.00     0.074 A 
ATOM     35  C   UNL A   1      47.017  30.395  26.655  1.00  0.00     0.031 C 
ATOM     36  C   UNL A   1      45.692  28.362  26.123  1.00  0.00     0.031 A 
BRANCH  23  37
ATOM     37  C   UNL A   1      40.591  25.348  27.658  1.00  0.00    -0.014 A 
ATOM     38  C   UNL A   1      41.042  24.078  28.030  1.00  0.00     0.009 A 
ATOM     39  C   UNL A   1      39.423  25.449  26.877  1.00  0.00     0.009 A 
ATOM     40  C   UNL A   1      40.328  22.939  27.639  1.00  0.00     0.001 A 
ATOM     41  C   UNL A   1      38.702  24.313  26.505  1.00  0.00     0.001 A 
ATOM     42  C   UNL A   1      39.160  23.056  26.882  1.00  0.00     0.000 A 
ENDBRANCH  23  37
BRANCH  24  43
ATOM     43  C   UNL A   1      45.685  33.818  28.784  1.00  0.00    -0.014 A 
ATOM     44  C   UNL A   1      46.452  34.024  29.945  1.00  0.00     0.009 A 
ATOM     45  C   UNL A   1      45.598  34.852  27.842  1.00  0.00     0.009 A 
ATOM     46  C   UNL A   1      47.088  35.245  30.175  1.00  0.00     0.001 A 
ATOM     47  C   UNL A   1      46.266  36.061  28.057  1.00  0.00     0.001 A 
ATOM     48  C   UNL A   1      46.999  36.260  29.227  1.00  0.00     0.000 A 
ENDBRANCH  24  43
BRANCH  36  49
ATOM     49  C   UNL A   1      46.836  27.839  25.301  1.00  0.00    -0.014 A 
ATOM     50  C   UNL A   1      46.866  28.090  23.919  1.00  0.00     0.009 A 
ATOM     51  C   UNL A   1      47.804  26.992  25.859  1.00  0.00     0.009 A 
ATOM     52  C   UNL A   1      47.820  27.479  23.107  1.00  0.00     0.001 A 
ATOM     53  C   UNL A   1      48.787  26.418  25.051  1.00  0.00     0.001 A 
ATOM     54  C   UNL A   1      48.784  26.648  23.676  1.00  0.00     0.000 A 
ENDBRANCH  36  49
ENDBRANCH  10  11
ENDBRANCH   3   5
ENDBRANCH   2   3
ENDBRANCH   1   2
BRANCH   1  55
ATOM     55  C   UNL A   1      33.670  35.261  30.394  1.00  0.00     0.275 C 
BRANCH  55  56
ATOM     56  O   UNL A   1      33.249  34.196  29.532  1.00  0.00    -0.458 OA
BRANCH  56  57
ATOM     57  C   UNL A   1      34.066  33.948  28.469  1.00  0.00     0.343 C 
ATOM     58  O   UNL A   1      34.886  34.725  28.004  1.00  0.00    -0.246 OA
BRANCH  57  59
ATOM     59  C   UNL A   1      33.820  32.590  27.964  1.00  0.00     0.124 A 
ATOM     60  C   UNL A   1      34.742  31.634  28.146  1.00  0.00     0.106 A 
ATOM     61  C   UNL A   1      32.591  32.235  27.216  1.00  0.00     0.203 A 
ATOM     62  N   UNL A   1      34.629  30.323  27.731  1.00  0.00    -0.343 N 
ATOM     63  C   UNL A   1      32.507  30.865  26.644  1.00  0.00     0.047 A 
ATOM     64  O   UNL A   1      31.700  33.048  27.001  1.00  0.00    -0.288 OA
ATOM     65  C   UNL A   1      33.488  29.924  26.978  1.00  0.00     0.054 A 
ATOM     66  C   UNL A   1      31.487  30.539  25.740  1.00  0.00     0.016 A 
ATOM     67  C   UNL A   1      33.324  28.612  26.506  1.00  0.00     0.053 A 
ATOM     68  C   UNL A   1      31.401  29.243  25.219  1.00  0.00     0.027 A 
ATOM     69  C   UNL A   1      32.285  28.247  25.637  1.00  0.00     0.039 A 
BRANCH  62  70
ATOM     70  C   UNL A   1      35.740  29.379  27.936  1.00  0.00     0.087 C 
ATOM     71  C   UNL A   1      37.202  29.719  27.995  1.00  0.00     0.027 C 
ATOM     72  C   UNL A   1      36.468  29.406  29.257  1.00  0.00     0.027 C 
ENDBRANCH  62  70
BRANCH  69  73
ATOM     73  N   UNL A   1      32.158  26.930  25.256  1.00  0.00    -0.360 N 
ATOM     74  C   UNL A   1      33.149  26.363  24.335  1.00  0.00     0.178 C 
ATOM     75  C   UNL A   1      31.263  25.981  25.919  1.00  0.00     0.178 C 
ATOM     76  C   UNL A   1      33.905  25.206  25.026  1.00  0.00     0.282 C 
ATOM     77  C   UNL A   1      32.053  24.789  26.506  1.00  0.00     0.282 C 
ATOM     78  N   UNL A   1      33.004  24.159  25.560  1.00  0.00    -0.343 N 
ATOM     79  H   UNL A   1      33.552  23.450  26.046  1.00  0.00     0.346 HD
ATOM     80  H   UNL A   1      32.492  23.719  24.796  1.00  0.00     0.346 HD
ENDBRANCH  69  73
ENDBRANCH  57  59
ENDBRANCH  56  57
ENDBRANCH  55  56
ENDBRANCH   1  55
TORSDOF 13
ENDMDL
MODEL 2
REMARK VINA RESULT:     -11.1      5.594     10.400
REMARK SMILES O=C(OCCOC(=O)c1cn(C2CC2)c2cc(N3CC[NH2+]CC3)ccc2c1=O)c1ccc(-c2c3nc(c(-c4ccccc4)c4ccc([nH]4)c(-c4ccccc4)c4nc(c(-c5ccccc5)c5ccc2[nH]5)C=C4)C=C3)cc1
REMARK SMILES IDX 4 1 3 2 2 3 1 4 29 5 30 6 76 7 31 8 75 9 32 10 33 11 34 12
REMARK SMILES IDX 69 13 35 14 74 15 68 16 70 17 36 18 73 19 67 20 66 21 37 23
REMARK SMILES IDX 59 24 44 25 58 26 45 27 48 28 57 29 71 30 46 31 47 32 56 34
REMARK SMILES IDX 72 35 49 36 38 37 39 38 43 39 40 40 42 41 41 42 60 43 61 44
REMARK SMILES IDX 65 45 62 46 64 47 63 48 50 49 51 50 55 51 52 52 54 53 53 54
REMARK SMILES IDX 5 55 6 56 7 57 8 58 9 59 10 60 27 61 11 62 26 63 28 64 15 65
REMARK SMILES IDX 25 66 16 67 24 68 17 69 12 70 13 71 14 72 18 73 19 74 23 75
REMARK SMILES IDX 20 76 22 77 21 78
REMARK H PARENT 70 22 48 33 21 79 21 80
REMARK Flexibility Score: inf
ROOT
ATOM      1  C   UNL A   1      44.344  20.704  25.361  1.00  0.00     0.275 C 
ENDROOT
BRANCH   1   2
ATOM      2  O   UNL A   1      43.948  21.982  25.889  1.00  0.00    -0.458 OA
BRANCH   2   3
ATOM      3  C   UNL A   1      44.758  22.959  26.368  1.00  0.00     0.338 C 
ATOM      4  O   UNL A   1      45.977  22.850  26.286  1.00  0.00    -0.246 OA
BRANCH   3   5
ATOM      5  C   UNL A   1      44.211  24.088  27.176  1.00  0.00     0.060 A 
ATOM      6  C   UNL A   1      43.273  23.756  28.162  1.00  0.00     0.016 A 
ATOM      7  C   UNL A   1      44.606  25.424  27.066  1.00  0.00     0.016 A 
ATOM      8  C   UNL A   1      42.664  24.748  28.938  1.00  0.00     0.010 A 
ATOM      9  C   UNL A   1      44.021  26.417  27.867  1.00  0.00     0.010 A 
ATOM     10  C   UNL A   1      43.036  26.096  28.802  1.00  0.00    -0.014 A 
BRANCH  10  11
ATOM     11  C   UNL A   1      42.552  27.093  29.792  1.00  0.00     0.031 A 
ATOM     12  C   UNL A   1      41.482  28.106  29.506  1.00  0.00     0.074 A 
ATOM     13  C   UNL A   1      43.129  27.097  31.010  1.00  0.00     0.049 A 
ATOM     14  N   UNL A   1      40.706  28.718  30.367  1.00  0.00    -0.248 NA
ATOM     15  C   UNL A   1      41.237  28.495  28.109  1.00  0.00     0.031 C 
ATOM     16  C   UNL A   1      44.262  26.260  31.409  1.00  0.00     0.029 A 
ATOM     17  N   UNL A   1      42.849  27.839  32.126  1.00  0.00    -0.354 N 
ATOM     18  C   UNL A   1      39.784  29.427  29.610  1.00  0.00     0.074 A 
ATOM     19  C   UNL A   1      40.201  29.322  28.235  1.00  0.00     0.031 C 
ATOM     20  C   UNL A   1      44.582  26.536  32.681  1.00  0.00     0.029 A 
ATOM     21  C   UNL A   1      43.686  27.574  33.181  1.00  0.00     0.049 A 
ATOM     22  H   UNL A   1      42.120  28.499  32.168  1.00  0.00     0.167 HD
ATOM     23  C   UNL A   1      38.655  30.030  30.051  1.00  0.00     0.031 A 
ATOM     24  C   UNL A   1      43.727  28.106  34.416  1.00  0.00     0.031 A 
ATOM     25  C   UNL A   1      38.406  30.323  31.434  1.00  0.00     0.049 A 
ATOM     26  C   UNL A   1      42.643  29.060  34.827  1.00  0.00     0.074 A 
ATOM     27  C   UNL A   1      37.310  30.958  31.991  1.00  0.00     0.029 A 
ATOM     28  N   UNL A   1      39.319  30.117  32.450  1.00  0.00    -0.354 N 
ATOM     29  N   UNL A   1      41.561  29.407  34.171  1.00  0.00    -0.248 NA
ATOM     30  C   UNL A   1      42.760  29.670  36.156  1.00  0.00     0.031 C 
ATOM     31  C   UNL A   1      37.627  31.262  33.316  1.00  0.00     0.029 A 
ATOM     32  C   UNL A   1      38.878  30.734  33.603  1.00  0.00     0.049 A 
ATOM     33  H   UNL A   1      40.158  29.608  32.365  1.00  0.00     0.167 HD
ATOM     34  C   UNL A   1      40.842  30.232  35.027  1.00  0.00     0.074 A 
ATOM     35  C   UNL A   1      41.617  30.338  36.247  1.00  0.00     0.031 C 
ATOM     36  C   UNL A   1      39.644  30.831  34.821  1.00  0.00     0.031 A 
BRANCH  23  37
ATOM     37  C   UNL A   1      37.553  30.362  29.087  1.00  0.00    -0.014 A 
ATOM     38  C   UNL A   1      37.234  31.676  28.731  1.00  0.00     0.009 A 
ATOM     39  C   UNL A   1      36.673  29.328  28.716  1.00  0.00     0.009 A 
ATOM     40  C   UNL A   1      36.065  31.941  28.006  1.00  0.00     0.001 A 
ATOM     41  C   UNL A   1      35.519  29.591  27.975  1.00  0.00     0.001 A 
ATOM     42  C   UNL A   1      35.213  30.902  27.626  1.00  0.00     0.000 A 
ENDBRANCH  23  37
BRANCH  24  43
ATOM     43  C   UNL A   1      44.822  27.706  35.337  1.00  0.00    -0.014 A 
ATOM     44  C   UNL A   1      46.018  28.445  35.375  1.00  0.00     0.009 A 
ATOM     45  C   UNL A   1      44.714  26.559  36.135  1.00  0.00     0.009 A 
ATOM     46  C   UNL A   1      47.092  28.029  36.164  1.00  0.00     0.001 A 
ATOM     47  C   UNL A   1      45.777  26.164  36.953  1.00  0.00     0.001 A 
ATOM     48  C   UNL A   1      46.967  26.892  36.957  1.00  0.00     0.000 A 
ENDBRANCH  24  43
BRANCH  36  49
ATOM     49  C   UNL A   1      39.055  31.655  35.930  1.00  0.00    -0.014 A 
ATOM     50  C   UNL A   1      38.150  31.062  36.827  1.00  0.00     0.009 A 
ATOM     51  C   UNL A   1      39.285  33.036  36.011  1.00  0.00     0.009 A 
ATOM     52  C   UNL A   1      37.462  31.838  37.758  1.00  0.00     0.001 A 
ATOM     53  C   UNL A   1      38.630  33.803  36.976  1.00  0.00     0.001 A 
ATOM     54  C   UNL A   1      37.709  33.208  37.836  1.00  0.00     0.000 A 
ENDBRANCH  36  49
ENDBRANCH  10  11
ENDBRANCH   3   5
ENDBRANCH   2   3
ENDBRANCH   1   2
BRANCH   1  55
ATOM     55  C   UNL A   1      43.334  19.578  25.587  1.00  0.00     0.275 C 
BRANCH  55  56
ATOM     56  O   UNL A   1      41.979  19.999  25.387  1.00  0.00    -0.458 OA
BRANCH  56  57
ATOM     57  C   UNL A   1      41.272  20.247  26.527  1.00  0.00     0.343 C 
ATOM     58  O   UNL A   1      41.610  19.932  27.657  1.00  0.00    -0.246 OA
BRANCH  57  59
ATOM     59  C   UNL A   1      40.032  20.962  26.192  1.00  0.00     0.124 A 
ATOM     60  C   UNL A   1      39.910  22.262  26.496  1.00  0.00     0.106 A 
ATOM     61  C   UNL A   1      38.876  20.287  25.556  1.00  0.00     0.203 A 
ATOM     62  N   UNL A   1      38.808  23.048  26.228  1.00  0.00    -0.343 N 
ATOM     63  C   UNL A   1      37.630  21.081  25.379  1.00  0.00     0.047 A 
ATOM     64  O   UNL A   1      38.900  19.102  25.250  1.00  0.00    -0.288 OA
ATOM     65  C   UNL A   1      37.651  22.454  25.649  1.00  0.00     0.054 A 
ATOM     66  C   UNL A   1      36.439  20.448  25.000  1.00  0.00     0.016 A 
ATOM     67  C   UNL A   1      36.490  23.192  25.372  1.00  0.00     0.053 A 
ATOM     68  C   UNL A   1      35.274  21.201  24.817  1.00  0.00     0.027 A 
ATOM     69  C   UNL A   1      35.296  22.590  24.947  1.00  0.00     0.039 A 
BRANCH  62  70
ATOM     70  C   UNL A   1      38.771  24.453  26.668  1.00  0.00     0.087 C 
ATOM     71  C   UNL A   1      39.463  25.032  27.869  1.00  0.00     0.027 C 
ATOM     72  C   UNL A   1      40.017  25.287  26.506  1.00  0.00     0.027 C 
ENDBRANCH  62  70
BRANCH  69  73
ATOM     73  N   UNL A   1      34.212  23.385  24.647  1.00  0.00    -0.360 N 
ATOM     74  C   UNL A   1      33.324  22.983  23.551  1.00  0.00     0.178 C 
ATOM     75  C   UNL A   1      33.730  24.456  25.520  1.00  0.00     0.178 C 
ATOM     76  C   UNL A   1      31.903  22.719  24.098  1.00  0.00     0.282 C 
ATOM     77  C   UNL A   1      32.270  24.200  25.960  1.00  0.00     0.282 C 
ATOM     78  N   UNL A   1      31.347  23.867  24.850  1.00  0.00    -0.343 N 
ATOM     79  H   UNL A   1      30.432  23.619  25.227  1.00  0.00     0.346 HD
ATOM     80  H   UNL A   1      31.244  24.671  24.231  1.00  0.00     0.346 HD
ENDBRANCH  69  73
ENDBRANCH  57  59
ENDBRANCH  56  57
ENDBRANCH  55  56
ENDBRANCH   1  55
TORSDOF 13
ENDMDL
MODEL 3
REMARK VINA RESULT:     -10.9      4.342      8.287
REMARK SMILES O=C(OCCOC(=O)c1cn(C2CC2)c2cc(N3CC[NH2+]CC3)ccc2c1=O)c1ccc(-c2c3nc(c(-c4ccccc4)c4ccc([nH]4)c(-c4ccccc4)c4nc(c(-c5ccccc5)c5ccc2[nH]5)C=C4)C=C3)cc1
REMARK SMILES IDX 4 1 3 2 2 3 1 4 29 5 30 6 76 7 31 8 75 9 32 10 33 11 34 12
REMARK SMILES IDX 69 13 35 14 74 15 68 16 70 17 36 18 73 19 67 20 66 21 37 23
REMARK SMILES IDX 59 24 44 25 58 26 45 27 48 28 57 29 71 30 46 31 47 32 56 34
REMARK SMILES IDX 72 35 49 36 38 37 39 38 43 39 40 40 42 41 41 42 60 43 61 44
REMARK SMILES IDX 65 45 62 46 64 47 63 48 50 49 51 50 55 51 52 52 54 53 53 54
REMARK SMILES IDX 5 55 6 56 7 57 8 58 9 59 10 60 27 61 11 62 26 63 28 64 15 65
REMARK SMILES IDX 25 66 16 67 24 68 17 69 12 70 13 71 14 72 18 73 19 74 23 75
REMARK SMILES IDX 20 76 22 77 21 78
REMARK H PARENT 70 22 48 33 21 79 21 80
REMARK Flexibility Score: inf
ROOT
ATOM      1  C   UNL A   1      32.912  29.268  26.866  1.00  0.00     0.275 C 
ENDROOT
BRANCH   1   2
ATOM      2  O   UNL A   1      33.692  30.476  26.858  1.00  0.00    -0.458 OA
BRANCH   2   3
ATOM      3  C   UNL A   1      34.409  30.997  27.884  1.00  0.00     0.338 C 
ATOM      4  O   UNL A   1      34.102  32.082  28.368  1.00  0.00    -0.246 OA
BRANCH   3   5
ATOM      5  C   UNL A   1      35.693  30.375  28.323  1.00  0.00     0.060 A 
ATOM      6  C   UNL A   1      36.731  30.352  27.382  1.00  0.00     0.016 A 
ATOM      7  C   UNL A   1      35.954  29.879  29.603  1.00  0.00     0.016 A 
ATOM      8  C   UNL A   1      37.957  29.747  27.679  1.00  0.00     0.010 A 
ATOM      9  C   UNL A   1      37.194  29.301  29.913  1.00  0.00     0.010 A 
ATOM     10  C   UNL A   1      38.205  29.215  28.955  1.00  0.00    -0.014 A 
BRANCH  10  11
ATOM     11  C   UNL A   1      39.584  28.794  29.317  1.00  0.00     0.031 A 
ATOM     12  C   UNL A   1      40.545  29.652  30.088  1.00  0.00     0.074 A 
ATOM     13  C   UNL A   1      39.997  27.580  28.906  1.00  0.00     0.049 A 
ATOM     14  N   UNL A   1      41.571  29.262  30.804  1.00  0.00    -0.248 NA
ATOM     15  C   UNL A   1      40.359  31.110  30.069  1.00  0.00     0.031 C 
ATOM     16  C   UNL A   1      39.230  26.674  28.048  1.00  0.00     0.029 A 
ATOM     17  N   UNL A   1      41.166  26.908  29.144  1.00  0.00    -0.354 N 
ATOM     18  C   UNL A   1      42.043  30.399  31.444  1.00  0.00     0.074 A 
ATOM     19  C   UNL A   1      41.317  31.519  30.898  1.00  0.00     0.031 C 
ATOM     20  C   UNL A   1      39.951  25.565  27.830  1.00  0.00     0.029 A 
ATOM     21  C   UNL A   1      41.229  25.686  28.522  1.00  0.00     0.049 A 
ATOM     22  H   UNL A   1      41.891  27.266  29.705  1.00  0.00     0.167 HD
ATOM     23  C   UNL A   1      42.944  30.456  32.452  1.00  0.00     0.031 A 
ATOM     24  C   UNL A   1      42.209  24.763  28.513  1.00  0.00     0.031 A 
ATOM     25  C   UNL A   1      43.815  29.368  32.795  1.00  0.00     0.049 A 
ATOM     26  C   UNL A   1      43.405  24.971  29.395  1.00  0.00     0.074 A 
ATOM     27  C   UNL A   1      44.787  29.326  33.778  1.00  0.00     0.029 A 
ATOM     28  N   UNL A   1      43.903  28.189  32.081  1.00  0.00    -0.354 N 
ATOM     29  N   UNL A   1      43.618  25.913  30.283  1.00  0.00    -0.248 NA
ATOM     30  C   UNL A   1      44.481  23.977  29.305  1.00  0.00     0.031 C 
ATOM     31  C   UNL A   1      45.555  28.179  33.563  1.00  0.00     0.029 A 
ATOM     32  C   UNL A   1      45.001  27.469  32.508  1.00  0.00     0.049 A 
ATOM     33  H   UNL A   1      43.278  27.904  31.375  1.00  0.00     0.167 HD
ATOM     34  C   UNL A   1      44.825  25.596  30.895  1.00  0.00     0.074 A 
ATOM     35  C   UNL A   1      45.298  24.379  30.270  1.00  0.00     0.031 C 
ATOM     36  C   UNL A   1      45.467  26.251  31.893  1.00  0.00     0.031 A 
BRANCH  23  37
ATOM     37  C   UNL A   1      43.020  31.675  33.326  1.00  0.00    -0.014 A 
ATOM     38  C   UNL A   1      43.967  32.685  33.130  1.00  0.00     0.009 A 
ATOM     39  C   UNL A   1      42.262  31.680  34.513  1.00  0.00     0.009 A 
ATOM     40  C   UNL A   1      44.137  33.684  34.097  1.00  0.00     0.001 A 
ATOM     41  C   UNL A   1      42.418  32.687  35.466  1.00  0.00     0.001 A 
ATOM     42  C   UNL A   1      43.363  33.687  35.260  1.00  0.00     0.000 A 
ENDBRANCH  23  37
BRANCH  24  43
ATOM     43  C   UNL A   1      42.054  23.559  27.656  1.00  0.00    -0.014 A 
ATOM     44  C   UNL A   1      41.448  22.399  28.171  1.00  0.00     0.009 A 
ATOM     45  C   UNL A   1      42.561  23.531  26.349  1.00  0.00     0.009 A 
ATOM     46  C   UNL A   1      41.380  21.230  27.411  1.00  0.00     0.001 A 
ATOM     47  C   UNL A   1      42.459  22.370  25.577  1.00  0.00     0.001 A 
ATOM     48  C   UNL A   1      41.880  21.219  26.113  1.00  0.00     0.000 A 
ENDBRANCH  24  43
BRANCH  36  49
ATOM     49  C   UNL A   1      46.756  25.679  32.410  1.00  0.00    -0.014 A 
ATOM     50  C   UNL A   1      46.738  24.838  33.536  1.00  0.00     0.009 A 
ATOM     51  C   UNL A   1      47.992  26.071  31.876  1.00  0.00     0.009 A 
ATOM     52  C   UNL A   1      47.927  24.430  34.137  1.00  0.00     0.001 A 
ATOM     53  C   UNL A   1      49.182  25.623  32.452  1.00  0.00     0.001 A 
ATOM     54  C   UNL A   1      49.149  24.818  33.590  1.00  0.00     0.000 A 
ENDBRANCH  36  49
ENDBRANCH  10  11
ENDBRANCH   3   5
ENDBRANCH   2   3
ENDBRANCH   1   2
BRANCH   1  55
ATOM     55  C   UNL A   1      33.669  28.015  26.422  1.00  0.00     0.275 C 
BRANCH  55  56
ATOM     56  O   UNL A   1      32.892  27.175  25.559  1.00  0.00    -0.458 OA
BRANCH  56  57
ATOM     57  C   UNL A   1      33.566  26.649  24.497  1.00  0.00     0.343 C 
ATOM     58  O   UNL A   1      33.997  27.279  23.543  1.00  0.00    -0.246 OA
BRANCH  57  59
ATOM     59  C   UNL A   1      33.708  25.196  24.673  1.00  0.00     0.124 A 
ATOM     60  C   UNL A   1      34.810  24.699  25.253  1.00  0.00     0.106 A 
ATOM     61  C   UNL A   1      32.684  24.237  24.195  1.00  0.00     0.203 A 
ATOM     62  N   UNL A   1      35.060  23.362  25.485  1.00  0.00    -0.343 N 
ATOM     63  C   UNL A   1      32.992  22.787  24.314  1.00  0.00     0.047 A 
ATOM     64  O   UNL A   1      31.650  24.605  23.651  1.00  0.00    -0.288 OA
ATOM     65  C   UNL A   1      34.132  22.387  25.021  1.00  0.00     0.054 A 
ATOM     66  C   UNL A   1      32.178  21.838  23.680  1.00  0.00     0.016 A 
ATOM     67  C   UNL A   1      34.338  21.011  25.204  1.00  0.00     0.053 A 
ATOM     68  C   UNL A   1      32.461  20.475  23.810  1.00  0.00     0.027 A 
ATOM     69  C   UNL A   1      33.512  20.039  24.619  1.00  0.00     0.039 A 
BRANCH  62  70
ATOM     70  C   UNL A   1      36.339  22.936  26.077  1.00  0.00     0.087 C 
ATOM     71  C   UNL A   1      37.472  22.256  25.361  1.00  0.00     0.027 C 
ATOM     72  C   UNL A   1      37.586  23.703  25.713  1.00  0.00     0.027 C 
ENDBRANCH  62  70
BRANCH  69  73
ATOM     73  N   UNL A   1      33.747  18.709  24.885  1.00  0.00    -0.360 N 
ATOM     74  C   UNL A   1      32.819  17.991  25.766  1.00  0.00     0.178 C 
ATOM     75  C   UNL A   1      34.703  17.892  24.136  1.00  0.00     0.178 C 
ATOM     76  C   UNL A   1      32.145  16.839  24.986  1.00  0.00     0.282 C 
ATOM     77  C   UNL A   1      33.998  16.695  23.459  1.00  0.00     0.282 C 
ATOM     78  N   UNL A   1      33.115  15.915  24.358  1.00  0.00    -0.343 N 
ATOM     79  H   UNL A   1      32.616  15.207  23.819  1.00  0.00     0.346 HD
ATOM     80  H   UNL A   1      33.672  15.454  25.077  1.00  0.00     0.346 HD
ENDBRANCH  69  73
ENDBRANCH  57  59
ENDBRANCH  56  57
ENDBRANCH  55  56
ENDBRANCH   1  55
TORSDOF 13
ENDMDL
