MODEL 1
REMARK VINA RESULT:     -12.3      0.000      0.000
REMARK SMILES COc1cccc([C@H]2CC(c3ccc(S(C)(=O)=O)cc3)=NN2c2ccc(C(=O)OCCOC(=O)c3ccc(-c4c5nc(c(-c6ccccc6)c6ccc([nH]6)c(-c6ccccc6)c6nc(c(-c7ccccc7)c7ccc4[nH]7)C=C6)C=C5)cc3)cc2)c1
REMARK SMILES IDX 30 1 29 2 27 3 28 4 26 5 23 6 24 7 84 8 25 9 83 10 22 11
REMARK SMILES IDX 8 12 9 13 10 14 21 15 7 16 3 17 4 18 85 19 5 20 6 21 2 22
REMARK SMILES IDX 1 23 11 24 12 25 20 26 13 27 19 28 14 29 15 30 16 31 17 32
REMARK SMILES IDX 18 33 31 34 32 35 33 36 34 37 35 38 36 39 82 40 37 41 81 42
REMARK SMILES IDX 38 43 39 44 40 45 75 46 41 47 80 48 74 49 76 50 42 51 79 52
REMARK SMILES IDX 73 53 72 54 43 56 65 57 50 58 64 59 51 60 54 61 63 62 77 63
REMARK SMILES IDX 52 64 53 65 62 67 78 68 55 69 44 70 45 71 49 72 46 73 48 74
REMARK SMILES IDX 47 75 66 76 67 77 71 78 68 79 70 80 69 81 56 82 57 83 61 84
REMARK SMILES IDX 58 85 60 86 59 87
REMARK H PARENT 76 55 54 66
REMARK Flexibility Score: inf
ROOT
ATOM      1  C   UNL A   1      33.662  33.277  27.824  1.00  0.00     0.275 C 
ENDROOT
BRANCH   1   2
ATOM      2  O   UNL A   1      33.216  31.912  27.972  1.00  0.00    -0.458 OA
BRANCH   2   3
ATOM      3  C   UNL A   1      34.089  30.969  27.542  1.00  0.00     0.338 C 
ATOM      4  O   UNL A   1      35.299  31.093  27.435  1.00  0.00    -0.246 OA
BRANCH   3   5
ATOM      5  C   UNL A   1      33.399  29.691  27.264  1.00  0.00     0.060 A 
ATOM      6  C   UNL A   1      32.144  27.316  26.426  1.00  0.00     0.060 A 
ATOM      7  C   UNL A   1      33.533  27.436  26.390  1.00  0.00     0.029 A 
ATOM      8  C   UNL A   1      31.394  28.384  26.941  1.00  0.00     0.029 A 
ATOM      9  C   UNL A   1      34.148  28.625  26.761  1.00  0.00     0.018 A 
ATOM     10  C   UNL A   1      32.016  29.562  27.383  1.00  0.00     0.018 A 
BRANCH   6  11
ATOM     11  N   UNL A   1      31.541  26.186  25.885  1.00  0.00    -0.257 N 
ATOM     12  C   UNL A   1      30.375  26.261  24.997  1.00  0.00     0.144 C 
ATOM     13  C   UNL A   1      30.343  24.863  24.364  1.00  0.00     0.091 C 
ATOM     14  C   UNL A   1      31.582  24.264  24.969  1.00  0.00     0.071 C 
ATOM     15  N   UNL A   1      32.242  25.025  25.781  1.00  0.00    -0.176 NA
BRANCH  12  16
ATOM     16  C   UNL A   1      30.460  27.395  23.980  1.00  0.00    -0.019 A 
ATOM     17  C   UNL A   1      29.442  29.098  22.558  1.00  0.00     0.119 A 
ATOM     18  C   UNL A   1      30.693  29.393  22.016  1.00  0.00     0.046 A 
ATOM     19  C   UNL A   1      29.322  28.089  23.518  1.00  0.00     0.052 A 
ATOM     20  C   UNL A   1      31.826  28.712  22.452  1.00  0.00     0.004 A 
ATOM     21  C   UNL A   1      31.711  27.723  23.428  1.00  0.00     0.006 A 
BRANCH  17  22
ATOM     22  O   UNL A   1      28.400  29.812  22.032  1.00  0.00    -0.497 OA
ATOM     23  C   UNL A   1      27.739  30.682  22.942  1.00  0.00     0.278 C 
ENDBRANCH  17  22
ENDBRANCH  12  16
BRANCH  14  24
ATOM     24  C   UNL A   1      31.961  22.867  24.712  1.00  0.00    -0.002 A 
ATOM     25  C   UNL A   1      32.319  22.074  25.811  1.00  0.00     0.011 A 
ATOM     26  C   UNL A   1      31.935  22.329  23.423  1.00  0.00     0.011 A 
ATOM     27  C   UNL A   1      32.619  20.724  25.627  1.00  0.00     0.021 A 
ATOM     28  C   UNL A   1      32.263  20.983  23.233  1.00  0.00     0.021 A 
ATOM     29  C   UNL A   1      32.595  20.188  24.337  1.00  0.00     0.067 A 
BRANCH  29  30
ATOM     30  S   UNL A   1      32.936  18.455  24.117  1.00  0.00     0.175 S 
ATOM     31  C   UNL A   1      32.441  18.114  22.450  1.00  0.00     0.163 C 
ATOM     32  O   UNL A   1      34.375  18.303  24.210  1.00  0.00    -0.224 OA
ATOM     33  O   UNL A   1      32.049  17.720  24.999  1.00  0.00    -0.224 OA
ENDBRANCH  29  30
ENDBRANCH  14  24
ENDBRANCH   6  11
ENDBRANCH   3   5
ENDBRANCH   2   3
ENDBRANCH   1   2
BRANCH   1  34
ATOM     34  C   UNL A   1      33.670  34.020  29.162  1.00  0.00     0.275 C 
BRANCH  34  35
ATOM     35  O   UNL A   1      34.970  33.945  29.777  1.00  0.00    -0.458 OA
BRANCH  35  36
ATOM     36  C   UNL A   1      35.139  32.922  30.644  1.00  0.00     0.338 C 
ATOM     37  O   UNL A   1      34.293  32.387  31.341  1.00  0.00    -0.246 OA
BRANCH  36  38
ATOM     38  C   UNL A   1      36.536  32.459  30.626  1.00  0.00     0.060 A 
ATOM     39  C   UNL A   1      37.346  32.835  29.563  1.00  0.00     0.016 A 
ATOM     40  C   UNL A   1      36.978  31.498  31.531  1.00  0.00     0.016 A 
ATOM     41  C   UNL A   1      38.520  32.137  29.297  1.00  0.00     0.010 A 
ATOM     42  C   UNL A   1      38.235  30.906  31.348  1.00  0.00     0.010 A 
ATOM     43  C   UNL A   1      38.999  31.174  30.196  1.00  0.00    -0.014 A 
BRANCH  43  44
ATOM     44  C   UNL A   1      40.272  30.442  29.918  1.00  0.00     0.031 A 
ATOM     45  C   UNL A   1      41.608  31.090  30.195  1.00  0.00     0.074 A 
ATOM     46  C   UNL A   1      40.246  29.185  29.425  1.00  0.00     0.049 A 
ATOM     47  N   UNL A   1      42.810  30.689  29.857  1.00  0.00    -0.248 NA
ATOM     48  C   UNL A   1      41.593  32.362  30.935  1.00  0.00     0.031 C 
ATOM     49  C   UNL A   1      39.038  28.402  29.150  1.00  0.00     0.029 A 
ATOM     50  N   UNL A   1      41.270  28.337  29.077  1.00  0.00    -0.354 N 
ATOM     51  C   UNL A   1      43.680  31.689  30.281  1.00  0.00     0.074 A 
ATOM     52  C   UNL A   1      42.869  32.718  30.897  1.00  0.00     0.031 C 
ATOM     53  C   UNL A   1      39.389  27.178  28.731  1.00  0.00     0.029 A 
ATOM     54  C   UNL A   1      40.839  27.123  28.599  1.00  0.00     0.049 A 
ATOM     55  H   UNL A   1      42.220  28.578  29.159  1.00  0.00     0.167 HD
ATOM     56  C   UNL A   1      45.029  31.747  30.166  1.00  0.00     0.031 A 
ATOM     57  C   UNL A   1      41.518  26.090  28.065  1.00  0.00     0.031 A 
ATOM     58  C   UNL A   1      45.842  30.703  29.596  1.00  0.00     0.049 A 
ATOM     59  C   UNL A   1      43.006  26.195  27.909  1.00  0.00     0.074 A 
ATOM     60  C   UNL A   1      47.219  30.664  29.452  1.00  0.00     0.029 A 
ATOM     61  N   UNL A   1      45.354  29.508  29.091  1.00  0.00    -0.354 N 
ATOM     62  N   UNL A   1      43.806  27.169  28.267  1.00  0.00    -0.248 NA
ATOM     63  C   UNL A   1      43.682  25.065  27.257  1.00  0.00     0.031 C 
ATOM     64  C   UNL A   1      47.559  29.464  28.817  1.00  0.00     0.029 A 
ATOM     65  C   UNL A   1      46.400  28.732  28.620  1.00  0.00     0.049 A 
ATOM     66  H   UNL A   1      44.404  29.250  29.070  1.00  0.00     0.167 HD
ATOM     67  C   UNL A   1      45.082  26.761  27.902  1.00  0.00     0.074 A 
ATOM     68  C   UNL A   1      44.951  25.444  27.313  1.00  0.00     0.031 C 
ATOM     69  C   UNL A   1      46.256  27.422  28.039  1.00  0.00     0.031 A 
BRANCH  56  70
ATOM     70  C   UNL A   1      45.718  33.005  30.627  1.00  0.00    -0.014 A 
ATOM     71  C   UNL A   1      46.208  33.143  31.935  1.00  0.00     0.009 A 
ATOM     72  C   UNL A   1      45.913  34.056  29.717  1.00  0.00     0.009 A 
ATOM     73  C   UNL A   1      46.845  34.323  32.329  1.00  0.00     0.001 A 
ATOM     74  C   UNL A   1      46.578  35.221  30.105  1.00  0.00     0.001 A 
ATOM     75  C   UNL A   1      47.034  35.357  31.414  1.00  0.00     0.000 A 
ENDBRANCH  56  70
BRANCH  57  76
ATOM     76  C   UNL A   1      40.784  24.887  27.587  1.00  0.00    -0.014 A 
ATOM     77  C   UNL A   1      39.779  25.002  26.617  1.00  0.00     0.009 A 
ATOM     78  C   UNL A   1      41.093  23.616  28.097  1.00  0.00     0.009 A 
ATOM     79  C   UNL A   1      39.088  23.869  26.178  1.00  0.00     0.001 A 
ATOM     80  C   UNL A   1      40.426  22.481  27.632  1.00  0.00     0.001 A 
ATOM     81  C   UNL A   1      39.418  22.610  26.679  1.00  0.00     0.000 A 
ENDBRANCH  57  76
BRANCH  69  82
ATOM     82  C   UNL A   1      47.498  26.709  27.585  1.00  0.00    -0.014 A 
ATOM     83  C   UNL A   1      48.147  25.776  28.408  1.00  0.00     0.009 A 
ATOM     84  C   UNL A   1      48.009  26.959  26.302  1.00  0.00     0.009 A 
ATOM     85  C   UNL A   1      49.305  25.132  27.967  1.00  0.00     0.001 A 
ATOM     86  C   UNL A   1      49.150  26.293  25.853  1.00  0.00     0.001 A 
ATOM     87  C   UNL A   1      49.803  25.388  26.690  1.00  0.00     0.000 A 
ENDBRANCH  69  82
ENDBRANCH  43  44
ENDBRANCH  36  38
ENDBRANCH  35  36
ENDBRANCH  34  35
ENDBRANCH   1  34
TORSDOF 16
ENDMDL
MODEL 2
REMARK VINA RESULT:     -12.3      1.245      5.792
REMARK SMILES COc1cccc([C@H]2CC(c3ccc(S(C)(=O)=O)cc3)=NN2c2ccc(C(=O)OCCOC(=O)c3ccc(-c4c5nc(c(-c6ccccc6)c6ccc([nH]6)c(-c6ccccc6)c6nc(c(-c7ccccc7)c7ccc4[nH]7)C=C6)C=C5)cc3)cc2)c1
REMARK SMILES IDX 30 1 29 2 27 3 28 4 26 5 23 6 24 7 84 8 25 9 83 10 22 11
REMARK SMILES IDX 8 12 9 13 10 14 21 15 7 16 3 17 4 18 85 19 5 20 6 21 2 22
REMARK SMILES IDX 1 23 11 24 12 25 20 26 13 27 19 28 14 29 15 30 16 31 17 32
REMARK SMILES IDX 18 33 31 34 32 35 33 36 34 37 35 38 36 39 82 40 37 41 81 42
REMARK SMILES IDX 38 43 39 44 40 45 75 46 41 47 80 48 74 49 76 50 42 51 79 52
REMARK SMILES IDX 73 53 72 54 43 56 65 57 50 58 64 59 51 60 54 61 63 62 77 63
REMARK SMILES IDX 52 64 53 65 62 67 78 68 55 69 44 70 45 71 49 72 46 73 48 74
REMARK SMILES IDX 47 75 66 76 67 77 71 78 68 79 70 80 69 81 56 82 57 83 61 84
REMARK SMILES IDX 58 85 60 86 59 87
REMARK H PARENT 76 55 54 66
REMARK Flexibility Score: inf
ROOT
ATOM      1  C   UNL A   1      34.335  32.805  28.985  1.00  0.00     0.275 C 
ENDROOT
BRANCH   1   2
ATOM      2  O   UNL A   1      33.621  31.741  28.321  1.00  0.00    -0.458 OA
BRANCH   2   3
ATOM      3  C   UNL A   1      34.389  30.899  27.588  1.00  0.00     0.338 C 
ATOM      4  O   UNL A   1      35.543  31.089  27.236  1.00  0.00    -0.246 OA
BRANCH   3   5
ATOM      5  C   UNL A   1      33.674  29.638  27.300  1.00  0.00     0.060 A 
ATOM      6  C   UNL A   1      32.361  27.301  26.443  1.00  0.00     0.060 A 
ATOM      7  C   UNL A   1      33.750  27.404  26.367  1.00  0.00     0.029 A 
ATOM      8  C   UNL A   1      31.642  28.365  27.008  1.00  0.00     0.029 A 
ATOM      9  C   UNL A   1      34.392  28.575  26.748  1.00  0.00     0.018 A 
ATOM     10  C   UNL A   1      32.294  29.524  27.459  1.00  0.00     0.018 A 
BRANCH   6  11
ATOM     11  N   UNL A   1      31.727  26.193  25.893  1.00  0.00    -0.257 N 
ATOM     12  C   UNL A   1      30.569  26.308  24.999  1.00  0.00     0.144 C 
ATOM     13  C   UNL A   1      30.497  24.914  24.359  1.00  0.00     0.091 C 
ATOM     14  C   UNL A   1      31.712  24.274  24.970  1.00  0.00     0.071 C 
ATOM     15  N   UNL A   1      32.391  25.011  25.790  1.00  0.00    -0.176 NA
BRANCH  12  16
ATOM     16  C   UNL A   1      30.696  27.443  23.987  1.00  0.00    -0.019 A 
ATOM     17  C   UNL A   1      29.743  29.191  22.574  1.00  0.00     0.119 A 
ATOM     18  C   UNL A   1      31.004  29.440  22.033  1.00  0.00     0.046 A 
ATOM     19  C   UNL A   1      29.585  28.182  23.530  1.00  0.00     0.052 A 
ATOM     20  C   UNL A   1      32.110  28.715  22.464  1.00  0.00     0.004 A 
ATOM     21  C   UNL A   1      31.958  27.725  23.436  1.00  0.00     0.006 A 
BRANCH  17  22
ATOM     22  O   UNL A   1      28.728  29.946  22.053  1.00  0.00    -0.497 OA
ATOM     23  C   UNL A   1      27.601  30.120  22.903  1.00  0.00     0.278 C 
ENDBRANCH  17  22
ENDBRANCH  12  16
BRANCH  14  24
ATOM     24  C   UNL A   1      32.049  22.867  24.709  1.00  0.00    -0.002 A 
ATOM     25  C   UNL A   1      32.431  22.073  25.799  1.00  0.00     0.011 A 
ATOM     26  C   UNL A   1      31.960  22.320  23.427  1.00  0.00     0.011 A 
ATOM     27  C   UNL A   1      32.692  20.716  25.614  1.00  0.00     0.021 A 
ATOM     28  C   UNL A   1      32.249  20.966  23.234  1.00  0.00     0.021 A 
ATOM     29  C   UNL A   1      32.605  20.171  24.331  1.00  0.00     0.067 A 
BRANCH  29  30
ATOM     30  S   UNL A   1      32.898  18.430  24.111  1.00  0.00     0.175 S 
ATOM     31  C   UNL A   1      32.395  18.102  22.443  1.00  0.00     0.163 C 
ATOM     32  O   UNL A   1      34.332  18.237  24.205  1.00  0.00    -0.224 OA
ATOM     33  O   UNL A   1      31.990  17.720  24.992  1.00  0.00    -0.224 OA
ENDBRANCH  29  30
ENDBRANCH  14  24
ENDBRANCH   6  11
ENDBRANCH   3   5
ENDBRANCH   2   3
ENDBRANCH   1   2
BRANCH   1  34
ATOM     34  C   UNL A   1      34.756  32.408  30.401  1.00  0.00     0.275 C 
BRANCH  34  35
ATOM     35  O   UNL A   1      36.155  32.067  30.439  1.00  0.00    -0.458 OA
BRANCH  35  36
ATOM     36  C   UNL A   1      36.461  30.971  31.168  1.00  0.00     0.338 C 
ATOM     37  O   UNL A   1      35.907  30.567  32.176  1.00  0.00    -0.246 OA
BRANCH  36  38
ATOM     38  C   UNL A   1      37.582  30.243  30.553  1.00  0.00     0.060 A 
ATOM     39  C   UNL A   1      38.490  29.599  31.382  1.00  0.00     0.016 A 
ATOM     40  C   UNL A   1      37.853  30.371  29.194  1.00  0.00     0.016 A 
ATOM     41  C   UNL A   1      39.743  29.233  30.900  1.00  0.00     0.010 A 
ATOM     42  C   UNL A   1      39.053  29.861  28.679  1.00  0.00     0.010 A 
ATOM     43  C   UNL A   1      40.041  29.337  29.534  1.00  0.00    -0.014 A 
BRANCH  43  44
ATOM     44  C   UNL A   1      41.380  28.924  29.015  1.00  0.00     0.031 A 
ATOM     45  C   UNL A   1      41.605  27.523  28.494  1.00  0.00     0.074 A 
ATOM     46  C   UNL A   1      42.407  29.800  28.995  1.00  0.00     0.049 A 
ATOM     47  N   UNL A   1      42.728  26.928  28.172  1.00  0.00    -0.248 NA
ATOM     48  C   UNL A   1      40.414  26.674  28.326  1.00  0.00     0.031 C 
ATOM     49  C   UNL A   1      42.341  31.202  29.415  1.00  0.00     0.029 A 
ATOM     50  N   UNL A   1      43.711  29.643  28.591  1.00  0.00    -0.354 N 
ATOM     51  C   UNL A   1      42.386  25.624  27.833  1.00  0.00     0.074 A 
ATOM     52  C   UNL A   1      40.951  25.510  27.992  1.00  0.00     0.031 C 
ATOM     53  C   UNL A   1      43.526  31.787  29.198  1.00  0.00     0.029 A 
ATOM     54  C   UNL A   1      44.470  30.782  28.729  1.00  0.00     0.049 A 
ATOM     55  H   UNL A   1      44.069  28.797  28.238  1.00  0.00     0.167 HD
ATOM     56  C   UNL A   1      43.191  24.611  27.429  1.00  0.00     0.031 A 
ATOM     57  C   UNL A   1      45.787  30.995  28.550  1.00  0.00     0.031 A 
ATOM     58  C   UNL A   1      44.612  24.734  27.224  1.00  0.00     0.049 A 
ATOM     59  C   UNL A   1      46.665  29.849  28.144  1.00  0.00     0.074 A 
ATOM     60  C   UNL A   1      45.510  23.769  26.800  1.00  0.00     0.029 A 
ATOM     61  N   UNL A   1      45.340  25.899  27.415  1.00  0.00    -0.354 N 
ATOM     62  N   UNL A   1      46.334  28.609  27.878  1.00  0.00    -0.248 NA
ATOM     63  C   UNL A   1      48.104  30.128  28.031  1.00  0.00     0.031 C 
ATOM     64  C   UNL A   1      46.788  24.338  26.778  1.00  0.00     0.029 A 
ATOM     65  C   UNL A   1      46.676  25.673  27.133  1.00  0.00     0.049 A 
ATOM     66  H   UNL A   1      44.961  26.760  27.708  1.00  0.00     0.167 HD
ATOM     67  C   UNL A   1      47.518  27.964  27.548  1.00  0.00     0.074 A 
ATOM     68  C   UNL A   1      48.573  28.955  27.628  1.00  0.00     0.031 C 
ATOM     69  C   UNL A   1      47.714  26.667  27.213  1.00  0.00     0.031 A 
BRANCH  56  70
ATOM     70  C   UNL A   1      42.564  23.257  27.220  1.00  0.00    -0.014 A 
ATOM     71  C   UNL A   1      42.093  22.846  25.964  1.00  0.00     0.009 A 
ATOM     72  C   UNL A   1      42.481  22.363  28.300  1.00  0.00     0.009 A 
ATOM     73  C   UNL A   1      41.519  21.581  25.804  1.00  0.00     0.001 A 
ATOM     74  C   UNL A   1      41.936  21.089  28.130  1.00  0.00     0.001 A 
ATOM     75  C   UNL A   1      41.446  20.703  26.885  1.00  0.00     0.000 A 
ENDBRANCH  56  70
BRANCH  57  76
ATOM     76  C   UNL A   1      46.363  32.341  28.810  1.00  0.00    -0.014 A 
ATOM     77  C   UNL A   1      46.459  33.288  27.781  1.00  0.00     0.009 A 
ATOM     78  C   UNL A   1      46.812  32.687  30.095  1.00  0.00     0.009 A 
ATOM     79  C   UNL A   1      47.008  34.549  28.030  1.00  0.00     0.001 A 
ATOM     80  C   UNL A   1      47.328  33.959  30.350  1.00  0.00     0.001 A 
ATOM     81  C   UNL A   1      47.433  34.886  29.315  1.00  0.00     0.000 A 
ENDBRANCH  57  76
BRANCH  69  82
ATOM     82  C   UNL A   1      49.116  26.257  26.863  1.00  0.00    -0.014 A 
ATOM     83  C   UNL A   1      49.612  26.393  25.557  1.00  0.00     0.009 A 
ATOM     84  C   UNL A   1      49.960  25.751  27.864  1.00  0.00     0.009 A 
ATOM     85  C   UNL A   1      50.916  25.996  25.254  1.00  0.00     0.001 A 
ATOM     86  C   UNL A   1      51.272  25.382  27.564  1.00  0.00     0.001 A 
ATOM     87  C   UNL A   1      51.745  25.495  26.258  1.00  0.00     0.000 A 
ENDBRANCH  69  82
ENDBRANCH  43  44
ENDBRANCH  36  38
ENDBRANCH  35  36
ENDBRANCH  34  35
ENDBRANCH   1  34
TORSDOF 16
ENDMDL
MODEL 3
REMARK VINA RESULT:     -12.1      5.622     12.278
REMARK SMILES COc1cccc([C@H]2CC(c3ccc(S(C)(=O)=O)cc3)=NN2c2ccc(C(=O)OCCOC(=O)c3ccc(-c4c5nc(c(-c6ccccc6)c6ccc([nH]6)c(-c6ccccc6)c6nc(c(-c7ccccc7)c7ccc4[nH]7)C=C6)C=C5)cc3)cc2)c1
REMARK SMILES IDX 30 1 29 2 27 3 28 4 26 5 23 6 24 7 84 8 25 9 83 10 22 11
REMARK SMILES IDX 8 12 9 13 10 14 21 15 7 16 3 17 4 18 85 19 5 20 6 21 2 22
REMARK SMILES IDX 1 23 11 24 12 25 20 26 13 27 19 28 14 29 15 30 16 31 17 32
REMARK SMILES IDX 18 33 31 34 32 35 33 36 34 37 35 38 36 39 82 40 37 41 81 42
REMARK SMILES IDX 38 43 39 44 40 45 75 46 41 47 80 48 74 49 76 50 42 51 79 52
REMARK SMILES IDX 73 53 72 54 43 56 65 57 50 58 64 59 51 60 54 61 63 62 77 63
REMARK SMILES IDX 52 64 53 65 62 67 78 68 55 69 44 70 45 71 49 72 46 73 48 74
REMARK SMILES IDX 47 75 66 76 67 77 71 78 68 79 70 80 69 81 56 82 57 83 61 84
REMARK SMILES IDX 58 85 60 86 59 87
REMARK H PARENT 76 55 54 66
REMARK Flexibility Score: inf
ROOT
ATOM      1  C   UNL A   1      41.568  21.260  26.607  1.00  0.00     0.275 C 
ENDROOT
BRANCH   1   2
ATOM      2  O   UNL A   1      42.336  22.475  26.733  1.00  0.00    -0.458 OA
BRANCH   2   3
ATOM      3  C   UNL A   1      43.034  22.834  25.627  1.00  0.00     0.338 C 
ATOM      4  O   UNL A   1      43.067  22.237  24.563  1.00  0.00    -0.246 OA
BRANCH   3   5
ATOM      5  C   UNL A   1      43.732  24.122  25.832  1.00  0.00     0.060 A 
ATOM      6  C   UNL A   1      44.882  26.606  26.484  1.00  0.00     0.060 A 
ATOM      7  C   UNL A   1      45.195  25.463  27.220  1.00  0.00     0.029 A 
ATOM      8  C   UNL A   1      44.027  26.475  25.379  1.00  0.00     0.029 A 
ATOM      9  C   UNL A   1      44.592  24.247  26.925  1.00  0.00     0.018 A 
ATOM     10  C   UNL A   1      43.468  25.234  25.035  1.00  0.00     0.018 A 
BRANCH   6  11
ATOM     11  N   UNL A   1      45.358  27.842  26.905  1.00  0.00    -0.257 N 
ATOM     12  C   UNL A   1      46.787  28.174  26.922  1.00  0.00     0.144 C 
ATOM     13  C   UNL A   1      46.776  29.704  27.054  1.00  0.00     0.091 C 
ATOM     14  C   UNL A   1      45.298  29.968  27.006  1.00  0.00     0.071 C 
ATOM     15  N   UNL A   1      44.538  28.927  26.892  1.00  0.00    -0.176 NA
BRANCH  12  16
ATOM     16  C   UNL A   1      47.542  27.669  25.695  1.00  0.00    -0.019 A 
ATOM     17  C   UNL A   1      47.901  27.542  23.284  1.00  0.00     0.119 A 
ATOM     18  C   UNL A   1      48.909  26.599  23.484  1.00  0.00     0.046 A 
ATOM     19  C   UNL A   1      47.205  28.058  24.383  1.00  0.00     0.052 A 
ATOM     20  C   UNL A   1      49.249  26.196  24.772  1.00  0.00     0.004 A 
ATOM     21  C   UNL A   1      48.572  26.729  25.870  1.00  0.00     0.006 A 
BRANCH  17  22
ATOM     22  O   UNL A   1      47.636  27.839  21.975  1.00  0.00    -0.497 OA
ATOM     23  C   UNL A   1      48.724  27.656  21.078  1.00  0.00     0.278 C 
ENDBRANCH  17  22
ENDBRANCH  12  16
BRANCH  14  24
ATOM     24  C   UNL A   1      44.757  31.326  27.166  1.00  0.00    -0.002 A 
ATOM     25  C   UNL A   1      44.280  31.695  28.431  1.00  0.00     0.011 A 
ATOM     26  C   UNL A   1      44.746  32.238  26.108  1.00  0.00     0.011 A 
ATOM     27  C   UNL A   1      43.823  32.994  28.651  1.00  0.00     0.021 A 
ATOM     28  C   UNL A   1      44.262  33.532  26.318  1.00  0.00     0.021 A 
ATOM     29  C   UNL A   1      43.811  33.904  27.591  1.00  0.00     0.067 A 
BRANCH  29  30
ATOM     30  S   UNL A   1      43.266  35.571  27.891  1.00  0.00     0.175 S 
ATOM     31  C   UNL A   1      41.838  35.391  28.927  1.00  0.00     0.163 C 
ATOM     32  O   UNL A   1      44.313  36.215  28.660  1.00  0.00    -0.224 OA
ATOM     33  O   UNL A   1      42.823  36.121  26.624  1.00  0.00    -0.224 OA
ENDBRANCH  29  30
ENDBRANCH  14  24
ENDBRANCH   6  11
ENDBRANCH   3   5
ENDBRANCH   2   3
ENDBRANCH   1   2
BRANCH   1  34
ATOM     34  C   UNL A   1      40.082  21.497  26.887  1.00  0.00     0.275 C 
BRANCH  34  35
ATOM     35  O   UNL A   1      39.483  22.274  25.834  1.00  0.00    -0.458 OA
BRANCH  35  36
ATOM     36  C   UNL A   1      38.590  23.203  26.240  1.00  0.00     0.338 C 
ATOM     37  O   UNL A   1      37.379  23.185  26.101  1.00  0.00    -0.246 OA
BRANCH  36  38
ATOM     38  C   UNL A   1      39.274  24.294  26.953  1.00  0.00     0.060 A 
ATOM     39  C   UNL A   1      38.987  24.491  28.297  1.00  0.00     0.016 A 
ATOM     40  C   UNL A   1      40.023  25.239  26.257  1.00  0.00     0.016 A 
ATOM     41  C   UNL A   1      39.293  25.703  28.908  1.00  0.00     0.010 A 
ATOM     42  C   UNL A   1      40.466  26.391  26.920  1.00  0.00     0.010 A 
ATOM     43  C   UNL A   1      40.059  26.668  28.239  1.00  0.00    -0.014 A 
BRANCH  43  44
ATOM     44  C   UNL A   1      40.405  27.959  28.906  1.00  0.00     0.031 A 
ATOM     45  C   UNL A   1      41.767  28.164  29.527  1.00  0.00     0.074 A 
ATOM     46  C   UNL A   1      39.508  28.967  28.955  1.00  0.00     0.049 A 
ATOM     47  N   UNL A   1      42.189  29.136  30.299  1.00  0.00    -0.248 NA
ATOM     48  C   UNL A   1      42.784  27.134  29.260  1.00  0.00     0.031 C 
ATOM     49  C   UNL A   1      38.169  28.947  28.360  1.00  0.00     0.029 A 
ATOM     50  N   UNL A   1      39.592  30.216  29.523  1.00  0.00    -0.354 N 
ATOM     51  C   UNL A   1      43.489  28.800  30.660  1.00  0.00     0.074 A 
ATOM     52  C   UNL A   1      43.787  27.532  30.029  1.00  0.00     0.031 C 
ATOM     53  C   UNL A   1      37.582  30.137  28.546  1.00  0.00     0.029 A 
ATOM     54  C   UNL A   1      38.452  30.969  29.367  1.00  0.00     0.049 A 
ATOM     55  H   UNL A   1      40.391  30.539  29.998  1.00  0.00     0.167 HD
ATOM     56  C   UNL A   1      44.356  29.482  31.449  1.00  0.00     0.031 A 
ATOM     57  C   UNL A   1      38.111  32.173  29.864  1.00  0.00     0.031 A 
ATOM     58  C   UNL A   1      44.080  30.767  32.039  1.00  0.00     0.049 A 
ATOM     59  C   UNL A   1      39.070  32.889  30.768  1.00  0.00     0.074 A 
ATOM     60  C   UNL A   1      44.901  31.544  32.838  1.00  0.00     0.029 A 
ATOM     61  N   UNL A   1      42.895  31.470  31.882  1.00  0.00    -0.354 N 
ATOM     62  N   UNL A   1      40.275  32.533  31.142  1.00  0.00    -0.248 NA
ATOM     63  C   UNL A   1      38.614  34.167  31.333  1.00  0.00     0.031 C 
ATOM     64  C   UNL A   1      44.196  32.697  33.202  1.00  0.00     0.029 A 
ATOM     65  C   UNL A   1      42.958  32.664  32.582  1.00  0.00     0.049 A 
ATOM     66  H   UNL A   1      42.124  31.166  31.351  1.00  0.00     0.167 HD
ATOM     67  C   UNL A   1      40.728  33.550  31.971  1.00  0.00     0.074 A 
ATOM     68  C   UNL A   1      39.677  34.546  32.028  1.00  0.00     0.031 C 
ATOM     69  C   UNL A   1      41.908  33.647  32.629  1.00  0.00     0.031 A 
BRANCH  56  70
ATOM     70  C   UNL A   1      45.680  28.833  31.759  1.00  0.00    -0.014 A 
ATOM     71  C   UNL A   1      45.853  28.003  32.877  1.00  0.00     0.009 A 
ATOM     72  C   UNL A   1      46.763  29.030  30.888  1.00  0.00     0.009 A 
ATOM     73  C   UNL A   1      47.094  27.413  33.134  1.00  0.00     0.001 A 
ATOM     74  C   UNL A   1      47.993  28.415  31.130  1.00  0.00     0.001 A 
ATOM     75  C   UNL A   1      48.160  27.616  32.259  1.00  0.00     0.000 A 
ENDBRANCH  56  70
BRANCH  57  76
ATOM     76  C   UNL A   1      36.775  32.750  29.559  1.00  0.00    -0.014 A 
ATOM     77  C   UNL A   1      36.557  33.462  28.372  1.00  0.00     0.009 A 
ATOM     78  C   UNL A   1      35.706  32.583  30.455  1.00  0.00     0.009 A 
ATOM     79  C   UNL A   1      35.301  34.008  28.095  1.00  0.00     0.001 A 
ATOM     80  C   UNL A   1      34.443  33.099  30.161  1.00  0.00     0.001 A 
ATOM     81  C   UNL A   1      34.244  33.819  28.984  1.00  0.00     0.000 A 
ENDBRANCH  57  76
BRANCH  69  82
ATOM     82  C   UNL A   1      42.142  34.896  33.430  1.00  0.00    -0.014 A 
ATOM     83  C   UNL A   1      41.653  35.027  34.739  1.00  0.00     0.009 A 
ATOM     84  C   UNL A   1      42.885  35.947  32.871  1.00  0.00     0.009 A 
ATOM     85  C   UNL A   1      41.876  36.202  35.460  1.00  0.00     0.001 A 
ATOM     86  C   UNL A   1      43.131  37.109  33.604  1.00  0.00     0.001 A 
ATOM     87  C   UNL A   1      42.617  37.239  34.893  1.00  0.00     0.000 A 
ENDBRANCH  69  82
ENDBRANCH  43  44
ENDBRANCH  36  38
ENDBRANCH  35  36
ENDBRANCH  34  35
ENDBRANCH   1  34
TORSDOF 16
ENDMDL
