MODEL 1
REMARK VINA RESULT:      -9.5      0.000      0.000
REMARK SMILES O=C(CCc1nc(-c2ccccc2)c(-c2ccccc2)o1)OCCOC(=O)c1ccc(-c2c3nc(c(-c4ccccc4)c4ccc([nH]4)c(-c4ccccc4)c4nc(c(-c5ccccc5)c5ccc2[nH]5)C=C4)C=C3)cc1
REMARK SMILES IDX 23 1 22 2 2 3 1 4 3 5 4 6 5 7 6 8 21 9 7 10 14 11 8 12 9 13
REMARK SMILES IDX 13 14 10 15 12 16 11 17 15 18 16 19 20 20 17 21 19 22 18 23
REMARK SMILES IDX 24 24 25 25 26 26 27 27 28 28 29 29 75 30 30 31 74 32 31 33
REMARK SMILES IDX 32 34 33 35 68 36 34 37 73 38 67 39 69 40 35 41 72 42 66 43
REMARK SMILES IDX 65 44 36 46 58 47 43 48 57 49 44 50 47 51 56 52 70 53 45 54
REMARK SMILES IDX 46 55 55 57 71 58 48 59 37 60 38 61 42 62 39 63 41 64 40 65
REMARK SMILES IDX 59 66 60 67 64 68 61 69 63 70 62 71 49 72 50 73 54 74 51 75
REMARK SMILES IDX 53 76 52 77
REMARK H PARENT 69 45 47 56
REMARK Flexibility Score: inf
ROOT
ATOM      1  C   UNL A   1      33.324  36.672  30.670  1.00  0.00     0.274 C 
ENDROOT
BRANCH   1   2
ATOM      2  O   UNL A   1      32.810  36.973  31.979  1.00  0.00    -0.462 OA
BRANCH   2   3
ATOM      3  C   UNL A   1      33.642  36.696  33.016  1.00  0.00     0.306 C 
ATOM      4  O   UNL A   1      33.688  37.398  34.018  1.00  0.00    -0.252 OA
BRANCH   3   5
ATOM      5  C   UNL A   1      34.649  35.609  32.715  1.00  0.00     0.132 C 
BRANCH   5   6
ATOM      6  C   UNL A   1      34.426  34.362  33.559  1.00  0.00     0.109 C 
BRANCH   6   7
ATOM      7  C   UNL A   1      35.600  33.974  34.392  1.00  0.00     0.196 A 
ATOM      8  N   UNL A   1      35.819  34.255  35.662  1.00  0.00    -0.213 NA
ATOM      9  O   UNL A   1      36.552  33.170  33.821  1.00  0.00    -0.440 OA
ATOM     10  C   UNL A   1      36.953  33.539  35.965  1.00  0.00     0.117 A 
ATOM     11  C   UNL A   1      37.377  32.833  34.859  1.00  0.00     0.162 A 
BRANCH  10  12
ATOM     12  C   UNL A   1      37.505  33.402  37.293  1.00  0.00     0.004 A 
ATOM     13  C   UNL A   1      38.608  34.167  37.696  1.00  0.00     0.010 A 
ATOM     14  C   UNL A   1      36.979  32.437  38.158  1.00  0.00     0.010 A 
ATOM     15  C   UNL A   1      39.199  33.944  38.940  1.00  0.00     0.001 A 
ATOM     16  C   UNL A   1      37.576  32.211  39.398  1.00  0.00     0.001 A 
ATOM     17  C   UNL A   1      38.688  32.960  39.786  1.00  0.00     0.000 A 
ENDBRANCH  10  12
BRANCH  11  18
ATOM     18  C   UNL A   1      38.294  31.732  34.632  1.00  0.00     0.020 A 
ATOM     19  C   UNL A   1      38.070  30.770  33.646  1.00  0.00     0.012 A 
ATOM     20  C   UNL A   1      39.438  31.631  35.439  1.00  0.00     0.012 A 
ATOM     21  C   UNL A   1      38.981  29.723  33.469  1.00  0.00     0.001 A 
ATOM     22  C   UNL A   1      40.345  30.587  35.263  1.00  0.00     0.001 A 
ATOM     23  C   UNL A   1      40.116  29.632  34.277  1.00  0.00     0.000 A 
ENDBRANCH  11  18
ENDBRANCH   6   7
ENDBRANCH   5   6
ENDBRANCH   3   5
ENDBRANCH   2   3
ENDBRANCH   1   2
BRANCH   1  24
ATOM     24  C   UNL A   1      32.478  35.644  29.900  1.00  0.00     0.275 C 
BRANCH  24  25
ATOM     25  O   UNL A   1      32.995  35.375  28.591  1.00  0.00    -0.458 OA
BRANCH  25  26
ATOM     26  C   UNL A   1      33.275  34.065  28.390  1.00  0.00     0.338 C 
ATOM     27  O   UNL A   1      32.681  33.296  27.658  1.00  0.00    -0.246 OA
BRANCH  26  28
ATOM     28  C   UNL A   1      34.551  33.732  29.055  1.00  0.00     0.060 A 
ATOM     29  C   UNL A   1      35.712  34.306  28.526  1.00  0.00     0.016 A 
ATOM     30  C   UNL A   1      34.625  32.846  30.135  1.00  0.00     0.016 A 
ATOM     31  C   UNL A   1      36.958  33.919  29.008  1.00  0.00     0.010 A 
ATOM     32  C   UNL A   1      35.879  32.462  30.622  1.00  0.00     0.010 A 
ATOM     33  C   UNL A   1      37.049  32.949  30.016  1.00  0.00    -0.014 A 
BRANCH  33  34
ATOM     34  C   UNL A   1      38.361  32.300  30.247  1.00  0.00     0.031 A 
ATOM     35  C   UNL A   1      39.307  32.931  31.234  1.00  0.00     0.074 A 
ATOM     36  C   UNL A   1      38.672  31.125  29.672  1.00  0.00     0.049 A 
ATOM     37  N   UNL A   1      40.431  32.466  31.719  1.00  0.00    -0.248 NA
ATOM     38  C   UNL A   1      38.932  34.257  31.750  1.00  0.00     0.031 C 
ATOM     39  C   UNL A   1      37.836  30.397  28.720  1.00  0.00     0.029 A 
ATOM     40  N   UNL A   1      39.777  30.328  29.832  1.00  0.00    -0.354 N 
ATOM     41  C   UNL A   1      40.887  33.436  32.603  1.00  0.00     0.074 A 
ATOM     42  C   UNL A   1      39.948  34.534  32.553  1.00  0.00     0.031 C 
ATOM     43  C   UNL A   1      38.453  29.247  28.392  1.00  0.00     0.029 A 
ATOM     44  C   UNL A   1      39.724  29.163  29.108  1.00  0.00     0.049 A 
ATOM     45  H   UNL A   1      40.536  30.567  30.412  1.00  0.00     0.167 HD
ATOM     46  C   UNL A   1      41.980  33.413  33.402  1.00  0.00     0.031 A 
ATOM     47  C   UNL A   1      40.597  28.139  29.045  1.00  0.00     0.031 A 
ATOM     48  C   UNL A   1      42.925  32.335  33.449  1.00  0.00     0.049 A 
ATOM     49  C   UNL A   1      41.836  28.163  29.899  1.00  0.00     0.074 A 
ATOM     50  C   UNL A   1      44.052  32.208  34.244  1.00  0.00     0.029 A 
ATOM     51  N   UNL A   1      42.860  31.199  32.660  1.00  0.00    -0.354 N 
ATOM     52  N   UNL A   1      42.220  29.056  30.779  1.00  0.00    -0.248 NA
ATOM     53  C   UNL A   1      42.752  27.021  29.764  1.00  0.00     0.031 C 
ATOM     54  C   UNL A   1      44.695  31.015  33.900  1.00  0.00     0.029 A 
ATOM     55  C   UNL A   1      43.942  30.377  32.927  1.00  0.00     0.049 A 
ATOM     56  H   UNL A   1      42.150  31.005  32.006  1.00  0.00     0.167 HD
ATOM     57  C   UNL A   1      43.399  28.565  31.328  1.00  0.00     0.074 A 
ATOM     58  C   UNL A   1      43.663  27.294  30.687  1.00  0.00     0.031 C 
ATOM     59  C   UNL A   1      44.189  29.114  32.284  1.00  0.00     0.031 A 
BRANCH  46  60
ATOM     60  C   UNL A   1      42.213  34.613  34.274  1.00  0.00    -0.014 A 
ATOM     61  C   UNL A   1      42.878  35.748  33.785  1.00  0.00     0.009 A 
ATOM     62  C   UNL A   1      41.752  34.612  35.599  1.00  0.00     0.009 A 
ATOM     63  C   UNL A   1      43.109  36.846  34.617  1.00  0.00     0.001 A 
ATOM     64  C   UNL A   1      41.963  35.719  36.422  1.00  0.00     0.001 A 
ATOM     65  C   UNL A   1      42.648  36.831  35.934  1.00  0.00     0.000 A 
ENDBRANCH  46  60
BRANCH  47  66
ATOM     66  C   UNL A   1      40.324  26.980  28.157  1.00  0.00    -0.014 A 
ATOM     67  C   UNL A   1      39.543  25.904  28.607  1.00  0.00     0.009 A 
ATOM     68  C   UNL A   1      40.871  26.929  26.867  1.00  0.00     0.009 A 
ATOM     69  C   UNL A   1      39.340  24.788  27.792  1.00  0.00     0.001 A 
ATOM     70  C   UNL A   1      40.646  25.823  26.044  1.00  0.00     0.001 A 
ATOM     71  C   UNL A   1      39.889  24.749  26.511  1.00  0.00     0.000 A 
ENDBRANCH  47  66
BRANCH  59  72
ATOM     72  C   UNL A   1      45.390  28.326  32.723  1.00  0.00    -0.014 A 
ATOM     73  C   UNL A   1      45.305  27.377  33.753  1.00  0.00     0.009 A 
ATOM     74  C   UNL A   1      46.617  28.509  32.065  1.00  0.00     0.009 A 
ATOM     75  C   UNL A   1      46.434  26.653  34.139  1.00  0.00     0.001 A 
ATOM     76  C   UNL A   1      47.737  27.765  32.436  1.00  0.00     0.001 A 
ATOM     77  C   UNL A   1      47.647  26.843  33.478  1.00  0.00     0.000 A 
ENDBRANCH  59  72
ENDBRANCH  33  34
ENDBRANCH  26  28
ENDBRANCH  25  26
ENDBRANCH  24  25
ENDBRANCH   1  24
TORSDOF 15
ENDMDL
MODEL 2
REMARK VINA RESULT:      -9.1      2.826      7.431
REMARK SMILES O=C(CCc1nc(-c2ccccc2)c(-c2ccccc2)o1)OCCOC(=O)c1ccc(-c2c3nc(c(-c4ccccc4)c4ccc([nH]4)c(-c4ccccc4)c4nc(c(-c5ccccc5)c5ccc2[nH]5)C=C4)C=C3)cc1
REMARK SMILES IDX 23 1 22 2 2 3 1 4 3 5 4 6 5 7 6 8 21 9 7 10 14 11 8 12 9 13
REMARK SMILES IDX 13 14 10 15 12 16 11 17 15 18 16 19 20 20 17 21 19 22 18 23
REMARK SMILES IDX 24 24 25 25 26 26 27 27 28 28 29 29 75 30 30 31 74 32 31 33
REMARK SMILES IDX 32 34 33 35 68 36 34 37 73 38 67 39 69 40 35 41 72 42 66 43
REMARK SMILES IDX 65 44 36 46 58 47 43 48 57 49 44 50 47 51 56 52 70 53 45 54
REMARK SMILES IDX 46 55 55 57 71 58 48 59 37 60 38 61 42 62 39 63 41 64 40 65
REMARK SMILES IDX 59 66 60 67 64 68 61 69 63 70 62 71 49 72 50 73 54 74 51 75
REMARK SMILES IDX 53 76 52 77
REMARK H PARENT 69 45 47 56
REMARK Flexibility Score: inf
ROOT
ATOM      1  C   UNL A   1      34.405  34.302  29.978  1.00  0.00     0.274 C 
ENDROOT
BRANCH   1   2
ATOM      2  O   UNL A   1      33.654  34.065  31.181  1.00  0.00    -0.462 OA
BRANCH   2   3
ATOM      3  C   UNL A   1      34.195  34.569  32.321  1.00  0.00     0.306 C 
ATOM      4  O   UNL A   1      34.557  35.735  32.409  1.00  0.00    -0.252 OA
BRANCH   3   5
ATOM      5  C   UNL A   1      34.519  33.516  33.357  1.00  0.00     0.132 C 
BRANCH   5   6
ATOM      6  C   UNL A   1      35.590  33.976  34.336  1.00  0.00     0.109 C 
BRANCH   6   7
ATOM      7  C   UNL A   1      36.964  33.506  34.000  1.00  0.00     0.196 A 
ATOM      8  N   UNL A   1      37.529  32.360  34.326  1.00  0.00    -0.213 NA
ATOM      9  O   UNL A   1      37.736  34.307  33.198  1.00  0.00    -0.440 OA
ATOM     10  C   UNL A   1      38.724  32.377  33.644  1.00  0.00     0.117 A 
ATOM     11  C   UNL A   1      38.833  33.541  32.912  1.00  0.00     0.162 A 
BRANCH  10  12
ATOM     12  C   UNL A   1      39.636  31.261  33.561  1.00  0.00     0.004 A 
ATOM     13  C   UNL A   1      41.001  31.425  33.835  1.00  0.00     0.010 A 
ATOM     14  C   UNL A   1      39.163  30.019  33.125  1.00  0.00     0.010 A 
ATOM     15  C   UNL A   1      41.887  30.366  33.642  1.00  0.00     0.001 A 
ATOM     16  C   UNL A   1      40.052  28.963  32.926  1.00  0.00     0.001 A 
ATOM     17  C   UNL A   1      41.414  29.139  33.179  1.00  0.00     0.000 A 
ENDBRANCH  10  12
BRANCH  11  18
ATOM     18  C   UNL A   1      39.678  33.995  31.824  1.00  0.00     0.020 A 
ATOM     19  C   UNL A   1      39.200  34.136  30.520  1.00  0.00     0.012 A 
ATOM     20  C   UNL A   1      41.023  34.292  32.095  1.00  0.00     0.012 A 
ATOM     21  C   UNL A   1      40.056  34.571  29.502  1.00  0.00     0.001 A 
ATOM     22  C   UNL A   1      41.876  34.724  31.081  1.00  0.00     0.001 A 
ATOM     23  C   UNL A   1      41.392  34.864  29.784  1.00  0.00     0.000 A 
ENDBRANCH  11  18
ENDBRANCH   6   7
ENDBRANCH   5   6
ENDBRANCH   3   5
ENDBRANCH   2   3
ENDBRANCH   1   2
BRANCH   1  24
ATOM     24  C   UNL A   1      35.488  33.242  29.711  1.00  0.00     0.275 C 
BRANCH  24  25
ATOM     25  O   UNL A   1      35.034  31.910  29.980  1.00  0.00    -0.458 OA
BRANCH  25  26
ATOM     26  C   UNL A   1      34.969  31.137  28.869  1.00  0.00     0.338 C 
ATOM     27  O   UNL A   1      34.148  31.214  27.974  1.00  0.00    -0.246 OA
BRANCH  26  28
ATOM     28  C   UNL A   1      36.173  30.286  28.796  1.00  0.00     0.060 A 
ATOM     29  C   UNL A   1      36.569  29.645  29.976  1.00  0.00     0.016 A 
ATOM     30  C   UNL A   1      36.928  30.151  27.626  1.00  0.00     0.016 A 
ATOM     31  C   UNL A   1      37.774  28.951  30.015  1.00  0.00     0.010 A 
ATOM     32  C   UNL A   1      38.136  29.448  27.667  1.00  0.00     0.010 A 
ATOM     33  C   UNL A   1      38.593  28.902  28.878  1.00  0.00    -0.014 A 
BRANCH  33  34
ATOM     34  C   UNL A   1      40.005  28.484  29.049  1.00  0.00     0.031 A 
ATOM     35  C   UNL A   1      40.384  27.077  28.671  1.00  0.00     0.074 A 
ATOM     36  C   UNL A   1      40.951  29.357  29.434  1.00  0.00     0.049 A 
ATOM     37  N   UNL A   1      41.572  26.535  28.580  1.00  0.00    -0.248 NA
ATOM     38  C   UNL A   1      39.278  26.162  28.345  1.00  0.00     0.031 C 
ATOM     39  C   UNL A   1      40.722  30.752  29.803  1.00  0.00     0.029 A 
ATOM     40  N   UNL A   1      42.308  29.193  29.555  1.00  0.00    -0.354 N 
ATOM     41  C   UNL A   1      41.355  25.223  28.175  1.00  0.00     0.074 A 
ATOM     42  C   UNL A   1      39.924  25.036  28.085  1.00  0.00     0.031 C 
ATOM     43  C   UNL A   1      41.905  31.325  30.093  1.00  0.00     0.029 A 
ATOM     44  C   UNL A   1      42.968  30.335  29.934  1.00  0.00     0.049 A 
ATOM     45  H   UNL A   1      42.765  28.338  29.385  1.00  0.00     0.167 HD
ATOM     46  C   UNL A   1      42.262  24.261  27.884  1.00  0.00     0.031 A 
ATOM     47  C   UNL A   1      44.285  30.558  30.115  1.00  0.00     0.031 A 
ATOM     48  C   UNL A   1      43.684  24.432  27.984  1.00  0.00     0.049 A 
ATOM     49  C   UNL A   1      45.271  29.454  29.843  1.00  0.00     0.074 A 
ATOM     50  C   UNL A   1      44.686  23.524  27.688  1.00  0.00     0.029 A 
ATOM     51  N   UNL A   1      44.306  25.589  28.422  1.00  0.00    -0.354 N 
ATOM     52  N   UNL A   1      45.056  28.240  29.396  1.00  0.00    -0.248 NA
ATOM     53  C   UNL A   1      46.689  29.764  30.080  1.00  0.00     0.031 C 
ATOM     54  C   UNL A   1      45.915  24.117  27.995  1.00  0.00     0.029 A 
ATOM     55  C   UNL A   1      45.679  25.411  28.433  1.00  0.00     0.049 A 
ATOM     56  H   UNL A   1      43.841  26.416  28.687  1.00  0.00     0.167 HD
ATOM     57  C   UNL A   1      46.311  27.657  29.263  1.00  0.00     0.074 A 
ATOM     58  C   UNL A   1      47.281  28.652  29.670  1.00  0.00     0.031 C 
ATOM     59  C   UNL A   1      46.631  26.411  28.836  1.00  0.00     0.031 A 
BRANCH  46  60
ATOM     60  C   UNL A   1      41.727  22.927  27.452  1.00  0.00    -0.014 A 
ATOM     61  C   UNL A   1      41.308  22.706  26.130  1.00  0.00     0.009 A 
ATOM     62  C   UNL A   1      41.650  21.874  28.376  1.00  0.00     0.009 A 
ATOM     63  C   UNL A   1      40.789  21.466  25.751  1.00  0.00     0.001 A 
ATOM     64  C   UNL A   1      41.153  20.629  27.989  1.00  0.00     0.001 A 
ATOM     65  C   UNL A   1      40.715  20.428  26.681  1.00  0.00     0.000 A 
ENDBRANCH  46  60
BRANCH  47  66
ATOM     66  C   UNL A   1      44.760  31.894  30.555  1.00  0.00    -0.014 A 
ATOM     67  C   UNL A   1      44.835  32.212  31.920  1.00  0.00     0.009 A 
ATOM     68  C   UNL A   1      45.109  32.870  29.610  1.00  0.00     0.009 A 
ATOM     69  C   UNL A   1      45.223  33.491  32.328  1.00  0.00     0.001 A 
ATOM     70  C   UNL A   1      45.520  34.140  30.021  1.00  0.00     0.001 A 
ATOM     71  C   UNL A   1      45.567  34.453  31.379  1.00  0.00     0.000 A 
ENDBRANCH  47  66
BRANCH  59  72
ATOM     72  C   UNL A   1      48.090  26.066  28.747  1.00  0.00    -0.014 A 
ATOM     73  C   UNL A   1      48.798  25.590  29.860  1.00  0.00     0.009 A 
ATOM     74  C   UNL A   1      48.756  26.184  27.516  1.00  0.00     0.009 A 
ATOM     75  C   UNL A   1      50.153  25.271  29.751  1.00  0.00     0.001 A 
ATOM     76  C   UNL A   1      50.103  25.839  27.404  1.00  0.00     0.001 A 
ATOM     77  C   UNL A   1      50.803  25.391  28.523  1.00  0.00     0.000 A 
ENDBRANCH  59  72
ENDBRANCH  33  34
ENDBRANCH  26  28
ENDBRANCH  25  26
ENDBRANCH  24  25
ENDBRANCH   1  24
TORSDOF 15
ENDMDL
MODEL 3
REMARK VINA RESULT:      -8.8      5.119     11.512
REMARK SMILES O=C(CCc1nc(-c2ccccc2)c(-c2ccccc2)o1)OCCOC(=O)c1ccc(-c2c3nc(c(-c4ccccc4)c4ccc([nH]4)c(-c4ccccc4)c4nc(c(-c5ccccc5)c5ccc2[nH]5)C=C4)C=C3)cc1
REMARK SMILES IDX 23 1 22 2 2 3 1 4 3 5 4 6 5 7 6 8 21 9 7 10 14 11 8 12 9 13
REMARK SMILES IDX 13 14 10 15 12 16 11 17 15 18 16 19 20 20 17 21 19 22 18 23
REMARK SMILES IDX 24 24 25 25 26 26 27 27 28 28 29 29 75 30 30 31 74 32 31 33
REMARK SMILES IDX 32 34 33 35 68 36 34 37 73 38 67 39 69 40 35 41 72 42 66 43
REMARK SMILES IDX 65 44 36 46 58 47 43 48 57 49 44 50 47 51 56 52 70 53 45 54
REMARK SMILES IDX 46 55 55 57 71 58 48 59 37 60 38 61 42 62 39 63 41 64 40 65
REMARK SMILES IDX 59 66 60 67 64 68 61 69 63 70 62 71 49 72 50 73 54 74 51 75
REMARK SMILES IDX 53 76 52 77
REMARK H PARENT 69 45 47 56
REMARK Flexibility Score: inf
ROOT
ATOM      1  C   UNL A   1      42.544  21.505  26.112  1.00  0.00     0.274 C 
ENDROOT
BRANCH   1   2
ATOM      2  O   UNL A   1      41.207  21.828  25.695  1.00  0.00    -0.462 OA
BRANCH   2   3
ATOM      3  C   UNL A   1      40.254  21.746  26.659  1.00  0.00     0.306 C 
ATOM      4  O   UNL A   1      40.523  21.454  27.817  1.00  0.00    -0.252 OA
BRANCH   3   5
ATOM      5  C   UNL A   1      38.840  21.812  26.124  1.00  0.00     0.132 C 
BRANCH   5   6
ATOM      6  C   UNL A   1      38.318  23.239  26.036  1.00  0.00     0.109 C 
BRANCH   6   7
ATOM      7  C   UNL A   1      36.962  23.355  25.429  1.00  0.00     0.196 A 
ATOM      8  N   UNL A   1      36.346  22.485  24.653  1.00  0.00    -0.213 NA
ATOM      9  O   UNL A   1      36.209  24.454  25.752  1.00  0.00    -0.440 OA
ATOM     10  C   UNL A   1      35.084  23.012  24.507  1.00  0.00     0.117 A 
ATOM     11  C   UNL A   1      34.977  24.188  25.218  1.00  0.00     0.162 A 
BRANCH  10  12
ATOM     12  C   UNL A   1      33.984  22.335  23.859  1.00  0.00     0.004 A 
ATOM     13  C   UNL A   1      33.521  21.099  24.332  1.00  0.00     0.010 A 
ATOM     14  C   UNL A   1      33.428  22.884  22.700  1.00  0.00     0.010 A 
ATOM     15  C   UNL A   1      32.535  20.406  23.631  1.00  0.00     0.001 A 
ATOM     16  C   UNL A   1      32.447  22.185  21.996  1.00  0.00     0.001 A 
ATOM     17  C   UNL A   1      32.006  20.945  22.459  1.00  0.00     0.000 A 
ENDBRANCH  10  12
BRANCH  11  18
ATOM     18  C   UNL A   1      33.878  25.020  25.669  1.00  0.00     0.020 A 
ATOM     19  C   UNL A   1      32.674  24.478  26.123  1.00  0.00     0.012 A 
ATOM     20  C   UNL A   1      34.031  26.415  25.637  1.00  0.00     0.012 A 
ATOM     21  C   UNL A   1      31.640  25.322  26.542  1.00  0.00     0.001 A 
ATOM     22  C   UNL A   1      33.000  27.256  26.053  1.00  0.00     0.001 A 
ATOM     23  C   UNL A   1      31.803  26.708  26.506  1.00  0.00     0.000 A 
ENDBRANCH  11  18
ENDBRANCH   6   7
ENDBRANCH   5   6
ENDBRANCH   3   5
ENDBRANCH   2   3
ENDBRANCH   1   2
BRANCH   1  24
ATOM     24  C   UNL A   1      43.624  22.370  25.441  1.00  0.00     0.275 C 
BRANCH  24  25
ATOM     25  O   UNL A   1      43.082  23.539  24.813  1.00  0.00    -0.458 OA
BRANCH  25  26
ATOM     26  C   UNL A   1      43.783  24.664  25.092  1.00  0.00     0.338 C 
ATOM     27  O   UNL A   1      44.860  24.986  24.626  1.00  0.00    -0.246 OA
BRANCH  26  28
ATOM     28  C   UNL A   1      42.954  25.563  25.920  1.00  0.00     0.060 A 
ATOM     29  C   UNL A   1      43.539  26.766  26.330  1.00  0.00     0.016 A 
ATOM     30  C   UNL A   1      41.660  25.226  26.329  1.00  0.00     0.016 A 
ATOM     31  C   UNL A   1      42.871  27.589  27.232  1.00  0.00     0.010 A 
ATOM     32  C   UNL A   1      40.988  26.057  27.232  1.00  0.00     0.010 A 
ATOM     33  C   UNL A   1      41.620  27.207  27.735  1.00  0.00    -0.014 A 
BRANCH  33  34
ATOM     34  C   UNL A   1      41.110  27.896  28.943  1.00  0.00     0.031 A 
ATOM     35  C   UNL A   1      41.862  27.721  30.236  1.00  0.00     0.074 A 
ATOM     36  C   UNL A   1      40.064  28.738  28.881  1.00  0.00     0.049 A 
ATOM     37  N   UNL A   1      41.706  28.343  31.377  1.00  0.00    -0.248 NA
ATOM     38  C   UNL A   1      42.938  26.716  30.241  1.00  0.00     0.031 C 
ATOM     39  C   UNL A   1      39.267  29.017  27.689  1.00  0.00     0.029 A 
ATOM     40  N   UNL A   1      39.510  29.533  29.853  1.00  0.00    -0.354 N 
ATOM     41  C   UNL A   1      42.669  27.815  32.227  1.00  0.00     0.074 A 
ATOM     42  C   UNL A   1      43.372  26.789  31.490  1.00  0.00     0.031 C 
ATOM     43  C   UNL A   1      38.334  29.936  27.995  1.00  0.00     0.029 A 
ATOM     44  C   UNL A   1      38.468  30.305  29.403  1.00  0.00     0.049 A 
ATOM     45  H   UNL A   1      39.831  29.550  30.783  1.00  0.00     0.167 HD
ATOM     46  C   UNL A   1      42.961  28.161  33.503  1.00  0.00     0.031 A 
ATOM     47  C   UNL A   1      37.719  31.217  30.054  1.00  0.00     0.031 A 
ATOM     48  C   UNL A   1      42.261  29.167  34.249  1.00  0.00     0.049 A 
ATOM     49  C   UNL A   1      38.024  31.542  31.491  1.00  0.00     0.074 A 
ATOM     50  C   UNL A   1      42.497  29.607  35.541  1.00  0.00     0.029 A 
ATOM     51  N   UNL A   1      41.178  29.886  33.772  1.00  0.00    -0.354 N 
ATOM     52  N   UNL A   1      38.981  31.083  32.261  1.00  0.00    -0.248 NA
ATOM     53  C   UNL A   1      37.154  32.533  32.142  1.00  0.00     0.031 C 
ATOM     54  C   UNL A   1      41.524  30.559  35.861  1.00  0.00     0.029 A 
ATOM     55  C   UNL A   1      40.715  30.747  34.752  1.00  0.00     0.049 A 
ATOM     56  H   UNL A   1      40.793  29.798  32.869  1.00  0.00     0.167 HD
ATOM     57  C   UNL A   1      38.850  31.756  33.470  1.00  0.00     0.074 A 
ATOM     58  C   UNL A   1      37.727  32.659  33.330  1.00  0.00     0.031 C 
ATOM     59  C   UNL A   1      39.599  31.642  34.595  1.00  0.00     0.031 A 
BRANCH  46  60
ATOM     60  C   UNL A   1      44.080  27.417  34.173  1.00  0.00    -0.014 A 
ATOM     61  C   UNL A   1      43.842  26.224  34.873  1.00  0.00     0.009 A 
ATOM     62  C   UNL A   1      45.390  27.912  34.096  1.00  0.00     0.009 A 
ATOM     63  C   UNL A   1      44.890  25.558  35.513  1.00  0.00     0.001 A 
ATOM     64  C   UNL A   1      46.440  27.233  34.715  1.00  0.00     0.001 A 
ATOM     65  C   UNL A   1      46.189  26.062  35.430  1.00  0.00     0.000 A 
ENDBRANCH  46  60
BRANCH  47  66
ATOM     66  C   UNL A   1      36.617  31.916  29.346  1.00  0.00    -0.014 A 
ATOM     67  C   UNL A   1      35.351  31.321  29.230  1.00  0.00     0.009 A 
ATOM     68  C   UNL A   1      36.835  33.169  28.753  1.00  0.00     0.009 A 
ATOM     69  C   UNL A   1      34.335  31.954  28.510  1.00  0.00     0.001 A 
ATOM     70  C   UNL A   1      35.810  33.811  28.055  1.00  0.00     0.001 A 
ATOM     71  C   UNL A   1      34.564  33.199  27.925  1.00  0.00     0.000 A 
ENDBRANCH  47  66
BRANCH  59  72
ATOM     72  C   UNL A   1      39.254  32.542  35.747  1.00  0.00    -0.014 A 
ATOM     73  C   UNL A   1      39.827  33.816  35.877  1.00  0.00     0.009 A 
ATOM     74  C   UNL A   1      38.309  32.121  36.696  1.00  0.00     0.009 A 
ATOM     75  C   UNL A   1      39.486  34.637  36.953  1.00  0.00     0.001 A 
ATOM     76  C   UNL A   1      37.950  32.955  37.756  1.00  0.00     0.001 A 
ATOM     77  C   UNL A   1      38.545  34.208  37.889  1.00  0.00     0.000 A 
ENDBRANCH  59  72
ENDBRANCH  33  34
ENDBRANCH  26  28
ENDBRANCH  25  26
ENDBRANCH  24  25
ENDBRANCH   1  24
TORSDOF 15
ENDMDL
