MODEL 1
REMARK VINA RESULT:     -11.9      0.000      0.000
REMARK SMILES C/C(=N\NC(N)=O)c1nnn(-c2ccc(C(=O)OCCOC(=O)c3ccc(-c4c5nc(c(-c6ccccc6)c6ccc([nH]6)c(-c6ccccc6)c6nc(c(-c7ccccc7)c7ccc4[nH]7)C=C6)C=C5)cc3)cc2)c1C
REMARK SMILES IDX 19 1 18 2 16 3 17 4 15 5 12 6 13 7 73 8 14 9 72 10 11 11
REMARK SMILES IDX 8 12 9 13 74 14 10 15 75 16 2 17 1 18 3 19 4 20 5 21 6 23
REMARK SMILES IDX 7 24 20 27 21 28 22 29 23 30 24 31 25 32 71 33 26 34 70 35
REMARK SMILES IDX 27 36 28 37 29 38 64 39 30 40 69 41 63 42 65 43 31 44 68 45
REMARK SMILES IDX 62 46 61 47 32 49 54 50 39 51 53 52 40 53 43 54 52 55 66 56
REMARK SMILES IDX 41 57 42 58 51 60 67 61 44 62 33 63 34 64 38 65 35 66 37 67
REMARK SMILES IDX 36 68 55 69 56 70 60 71 57 72 59 73 58 74 45 75 46 76 50 77
REMARK SMILES IDX 47 78 49 79 48 80
REMARK H PARENT 4 22 6 25 6 26 65 48 43 59
REMARK Flexibility Score: inf
ROOT
ATOM      1  C   UNL A   1      37.275  21.028  24.672  1.00  0.00     0.275 C 
ENDROOT
BRANCH   1   2
ATOM      2  O   UNL A   1      36.152  20.957  25.566  1.00  0.00    -0.458 OA
BRANCH   2   3
ATOM      3  C   UNL A   1      34.921  20.910  24.996  1.00  0.00     0.338 C 
ATOM      4  O   UNL A   1      34.291  19.900  24.713  1.00  0.00    -0.246 OA
BRANCH   3   5
ATOM      5  C   UNL A   1      34.386  22.284  24.818  1.00  0.00     0.060 A 
ATOM      6  C   UNL A   1      33.073  24.711  24.527  1.00  0.00     0.067 A 
ATOM      7  C   UNL A   1      33.397  24.270  25.813  1.00  0.00     0.029 A 
ATOM      8  C   UNL A   1      33.533  24.031  23.394  1.00  0.00     0.029 A 
ATOM      9  C   UNL A   1      34.036  23.036  25.953  1.00  0.00     0.018 A 
ATOM     10  C   UNL A   1      34.197  22.821  23.540  1.00  0.00     0.018 A 
BRANCH   6  11
ATOM     11  N   UNL A   1      32.105  25.720  24.360  1.00  0.00    -0.217 N 
ATOM     12  C   UNL A   1      31.112  27.623  24.005  1.00  0.00     0.132 A 
ATOM     13  N   UNL A   1      30.184  26.617  23.927  1.00  0.00    -0.128 NA
ATOM     14  C   UNL A   1      32.358  27.077  24.247  1.00  0.00     0.071 A 
ATOM     15  N   UNL A   1      30.818  25.457  24.050  1.00  0.00    -0.061 NA
ATOM     16  C   UNL A   1      33.712  27.685  24.231  1.00  0.00     0.069 C 
BRANCH  12  17
ATOM     17  C   UNL A   1      30.812  29.009  23.686  1.00  0.00     0.087 C 
ATOM     18  C   UNL A   1      31.030  30.010  24.792  1.00  0.00     0.071 C 
ATOM     19  N   UNL A   1      30.411  29.226  22.468  1.00  0.00    -0.174 NA
BRANCH  19  20
ATOM     20  N   UNL A   1      30.030  30.463  22.033  1.00  0.00    -0.229 N 
ATOM     21  C   UNL A   1      28.872  30.778  21.355  1.00  0.00     0.332 C 
ATOM     22  H   UNL A   1      30.646  31.207  22.223  1.00  0.00     0.195 HD
ATOM     23  N   UNL A   1      28.799  32.102  21.039  1.00  0.00    -0.350 N 
ATOM     24  O   UNL A   1      27.961  30.022  21.044  1.00  0.00    -0.247 OA
ATOM     25  H   UNL A   1      29.532  32.708  21.290  1.00  0.00     0.161 HD
ATOM     26  H   UNL A   1      28.013  32.451  20.560  1.00  0.00     0.161 HD
ENDBRANCH  19  20
ENDBRANCH  12  17
ENDBRANCH   6  11
ENDBRANCH   3   5
ENDBRANCH   2   3
ENDBRANCH   1   2
BRANCH   1  27
ATOM     27  C   UNL A   1      38.306  19.956  25.003  1.00  0.00     0.275 C 
BRANCH  27  28
ATOM     28  O   UNL A   1      39.207  20.415  26.008  1.00  0.00    -0.458 OA
BRANCH  28  29
ATOM     29  C   UNL A   1      40.453  19.897  25.940  1.00  0.00     0.338 C 
ATOM     30  O   UNL A   1      40.772  18.778  25.573  1.00  0.00    -0.246 OA
BRANCH  29  31
ATOM     31  C   UNL A   1      41.394  20.822  26.575  1.00  0.00     0.060 A 
ATOM     32  C   UNL A   1      41.459  20.800  27.971  1.00  0.00     0.016 A 
ATOM     33  C   UNL A   1      41.908  21.884  25.819  1.00  0.00     0.016 A 
ATOM     34  C   UNL A   1      41.836  21.953  28.622  1.00  0.00     0.010 A 
ATOM     35  C   UNL A   1      42.271  23.036  26.469  1.00  0.00     0.010 A 
ATOM     36  C   UNL A   1      42.136  23.082  27.854  1.00  0.00    -0.014 A 
BRANCH  36  37
ATOM     37  C   UNL A   1      42.330  24.338  28.542  1.00  0.00     0.031 A 
ATOM     38  C   UNL A   1      41.309  25.360  28.231  1.00  0.00     0.074 A 
ATOM     39  C   UNL A   1      43.278  24.482  29.485  1.00  0.00     0.049 A 
ATOM     40  N   UNL A   1      41.483  26.533  27.723  1.00  0.00    -0.248 NA
ATOM     41  C   UNL A   1      39.900  24.970  28.399  1.00  0.00     0.031 C 
ATOM     42  C   UNL A   1      44.124  23.444  30.086  1.00  0.00     0.029 A 
ATOM     43  N   UNL A   1      43.581  25.586  30.213  1.00  0.00    -0.354 N 
ATOM     44  C   UNL A   1      40.215  27.100  27.652  1.00  0.00     0.074 A 
ATOM     45  C   UNL A   1      39.273  26.048  27.932  1.00  0.00     0.031 C 
ATOM     46  C   UNL A   1      44.643  23.916  31.242  1.00  0.00     0.029 A 
ATOM     47  C   UNL A   1      44.274  25.315  31.382  1.00  0.00     0.049 A 
ATOM     48  H   UNL A   1      43.330  26.497  29.937  1.00  0.00     0.167 HD
ATOM     49  C   UNL A   1      40.033  28.446  27.603  1.00  0.00     0.031 A 
ATOM     50  C   UNL A   1      44.435  26.161  32.428  1.00  0.00     0.031 A 
ATOM     51  C   UNL A   1      41.226  29.140  27.204  1.00  0.00     0.049 A 
ATOM     52  C   UNL A   1      44.136  27.532  31.949  1.00  0.00     0.074 A 
ATOM     53  C   UNL A   1      42.018  29.134  26.074  1.00  0.00     0.029 A 
ATOM     54  N   UNL A   1      41.981  29.722  28.194  1.00  0.00    -0.354 N 
ATOM     55  N   UNL A   1      44.876  28.175  31.090  1.00  0.00    -0.248 NA
ATOM     56  C   UNL A   1      42.771  28.023  32.082  1.00  0.00     0.031 C 
ATOM     57  C   UNL A   1      43.352  29.272  26.559  1.00  0.00     0.029 A 
ATOM     58  C   UNL A   1      43.291  29.402  27.948  1.00  0.00     0.049 A 
ATOM     59  H   UNL A   1      41.644  30.268  28.941  1.00  0.00     0.167 HD
ATOM     60  C   UNL A   1      43.975  28.855  30.281  1.00  0.00     0.074 A 
ATOM     61  C   UNL A   1      42.706  28.808  31.003  1.00  0.00     0.031 C 
ATOM     62  C   UNL A   1      44.272  29.141  28.978  1.00  0.00     0.031 A 
BRANCH  49  63
ATOM     63  C   UNL A   1      38.892  29.134  28.304  1.00  0.00    -0.014 A 
ATOM     64  C   UNL A   1      38.750  28.966  29.691  1.00  0.00     0.009 A 
ATOM     65  C   UNL A   1      37.801  29.704  27.618  1.00  0.00     0.009 A 
ATOM     66  C   UNL A   1      37.553  29.288  30.341  1.00  0.00     0.001 A 
ATOM     67  C   UNL A   1      36.622  30.069  28.270  1.00  0.00     0.001 A 
ATOM     68  C   UNL A   1      36.488  29.833  29.629  1.00  0.00     0.000 A 
ENDBRANCH  49  63
BRANCH  50  69
ATOM     69  C   UNL A   1      44.505  25.816  33.864  1.00  0.00    -0.014 A 
ATOM     70  C   UNL A   1      43.374  25.354  34.552  1.00  0.00     0.009 A 
ATOM     71  C   UNL A   1      45.754  25.702  34.506  1.00  0.00     0.009 A 
ATOM     72  C   UNL A   1      43.492  24.777  35.824  1.00  0.00     0.001 A 
ATOM     73  C   UNL A   1      45.872  25.131  35.777  1.00  0.00     0.001 A 
ATOM     74  C   UNL A   1      44.741  24.655  36.430  1.00  0.00     0.000 A 
ENDBRANCH  50  69
BRANCH  62  75
ATOM     75  C   UNL A   1      45.680  28.886  28.500  1.00  0.00    -0.014 A 
ATOM     76  C   UNL A   1      46.684  29.870  28.543  1.00  0.00     0.009 A 
ATOM     77  C   UNL A   1      46.049  27.571  28.179  1.00  0.00     0.009 A 
ATOM     78  C   UNL A   1      48.014  29.549  28.254  1.00  0.00     0.001 A 
ATOM     79  C   UNL A   1      47.380  27.248  27.909  1.00  0.00     0.001 A 
ATOM     80  C   UNL A   1      48.362  28.237  27.945  1.00  0.00     0.000 A 
ENDBRANCH  62  75
ENDBRANCH  36  37
ENDBRANCH  29  31
ENDBRANCH  28  29
ENDBRANCH  27  28
ENDBRANCH   1  27
TORSDOF 14
ENDMDL
MODEL 2
REMARK VINA RESULT:     -11.8      2.505      6.659
REMARK SMILES C/C(=N\NC(N)=O)c1nnn(-c2ccc(C(=O)OCCOC(=O)c3ccc(-c4c5nc(c(-c6ccccc6)c6ccc([nH]6)c(-c6ccccc6)c6nc(c(-c7ccccc7)c7ccc4[nH]7)C=C6)C=C5)cc3)cc2)c1C
REMARK SMILES IDX 19 1 18 2 16 3 17 4 15 5 12 6 13 7 73 8 14 9 72 10 11 11
REMARK SMILES IDX 8 12 9 13 74 14 10 15 75 16 2 17 1 18 3 19 4 20 5 21 6 23
REMARK SMILES IDX 7 24 20 27 21 28 22 29 23 30 24 31 25 32 71 33 26 34 70 35
REMARK SMILES IDX 27 36 28 37 29 38 64 39 30 40 69 41 63 42 65 43 31 44 68 45
REMARK SMILES IDX 62 46 61 47 32 49 54 50 39 51 53 52 40 53 43 54 52 55 66 56
REMARK SMILES IDX 41 57 42 58 51 60 67 61 44 62 33 63 34 64 38 65 35 66 37 67
REMARK SMILES IDX 36 68 55 69 56 70 60 71 57 72 59 73 58 74 45 75 46 76 50 77
REMARK SMILES IDX 47 78 49 79 48 80
REMARK H PARENT 4 22 6 25 6 26 65 48 43 59
REMARK Flexibility Score: inf
ROOT
ATOM      1  C   UNL A   1      42.632  18.437  26.166  1.00  0.00     0.275 C 
ENDROOT
BRANCH   1   2
ATOM      2  O   UNL A   1      41.658  19.333  25.606  1.00  0.00    -0.458 OA
BRANCH   2   3
ATOM      3  C   UNL A   1      41.267  20.373  26.386  1.00  0.00     0.338 C 
ATOM      4  O   UNL A   1      41.957  20.968  27.202  1.00  0.00    -0.246 OA
BRANCH   3   5
ATOM      5  C   UNL A   1      39.870  20.759  26.060  1.00  0.00     0.060 A 
ATOM      6  C   UNL A   1      37.375  21.545  25.133  1.00  0.00     0.067 A 
ATOM      7  C   UNL A   1      37.770  20.215  24.962  1.00  0.00     0.029 A 
ATOM      8  C   UNL A   1      38.145  22.433  25.891  1.00  0.00     0.029 A 
ATOM      9  C   UNL A   1      39.037  19.832  25.409  1.00  0.00     0.018 A 
ATOM     10  C   UNL A   1      39.390  22.037  26.363  1.00  0.00     0.018 A 
BRANCH   6  11
ATOM     11  N   UNL A   1      36.312  22.059  24.368  1.00  0.00    -0.217 N 
ATOM     12  C   UNL A   1      34.343  22.681  23.681  1.00  0.00     0.132 A 
ATOM     13  N   UNL A   1      35.294  23.257  22.880  1.00  0.00    -0.128 NA
ATOM     14  C   UNL A   1      34.964  21.935  24.664  1.00  0.00     0.071 A 
ATOM     15  N   UNL A   1      36.490  22.948  23.367  1.00  0.00    -0.061 NA
ATOM     16  C   UNL A   1      34.424  21.277  25.879  1.00  0.00     0.069 C 
BRANCH  12  17
ATOM     17  C   UNL A   1      32.927  22.992  23.583  1.00  0.00     0.087 C 
ATOM     18  C   UNL A   1      32.140  22.207  22.563  1.00  0.00     0.071 C 
ATOM     19  N   UNL A   1      32.497  23.899  24.410  1.00  0.00    -0.174 NA
BRANCH  19  20
ATOM     20  N   UNL A   1      31.206  24.346  24.399  1.00  0.00    -0.229 N 
ATOM     21  C   UNL A   1      30.693  25.365  23.626  1.00  0.00     0.332 C 
ATOM     22  H   UNL A   1      30.577  23.895  25.007  1.00  0.00     0.195 HD
ATOM     23  N   UNL A   1      29.370  25.585  23.868  1.00  0.00    -0.350 N 
ATOM     24  O   UNL A   1      31.284  26.034  22.788  1.00  0.00    -0.247 OA
ATOM     25  H   UNL A   1      28.898  25.046  24.542  1.00  0.00     0.161 HD
ATOM     26  H   UNL A   1      28.888  26.284  23.369  1.00  0.00     0.161 HD
ENDBRANCH  19  20
ENDBRANCH  12  17
ENDBRANCH   6  11
ENDBRANCH   3   5
ENDBRANCH   2   3
ENDBRANCH   1   2
BRANCH   1  27
ATOM     27  C   UNL A   1      43.921  18.453  25.356  1.00  0.00     0.275 C 
BRANCH  27  28
ATOM     28  O   UNL A   1      43.892  19.493  24.382  1.00  0.00    -0.458 OA
BRANCH  28  29
ATOM     29  C   UNL A   1      45.098  20.009  24.059  1.00  0.00     0.338 C 
ATOM     30  O   UNL A   1      46.122  19.398  23.800  1.00  0.00    -0.246 OA
BRANCH  29  31
ATOM     31  C   UNL A   1      45.069  21.460  24.256  1.00  0.00     0.060 A 
ATOM     32  C   UNL A   1      46.237  22.056  24.740  1.00  0.00     0.016 A 
ATOM     33  C   UNL A   1      43.829  22.112  24.286  1.00  0.00     0.016 A 
ATOM     34  C   UNL A   1      46.119  23.221  25.466  1.00  0.00     0.010 A 
ATOM     35  C   UNL A   1      43.711  23.264  25.021  1.00  0.00     0.010 A 
ATOM     36  C   UNL A   1      44.841  23.745  25.678  1.00  0.00    -0.014 A 
BRANCH  36  37
ATOM     37  C   UNL A   1      44.704  24.843  26.607  1.00  0.00     0.031 A 
ATOM     38  C   UNL A   1      45.805  25.828  26.545  1.00  0.00     0.074 A 
ATOM     39  C   UNL A   1      43.591  25.003  27.344  1.00  0.00     0.049 A 
ATOM     40  N   UNL A   1      46.609  26.185  27.487  1.00  0.00    -0.248 NA
ATOM     41  C   UNL A   1      46.119  26.396  25.224  1.00  0.00     0.031 C 
ATOM     42  C   UNL A   1      42.325  24.267  27.245  1.00  0.00     0.029 A 
ATOM     43  N   UNL A   1      43.313  25.974  28.251  1.00  0.00    -0.354 N 
ATOM     44  C   UNL A   1      47.440  27.148  26.922  1.00  0.00     0.074 A 
ATOM     45  C   UNL A   1      47.198  27.124  25.503  1.00  0.00     0.031 C 
ATOM     46  C   UNL A   1      41.355  24.977  27.866  1.00  0.00     0.029 A 
ATOM     47  C   UNL A   1      41.960  26.132  28.508  1.00  0.00     0.049 A 
ATOM     48  H   UNL A   1      44.009  26.516  28.687  1.00  0.00     0.167 HD
ATOM     49  C   UNL A   1      48.097  28.063  27.682  1.00  0.00     0.031 A 
ATOM     50  C   UNL A   1      41.383  27.196  29.116  1.00  0.00     0.031 A 
ATOM     51  C   UNL A   1      48.183  27.663  29.059  1.00  0.00     0.049 A 
ATOM     52  C   UNL A   1      42.449  27.936  29.835  1.00  0.00     0.074 A 
ATOM     53  C   UNL A   1      48.754  26.597  29.724  1.00  0.00     0.029 A 
ATOM     54  N   UNL A   1      47.291  28.226  29.939  1.00  0.00    -0.354 N 
ATOM     55  N   UNL A   1      43.082  27.466  30.872  1.00  0.00    -0.248 NA
ATOM     56  C   UNL A   1      43.125  29.019  29.133  1.00  0.00     0.031 C 
ATOM     57  C   UNL A   1      47.843  26.289  30.776  1.00  0.00     0.029 A 
ATOM     58  C   UNL A   1      46.797  27.213  30.721  1.00  0.00     0.049 A 
ATOM     59  H   UNL A   1      47.050  29.178  29.997  1.00  0.00     0.167 HD
ATOM     60  C   UNL A   1      44.396  27.882  30.707  1.00  0.00     0.074 A 
ATOM     61  C   UNL A   1      44.341  28.919  29.680  1.00  0.00     0.031 C 
ATOM     62  C   UNL A   1      45.437  27.151  31.207  1.00  0.00     0.031 A 
BRANCH  49  63
ATOM     63  C   UNL A   1      48.297  29.488  27.238  1.00  0.00    -0.014 A 
ATOM     64  C   UNL A   1      49.579  30.053  27.332  1.00  0.00     0.009 A 
ATOM     65  C   UNL A   1      47.228  30.376  27.002  1.00  0.00     0.009 A 
ATOM     66  C   UNL A   1      49.768  31.438  27.260  1.00  0.00     0.001 A 
ATOM     67  C   UNL A   1      47.419  31.753  26.885  1.00  0.00     0.001 A 
ATOM     68  C   UNL A   1      48.687  32.287  27.043  1.00  0.00     0.000 A 
ENDBRANCH  49  63
BRANCH  50  69
ATOM     69  C   UNL A   1      40.053  27.780  28.840  1.00  0.00    -0.014 A 
ATOM     70  C   UNL A   1      39.056  27.803  29.825  1.00  0.00     0.009 A 
ATOM     71  C   UNL A   1      39.843  28.547  27.677  1.00  0.00     0.009 A 
ATOM     72  C   UNL A   1      37.904  28.584  29.663  1.00  0.00     0.001 A 
ATOM     73  C   UNL A   1      38.692  29.323  27.512  1.00  0.00     0.001 A 
ATOM     74  C   UNL A   1      37.727  29.352  28.513  1.00  0.00     0.000 A 
ENDBRANCH  50  69
BRANCH  62  75
ATOM     75  C   UNL A   1      45.115  25.995  32.122  1.00  0.00    -0.014 A 
ATOM     76  C   UNL A   1      45.021  26.137  33.518  1.00  0.00     0.009 A 
ATOM     77  C   UNL A   1      44.712  24.781  31.547  1.00  0.00     0.009 A 
ATOM     78  C   UNL A   1      44.554  25.087  34.315  1.00  0.00     0.001 A 
ATOM     79  C   UNL A   1      44.227  23.740  32.341  1.00  0.00     0.001 A 
ATOM     80  C   UNL A   1      44.150  23.892  33.725  1.00  0.00     0.000 A 
ENDBRANCH  62  75
ENDBRANCH  36  37
ENDBRANCH  29  31
ENDBRANCH  28  29
ENDBRANCH  27  28
ENDBRANCH   1  27
TORSDOF 14
ENDMDL
MODEL 3
REMARK VINA RESULT:     -11.7      5.197      9.875
REMARK SMILES C/C(=N\NC(N)=O)c1nnn(-c2ccc(C(=O)OCCOC(=O)c3ccc(-c4c5nc(c(-c6ccccc6)c6ccc([nH]6)c(-c6ccccc6)c6nc(c(-c7ccccc7)c7ccc4[nH]7)C=C6)C=C5)cc3)cc2)c1C
REMARK SMILES IDX 19 1 18 2 16 3 17 4 15 5 12 6 13 7 73 8 14 9 72 10 11 11
REMARK SMILES IDX 8 12 9 13 74 14 10 15 75 16 2 17 1 18 3 19 4 20 5 21 6 23
REMARK SMILES IDX 7 24 20 27 21 28 22 29 23 30 24 31 25 32 71 33 26 34 70 35
REMARK SMILES IDX 27 36 28 37 29 38 64 39 30 40 69 41 63 42 65 43 31 44 68 45
REMARK SMILES IDX 62 46 61 47 32 49 54 50 39 51 53 52 40 53 43 54 52 55 66 56
REMARK SMILES IDX 41 57 42 58 51 60 67 61 44 62 33 63 34 64 38 65 35 66 37 67
REMARK SMILES IDX 36 68 55 69 56 70 60 71 57 72 59 73 58 74 45 75 46 76 50 77
REMARK SMILES IDX 47 78 49 79 48 80
REMARK H PARENT 4 22 6 25 6 26 65 48 43 59
REMARK Flexibility Score: inf
ROOT
ATOM      1  C   UNL A   1      32.978  36.145  29.204  1.00  0.00     0.275 C 
ENDROOT
BRANCH   1   2
ATOM      2  O   UNL A   1      32.767  34.736  29.023  1.00  0.00    -0.458 OA
BRANCH   2   3
ATOM      3  C   UNL A   1      33.869  33.978  28.794  1.00  0.00     0.338 C 
ATOM      4  O   UNL A   1      34.999  34.196  29.209  1.00  0.00    -0.246 OA
BRANCH   3   5
ATOM      5  C   UNL A   1      33.505  32.769  28.011  1.00  0.00     0.060 A 
ATOM      6  C   UNL A   1      32.641  30.415  26.823  1.00  0.00     0.067 A 
ATOM      7  C   UNL A   1      31.834  31.553  26.729  1.00  0.00     0.029 A 
ATOM      8  C   UNL A   1      33.928  30.486  27.365  1.00  0.00     0.029 A 
ATOM      9  C   UNL A   1      32.264  32.728  27.350  1.00  0.00     0.018 A 
ATOM     10  C   UNL A   1      34.364  31.667  27.952  1.00  0.00     0.018 A 
BRANCH   6  11
ATOM     11  N   UNL A   1      32.086  29.146  26.570  1.00  0.00    -0.217 N 
ATOM     12  C   UNL A   1      31.561  27.240  25.661  1.00  0.00     0.132 A 
ATOM     13  N   UNL A   1      31.198  27.216  26.983  1.00  0.00    -0.128 NA
ATOM     14  C   UNL A   1      32.163  28.450  25.375  1.00  0.00     0.071 A 
ATOM     15  N   UNL A   1      31.609  28.346  27.547  1.00  0.00    -0.061 NA
ATOM     16  C   UNL A   1      32.898  28.916  24.172  1.00  0.00     0.069 C 
BRANCH  12  17
ATOM     17  C   UNL A   1      31.475  26.079  24.792  1.00  0.00     0.087 C 
ATOM     18  C   UNL A   1      30.219  25.252  24.905  1.00  0.00     0.071 C 
ATOM     19  N   UNL A   1      32.487  25.904  23.994  1.00  0.00    -0.174 NA
BRANCH  19  20
ATOM     20  N   UNL A   1      32.585  24.825  23.162  1.00  0.00    -0.229 N 
ATOM     21  C   UNL A   1      32.972  24.836  21.839  1.00  0.00     0.332 C 
ATOM     22  H   UNL A   1      32.355  23.948  23.547  1.00  0.00     0.195 HD
ATOM     23  N   UNL A   1      32.941  23.594  21.279  1.00  0.00    -0.350 N 
ATOM     24  O   UNL A   1      33.327  25.801  21.175  1.00  0.00    -0.247 OA
ATOM     25  H   UNL A   1      32.656  22.820  21.815  1.00  0.00     0.161 HD
ATOM     26  H   UNL A   1      33.206  23.472  20.338  1.00  0.00     0.161 HD
ENDBRANCH  19  20
ENDBRANCH  12  17
ENDBRANCH   6  11
ENDBRANCH   3   5
ENDBRANCH   2   3
ENDBRANCH   1   2
BRANCH   1  27
ATOM     27  C   UNL A   1      32.580  36.583  30.607  1.00  0.00     0.275 C 
BRANCH  27  28
ATOM     28  O   UNL A   1      33.543  36.150  31.563  1.00  0.00    -0.458 OA
BRANCH  28  29
ATOM     29  C   UNL A   1      33.137  35.147  32.373  1.00  0.00     0.338 C 
ATOM     30  O   UNL A   1      32.009  34.944  32.794  1.00  0.00    -0.246 OA
BRANCH  29  31
ATOM     31  C   UNL A   1      34.309  34.415  32.858  1.00  0.00     0.060 A 
ATOM     32  C   UNL A   1      35.429  35.175  33.208  1.00  0.00     0.016 A 
ATOM     33  C   UNL A   1      34.383  33.034  32.632  1.00  0.00     0.016 A 
ATOM     34  C   UNL A   1      36.670  34.588  33.107  1.00  0.00     0.010 A 
ATOM     35  C   UNL A   1      35.620  32.454  32.517  1.00  0.00     0.010 A 
ATOM     36  C   UNL A   1      36.744  33.264  32.663  1.00  0.00    -0.014 A 
BRANCH  36  37
ATOM     37  C   UNL A   1      38.049  32.722  32.362  1.00  0.00     0.031 A 
ATOM     38  C   UNL A   1      38.957  32.651  33.526  1.00  0.00     0.074 A 
ATOM     39  C   UNL A   1      38.331  32.203  31.153  1.00  0.00     0.049 A 
ATOM     40  N   UNL A   1      40.109  33.209  33.674  1.00  0.00    -0.248 NA
ATOM     41  C   UNL A   1      38.452  31.962  34.725  1.00  0.00     0.031 C 
ATOM     42  C   UNL A   1      37.409  31.940  30.042  1.00  0.00     0.029 A 
ATOM     43  N   UNL A   1      39.498  31.661  30.721  1.00  0.00    -0.354 N 
ATOM     44  C   UNL A   1      40.556  32.813  34.931  1.00  0.00     0.074 A 
ATOM     45  C   UNL A   1      39.440  32.183  35.589  1.00  0.00     0.031 C 
ATOM     46  C   UNL A   1      37.991  31.069  29.185  1.00  0.00     0.029 A 
ATOM     47  C   UNL A   1      39.356  30.829  29.621  1.00  0.00     0.049 A 
ATOM     48  H   UNL A   1      40.365  31.842  31.149  1.00  0.00     0.167 HD
ATOM     49  C   UNL A   1      41.875  32.818  35.258  1.00  0.00     0.031 A 
ATOM     50  C   UNL A   1      40.271  29.935  29.175  1.00  0.00     0.031 A 
ATOM     51  C   UNL A   1      42.650  33.645  34.375  1.00  0.00     0.049 A 
ATOM     52  C   UNL A   1      41.581  30.295  29.771  1.00  0.00     0.074 A 
ATOM     53  C   UNL A   1      42.651  34.988  34.060  1.00  0.00     0.029 A 
ATOM     54  N   UNL A   1      43.352  33.019  33.375  1.00  0.00    -0.354 N 
ATOM     55  N   UNL A   1      42.238  31.379  29.472  1.00  0.00    -0.248 NA
ATOM     56  C   UNL A   1      41.953  29.672  31.034  1.00  0.00     0.031 C 
ATOM     57  C   UNL A   1      42.935  35.038  32.663  1.00  0.00     0.029 A 
ATOM     58  C   UNL A   1      43.137  33.728  32.221  1.00  0.00     0.049 A 
ATOM     59  H   UNL A   1      43.907  32.210  33.467  1.00  0.00     0.167 HD
ATOM     60  C   UNL A   1      42.787  31.807  30.672  1.00  0.00     0.074 A 
ATOM     61  C   UNL A   1      42.668  30.665  31.574  1.00  0.00     0.031 C 
ATOM     62  C   UNL A   1      43.024  33.132  30.908  1.00  0.00     0.031 A 
BRANCH  49  63
ATOM     63  C   UNL A   1      42.497  31.755  36.126  1.00  0.00    -0.014 A 
ATOM     64  C   UNL A   1      43.262  32.150  37.235  1.00  0.00     0.009 A 
ATOM     65  C   UNL A   1      42.593  30.405  35.735  1.00  0.00     0.009 A 
ATOM     66  C   UNL A   1      44.128  31.254  37.873  1.00  0.00     0.001 A 
ATOM     67  C   UNL A   1      43.421  29.497  36.398  1.00  0.00     0.001 A 
ATOM     68  C   UNL A   1      44.211  29.930  37.450  1.00  0.00     0.000 A 
ENDBRANCH  49  63
BRANCH  50  69
ATOM     69  C   UNL A   1      40.015  28.622  28.545  1.00  0.00    -0.014 A 
ATOM     70  C   UNL A   1      40.550  28.308  27.288  1.00  0.00     0.009 A 
ATOM     71  C   UNL A   1      39.446  27.574  29.295  1.00  0.00     0.009 A 
ATOM     72  C   UNL A   1      40.539  26.989  26.812  1.00  0.00     0.001 A 
ATOM     73  C   UNL A   1      39.430  26.260  28.819  1.00  0.00     0.001 A 
ATOM     74  C   UNL A   1      39.990  25.965  27.581  1.00  0.00     0.000 A 
ENDBRANCH  50  69
BRANCH  62  75
ATOM     75  C   UNL A   1      42.870  34.095  29.757  1.00  0.00    -0.014 A 
ATOM     76  C   UNL A   1      43.838  34.227  28.746  1.00  0.00     0.009 A 
ATOM     77  C   UNL A   1      41.638  34.743  29.588  1.00  0.00     0.009 A 
ATOM     78  C   UNL A   1      43.585  35.000  27.608  1.00  0.00     0.001 A 
ATOM     79  C   UNL A   1      41.378  35.498  28.443  1.00  0.00     0.001 A 
ATOM     80  C   UNL A   1      42.352  35.629  27.454  1.00  0.00     0.000 A 
ENDBRANCH  62  75
ENDBRANCH  36  37
ENDBRANCH  29  31
ENDBRANCH  28  29
ENDBRANCH  27  28
ENDBRANCH   1  27
TORSDOF 14
ENDMDL
