MODEL 1
REMARK VINA RESULT:      -9.2      0.000      0.000
REMARK SMILES CCc1cc(/C=C/C(=O)OCCOC(=O)c2ccc(-c3c4nc(c(-c5ccccc5)c5ccc([nH]5)c(-c5ccccc5)c5nc(c(-c6ccccc6)c6ccc3[nH]6)C=C5)C=C4)cc2)cc(C(=O)c2ccccc2)c1
REMARK SMILES IDX 11 1 10 2 8 3 9 4 7 5 6 6 5 7 3 8 4 9 74 10 65 11 64 12 2 13
REMARK SMILES IDX 1 14 66 15 67 16 68 17 69 18 73 19 70 20 72 21 71 22 12 23
REMARK SMILES IDX 13 24 14 25 15 26 16 27 17 28 63 29 18 30 62 31 19 32 20 33
REMARK SMILES IDX 21 34 56 35 22 36 61 37 55 38 57 39 23 40 60 41 54 42 53 43
REMARK SMILES IDX 24 45 46 46 31 47 45 48 32 49 35 50 44 51 58 52 33 53 34 54
REMARK SMILES IDX 43 56 59 57 36 58 25 59 26 60 30 61 27 62 29 63 28 64 47 65
REMARK SMILES IDX 48 66 52 67 49 68 51 69 50 70 37 71 38 72 42 73 39 74 41 75
REMARK SMILES IDX 40 76
REMARK H PARENT 57 44 35 55
REMARK Flexibility Score: inf
ROOT
ATOM      1  C   UNL A   1      33.271  35.380  29.899  1.00  0.00     0.275 C 
ENDROOT
BRANCH   1   2
ATOM      2  O   UNL A   1      33.276  34.602  31.110  1.00  0.00    -0.459 OA
BRANCH   2   3
ATOM      3  C   UNL A   1      33.998  35.111  32.136  1.00  0.00     0.330 C 
ATOM      4  O   UNL A   1      33.850  36.211  32.650  1.00  0.00    -0.247 OA
BRANCH   3   5
ATOM      5  C   UNL A   1      34.978  34.146  32.676  1.00  0.00     0.094 C 
ATOM      6  C   UNL A   1      35.409  33.038  32.051  1.00  0.00     0.015 C 
BRANCH   6   7
ATOM      7  C   UNL A   1      36.276  32.044  32.704  1.00  0.00    -0.024 A 
ATOM      8  C   UNL A   1      37.359  29.846  32.712  1.00  0.00    -0.047 A 
ATOM      9  C   UNL A   1      36.499  30.784  32.126  1.00  0.00     0.011 A 
ATOM     10  C   UNL A   1      37.988  30.185  33.921  1.00  0.00     0.016 A 
ATOM     11  C   UNL A   1      37.816  31.452  34.494  1.00  0.00     0.023 A 
ATOM     12  C   UNL A   1      36.956  32.375  33.881  1.00  0.00     0.020 A 
BRANCH   8  13
ATOM     13  C   UNL A   1      37.615  28.476  32.121  1.00  0.00     0.032 C 
ATOM     14  C   UNL A   1      38.922  27.799  32.513  1.00  0.00     0.009 C 
ENDBRANCH   8  13
BRANCH  11  15
ATOM     15  C   UNL A   1      38.473  31.843  35.774  1.00  0.00     0.193 C 
ATOM     16  O   UNL A   1      38.707  30.983  36.621  1.00  0.00    -0.289 OA
BRANCH  15  17
ATOM     17  C   UNL A   1      38.891  33.239  36.061  1.00  0.00     0.022 A 
ATOM     18  C   UNL A   1      39.347  34.023  34.993  1.00  0.00     0.012 A 
ATOM     19  C   UNL A   1      38.881  33.766  37.357  1.00  0.00     0.012 A 
ATOM     20  C   UNL A   1      39.748  35.341  35.214  1.00  0.00     0.001 A 
ATOM     21  C   UNL A   1      39.279  35.088  37.572  1.00  0.00     0.001 A 
ATOM     22  C   UNL A   1      39.706  35.874  36.502  1.00  0.00     0.000 A 
ENDBRANCH  15  17
ENDBRANCH  11  15
ENDBRANCH   6   7
ENDBRANCH   3   5
ENDBRANCH   2   3
ENDBRANCH   1   2
BRANCH   1  23
ATOM     23  C   UNL A   1      33.510  34.494  28.671  1.00  0.00     0.275 C 
BRANCH  23  24
ATOM     24  O   UNL A   1      34.821  33.898  28.684  1.00  0.00    -0.458 OA
BRANCH  24  25
ATOM     25  C   UNL A   1      34.870  32.621  28.236  1.00  0.00     0.338 C 
ATOM     26  O   UNL A   1      34.002  32.025  27.618  1.00  0.00    -0.246 OA
BRANCH  25  27
ATOM     27  C   UNL A   1      36.193  32.025  28.504  1.00  0.00     0.060 A 
ATOM     28  C   UNL A   1      36.292  30.631  28.467  1.00  0.00     0.016 A 
ATOM     29  C   UNL A   1      37.295  32.801  28.878  1.00  0.00     0.016 A 
ATOM     30  C   UNL A   1      37.482  30.004  28.830  1.00  0.00     0.010 A 
ATOM     31  C   UNL A   1      38.490  32.170  29.245  1.00  0.00     0.010 A 
ATOM     32  C   UNL A   1      38.582  30.767  29.247  1.00  0.00    -0.014 A 
BRANCH  32  33
ATOM     33  C   UNL A   1      39.791  30.073  29.753  1.00  0.00     0.031 A 
ATOM     34  C   UNL A   1      40.527  30.621  30.943  1.00  0.00     0.074 A 
ATOM     35  C   UNL A   1      40.196  28.922  29.186  1.00  0.00     0.049 A 
ATOM     36  N   UNL A   1      41.557  30.122  31.580  1.00  0.00    -0.248 NA
ATOM     37  C   UNL A   1      40.041  31.897  31.490  1.00  0.00     0.031 C 
ATOM     38  C   UNL A   1      39.560  28.275  28.040  1.00  0.00     0.029 A 
ATOM     39  N   UNL A   1      41.237  28.089  29.512  1.00  0.00    -0.354 N 
ATOM     40  C   UNL A   1      41.845  31.023  32.597  1.00  0.00     0.074 A 
ATOM     41  C   UNL A   1      40.899  32.112  32.477  1.00  0.00     0.031 C 
ATOM     42  C   UNL A   1      40.218  27.136  27.764  1.00  0.00     0.029 A 
ATOM     43  C   UNL A   1      41.329  26.986  28.699  1.00  0.00     0.049 A 
ATOM     44  H   UNL A   1      41.857  28.265  30.255  1.00  0.00     0.167 HD
ATOM     45  C   UNL A   1      42.805  30.948  33.552  1.00  0.00     0.031 A 
ATOM     46  C   UNL A   1      42.212  25.969  28.707  1.00  0.00     0.031 A 
ATOM     47  C   UNL A   1      43.754  29.873  33.672  1.00  0.00     0.049 A 
ATOM     48  C   UNL A   1      43.291  25.927  29.754  1.00  0.00     0.074 A 
ATOM     49  C   UNL A   1      44.745  29.701  34.623  1.00  0.00     0.029 A 
ATOM     50  N   UNL A   1      43.834  28.791  32.810  1.00  0.00    -0.354 N 
ATOM     51  N   UNL A   1      43.521  26.763  30.736  1.00  0.00    -0.248 NA
ATOM     52  C   UNL A   1      44.223  24.791  29.696  1.00  0.00     0.031 C 
ATOM     53  C   UNL A   1      45.456  28.536  34.310  1.00  0.00     0.029 A 
ATOM     54  C   UNL A   1      44.875  27.960  33.193  1.00  0.00     0.049 A 
ATOM     55  H   UNL A   1      43.241  28.637  32.040  1.00  0.00     0.167 HD
ATOM     56  C   UNL A   1      44.609  26.243  31.428  1.00  0.00     0.074 A 
ATOM     57  C   UNL A   1      44.982  25.013  30.760  1.00  0.00     0.031 C 
ATOM     58  C   UNL A   1      45.240  26.742  32.518  1.00  0.00     0.031 A 
BRANCH  45  59
ATOM     59  C   UNL A   1      42.890  32.086  34.528  1.00  0.00    -0.014 A 
ATOM     60  C   UNL A   1      43.453  33.319  34.162  1.00  0.00     0.009 A 
ATOM     61  C   UNL A   1      42.375  31.931  35.824  1.00  0.00     0.009 A 
ATOM     62  C   UNL A   1      43.530  34.362  35.086  1.00  0.00     0.001 A 
ATOM     63  C   UNL A   1      42.433  32.984  36.739  1.00  0.00     0.001 A 
ATOM     64  C   UNL A   1      43.018  34.194  36.372  1.00  0.00     0.000 A 
ENDBRANCH  45  59
BRANCH  46  65
ATOM     65  C   UNL A   1      42.112  24.897  27.684  1.00  0.00    -0.014 A 
ATOM     66  C   UNL A   1      42.802  25.002  26.468  1.00  0.00     0.009 A 
ATOM     67  C   UNL A   1      41.316  23.765  27.921  1.00  0.00     0.009 A 
ATOM     68  C   UNL A   1      42.683  24.001  25.500  1.00  0.00     0.001 A 
ATOM     69  C   UNL A   1      41.220  22.755  26.962  1.00  0.00     0.001 A 
ATOM     70  C   UNL A   1      41.897  22.878  25.750  1.00  0.00     0.000 A 
ENDBRANCH  46  65
BRANCH  58  71
ATOM     71  C   UNL A   1      46.384  25.942  33.073  1.00  0.00    -0.014 A 
ATOM     72  C   UNL A   1      46.173  24.943  34.035  1.00  0.00     0.009 A 
ATOM     73  C   UNL A   1      47.687  26.171  32.604  1.00  0.00     0.009 A 
ATOM     74  C   UNL A   1      47.250  24.212  34.542  1.00  0.00     0.001 A 
ATOM     75  C   UNL A   1      48.759  25.422  33.094  1.00  0.00     0.001 A 
ATOM     76  C   UNL A   1      48.541  24.450  34.069  1.00  0.00     0.000 A 
ENDBRANCH  58  71
ENDBRANCH  32  33
ENDBRANCH  25  27
ENDBRANCH  24  25
ENDBRANCH  23  24
ENDBRANCH   1  23
TORSDOF 15
ENDMDL
MODEL 2
REMARK VINA RESULT:      -9.0      5.122     11.434
REMARK SMILES CCc1cc(/C=C/C(=O)OCCOC(=O)c2ccc(-c3c4nc(c(-c5ccccc5)c5ccc([nH]5)c(-c5ccccc5)c5nc(c(-c6ccccc6)c6ccc3[nH]6)C=C5)C=C4)cc2)cc(C(=O)c2ccccc2)c1
REMARK SMILES IDX 11 1 10 2 8 3 9 4 7 5 6 6 5 7 3 8 4 9 74 10 65 11 64 12 2 13
REMARK SMILES IDX 1 14 66 15 67 16 68 17 69 18 73 19 70 20 72 21 71 22 12 23
REMARK SMILES IDX 13 24 14 25 15 26 16 27 17 28 63 29 18 30 62 31 19 32 20 33
REMARK SMILES IDX 21 34 56 35 22 36 61 37 55 38 57 39 23 40 60 41 54 42 53 43
REMARK SMILES IDX 24 45 46 46 31 47 45 48 32 49 35 50 44 51 58 52 33 53 34 54
REMARK SMILES IDX 43 56 59 57 36 58 25 59 26 60 30 61 27 62 29 63 28 64 47 65
REMARK SMILES IDX 48 66 52 67 49 68 51 69 50 70 37 71 38 72 42 73 39 74 41 75
REMARK SMILES IDX 40 76
REMARK H PARENT 57 44 35 55
REMARK Flexibility Score: inf
ROOT
ATOM      1  C   UNL A   1      42.550  21.043  26.046  1.00  0.00     0.275 C 
ENDROOT
BRANCH   1   2
ATOM      2  O   UNL A   1      41.235  21.415  25.594  1.00  0.00    -0.459 OA
BRANCH   2   3
ATOM      3  C   UNL A   1      40.269  21.440  26.541  1.00  0.00     0.330 C 
ATOM      4  O   UNL A   1      40.442  21.445  27.752  1.00  0.00    -0.247 OA
BRANCH   3   5
ATOM      5  C   UNL A   1      38.912  21.556  25.968  1.00  0.00     0.094 C 
ATOM      6  C   UNL A   1      38.198  22.690  25.874  1.00  0.00     0.015 C 
BRANCH   6   7
ATOM      7  C   UNL A   1      36.797  22.711  25.425  1.00  0.00    -0.024 A 
ATOM      8  C   UNL A   1      34.962  23.818  24.237  1.00  0.00    -0.047 A 
ATOM      9  C   UNL A   1      36.280  23.805  24.712  1.00  0.00     0.011 A 
ATOM     10  C   UNL A   1      34.145  22.709  24.510  1.00  0.00     0.016 A 
ATOM     11  C   UNL A   1      34.651  21.587  25.181  1.00  0.00     0.023 A 
ATOM     12  C   UNL A   1      35.978  21.597  25.637  1.00  0.00     0.020 A 
BRANCH   8  13
ATOM     13  C   UNL A   1      34.370  24.984  23.474  1.00  0.00     0.032 C 
ATOM     14  C   UNL A   1      32.973  24.782  22.900  1.00  0.00     0.009 C 
ENDBRANCH   8  13
BRANCH  11  15
ATOM     15  C   UNL A   1      33.811  20.393  25.482  1.00  0.00     0.193 C 
ATOM     16  O   UNL A   1      33.195  20.339  26.545  1.00  0.00    -0.289 OA
BRANCH  15  17
ATOM     17  C   UNL A   1      33.660  19.265  24.529  1.00  0.00     0.022 A 
ATOM     18  C   UNL A   1      32.586  19.301  23.630  1.00  0.00     0.012 A 
ATOM     19  C   UNL A   1      34.525  18.165  24.536  1.00  0.00     0.012 A 
ATOM     20  C   UNL A   1      32.405  18.264  22.713  1.00  0.00     0.001 A 
ATOM     21  C   UNL A   1      34.342  17.132  23.614  1.00  0.00     0.001 A 
ATOM     22  C   UNL A   1      33.288  17.185  22.701  1.00  0.00     0.000 A 
ENDBRANCH  15  17
ENDBRANCH  11  15
ENDBRANCH   6   7
ENDBRANCH   3   5
ENDBRANCH   2   3
ENDBRANCH   1   2
BRANCH   1  23
ATOM     23  C   UNL A   1      43.628  21.921  25.400  1.00  0.00     0.275 C 
BRANCH  23  24
ATOM     24  O   UNL A   1      43.078  23.138  24.860  1.00  0.00    -0.458 OA
BRANCH  24  25
ATOM     25  C   UNL A   1      43.801  24.253  25.121  1.00  0.00     0.338 C 
ATOM     26  O   UNL A   1      44.835  24.603  24.575  1.00  0.00    -0.246 OA
BRANCH  25  27
ATOM     27  C   UNL A   1      43.117  25.094  26.122  1.00  0.00     0.060 A 
ATOM     28  C   UNL A   1      43.527  26.426  26.233  1.00  0.00     0.016 A 
ATOM     29  C   UNL A   1      42.163  24.574  27.002  1.00  0.00     0.016 A 
ATOM     30  C   UNL A   1      43.007  27.237  27.240  1.00  0.00     0.010 A 
ATOM     31  C   UNL A   1      41.642  25.389  28.015  1.00  0.00     0.010 A 
ATOM     32  C   UNL A   1      42.080  26.718  28.154  1.00  0.00    -0.014 A 
BRANCH  32  33
ATOM     33  C   UNL A   1      41.642  27.560  29.294  1.00  0.00     0.031 A 
ATOM     34  C   UNL A   1      42.413  27.536  30.584  1.00  0.00     0.074 A 
ATOM     35  C   UNL A   1      40.591  28.388  29.157  1.00  0.00     0.049 A 
ATOM     36  N   UNL A   1      42.235  28.251  31.667  1.00  0.00    -0.248 NA
ATOM     37  C   UNL A   1      43.532  26.584  30.667  1.00  0.00     0.031 C 
ATOM     38  C   UNL A   1      39.771  28.520  27.954  1.00  0.00     0.029 A 
ATOM     39  N   UNL A   1      40.044  29.285  30.040  1.00  0.00    -0.354 N 
ATOM     40  C   UNL A   1      43.214  27.834  32.560  1.00  0.00     0.074 A 
ATOM     41  C   UNL A   1      43.965  26.785  31.903  1.00  0.00     0.031 C 
ATOM     42  C   UNL A   1      38.830  29.456  28.170  1.00  0.00     0.029 A 
ATOM     43  C   UNL A   1      38.970  29.971  29.529  1.00  0.00     0.049 A 
ATOM     44  H   UNL A   1      40.389  29.423  30.951  1.00  0.00     0.167 HD
ATOM     45  C   UNL A   1      43.470  28.287  33.811  1.00  0.00     0.031 A 
ATOM     46  C   UNL A   1      38.186  30.908  30.094  1.00  0.00     0.031 A 
ATOM     47  C   UNL A   1      42.723  29.323  34.473  1.00  0.00     0.049 A 
ATOM     48  C   UNL A   1      38.468  31.369  31.497  1.00  0.00     0.074 A 
ATOM     49  C   UNL A   1      42.927  29.864  35.731  1.00  0.00     0.029 A 
ATOM     50  N   UNL A   1      41.622  29.970  33.934  1.00  0.00    -0.354 N 
ATOM     51  N   UNL A   1      39.425  30.997  32.311  1.00  0.00    -0.248 NA
ATOM     52  C   UNL A   1      37.566  32.389  32.052  1.00  0.00     0.031 C 
ATOM     53  C   UNL A   1      41.922  30.808  35.971  1.00  0.00     0.029 A 
ATOM     54  C   UNL A   1      41.122  30.887  34.843  1.00  0.00     0.049 A 
ATOM     55  H   UNL A   1      41.251  29.801  33.038  1.00  0.00     0.167 HD
ATOM     56  C   UNL A   1      39.255  31.753  33.465  1.00  0.00     0.074 A 
ATOM     57  C   UNL A   1      38.112  32.614  33.239  1.00  0.00     0.031 C 
ATOM     58  C   UNL A   1      39.981  31.734  34.609  1.00  0.00     0.031 A 
BRANCH  45  59
ATOM     59  C   UNL A   1      44.599  27.635  34.558  1.00  0.00    -0.014 A 
ATOM     60  C   UNL A   1      45.910  28.130  34.473  1.00  0.00     0.009 A 
ATOM     61  C   UNL A   1      44.340  26.527  35.379  1.00  0.00     0.009 A 
ATOM     62  C   UNL A   1      46.946  27.505  35.169  1.00  0.00     0.001 A 
ATOM     63  C   UNL A   1      45.375  25.918  36.091  1.00  0.00     0.001 A 
ATOM     64  C   UNL A   1      46.678  26.402  35.979  1.00  0.00     0.000 A 
ENDBRANCH  45  59
BRANCH  46  65
ATOM     65  C   UNL A   1      37.050  31.480  29.326  1.00  0.00    -0.014 A 
ATOM     66  C   UNL A   1      35.865  30.752  29.154  1.00  0.00     0.009 A 
ATOM     67  C   UNL A   1      37.154  32.760  28.758  1.00  0.00     0.009 A 
ATOM     68  C   UNL A   1      34.810  31.288  28.409  1.00  0.00     0.001 A 
ATOM     69  C   UNL A   1      36.089  33.301  28.037  1.00  0.00     0.001 A 
ATOM     70  C   UNL A   1      34.921  32.562  27.856  1.00  0.00     0.000 A 
ENDBRANCH  46  65
BRANCH  58  71
ATOM     71  C   UNL A   1      39.578  32.693  35.693  1.00  0.00    -0.014 A 
ATOM     72  C   UNL A   1      38.630  32.337  36.664  1.00  0.00     0.009 A 
ATOM     73  C   UNL A   1      40.177  33.961  35.759  1.00  0.00     0.009 A 
ATOM     74  C   UNL A   1      38.265  33.244  37.662  1.00  0.00     0.001 A 
ATOM     75  C   UNL A   1      39.828  34.857  36.772  1.00  0.00     0.001 A 
ATOM     76  C   UNL A   1      38.866  34.501  37.716  1.00  0.00     0.000 A 
ENDBRANCH  58  71
ENDBRANCH  32  33
ENDBRANCH  25  27
ENDBRANCH  24  25
ENDBRANCH  23  24
ENDBRANCH   1  23
TORSDOF 15
ENDMDL
MODEL 3
REMARK VINA RESULT:      -9.0      4.622     10.617
REMARK SMILES CCc1cc(/C=C/C(=O)OCCOC(=O)c2ccc(-c3c4nc(c(-c5ccccc5)c5ccc([nH]5)c(-c5ccccc5)c5nc(c(-c6ccccc6)c6ccc3[nH]6)C=C5)C=C4)cc2)cc(C(=O)c2ccccc2)c1
REMARK SMILES IDX 11 1 10 2 8 3 9 4 7 5 6 6 5 7 3 8 4 9 74 10 65 11 64 12 2 13
REMARK SMILES IDX 1 14 66 15 67 16 68 17 69 18 73 19 70 20 72 21 71 22 12 23
REMARK SMILES IDX 13 24 14 25 15 26 16 27 17 28 63 29 18 30 62 31 19 32 20 33
REMARK SMILES IDX 21 34 56 35 22 36 61 37 55 38 57 39 23 40 60 41 54 42 53 43
REMARK SMILES IDX 24 45 46 46 31 47 45 48 32 49 35 50 44 51 58 52 33 53 34 54
REMARK SMILES IDX 43 56 59 57 36 58 25 59 26 60 30 61 27 62 29 63 28 64 47 65
REMARK SMILES IDX 48 66 52 67 49 68 51 69 50 70 37 71 38 72 42 73 39 74 41 75
REMARK SMILES IDX 40 76
REMARK H PARENT 57 44 35 55
REMARK Flexibility Score: inf
ROOT
ATOM      1  C   UNL A   1      42.636  21.149  26.125  1.00  0.00     0.275 C 
ENDROOT
BRANCH   1   2
ATOM      2  O   UNL A   1      41.327  21.386  25.574  1.00  0.00    -0.459 OA
BRANCH   2   3
ATOM      3  C   UNL A   1      40.303  21.378  26.459  1.00  0.00     0.330 C 
ATOM      4  O   UNL A   1      40.397  21.439  27.677  1.00  0.00    -0.247 OA
BRANCH   3   5
ATOM      5  C   UNL A   1      38.981  21.378  25.799  1.00  0.00     0.094 C 
ATOM      6  C   UNL A   1      38.177  22.445  25.663  1.00  0.00     0.015 C 
BRANCH   6   7
ATOM      7  C   UNL A   1      36.811  22.346  25.124  1.00  0.00    -0.024 A 
ATOM      8  C   UNL A   1      34.801  21.025  24.657  1.00  0.00    -0.047 A 
ATOM      9  C   UNL A   1      36.118  21.124  25.123  1.00  0.00     0.011 A 
ATOM     10  C   UNL A   1      34.181  22.183  24.161  1.00  0.00     0.016 A 
ATOM     11  C   UNL A   1      34.835  23.422  24.193  1.00  0.00     0.023 A 
ATOM     12  C   UNL A   1      36.151  23.495  24.674  1.00  0.00     0.020 A 
BRANCH   8  13
ATOM     13  C   UNL A   1      34.028  19.723  24.632  1.00  0.00     0.032 C 
ATOM     14  C   UNL A   1      32.549  19.802  24.992  1.00  0.00     0.009 C 
ENDBRANCH   8  13
BRANCH  11  15
ATOM     15  C   UNL A   1      34.202  24.671  23.679  1.00  0.00     0.193 C 
ATOM     16  O   UNL A   1      34.103  24.843  22.466  1.00  0.00    -0.289 OA
BRANCH  15  17
ATOM     17  C   UNL A   1      33.653  25.715  24.581  1.00  0.00     0.022 A 
ATOM     18  C   UNL A   1      33.991  27.050  24.327  1.00  0.00     0.012 A 
ATOM     19  C   UNL A   1      32.855  25.397  25.686  1.00  0.00     0.012 A 
ATOM     20  C   UNL A   1      33.497  28.066  25.147  1.00  0.00     0.001 A 
ATOM     21  C   UNL A   1      32.359  26.418  26.501  1.00  0.00     0.001 A 
ATOM     22  C   UNL A   1      32.675  27.749  26.228  1.00  0.00     0.000 A 
ENDBRANCH  15  17
ENDBRANCH  11  15
ENDBRANCH   6   7
ENDBRANCH   3   5
ENDBRANCH   2   3
ENDBRANCH   1   2
BRANCH   1  23
ATOM     23  C   UNL A   1      43.721  21.838  25.290  1.00  0.00     0.275 C 
BRANCH  23  24
ATOM     24  O   UNL A   1      43.265  23.089  24.741  1.00  0.00    -0.458 OA
BRANCH  24  25
ATOM     25  C   UNL A   1      44.005  24.168  25.093  1.00  0.00     0.338 C 
ATOM     26  O   UNL A   1      45.094  24.489  24.646  1.00  0.00    -0.246 OA
BRANCH  25  27
ATOM     27  C   UNL A   1      43.270  25.012  26.055  1.00  0.00     0.060 A 
ATOM     28  C   UNL A   1      43.807  26.268  26.352  1.00  0.00     0.016 A 
ATOM     29  C   UNL A   1      42.134  24.553  26.728  1.00  0.00     0.016 A 
ATOM     30  C   UNL A   1      43.228  27.060  27.341  1.00  0.00     0.010 A 
ATOM     31  C   UNL A   1      41.554  25.349  27.724  1.00  0.00     0.010 A 
ATOM     32  C   UNL A   1      42.113  26.596  28.053  1.00  0.00    -0.014 A 
BRANCH  32  33
ATOM     33  C   UNL A   1      41.597  27.399  29.188  1.00  0.00     0.031 A 
ATOM     34  C   UNL A   1      42.325  27.392  30.503  1.00  0.00     0.074 A 
ATOM     35  C   UNL A   1      40.513  28.179  29.027  1.00  0.00     0.049 A 
ATOM     36  N   UNL A   1      42.077  28.081  31.589  1.00  0.00    -0.248 NA
ATOM     37  C   UNL A   1      43.485  26.493  30.612  1.00  0.00     0.031 C 
ATOM     38  C   UNL A   1      39.729  28.291  27.798  1.00  0.00     0.029 A 
ATOM     39  N   UNL A   1      39.895  29.035  29.903  1.00  0.00    -0.354 N 
ATOM     40  C   UNL A   1      43.044  27.697  32.510  1.00  0.00     0.074 A 
ATOM     41  C   UNL A   1      43.866  26.695  31.865  1.00  0.00     0.031 C 
ATOM     42  C   UNL A   1      38.738  29.177  27.995  1.00  0.00     0.029 A 
ATOM     43  C   UNL A   1      38.807  29.678  29.365  1.00  0.00     0.049 A 
ATOM     44  H   UNL A   1      40.202  29.175  30.828  1.00  0.00     0.167 HD
ATOM     45  C   UNL A   1      43.237  28.142  33.775  1.00  0.00     0.031 A 
ATOM     46  C   UNL A   1      37.960  30.568  29.916  1.00  0.00     0.031 A 
ATOM     47  C   UNL A   1      42.419  29.132  34.426  1.00  0.00     0.049 A 
ATOM     48  C   UNL A   1      38.173  31.019  31.334  1.00  0.00     0.074 A 
ATOM     49  C   UNL A   1      42.554  29.663  35.697  1.00  0.00     0.029 A 
ATOM     50  N   UNL A   1      41.307  29.734  33.858  1.00  0.00    -0.354 N 
ATOM     51  N   UNL A   1      39.119  30.681  32.175  1.00  0.00    -0.248 NA
ATOM     52  C   UNL A   1      37.205  31.988  31.871  1.00  0.00     0.031 C 
ATOM     53  C   UNL A   1      41.498  30.554  35.916  1.00  0.00     0.029 A 
ATOM     54  C   UNL A   1      40.733  30.612  34.762  1.00  0.00     0.049 A 
ATOM     55  H   UNL A   1      40.975  29.561  32.948  1.00  0.00     0.167 HD
ATOM     56  C   UNL A   1      38.874  31.410  33.333  1.00  0.00     0.074 A 
ATOM     57  C   UNL A   1      37.700  32.220  33.079  1.00  0.00     0.031 C 
ATOM     58  C   UNL A   1      39.562  31.408  34.501  1.00  0.00     0.031 A 
BRANCH  45  59
ATOM     59  C   UNL A   1      44.369  27.533  34.551  1.00  0.00    -0.014 A 
ATOM     60  C   UNL A   1      44.215  26.313  35.228  1.00  0.00     0.009 A 
ATOM     61  C   UNL A   1      45.616  28.177  34.582  1.00  0.00     0.009 A 
ATOM     62  C   UNL A   1      45.278  25.768  35.950  1.00  0.00     0.001 A 
ATOM     63  C   UNL A   1      46.684  27.616  35.286  1.00  0.00     0.001 A 
ATOM     64  C   UNL A   1      46.511  26.418  35.976  1.00  0.00     0.000 A 
ENDBRANCH  45  59
BRANCH  46  65
ATOM     65  C   UNL A   1      36.825  31.097  29.118  1.00  0.00    -0.014 A 
ATOM     66  C   UNL A   1      36.777  32.450  28.752  1.00  0.00     0.009 A 
ATOM     67  C   UNL A   1      35.781  30.247  28.723  1.00  0.00     0.009 A 
ATOM     68  C   UNL A   1      35.694  32.946  28.021  1.00  0.00     0.001 A 
ATOM     69  C   UNL A   1      34.713  30.740  27.972  1.00  0.00     0.001 A 
ATOM     70  C   UNL A   1      34.666  32.091  27.629  1.00  0.00     0.000 A 
ENDBRANCH  46  65
BRANCH  58  71
ATOM     71  C   UNL A   1      39.077  32.330  35.583  1.00  0.00    -0.014 A 
ATOM     72  C   UNL A   1      38.168  31.892  36.558  1.00  0.00     0.009 A 
ATOM     73  C   UNL A   1      39.559  33.647  35.644  1.00  0.00     0.009 A 
ATOM     74  C   UNL A   1      37.726  32.766  37.554  1.00  0.00     0.001 A 
ATOM     75  C   UNL A   1      39.134  34.511  36.655  1.00  0.00     0.001 A 
ATOM     76  C   UNL A   1      38.212  34.073  37.603  1.00  0.00     0.000 A 
ENDBRANCH  58  71
ENDBRANCH  32  33
ENDBRANCH  25  27
ENDBRANCH  24  25
ENDBRANCH  23  24
ENDBRANCH   1  23
TORSDOF 15
ENDMDL
