MODEL 1
REMARK VINA RESULT:     -11.1      0.000      0.000
REMARK SMILES O=C(OCCOC(=O)C1CC[NH+]([C@@H]2CCO[C@]3(CCOC3)C2)CC1)c1ccc(-c2c3nc(c(-c4ccccc4)c4ccc([nH]4)c(-c4ccccc4)c4nc(c(-c5ccccc5)c5ccc2[nH]5)C=C4)C=C3)cc1
REMARK SMILES IDX 4 1 3 2 2 3 1 4 25 5 26 6 72 7 27 8 71 9 28 10 29 11 30 12
REMARK SMILES IDX 65 13 31 14 70 15 64 16 66 17 32 18 69 19 63 20 62 21 33 23
REMARK SMILES IDX 55 24 40 25 54 26 41 27 44 28 53 29 67 30 42 31 43 32 52 34
REMARK SMILES IDX 68 35 45 36 34 37 35 38 39 39 36 40 38 41 37 42 56 43 57 44
REMARK SMILES IDX 61 45 58 46 60 47 59 48 46 49 47 50 51 51 48 52 50 53 49 54
REMARK SMILES IDX 5 55 6 56 7 57 8 58 9 59 10 60 24 61 11 62 23 63 12 64 13 66
REMARK SMILES IDX 14 67 22 68 15 69 17 70 16 71 18 72 21 73 19 74 20 75
REMARK H PARENT 66 22 44 33 12 65
REMARK Flexibility Score: inf
ROOT
ATOM      1  C   UNL A   1      31.571  32.426  27.136  1.00  0.00     0.275 C 
ENDROOT
BRANCH   1   2
ATOM      2  O   UNL A   1      32.370  33.622  27.249  1.00  0.00    -0.458 OA
BRANCH   2   3
ATOM      3  C   UNL A   1      32.991  34.195  28.308  1.00  0.00     0.338 C 
ATOM      4  O   UNL A   1      32.529  35.240  28.764  1.00  0.00    -0.246 OA
BRANCH   3   5
ATOM      5  C   UNL A   1      34.278  33.704  28.902  1.00  0.00     0.060 A 
ATOM      6  C   UNL A   1      35.550  34.208  28.622  1.00  0.00     0.016 A 
ATOM      7  C   UNL A   1      34.177  32.677  29.867  1.00  0.00     0.016 A 
ATOM      8  C   UNL A   1      36.673  33.767  29.328  1.00  0.00     0.010 A 
ATOM      9  C   UNL A   1      35.294  32.246  30.595  1.00  0.00     0.010 A 
ATOM     10  C   UNL A   1      36.557  32.775  30.306  1.00  0.00    -0.014 A 
BRANCH  10  11
ATOM     11  C   UNL A   1      37.795  32.090  30.743  1.00  0.00     0.031 A 
ATOM     12  C   UNL A   1      38.267  32.398  32.137  1.00  0.00     0.074 A 
ATOM     13  C   UNL A   1      38.391  31.133  30.007  1.00  0.00     0.049 A 
ATOM     14  N   UNL A   1      39.203  31.826  32.844  1.00  0.00    -0.248 NA
ATOM     15  C   UNL A   1      37.566  33.490  32.838  1.00  0.00     0.031 C 
ATOM     16  C   UNL A   1      37.979  30.706  28.671  1.00  0.00     0.029 A 
ATOM     17  N   UNL A   1      39.457  30.318  30.300  1.00  0.00    -0.354 N 
ATOM     18  C   UNL A   1      39.189  32.481  34.069  1.00  0.00     0.074 A 
ATOM     19  C   UNL A   1      38.202  33.528  33.994  1.00  0.00     0.031 C 
ATOM     20  C   UNL A   1      38.765  29.692  28.268  1.00  0.00     0.029 A 
ATOM     21  C   UNL A   1      39.745  29.405  29.311  1.00  0.00     0.049 A 
ATOM     22  H   UNL A   1      39.967  30.381  31.139  1.00  0.00     0.167 HD
ATOM     23  C   UNL A   1      39.919  32.222  35.176  1.00  0.00     0.031 A 
ATOM     24  C   UNL A   1      40.687  28.441  29.269  1.00  0.00     0.031 A 
ATOM     25  C   UNL A   1      40.925  31.206  35.238  1.00  0.00     0.049 A 
ATOM     26  C   UNL A   1      41.568  28.246  30.478  1.00  0.00     0.074 A 
ATOM     27  C   UNL A   1      41.755  30.873  36.289  1.00  0.00     0.029 A 
ATOM     28  N   UNL A   1      41.246  30.366  34.180  1.00  0.00    -0.354 N 
ATOM     29  N   UNL A   1      41.523  28.851  31.642  1.00  0.00    -0.248 NA
ATOM     30  C   UNL A   1      42.621  27.225  30.372  1.00  0.00     0.031 C 
ATOM     31  C   UNL A   1      42.625  29.872  35.847  1.00  0.00     0.029 A 
ATOM     32  C   UNL A   1      42.287  29.533  34.544  1.00  0.00     0.049 A 
ATOM     33  H   UNL A   1      40.799  30.363  33.303  1.00  0.00     0.167 HD
ATOM     34  C   UNL A   1      42.511  28.258  32.419  1.00  0.00     0.074 A 
ATOM     35  C   UNL A   1      43.130  27.238  31.596  1.00  0.00     0.031 C 
ATOM     36  C   UNL A   1      42.874  28.526  33.699  1.00  0.00     0.031 A 
BRANCH  23  37
ATOM     37  C   UNL A   1      39.674  33.114  36.358  1.00  0.00    -0.014 A 
ATOM     38  C   UNL A   1      38.770  32.755  37.373  1.00  0.00     0.009 A 
ATOM     39  C   UNL A   1      40.293  34.370  36.412  1.00  0.00     0.009 A 
ATOM     40  C   UNL A   1      38.450  33.662  38.386  1.00  0.00     0.001 A 
ATOM     41  C   UNL A   1      39.995  35.262  37.443  1.00  0.00     0.001 A 
ATOM     42  C   UNL A   1      39.063  34.914  38.420  1.00  0.00     0.000 A 
ENDBRANCH  23  37
BRANCH  24  43
ATOM     43  C   UNL A   1      40.845  27.574  28.066  1.00  0.00    -0.014 A 
ATOM     44  C   UNL A   1      41.642  27.978  26.983  1.00  0.00     0.009 A 
ATOM     45  C   UNL A   1      40.158  26.352  27.974  1.00  0.00     0.009 A 
ATOM     46  C   UNL A   1      41.722  27.198  25.825  1.00  0.00     0.001 A 
ATOM     47  C   UNL A   1      40.264  25.558  26.827  1.00  0.00     0.001 A 
ATOM     48  C   UNL A   1      41.034  25.988  25.748  1.00  0.00     0.000 A 
ENDBRANCH  24  43
BRANCH  36  49
ATOM     49  C   UNL A   1      43.957  27.674  34.298  1.00  0.00    -0.014 A 
ATOM     50  C   UNL A   1      43.656  26.521  35.039  1.00  0.00     0.009 A 
ATOM     51  C   UNL A   1      45.301  28.002  34.060  1.00  0.00     0.009 A 
ATOM     52  C   UNL A   1      44.684  25.733  35.560  1.00  0.00     0.001 A 
ATOM     53  C   UNL A   1      46.325  27.194  34.553  1.00  0.00     0.001 A 
ATOM     54  C   UNL A   1      46.016  26.067  35.311  1.00  0.00     0.000 A 
ENDBRANCH  36  49
ENDBRANCH  10  11
ENDBRANCH   3   5
ENDBRANCH   2   3
ENDBRANCH   1   2
BRANCH   1  55
ATOM     55  C   UNL A   1      32.357  31.141  26.887  1.00  0.00     0.274 C 
BRANCH  55  56
ATOM     56  O   UNL A   1      31.727  30.296  25.921  1.00  0.00    -0.462 OA
BRANCH  56  57
ATOM     57  C   UNL A   1      32.484  29.296  25.378  1.00  0.00     0.309 C 
ATOM     58  O   UNL A   1      32.783  29.212  24.192  1.00  0.00    -0.252 OA
BRANCH  57  59
ATOM     59  C   UNL A   1      32.880  28.303  26.465  1.00  0.00     0.110 C 
ATOM     60  C   UNL A   1      34.028  27.376  26.074  1.00  0.00     0.077 C 
ATOM     61  C   UNL A   1      31.674  27.478  26.861  1.00  0.00     0.077 C 
ATOM     62  C   UNL A   1      33.605  26.293  25.073  1.00  0.00     0.263 C 
ATOM     63  C   UNL A   1      31.304  26.670  25.640  1.00  0.00     0.263 C 
ATOM     64  N   UNL A   1      32.322  25.645  25.433  1.00  0.00    -0.332 N 
ATOM     65  H   UNL A   1      32.418  25.142  26.315  1.00  0.00     0.348 HD
BRANCH  64  66
ATOM     66  C   UNL A   1      31.949  24.600  24.452  1.00  0.00     0.189 C 
ATOM     67  C   UNL A   1      30.666  23.822  24.745  1.00  0.00     0.093 C 
ATOM     68  C   UNL A   1      33.067  23.575  24.184  1.00  0.00     0.103 C 
ATOM     69  C   UNL A   1      30.831  22.748  25.812  1.00  0.00     0.167 C 
ATOM     70  C   UNL A   1      33.256  22.520  25.286  1.00  0.00     0.099 C 
ATOM     71  O   UNL A   1      32.024  21.979  25.776  1.00  0.00    -0.372 OA
ATOM     72  C   UNL A   1      34.255  22.983  26.362  1.00  0.00     0.066 C 
ATOM     73  C   UNL A   1      34.020  21.295  24.760  1.00  0.00     0.195 C 
ATOM     74  C   UNL A   1      35.594  22.358  26.013  1.00  0.00     0.163 C 
ATOM     75  O   UNL A   1      35.412  21.604  24.819  1.00  0.00    -0.378 OA
ENDBRANCH  64  66
ENDBRANCH  57  59
ENDBRANCH  56  57
ENDBRANCH  55  56
ENDBRANCH   1  55
TORSDOF 12
ENDMDL
MODEL 2
REMARK VINA RESULT:     -11.0      4.121      9.393
REMARK SMILES O=C(OCCOC(=O)C1CC[NH+]([C@@H]2CCO[C@]3(CCOC3)C2)CC1)c1ccc(-c2c3nc(c(-c4ccccc4)c4ccc([nH]4)c(-c4ccccc4)c4nc(c(-c5ccccc5)c5ccc2[nH]5)C=C4)C=C3)cc1
REMARK SMILES IDX 4 1 3 2 2 3 1 4 25 5 26 6 72 7 27 8 71 9 28 10 29 11 30 12
REMARK SMILES IDX 65 13 31 14 70 15 64 16 66 17 32 18 69 19 63 20 62 21 33 23
REMARK SMILES IDX 55 24 40 25 54 26 41 27 44 28 53 29 67 30 42 31 43 32 52 34
REMARK SMILES IDX 68 35 45 36 34 37 35 38 39 39 36 40 38 41 37 42 56 43 57 44
REMARK SMILES IDX 61 45 58 46 60 47 59 48 46 49 47 50 51 51 48 52 50 53 49 54
REMARK SMILES IDX 5 55 6 56 7 57 8 58 9 59 10 60 24 61 11 62 23 63 12 64 13 66
REMARK SMILES IDX 14 67 22 68 15 69 17 70 16 71 18 72 21 73 19 74 20 75
REMARK H PARENT 66 22 44 33 12 65
REMARK Flexibility Score: inf
ROOT
ATOM      1  C   UNL A   1      38.456  19.640  24.842  1.00  0.00     0.275 C 
ENDROOT
BRANCH   1   2
ATOM      2  O   UNL A   1      39.468  19.278  25.805  1.00  0.00    -0.458 OA
BRANCH   2   3
ATOM      3  C   UNL A   1      40.763  19.649  25.934  1.00  0.00     0.338 C 
ATOM      4  O   UNL A   1      41.638  18.866  25.564  1.00  0.00    -0.246 OA
BRANCH   3   5
ATOM      5  C   UNL A   1      41.220  20.911  26.604  1.00  0.00     0.060 A 
ATOM      6  C   UNL A   1      41.317  21.115  27.982  1.00  0.00     0.016 A 
ATOM      7  C   UNL A   1      41.637  21.961  25.755  1.00  0.00     0.016 A 
ATOM      8  C   UNL A   1      41.879  22.284  28.502  1.00  0.00     0.010 A 
ATOM      9  C   UNL A   1      42.222  23.127  26.268  1.00  0.00     0.010 A 
ATOM     10  C   UNL A   1      42.320  23.303  27.653  1.00  0.00    -0.014 A 
BRANCH  10  11
ATOM     11  C   UNL A   1      42.548  24.642  28.243  1.00  0.00     0.031 A 
ATOM     12  C   UNL A   1      43.980  25.019  28.496  1.00  0.00     0.074 A 
ATOM     13  C   UNL A   1      41.556  25.537  28.409  1.00  0.00     0.049 A 
ATOM     14  N   UNL A   1      44.489  26.173  28.834  1.00  0.00    -0.248 NA
ATOM     15  C   UNL A   1      44.980  23.950  28.318  1.00  0.00     0.031 C 
ATOM     16  C   UNL A   1      40.141  25.301  28.132  1.00  0.00     0.029 A 
ATOM     17  N   UNL A   1      41.598  26.847  28.820  1.00  0.00    -0.354 N 
ATOM     18  C   UNL A   1      45.861  25.965  28.895  1.00  0.00     0.074 A 
ATOM     19  C   UNL A   1      46.105  24.571  28.622  1.00  0.00     0.031 C 
ATOM     20  C   UNL A   1      39.450  26.434  28.357  1.00  0.00     0.029 A 
ATOM     21  C   UNL A   1      40.372  27.473  28.806  1.00  0.00     0.049 A 
ATOM     22  H   UNL A   1      42.429  27.296  29.099  1.00  0.00     0.167 HD
ATOM     23  C   UNL A   1      46.844  26.861  29.135  1.00  0.00     0.031 A 
ATOM     24  C   UNL A   1      40.045  28.745  29.109  1.00  0.00     0.031 A 
ATOM     25  C   UNL A   1      46.599  28.237  29.444  1.00  0.00     0.049 A 
ATOM     26  C   UNL A   1      41.151  29.700  29.487  1.00  0.00     0.074 A 
ATOM     27  C   UNL A   1      47.508  29.231  29.742  1.00  0.00     0.029 A 
ATOM     28  N   UNL A   1      45.334  28.805  29.509  1.00  0.00    -0.354 N 
ATOM     29  N   UNL A   1      42.447  29.498  29.508  1.00  0.00    -0.248 NA
ATOM     30  C   UNL A   1      40.748  31.061  29.867  1.00  0.00     0.031 C 
ATOM     31  C   UNL A   1      46.789  30.390  30.052  1.00  0.00     0.029 A 
ATOM     32  C   UNL A   1      45.436  30.133  29.875  1.00  0.00     0.049 A 
ATOM     33  H   UNL A   1      44.491  28.332  29.322  1.00  0.00     0.167 HD
ATOM     34  C   UNL A   1      43.016  30.714  29.865  1.00  0.00     0.074 A 
ATOM     35  C   UNL A   1      41.923  31.650  30.037  1.00  0.00     0.031 C 
ATOM     36  C   UNL A   1      44.325  31.036  30.032  1.00  0.00     0.031 A 
BRANCH  23  37
ATOM     37  C   UNL A   1      48.247  26.325  29.134  1.00  0.00    -0.014 A 
ATOM     38  C   UNL A   1      48.854  25.859  30.312  1.00  0.00     0.009 A 
ATOM     39  C   UNL A   1      48.998  26.369  27.952  1.00  0.00     0.009 A 
ATOM     40  C   UNL A   1      50.205  25.502  30.316  1.00  0.00     0.001 A 
ATOM     41  C   UNL A   1      50.339  25.982  27.953  1.00  0.00     0.001 A 
ATOM     42  C   UNL A   1      50.945  25.564  29.136  1.00  0.00     0.000 A 
ENDBRANCH  23  37
BRANCH  24  43
ATOM     43  C   UNL A   1      38.628  29.207  29.055  1.00  0.00    -0.014 A 
ATOM     44  C   UNL A   1      37.791  29.104  30.178  1.00  0.00     0.009 A 
ATOM     45  C   UNL A   1      38.088  29.711  27.861  1.00  0.00     0.009 A 
ATOM     46  C   UNL A   1      36.442  29.464  30.098  1.00  0.00     0.001 A 
ATOM     47  C   UNL A   1      36.746  30.099  27.791  1.00  0.00     0.001 A 
ATOM     48  C   UNL A   1      35.921  29.963  28.906  1.00  0.00     0.000 A 
ENDBRANCH  24  43
BRANCH  36  49
ATOM     49  C   UNL A   1      44.644  32.464  30.373  1.00  0.00    -0.014 A 
ATOM     50  C   UNL A   1      44.832  33.431  29.374  1.00  0.00     0.009 A 
ATOM     51  C   UNL A   1      44.693  32.854  31.720  1.00  0.00     0.009 A 
ATOM     52  C   UNL A   1      45.100  34.756  29.721  1.00  0.00     0.001 A 
ATOM     53  C   UNL A   1      44.926  34.185  32.063  1.00  0.00     0.001 A 
ATOM     54  C   UNL A   1      45.140  35.132  31.064  1.00  0.00     0.000 A 
ENDBRANCH  36  49
ENDBRANCH  10  11
ENDBRANCH   3   5
ENDBRANCH   2   3
ENDBRANCH   1   2
BRANCH   1  55
ATOM     55  C   UNL A   1      37.761  20.975  25.102  1.00  0.00     0.274 C 
BRANCH  55  56
ATOM     56  O   UNL A   1      36.346  20.897  24.916  1.00  0.00    -0.462 OA
BRANCH  56  57
ATOM     57  C   UNL A   1      35.588  21.893  25.467  1.00  0.00     0.309 C 
ATOM     58  O   UNL A   1      34.707  21.719  26.300  1.00  0.00    -0.252 OA
BRANCH  57  59
ATOM     59  C   UNL A   1      35.996  23.237  24.875  1.00  0.00     0.110 C 
ATOM     60  C   UNL A   1      35.548  24.442  25.698  1.00  0.00     0.077 C 
ATOM     61  C   UNL A   1      35.456  23.355  23.466  1.00  0.00     0.077 C 
ATOM     62  C   UNL A   1      34.043  24.715  25.583  1.00  0.00     0.263 C 
ATOM     63  C   UNL A   1      33.952  23.371  23.597  1.00  0.00     0.263 C 
ATOM     64  N   UNL A   1      33.548  24.643  24.189  1.00  0.00    -0.332 N 
ATOM     65  H   UNL A   1      33.976  25.379  23.626  1.00  0.00     0.348 HD
BRANCH  64  66
ATOM     66  C   UNL A   1      32.095  24.920  24.113  1.00  0.00     0.189 C 
ATOM     67  C   UNL A   1      31.458  24.826  22.726  1.00  0.00     0.093 C 
ATOM     68  C   UNL A   1      31.691  26.276  24.724  1.00  0.00     0.103 C 
ATOM     69  C   UNL A   1      31.725  26.040  21.847  1.00  0.00     0.167 C 
ATOM     70  C   UNL A   1      32.004  27.499  23.848  1.00  0.00     0.099 C 
ATOM     71  O   UNL A   1      31.666  27.315  22.469  1.00  0.00    -0.372 OA
ATOM     72  C   UNL A   1      33.413  28.058  24.119  1.00  0.00     0.066 C 
ATOM     73  C   UNL A   1      31.175  28.719  24.278  1.00  0.00     0.195 C 
ATOM     74  C   UNL A   1      33.244  29.221  25.080  1.00  0.00     0.163 C 
ATOM     75  O   UNL A   1      31.855  29.331  25.372  1.00  0.00    -0.378 OA
ENDBRANCH  64  66
ENDBRANCH  57  59
ENDBRANCH  56  57
ENDBRANCH  55  56
ENDBRANCH   1  55
TORSDOF 12
ENDMDL
MODEL 3
REMARK VINA RESULT:     -11.0      0.805      1.214
REMARK SMILES O=C(OCCOC(=O)C1CC[NH+]([C@@H]2CCO[C@]3(CCOC3)C2)CC1)c1ccc(-c2c3nc(c(-c4ccccc4)c4ccc([nH]4)c(-c4ccccc4)c4nc(c(-c5ccccc5)c5ccc2[nH]5)C=C4)C=C3)cc1
REMARK SMILES IDX 4 1 3 2 2 3 1 4 25 5 26 6 72 7 27 8 71 9 28 10 29 11 30 12
REMARK SMILES IDX 65 13 31 14 70 15 64 16 66 17 32 18 69 19 63 20 62 21 33 23
REMARK SMILES IDX 55 24 40 25 54 26 41 27 44 28 53 29 67 30 42 31 43 32 52 34
REMARK SMILES IDX 68 35 45 36 34 37 35 38 39 39 36 40 38 41 37 42 56 43 57 44
REMARK SMILES IDX 61 45 58 46 60 47 59 48 46 49 47 50 51 51 48 52 50 53 49 54
REMARK SMILES IDX 5 55 6 56 7 57 8 58 9 59 10 60 24 61 11 62 23 63 12 64 13 66
REMARK SMILES IDX 14 67 22 68 15 69 17 70 16 71 18 72 21 73 19 74 20 75
REMARK H PARENT 66 22 44 33 12 65
REMARK Flexibility Score: inf
ROOT
ATOM      1  C   UNL A   1      31.378  32.355  26.880  1.00  0.00     0.275 C 
ENDROOT
BRANCH   1   2
ATOM      2  O   UNL A   1      32.306  33.443  27.078  1.00  0.00    -0.458 OA
BRANCH   2   3
ATOM      3  C   UNL A   1      33.072  33.792  28.138  1.00  0.00     0.338 C 
ATOM      4  O   UNL A   1      32.794  34.822  28.751  1.00  0.00    -0.246 OA
BRANCH   3   5
ATOM      5  C   UNL A   1      34.318  33.068  28.557  1.00  0.00     0.060 A 
ATOM      6  C   UNL A   1      34.377  31.765  29.055  1.00  0.00     0.016 A 
ATOM      7  C   UNL A   1      35.538  33.758  28.378  1.00  0.00     0.016 A 
ATOM      8  C   UNL A   1      35.603  31.137  29.293  1.00  0.00     0.010 A 
ATOM      9  C   UNL A   1      36.772  33.128  28.593  1.00  0.00     0.010 A 
ATOM     10  C   UNL A   1      36.806  31.816  29.079  1.00  0.00    -0.014 A 
BRANCH  10  11
ATOM     11  C   UNL A   1      38.031  31.255  29.693  1.00  0.00     0.031 A 
ATOM     12  C   UNL A   1      38.274  31.612  31.133  1.00  0.00     0.074 A 
ATOM     13  C   UNL A   1      38.811  30.357  29.061  1.00  0.00     0.049 A 
ATOM     14  N   UNL A   1      39.154  31.134  31.971  1.00  0.00    -0.248 NA
ATOM     15  C   UNL A   1      37.383  32.633  31.713  1.00  0.00     0.031 C 
ATOM     16  C   UNL A   1      38.629  29.888  27.689  1.00  0.00     0.029 A 
ATOM     17  N   UNL A   1      39.899  29.649  29.510  1.00  0.00    -0.354 N 
ATOM     18  C   UNL A   1      38.909  31.789  33.171  1.00  0.00     0.074 A 
ATOM     19  C   UNL A   1      37.847  32.736  32.944  1.00  0.00     0.031 C 
ATOM     20  C   UNL A   1      39.557  28.953  27.413  1.00  0.00     0.029 A 
ATOM     21  C   UNL A   1      40.406  28.765  28.586  1.00  0.00     0.049 A 
ATOM     22  H   UNL A   1      40.280  29.765  30.411  1.00  0.00     0.167 HD
ATOM     23  C   UNL A   1      39.500  31.605  34.372  1.00  0.00     0.031 A 
ATOM     24  C   UNL A   1      41.432  27.896  28.690  1.00  0.00     0.031 A 
ATOM     25  C   UNL A   1      40.580  30.690  34.588  1.00  0.00     0.049 A 
ATOM     26  C   UNL A   1      42.152  27.792  30.011  1.00  0.00     0.074 A 
ATOM     27  C   UNL A   1      41.285  30.443  35.749  1.00  0.00     0.029 A 
ATOM     28  N   UNL A   1      41.122  29.882  33.598  1.00  0.00    -0.354 N 
ATOM     29  N   UNL A   1      41.889  28.392  31.148  1.00  0.00    -0.248 NA
ATOM     30  C   UNL A   1      43.301  26.876  30.067  1.00  0.00     0.031 C 
ATOM     31  C   UNL A   1      42.299  29.528  35.446  1.00  0.00     0.029 A 
ATOM     32  C   UNL A   1      42.178  29.155  34.115  1.00  0.00     0.049 A 
ATOM     33  H   UNL A   1      40.803  29.834  32.669  1.00  0.00     0.167 HD
ATOM     34  C   UNL A   1      42.812  27.900  32.062  1.00  0.00     0.074 A 
ATOM     35  C   UNL A   1      43.633  26.942  31.348  1.00  0.00     0.031 C 
ATOM     36  C   UNL A   1      42.969  28.206  33.375  1.00  0.00     0.031 A 
BRANCH  23  37
ATOM     37  C   UNL A   1      39.011  32.473  35.495  1.00  0.00    -0.014 A 
ATOM     38  C   UNL A   1      39.568  33.741  35.738  1.00  0.00     0.009 A 
ATOM     39  C   UNL A   1      38.037  31.979  36.373  1.00  0.00     0.009 A 
ATOM     40  C   UNL A   1      39.200  34.468  36.872  1.00  0.00     0.001 A 
ATOM     41  C   UNL A   1      37.647  32.722  37.487  1.00  0.00     0.001 A 
ATOM     42  C   UNL A   1      38.240  33.958  37.745  1.00  0.00     0.000 A 
ENDBRANCH  23  37
BRANCH  24  43
ATOM     43  C   UNL A   1      41.836  27.045  27.534  1.00  0.00    -0.014 A 
ATOM     44  C   UNL A   1      42.717  27.528  26.553  1.00  0.00     0.009 A 
ATOM     45  C   UNL A   1      41.302  25.755  27.379  1.00  0.00     0.009 A 
ATOM     46  C   UNL A   1      43.029  26.753  25.431  1.00  0.00     0.001 A 
ATOM     47  C   UNL A   1      41.639  24.970  26.271  1.00  0.00     0.001 A 
ATOM     48  C   UNL A   1      42.492  25.475  25.291  1.00  0.00     0.000 A 
ENDBRANCH  24  43
BRANCH  36  49
ATOM     49  C   UNL A   1      44.035  27.464  34.131  1.00  0.00    -0.014 A 
ATOM     50  C   UNL A   1      43.765  26.243  34.768  1.00  0.00     0.009 A 
ATOM     51  C   UNL A   1      45.343  27.971  34.149  1.00  0.00     0.009 A 
ATOM     52  C   UNL A   1      44.783  25.562  35.440  1.00  0.00     0.001 A 
ATOM     53  C   UNL A   1      46.364  27.271  34.791  1.00  0.00     0.001 A 
ATOM     54  C   UNL A   1      46.081  26.073  35.444  1.00  0.00     0.000 A 
ENDBRANCH  36  49
ENDBRANCH  10  11
ENDBRANCH   3   5
ENDBRANCH   2   3
ENDBRANCH   1   2
BRANCH   1  55
ATOM     55  C   UNL A   1      32.014  30.970  26.780  1.00  0.00     0.274 C 
BRANCH  55  56
ATOM     56  O   UNL A   1      31.520  30.225  25.665  1.00  0.00    -0.462 OA
BRANCH  56  57
ATOM     57  C   UNL A   1      32.337  29.256  25.152  1.00  0.00     0.309 C 
ATOM     58  O   UNL A   1      32.672  29.176  23.975  1.00  0.00    -0.252 OA
BRANCH  57  59
ATOM     59  C   UNL A   1      32.748  28.290  26.258  1.00  0.00     0.110 C 
ATOM     60  C   UNL A   1      33.963  27.433  25.916  1.00  0.00     0.077 C 
ATOM     61  C   UNL A   1      31.578  27.396  26.610  1.00  0.00     0.077 C 
ATOM     62  C   UNL A   1      33.645  26.324  24.904  1.00  0.00     0.263 C 
ATOM     63  C   UNL A   1      31.305  26.566  25.380  1.00  0.00     0.263 C 
ATOM     64  N   UNL A   1      32.390  25.602  25.217  1.00  0.00    -0.332 N 
ATOM     65  H   UNL A   1      32.481  25.108  26.105  1.00  0.00     0.348 HD
BRANCH  64  66
ATOM     66  C   UNL A   1      32.117  24.534  24.227  1.00  0.00     0.189 C 
ATOM     67  C   UNL A   1      30.844  23.717  24.445  1.00  0.00     0.093 C 
ATOM     68  C   UNL A   1      33.284  23.544  24.047  1.00  0.00     0.103 C 
ATOM     69  C   UNL A   1      30.972  22.661  25.533  1.00  0.00     0.167 C 
ATOM     70  C   UNL A   1      33.434  22.509  25.174  1.00  0.00     0.099 C 
ATOM     71  O   UNL A   1      32.190  21.932  25.587  1.00  0.00    -0.372 OA
ATOM     72  C   UNL A   1      34.342  23.017  26.308  1.00  0.00     0.066 C 
ATOM     73  C   UNL A   1      34.271  21.305  24.716  1.00  0.00     0.195 C 
ATOM     74  C   UNL A   1      35.721  22.434  26.057  1.00  0.00     0.163 C 
ATOM     75  O   UNL A   1      35.644  21.661  24.864  1.00  0.00    -0.378 OA
ENDBRANCH  64  66
ENDBRANCH  57  59
ENDBRANCH  56  57
ENDBRANCH  55  56
ENDBRANCH   1  55
TORSDOF 12
ENDMDL
