MODEL 1
REMARK VINA RESULT:     -11.4      0.000      0.000
REMARK SMILES CC(C)(C)c1ccc(OCC(=O)N/N=C/c2ccc(C(=O)OCCOC(=O)c3ccc(-c4c5nc(c(-c6ccccc6)c6ccc([nH]6)c(-c6ccccc6)c6nc(c(-c7ccccc7)c7ccc4[nH]7)C=C6)C=C5)cc3)cc2)cc1
REMARK SMILES IDX 20 1 21 2 19 3 16 4 17 5 77 6 18 7 76 8 15 9 14 10 13 11
REMARK SMILES IDX 11 12 12 13 10 15 9 16 8 17 5 18 6 19 79 20 7 21 78 22 2 23
REMARK SMILES IDX 1 24 3 25 4 26 22 27 23 28 24 29 25 30 26 31 27 32 28 33
REMARK SMILES IDX 29 34 75 35 30 36 74 37 31 38 32 39 33 40 68 41 34 42 73 43
REMARK SMILES IDX 67 44 69 45 35 46 72 47 66 48 65 49 36 51 58 52 43 53 57 54
REMARK SMILES IDX 44 55 47 56 56 57 70 58 45 59 46 60 55 62 71 63 48 64 37 65
REMARK SMILES IDX 38 66 42 67 39 68 41 69 40 70 59 71 60 72 64 73 61 74 63 75
REMARK SMILES IDX 62 76 49 77 50 78 54 79 51 80 53 81 52 82
REMARK H PARENT 13 14 69 50 47 61
REMARK Flexibility Score: inf
ROOT
ATOM      1  C   UNL A   1      39.521  20.349  25.742  1.00  0.00     0.338 C 
ATOM      2  O   UNL A   1      39.457  19.178  25.406  1.00  0.00    -0.246 OA
ENDROOT
BRANCH   1   3
ATOM      3  C   UNL A   1      38.414  21.308  25.514  1.00  0.00     0.060 A 
ATOM      4  C   UNL A   1      36.424  23.206  25.107  1.00  0.00    -0.005 A 
ATOM      5  C   UNL A   1      37.550  23.549  25.849  1.00  0.00     0.010 A 
ATOM      6  C   UNL A   1      36.262  21.920  24.585  1.00  0.00     0.010 A 
ATOM      7  C   UNL A   1      38.523  22.584  26.086  1.00  0.00     0.016 A 
ATOM      8  C   UNL A   1      37.275  20.971  24.771  1.00  0.00     0.016 A 
BRANCH   4   9
ATOM      9  C   UNL A   1      35.434  24.260  24.867  1.00  0.00     0.141 C 
ATOM     10  N   UNL A   1      34.772  24.306  23.764  1.00  0.00    -0.181 NA
BRANCH  10  11
ATOM     11  N   UNL A   1      33.785  25.228  23.576  1.00  0.00    -0.244 N 
ATOM     12  C   UNL A   1      32.422  25.141  23.439  1.00  0.00     0.277 C 
ATOM     13  O   UNL A   1      31.793  26.191  23.253  1.00  0.00    -0.269 OA
ATOM     14  H   UNL A   1      34.122  26.151  23.530  1.00  0.00     0.193 HD
BRANCH  12  15
ATOM     15  C   UNL A   1      31.658  23.818  23.527  1.00  0.00     0.331 C 
BRANCH  15  16
ATOM     16  O   UNL A   1      31.688  23.131  24.766  1.00  0.00    -0.484 OA
BRANCH  16  17
ATOM     17  C   UNL A   1      32.230  21.875  24.778  1.00  0.00     0.120 A 
ATOM     18  C   UNL A   1      33.238  19.222  24.548  1.00  0.00    -0.042 A 
ATOM     19  C   UNL A   1      32.622  19.870  23.462  1.00  0.00     0.008 A 
ATOM     20  C   UNL A   1      33.361  19.955  25.738  1.00  0.00     0.008 A 
ATOM     21  C   UNL A   1      32.122  21.173  23.578  1.00  0.00     0.047 A 
ATOM     22  C   UNL A   1      32.864  21.261  25.853  1.00  0.00     0.047 A 
BRANCH  18  23
ATOM     23  C   UNL A   1      33.763  17.783  24.407  1.00  0.00    -0.013 C 
ATOM     24  C   UNL A   1      35.294  17.785  24.581  1.00  0.00     0.016 C 
ATOM     25  C   UNL A   1      33.409  17.213  23.015  1.00  0.00     0.016 C 
ATOM     26  C   UNL A   1      33.172  16.806  25.451  1.00  0.00     0.016 C 
ENDBRANCH  18  23
ENDBRANCH  16  17
ENDBRANCH  15  16
ENDBRANCH  12  15
ENDBRANCH  10  11
ENDBRANCH   4   9
ENDBRANCH   1   3
BRANCH   1  27
ATOM     27  O   UNL A   1      40.511  20.937  26.458  1.00  0.00    -0.458 OA
BRANCH  27  28
ATOM     28  C   UNL A   1      41.810  20.315  26.357  1.00  0.00     0.275 C 
BRANCH  28  29
ATOM     29  C   UNL A   1      42.850  21.298  25.822  1.00  0.00     0.275 C 
BRANCH  29  30
ATOM     30  O   UNL A   1      42.196  22.473  25.310  1.00  0.00    -0.458 OA
BRANCH  30  31
ATOM     31  C   UNL A   1      42.957  23.588  25.234  1.00  0.00     0.338 C 
ATOM     32  O   UNL A   1      43.947  23.769  24.549  1.00  0.00    -0.246 OA
BRANCH  31  33
ATOM     33  C   UNL A   1      42.411  24.625  26.128  1.00  0.00     0.060 A 
ATOM     34  C   UNL A   1      42.901  25.926  26.052  1.00  0.00     0.016 A 
ATOM     35  C   UNL A   1      41.514  24.278  27.136  1.00  0.00     0.016 A 
ATOM     36  C   UNL A   1      42.580  26.858  27.038  1.00  0.00     0.010 A 
ATOM     37  C   UNL A   1      41.112  25.243  28.068  1.00  0.00     0.010 A 
ATOM     38  C   UNL A   1      41.674  26.533  28.060  1.00  0.00    -0.014 A 
BRANCH  38  39
ATOM     39  C   UNL A   1      41.356  27.510  29.143  1.00  0.00     0.031 A 
ATOM     40  C   UNL A   1      42.196  27.552  30.398  1.00  0.00     0.074 A 
ATOM     41  C   UNL A   1      40.331  28.377  29.021  1.00  0.00     0.049 A 
ATOM     42  N   UNL A   1      41.973  28.185  31.524  1.00  0.00    -0.248 NA
ATOM     43  C   UNL A   1      43.441  26.768  30.392  1.00  0.00     0.031 C 
ATOM     44  C   UNL A   1      39.453  28.502  27.855  1.00  0.00     0.029 A 
ATOM     45  N   UNL A   1      39.857  29.329  29.892  1.00  0.00    -0.354 N 
ATOM     46  C   UNL A   1      43.007  27.819  32.378  1.00  0.00     0.074 A 
ATOM     47  C   UNL A   1      43.862  26.916  31.640  1.00  0.00     0.031 C 
ATOM     48  C   UNL A   1      38.585  29.503  28.063  1.00  0.00     0.029 A 
ATOM     49  C   UNL A   1      38.781  30.032  29.408  1.00  0.00     0.049 A 
ATOM     50  H   UNL A   1      40.253  29.492  30.779  1.00  0.00     0.167 HD
ATOM     51  C   UNL A   1      43.223  28.195  33.662  1.00  0.00     0.031 A 
ATOM     52  C   UNL A   1      38.006  30.968  29.988  1.00  0.00     0.031 A 
ATOM     53  C   UNL A   1      42.414  29.138  34.386  1.00  0.00     0.049 A 
ATOM     54  C   UNL A   1      38.255  31.361  31.415  1.00  0.00     0.074 A 
ATOM     55  C   UNL A   1      42.565  29.584  35.689  1.00  0.00     0.029 A 
ATOM     56  N   UNL A   1      41.318  29.802  33.861  1.00  0.00    -0.354 N 
ATOM     57  N   UNL A   1      39.190  30.945  32.232  1.00  0.00    -0.248 NA
ATOM     58  C   UNL A   1      37.326  32.336  32.005  1.00  0.00     0.031 C 
ATOM     59  C   UNL A   1      41.541  30.499  35.961  1.00  0.00     0.029 A 
ATOM     60  C   UNL A   1      40.778  30.649  34.815  1.00  0.00     0.049 A 
ATOM     61  H   UNL A   1      40.973  29.689  32.945  1.00  0.00     0.167 HD
ATOM     62  C   UNL A   1      38.963  31.607  33.432  1.00  0.00     0.074 A 
ATOM     63  C   UNL A   1      37.819  32.470  33.229  1.00  0.00     0.031 C 
ATOM     64  C   UNL A   1      39.639  31.501  34.601  1.00  0.00     0.031 A 
BRANCH  51  65
ATOM     65  C   UNL A   1      44.366  27.545  34.390  1.00  0.00    -0.014 A 
ATOM     66  C   UNL A   1      44.198  26.352  35.108  1.00  0.00     0.009 A 
ATOM     67  C   UNL A   1      45.644  28.122  34.319  1.00  0.00     0.009 A 
ATOM     68  C   UNL A   1      45.284  25.767  35.765  1.00  0.00     0.001 A 
ATOM     69  C   UNL A   1      46.730  27.523  34.957  1.00  0.00     0.001 A 
ATOM     70  C   UNL A   1      46.548  26.350  35.686  1.00  0.00     0.000 A 
ENDBRANCH  51  65
BRANCH  52  71
ATOM     71  C   UNL A   1      36.878  31.567  29.228  1.00  0.00    -0.014 A 
ATOM     72  C   UNL A   1      35.674  30.865  29.066  1.00  0.00     0.009 A 
ATOM     73  C   UNL A   1      36.998  32.848  28.666  1.00  0.00     0.009 A 
ATOM     74  C   UNL A   1      34.618  31.431  28.349  1.00  0.00     0.001 A 
ATOM     75  C   UNL A   1      35.931  33.422  27.975  1.00  0.00     0.001 A 
ATOM     76  C   UNL A   1      34.745  32.711  27.811  1.00  0.00     0.000 A 
ENDBRANCH  52  71
BRANCH  64  77
ATOM     77  C   UNL A   1      39.169  32.354  35.741  1.00  0.00    -0.014 A 
ATOM     78  C   UNL A   1      38.216  31.879  36.655  1.00  0.00     0.009 A 
ATOM     79  C   UNL A   1      39.706  33.639  35.918  1.00  0.00     0.009 A 
ATOM     80  C   UNL A   1      37.789  32.687  37.711  1.00  0.00     0.001 A 
ATOM     81  C   UNL A   1      39.291  34.437  36.985  1.00  0.00     0.001 A 
ATOM     82  C   UNL A   1      38.328  33.963  37.876  1.00  0.00     0.000 A 
ENDBRANCH  64  77
ENDBRANCH  38  39
ENDBRANCH  31  33
ENDBRANCH  30  31
ENDBRANCH  29  30
ENDBRANCH  28  29
ENDBRANCH  27  28
ENDBRANCH   1  27
TORSDOF 17
ENDMDL
MODEL 2
REMARK VINA RESULT:     -11.1      4.513     10.132
REMARK SMILES CC(C)(C)c1ccc(OCC(=O)N/N=C/c2ccc(C(=O)OCCOC(=O)c3ccc(-c4c5nc(c(-c6ccccc6)c6ccc([nH]6)c(-c6ccccc6)c6nc(c(-c7ccccc7)c7ccc4[nH]7)C=C6)C=C5)cc3)cc2)cc1
REMARK SMILES IDX 20 1 21 2 19 3 16 4 17 5 77 6 18 7 76 8 15 9 14 10 13 11
REMARK SMILES IDX 11 12 12 13 10 15 9 16 8 17 5 18 6 19 79 20 7 21 78 22 2 23
REMARK SMILES IDX 1 24 3 25 4 26 22 27 23 28 24 29 25 30 26 31 27 32 28 33
REMARK SMILES IDX 29 34 75 35 30 36 74 37 31 38 32 39 33 40 68 41 34 42 73 43
REMARK SMILES IDX 67 44 69 45 35 46 72 47 66 48 65 49 36 51 58 52 43 53 57 54
REMARK SMILES IDX 44 55 47 56 56 57 70 58 45 59 46 60 55 62 71 63 48 64 37 65
REMARK SMILES IDX 38 66 42 67 39 68 41 69 40 70 59 71 60 72 64 73 61 74 63 75
REMARK SMILES IDX 62 76 49 77 50 78 54 79 51 80 53 81 52 82
REMARK H PARENT 13 14 69 50 47 61
REMARK Flexibility Score: inf
ROOT
ATOM      1  C   UNL A   1      32.871  32.729  27.622  1.00  0.00     0.338 C 
ATOM      2  O   UNL A   1      31.882  33.340  27.254  1.00  0.00    -0.246 OA
ENDROOT
BRANCH   1   3
ATOM      3  C   UNL A   1      33.070  31.287  27.345  1.00  0.00     0.060 A 
ATOM      4  C   UNL A   1      33.341  28.586  26.742  1.00  0.00    -0.005 A 
ATOM      5  C   UNL A   1      32.111  29.208  26.544  1.00  0.00     0.010 A 
ATOM      6  C   UNL A   1      34.433  29.286  27.262  1.00  0.00     0.010 A 
ATOM      7  C   UNL A   1      31.969  30.548  26.887  1.00  0.00     0.016 A 
ATOM      8  C   UNL A   1      34.303  30.651  27.543  1.00  0.00     0.016 A 
BRANCH   4   9
ATOM      9  C   UNL A   1      33.449  27.179  26.348  1.00  0.00     0.141 C 
ATOM     10  N   UNL A   1      34.352  26.793  25.516  1.00  0.00    -0.181 NA
BRANCH  10  11
ATOM     11  N   UNL A   1      34.516  25.472  25.221  1.00  0.00    -0.244 N 
ATOM     12  C   UNL A   1      33.918  24.620  24.328  1.00  0.00     0.277 C 
ATOM     13  O   UNL A   1      34.286  23.437  24.323  1.00  0.00    -0.269 OA
ATOM     14  H   UNL A   1      35.212  25.037  25.766  1.00  0.00     0.193 HD
BRANCH  12  15
ATOM     15  C   UNL A   1      32.843  25.071  23.336  1.00  0.00     0.331 C 
BRANCH  15  16
ATOM     16  O   UNL A   1      31.545  25.314  23.850  1.00  0.00    -0.484 OA
BRANCH  16  17
ATOM     17  C   UNL A   1      30.993  26.543  23.614  1.00  0.00     0.120 A 
ATOM     18  C   UNL A   1      29.592  28.976  23.139  1.00  0.00    -0.042 A 
ATOM     19  C   UNL A   1      28.919  27.806  23.533  1.00  0.00     0.008 A 
ATOM     20  C   UNL A   1      30.988  28.897  23.021  1.00  0.00     0.008 A 
ATOM     21  C   UNL A   1      29.609  26.609  23.763  1.00  0.00     0.047 A 
ATOM     22  C   UNL A   1      31.679  27.699  23.253  1.00  0.00     0.047 A 
BRANCH  18  23
ATOM     23  C   UNL A   1      28.815  30.276  22.872  1.00  0.00    -0.013 C 
ATOM     24  C   UNL A   1      27.305  29.996  22.998  1.00  0.00     0.016 C 
ATOM     25  C   UNL A   1      29.118  30.805  21.452  1.00  0.00     0.016 C 
ATOM     26  C   UNL A   1      29.165  31.418  23.855  1.00  0.00     0.016 C 
ENDBRANCH  18  23
ENDBRANCH  16  17
ENDBRANCH  15  16
ENDBRANCH  12  15
ENDBRANCH  10  11
ENDBRANCH   4   9
ENDBRANCH   1   3
BRANCH   1  27
ATOM     27  O   UNL A   1      33.975  33.249  28.214  1.00  0.00    -0.458 OA
BRANCH  27  28
ATOM     28  C   UNL A   1      33.746  34.386  29.074  1.00  0.00     0.275 C 
BRANCH  28  29
ATOM     29  C   UNL A   1      34.160  34.079  30.512  1.00  0.00     0.275 C 
BRANCH  29  30
ATOM     30  O   UNL A   1      34.322  32.660  30.683  1.00  0.00    -0.458 OA
BRANCH  30  31
ATOM     31  C   UNL A   1      35.167  32.275  31.667  1.00  0.00     0.338 C 
ATOM     32  O   UNL A   1      35.068  32.493  32.861  1.00  0.00    -0.246 OA
BRANCH  31  33
ATOM     33  C   UNL A   1      36.286  31.508  31.091  1.00  0.00     0.060 A 
ATOM     34  C   UNL A   1      37.069  30.707  31.918  1.00  0.00     0.016 A 
ATOM     35  C   UNL A   1      36.646  31.691  29.758  1.00  0.00     0.016 A 
ATOM     36  C   UNL A   1      38.267  30.170  31.449  1.00  0.00     0.010 A 
ATOM     37  C   UNL A   1      37.796  31.068  29.259  1.00  0.00     0.010 A 
ATOM     38  C   UNL A   1      38.648  30.337  30.109  1.00  0.00    -0.014 A 
BRANCH  38  39
ATOM     39  C   UNL A   1      39.948  29.800  29.608  1.00  0.00     0.031 A 
ATOM     40  C   UNL A   1      41.171  30.685  29.573  1.00  0.00     0.074 A 
ATOM     41  C   UNL A   1      40.060  28.522  29.192  1.00  0.00     0.049 A 
ATOM     42  N   UNL A   1      42.332  30.473  29.002  1.00  0.00    -0.248 NA
ATOM     43  C   UNL A   1      41.071  31.985  30.255  1.00  0.00     0.031 C 
ATOM     44  C   UNL A   1      38.991  27.522  29.206  1.00  0.00     0.029 A 
ATOM     45  N   UNL A   1      41.140  27.841  28.680  1.00  0.00    -0.354 N 
ATOM     46  C   UNL A   1      43.070  31.635  29.196  1.00  0.00     0.074 A 
ATOM     47  C   UNL A   1      42.231  32.547  29.942  1.00  0.00     0.031 C 
ATOM     48  C   UNL A   1      39.479  26.349  28.775  1.00  0.00     0.029 A 
ATOM     49  C   UNL A   1      40.868  26.532  28.368  1.00  0.00     0.049 A 
ATOM     50  H   UNL A   1      42.025  28.254  28.551  1.00  0.00     0.167 HD
ATOM     51  C   UNL A   1      44.329  31.922  28.784  1.00  0.00     0.031 A 
ATOM     52  C   UNL A   1      41.629  25.588  27.782  1.00  0.00     0.031 A 
ATOM     53  C   UNL A   1      45.194  31.003  28.095  1.00  0.00     0.049 A 
ATOM     54  C   UNL A   1      43.016  25.931  27.323  1.00  0.00     0.074 A 
ATOM     55  C   UNL A   1      46.489  31.206  27.648  1.00  0.00     0.029 A 
ATOM     56  N   UNL A   1      44.862  29.697  27.777  1.00  0.00    -0.354 N 
ATOM     57  N   UNL A   1      43.669  27.060  27.443  1.00  0.00    -0.248 NA
ATOM     58  C   UNL A   1      43.763  24.873  26.626  1.00  0.00     0.031 C 
ATOM     59  C   UNL A   1      46.931  30.029  27.033  1.00  0.00     0.029 A 
ATOM     60  C   UNL A   1      45.924  29.083  27.133  1.00  0.00     0.049 A 
ATOM     61  H   UNL A   1      43.999  29.267  27.978  1.00  0.00     0.167 HD
ATOM     62  C   UNL A   1      44.901  26.849  26.840  1.00  0.00     0.074 A 
ATOM     63  C   UNL A   1      44.916  25.478  26.376  1.00  0.00     0.031 C 
ATOM     64  C   UNL A   1      45.926  27.720  26.676  1.00  0.00     0.031 A 
BRANCH  51  65
ATOM     65  C   UNL A   1      44.837  33.315  29.031  1.00  0.00    -0.014 A 
ATOM     66  C   UNL A   1      44.567  34.366  28.143  1.00  0.00     0.009 A 
ATOM     67  C   UNL A   1      45.568  33.582  30.200  1.00  0.00     0.009 A 
ATOM     68  C   UNL A   1      45.045  35.652  28.407  1.00  0.00     0.001 A 
ATOM     69  C   UNL A   1      46.023  34.872  30.473  1.00  0.00     0.001 A 
ATOM     70  C   UNL A   1      45.768  35.905  29.573  1.00  0.00     0.000 A 
ENDBRANCH  51  65
BRANCH  52  71
ATOM     71  C   UNL A   1      41.071  24.231  27.545  1.00  0.00    -0.014 A 
ATOM     72  C   UNL A   1      39.951  24.054  26.720  1.00  0.00     0.009 A 
ATOM     73  C   UNL A   1      41.662  23.105  28.140  1.00  0.00     0.009 A 
ATOM     74  C   UNL A   1      39.428  22.778  26.503  1.00  0.00     0.001 A 
ATOM     75  C   UNL A   1      41.155  21.828  27.898  1.00  0.00     0.001 A 
ATOM     76  C   UNL A   1      40.035  21.666  27.086  1.00  0.00     0.000 A 
ENDBRANCH  52  71
BRANCH  64  77
ATOM     77  C   UNL A   1      47.154  27.206  25.986  1.00  0.00    -0.014 A 
ATOM     78  C   UNL A   1      48.179  26.576  26.709  1.00  0.00     0.009 A 
ATOM     79  C   UNL A   1      47.275  27.328  24.593  1.00  0.00     0.009 A 
ATOM     80  C   UNL A   1      49.317  26.104  26.051  1.00  0.00     0.001 A 
ATOM     81  C   UNL A   1      48.405  26.838  23.936  1.00  0.00     0.001 A 
ATOM     82  C   UNL A   1      49.427  26.233  24.666  1.00  0.00     0.000 A 
ENDBRANCH  64  77
ENDBRANCH  38  39
ENDBRANCH  31  33
ENDBRANCH  30  31
ENDBRANCH  29  30
ENDBRANCH  28  29
ENDBRANCH  27  28
ENDBRANCH   1  27
TORSDOF 17
ENDMDL
MODEL 3
REMARK VINA RESULT:     -10.8      2.084      7.927
REMARK SMILES CC(C)(C)c1ccc(OCC(=O)N/N=C/c2ccc(C(=O)OCCOC(=O)c3ccc(-c4c5nc(c(-c6ccccc6)c6ccc([nH]6)c(-c6ccccc6)c6nc(c(-c7ccccc7)c7ccc4[nH]7)C=C6)C=C5)cc3)cc2)cc1
REMARK SMILES IDX 20 1 21 2 19 3 16 4 17 5 77 6 18 7 76 8 15 9 14 10 13 11
REMARK SMILES IDX 11 12 12 13 10 15 9 16 8 17 5 18 6 19 79 20 7 21 78 22 2 23
REMARK SMILES IDX 1 24 3 25 4 26 22 27 23 28 24 29 25 30 26 31 27 32 28 33
REMARK SMILES IDX 29 34 75 35 30 36 74 37 31 38 32 39 33 40 68 41 34 42 73 43
REMARK SMILES IDX 67 44 69 45 35 46 72 47 66 48 65 49 36 51 58 52 43 53 57 54
REMARK SMILES IDX 44 55 47 56 56 57 70 58 45 59 46 60 55 62 71 63 48 64 37 65
REMARK SMILES IDX 38 66 42 67 39 68 41 69 40 70 59 71 60 72 64 73 61 74 63 75
REMARK SMILES IDX 62 76 49 77 50 78 54 79 51 80 53 81 52 82
REMARK H PARENT 13 14 69 50 47 61
REMARK Flexibility Score: inf
ROOT
ATOM      1  C   UNL A   1      32.509  28.831  23.498  1.00  0.00     0.338 C 
ATOM      2  O   UNL A   1      32.224  29.185  22.366  1.00  0.00    -0.246 OA
ENDROOT
BRANCH   1   3
ATOM      3  C   UNL A   1      33.202  27.553  23.786  1.00  0.00     0.060 A 
ATOM      4  C   UNL A   1      34.478  25.176  24.454  1.00  0.00    -0.005 A 
ATOM      5  C   UNL A   1      34.380  26.186  25.406  1.00  0.00     0.010 A 
ATOM      6  C   UNL A   1      33.972  25.342  23.162  1.00  0.00     0.010 A 
ATOM      7  C   UNL A   1      33.778  27.390  25.053  1.00  0.00     0.016 A 
ATOM      8  C   UNL A   1      33.308  26.531  22.833  1.00  0.00     0.016 A 
BRANCH   4   9
ATOM      9  C   UNL A   1      35.103  23.919  24.875  1.00  0.00     0.141 C 
ATOM     10  N   UNL A   1      35.277  22.955  24.039  1.00  0.00    -0.181 NA
BRANCH  10  11
ATOM     11  N   UNL A   1      35.943  21.822  24.404  1.00  0.00    -0.244 N 
ATOM     12  C   UNL A   1      35.539  20.584  24.834  1.00  0.00     0.277 C 
ATOM     13  O   UNL A   1      36.416  19.757  25.117  1.00  0.00    -0.269 OA
ATOM     14  H   UNL A   1      36.922  21.913  24.346  1.00  0.00     0.193 HD
BRANCH  12  15
ATOM     15  C   UNL A   1      34.067  20.183  24.956  1.00  0.00     0.331 C 
BRANCH  15  16
ATOM     16  O   UNL A   1      33.354  20.664  26.083  1.00  0.00    -0.484 OA
BRANCH  16  17
ATOM     17  C   UNL A   1      32.590  21.785  25.912  1.00  0.00     0.120 A 
ATOM     18  C   UNL A   1      31.057  24.183  25.827  1.00  0.00    -0.042 A 
ATOM     19  C   UNL A   1      31.888  23.881  26.921  1.00  0.00     0.008 A 
ATOM     20  C   UNL A   1      31.043  23.264  24.767  1.00  0.00     0.008 A 
ATOM     21  C   UNL A   1      32.638  22.700  26.963  1.00  0.00     0.047 A 
ATOM     22  C   UNL A   1      31.796  22.081  24.809  1.00  0.00     0.047 A 
BRANCH  18  23
ATOM     23  C   UNL A   1      30.224  25.477  25.807  1.00  0.00    -0.013 C 
ATOM     24  C   UNL A   1      28.853  25.204  26.454  1.00  0.00     0.016 C 
ATOM     25  C   UNL A   1      30.016  25.963  24.355  1.00  0.00     0.016 C 
ATOM     26  C   UNL A   1      30.883  26.646  26.577  1.00  0.00     0.016 C 
ENDBRANCH  18  23
ENDBRANCH  16  17
ENDBRANCH  15  16
ENDBRANCH  12  15
ENDBRANCH  10  11
ENDBRANCH   4   9
ENDBRANCH   1   3
BRANCH   1  27
ATOM     27  O   UNL A   1      32.365  29.554  24.637  1.00  0.00    -0.458 OA
BRANCH  27  28
ATOM     28  C   UNL A   1      31.030  30.026  24.913  1.00  0.00     0.275 C 
BRANCH  28  29
ATOM     29  C   UNL A   1      31.056  31.232  25.852  1.00  0.00     0.275 C 
BRANCH  29  30
ATOM     30  O   UNL A   1      32.041  31.028  26.882  1.00  0.00    -0.458 OA
BRANCH  30  31
ATOM     31  C   UNL A   1      32.713  32.131  27.282  1.00  0.00     0.338 C 
ATOM     32  O   UNL A   1      32.324  33.285  27.275  1.00  0.00    -0.246 OA
BRANCH  31  33
ATOM     33  C   UNL A   1      34.052  31.749  27.767  1.00  0.00     0.060 A 
ATOM     34  C   UNL A   1      34.357  30.405  27.960  1.00  0.00     0.016 A 
ATOM     35  C   UNL A   1      34.957  32.732  28.163  1.00  0.00     0.016 A 
ATOM     36  C   UNL A   1      35.516  30.037  28.641  1.00  0.00     0.010 A 
ATOM     37  C   UNL A   1      36.170  32.356  28.755  1.00  0.00     0.010 A 
ATOM     38  C   UNL A   1      36.446  31.007  29.044  1.00  0.00    -0.014 A 
BRANCH  38  39
ATOM     39  C   UNL A   1      37.671  30.626  29.809  1.00  0.00     0.031 A 
ATOM     40  C   UNL A   1      38.756  29.810  29.148  1.00  0.00     0.074 A 
ATOM     41  C   UNL A   1      37.839  31.009  31.091  1.00  0.00     0.049 A 
ATOM     42  N   UNL A   1      39.795  29.220  29.687  1.00  0.00    -0.248 NA
ATOM     43  C   UNL A   1      38.651  29.621  27.692  1.00  0.00     0.031 C 
ATOM     44  C   UNL A   1      36.912  31.840  31.863  1.00  0.00     0.029 A 
ATOM     45  N   UNL A   1      38.862  30.753  31.973  1.00  0.00    -0.354 N 
ATOM     46  C   UNL A   1      40.422  28.534  28.653  1.00  0.00     0.074 A 
ATOM     47  C   UNL A   1      39.654  28.787  27.453  1.00  0.00     0.031 C 
ATOM     48  C   UNL A   1      37.431  32.065  33.079  1.00  0.00     0.029 A 
ATOM     49  C   UNL A   1      38.680  31.323  33.209  1.00  0.00     0.049 A 
ATOM     50  H   UNL A   1      39.651  30.212  31.740  1.00  0.00     0.167 HD
ATOM     51  C   UNL A   1      41.532  27.758  28.697  1.00  0.00     0.031 A 
ATOM     52  C   UNL A   1      39.407  31.232  34.339  1.00  0.00     0.031 A 
ATOM     53  C   UNL A   1      42.338  27.549  29.870  1.00  0.00     0.049 A 
ATOM     54  C   UNL A   1      40.627  30.358  34.370  1.00  0.00     0.074 A 
ATOM     55  C   UNL A   1      43.486  26.786  30.004  1.00  0.00     0.029 A 
ATOM     56  N   UNL A   1      42.096  28.127  31.105  1.00  0.00    -0.354 N 
ATOM     57  N   UNL A   1      41.161  29.654  33.402  1.00  0.00    -0.248 NA
ATOM     58  C   UNL A   1      41.332  30.250  35.656  1.00  0.00     0.031 C 
ATOM     59  C   UNL A   1      43.923  26.879  31.330  1.00  0.00     0.029 A 
ATOM     60  C   UNL A   1      43.069  27.732  32.009  1.00  0.00     0.049 A 
ATOM     61  H   UNL A   1      41.344  28.728  31.311  1.00  0.00     0.167 HD
ATOM     62  C   UNL A   1      42.262  29.020  33.962  1.00  0.00     0.074 A 
ATOM     63  C   UNL A   1      42.336  29.442  35.344  1.00  0.00     0.031 C 
ATOM     64  C   UNL A   1      43.129  28.157  33.382  1.00  0.00     0.031 A 
BRANCH  51  65
ATOM     65  C   UNL A   1      41.922  27.035  27.438  1.00  0.00    -0.014 A 
ATOM     66  C   UNL A   1      42.781  27.615  26.493  1.00  0.00     0.009 A 
ATOM     67  C   UNL A   1      41.447  25.732  27.219  1.00  0.00     0.009 A 
ATOM     68  C   UNL A   1      43.132  26.912  25.337  1.00  0.00     0.001 A 
ATOM     69  C   UNL A   1      41.819  25.024  26.076  1.00  0.00     0.001 A 
ATOM     70  C   UNL A   1      42.655  25.617  25.132  1.00  0.00     0.000 A 
ENDBRANCH  51  65
BRANCH  52  71
ATOM     71  C   UNL A   1      38.967  31.955  35.561  1.00  0.00    -0.014 A 
ATOM     72  C   UNL A   1      39.366  33.280  35.788  1.00  0.00     0.009 A 
ATOM     73  C   UNL A   1      38.139  31.323  36.502  1.00  0.00     0.009 A 
ATOM     74  C   UNL A   1      38.953  33.954  36.939  1.00  0.00     0.001 A 
ATOM     75  C   UNL A   1      37.704  32.008  37.637  1.00  0.00     0.001 A 
ATOM     76  C   UNL A   1      38.117  33.320  37.858  1.00  0.00     0.000 A 
ENDBRANCH  52  71
BRANCH  64  77
ATOM     77  C   UNL A   1      44.243  27.630  34.237  1.00  0.00    -0.014 A 
ATOM     78  C   UNL A   1      45.444  28.342  34.378  1.00  0.00     0.009 A 
ATOM     79  C   UNL A   1      44.079  26.422  34.931  1.00  0.00     0.009 A 
ATOM     80  C   UNL A   1      46.472  27.838  35.178  1.00  0.00     0.001 A 
ATOM     81  C   UNL A   1      45.100  25.930  35.745  1.00  0.00     0.001 A 
ATOM     82  C   UNL A   1      46.298  26.634  35.862  1.00  0.00     0.000 A 
ENDBRANCH  64  77
ENDBRANCH  38  39
ENDBRANCH  31  33
ENDBRANCH  30  31
ENDBRANCH  29  30
ENDBRANCH  28  29
ENDBRANCH  27  28
ENDBRANCH   1  27
TORSDOF 17
ENDMDL
