MODEL 1
REMARK VINA RESULT:     -10.3      0.000      0.000
REMARK SMILES O=C(OCCOC(=O)[C@H]1CC[C@@H](CNc2cccc(F)c2[N+](=O)[O-])O1)c1ccc(-c2c3nc(c(-c4ccccc4)c4ccc([nH]4)c(-c4ccccc4)c4nc(c(-c5ccccc5)c5ccc2[nH]5)C=C4)C=C3)cc1
REMARK SMILES IDX 5 1 4 2 3 3 2 4 1 5 26 6 27 7 73 8 28 9 72 10 29 11 30 12
REMARK SMILES IDX 31 13 66 14 32 15 71 16 65 17 67 18 33 19 70 20 64 21 63 22
REMARK SMILES IDX 34 24 56 25 41 26 55 27 42 28 45 29 54 30 68 31 43 32 44 33
REMARK SMILES IDX 53 35 69 36 46 37 35 38 36 39 40 40 37 41 39 42 38 43 57 44
REMARK SMILES IDX 58 45 62 46 59 47 61 48 60 49 47 50 48 51 52 52 49 53 51 54
REMARK SMILES IDX 50 55 6 56 7 57 8 58 9 59 10 60 25 61 11 62 12 63 13 64
REMARK SMILES IDX 14 65 15 67 16 68 21 69 17 70 19 71 18 72 20 73 22 74 23 75
REMARK SMILES IDX 24 76
REMARK H PARENT 67 23 45 34 14 66
REMARK Flexibility Score: inf
ROOT
ATOM      1  C   UNL A   1      32.327  30.828  26.523  1.00  0.00     0.274 C 
ENDROOT
BRANCH   1   2
ATOM      2  C   UNL A   1      31.453  32.014  26.926  1.00  0.00     0.275 C 
BRANCH   2   3
ATOM      3  O   UNL A   1      32.136  33.281  26.981  1.00  0.00    -0.458 OA
BRANCH   3   4
ATOM      4  C   UNL A   1      32.873  33.841  27.969  1.00  0.00     0.338 C 
ATOM      5  O   UNL A   1      32.547  34.948  28.393  1.00  0.00    -0.246 OA
BRANCH   4   6
ATOM      6  C   UNL A   1      34.151  33.258  28.490  1.00  0.00     0.060 A 
ATOM      7  C   UNL A   1      35.433  33.521  28.001  1.00  0.00     0.016 A 
ATOM      8  C   UNL A   1      34.029  32.359  29.570  1.00  0.00     0.016 A 
ATOM      9  C   UNL A   1      36.568  32.992  28.631  1.00  0.00     0.010 A 
ATOM     10  C   UNL A   1      35.159  31.816  30.193  1.00  0.00     0.010 A 
ATOM     11  C   UNL A   1      36.441  32.150  29.737  1.00  0.00    -0.014 A 
BRANCH  11  12
ATOM     12  C   UNL A   1      37.640  31.519  30.331  1.00  0.00     0.031 A 
ATOM     13  C   UNL A   1      38.145  32.050  31.637  1.00  0.00     0.074 A 
ATOM     14  C   UNL A   1      38.261  30.482  29.740  1.00  0.00     0.049 A 
ATOM     15  N   UNL A   1      39.086  31.572  32.407  1.00  0.00    -0.248 NA
ATOM     16  C   UNL A   1      37.476  33.251  32.163  1.00  0.00     0.031 C 
ATOM     17  C   UNL A   1      37.844  29.827  28.503  1.00  0.00     0.029 A 
ATOM     18  N   UNL A   1      39.400  29.806  30.096  1.00  0.00    -0.354 N 
ATOM     19  C   UNL A   1      39.067  32.366  33.542  1.00  0.00     0.074 A 
ATOM     20  C   UNL A   1      38.096  33.414  33.320  1.00  0.00     0.031 C 
ATOM     21  C   UNL A   1      38.762  28.908  28.151  1.00  0.00     0.029 A 
ATOM     22  C   UNL A   1      39.802  28.875  29.169  1.00  0.00     0.049 A 
ATOM     23  H   UNL A   1      39.884  29.973  30.937  1.00  0.00     0.167 HD
ATOM     24  C   UNL A   1      39.759  32.203  34.693  1.00  0.00     0.031 A 
ATOM     25  C   UNL A   1      40.887  28.081  29.160  1.00  0.00     0.031 A 
ATOM     26  C   UNL A   1      40.785  31.218  34.879  1.00  0.00     0.049 A 
ATOM     27  C   UNL A   1      41.786  28.062  30.364  1.00  0.00     0.074 A 
ATOM     28  C   UNL A   1      41.550  30.961  36.001  1.00  0.00     0.029 A 
ATOM     29  N   UNL A   1      41.218  30.348  33.888  1.00  0.00    -0.354 N 
ATOM     30  N   UNL A   1      41.683  28.738  31.481  1.00  0.00    -0.248 NA
ATOM     31  C   UNL A   1      42.914  27.121  30.324  1.00  0.00     0.031 C 
ATOM     32  C   UNL A   1      42.491  29.979  35.668  1.00  0.00     0.029 A 
ATOM     33  C   UNL A   1      42.270  29.584  34.358  1.00  0.00     0.049 A 
ATOM     34  H   UNL A   1      40.833  30.285  32.985  1.00  0.00     0.167 HD
ATOM     35  C   UNL A   1      42.690  28.255  32.305  1.00  0.00     0.074 A 
ATOM     36  C   UNL A   1      43.406  27.247  31.549  1.00  0.00     0.031 C 
ATOM     37  C   UNL A   1      42.974  28.592  33.587  1.00  0.00     0.031 A 
BRANCH  24  38
ATOM     38  C   UNL A   1      39.410  33.143  35.807  1.00  0.00    -0.014 A 
ATOM     39  C   UNL A   1      40.101  34.359  35.959  1.00  0.00     0.009 A 
ATOM     40  C   UNL A   1      38.441  32.786  36.753  1.00  0.00     0.009 A 
ATOM     41  C   UNL A   1      39.867  35.171  37.069  1.00  0.00     0.001 A 
ATOM     42  C   UNL A   1      38.191  33.614  37.849  1.00  0.00     0.001 A 
ATOM     43  C   UNL A   1      38.913  34.796  38.014  1.00  0.00     0.000 A 
ENDBRANCH  24  38
BRANCH  25  44
ATOM     44  C   UNL A   1      41.198  27.200  28.009  1.00  0.00    -0.014 A 
ATOM     45  C   UNL A   1      41.903  27.692  26.900  1.00  0.00     0.009 A 
ATOM     46  C   UNL A   1      40.660  25.905  27.961  1.00  0.00     0.009 A 
ATOM     47  C   UNL A   1      42.023  26.920  25.742  1.00  0.00     0.001 A 
ATOM     48  C   UNL A   1      40.778  25.141  26.800  1.00  0.00     0.001 A 
ATOM     49  C   UNL A   1      41.448  25.652  25.689  1.00  0.00     0.000 A 
ENDBRANCH  25  44
BRANCH  37  50
ATOM     50  C   UNL A   1      44.064  27.815  34.266  1.00  0.00    -0.014 A 
ATOM     51  C   UNL A   1      45.391  28.270  34.283  1.00  0.00     0.009 A 
ATOM     52  C   UNL A   1      43.745  26.614  34.917  1.00  0.00     0.009 A 
ATOM     53  C   UNL A   1      46.383  27.518  34.912  1.00  0.00     0.001 A 
ATOM     54  C   UNL A   1      44.732  25.881  35.574  1.00  0.00     0.001 A 
ATOM     55  C   UNL A   1      46.052  26.329  35.562  1.00  0.00     0.000 A 
ENDBRANCH  37  50
ENDBRANCH  11  12
ENDBRANCH   4   6
ENDBRANCH   3   4
ENDBRANCH   2   3
ENDBRANCH   1   2
BRANCH   1  56
ATOM     56  O   UNL A   1      31.965  30.303  25.240  1.00  0.00    -0.460 OA
BRANCH  56  57
ATOM     57  C   UNL A   1      31.401  29.064  25.246  1.00  0.00     0.335 C 
ATOM     58  O   UNL A   1      31.536  28.254  26.158  1.00  0.00    -0.249 OA
BRANCH  57  59
ATOM     59  C   UNL A   1      30.540  28.802  24.004  1.00  0.00     0.228 C 
ATOM     60  C   UNL A   1      31.249  28.756  22.665  1.00  0.00     0.047 C 
ATOM     61  O   UNL A   1      29.890  27.531  24.161  1.00  0.00    -0.361 OA
ATOM     62  C   UNL A   1      31.505  27.296  22.434  1.00  0.00     0.037 C 
ATOM     63  C   UNL A   1      30.324  26.647  23.119  1.00  0.00     0.138 C 
BRANCH  63  64
ATOM     64  C   UNL A   1      30.688  25.263  23.673  1.00  0.00     0.145 C 
BRANCH  64  65
ATOM     65  N   UNL A   1      31.449  25.438  24.899  1.00  0.00    -0.377 N 
ATOM     66  H   UNL A   1      31.163  26.189  25.468  1.00  0.00     0.160 HD
BRANCH  65  67
ATOM     67  C   UNL A   1      32.514  24.703  25.380  1.00  0.00     0.116 A 
ATOM     68  C   UNL A   1      33.842  25.064  25.090  1.00  0.00     0.033 A 
ATOM     69  C   UNL A   1      32.328  23.583  26.233  1.00  0.00     0.327 A 
ATOM     70  C   UNL A   1      34.932  24.374  25.635  1.00  0.00     0.006 A 
ATOM     71  C   UNL A   1      33.421  22.932  26.813  1.00  0.00     0.202 A 
ATOM     72  C   UNL A   1      34.720  23.318  26.510  1.00  0.00     0.047 A 
ATOM     73  F   UNL A   1      33.273  21.919  27.679  1.00  0.00    -0.199 F 
BRANCH  69  74
ATOM     74  N   UNL A   1      30.987  23.045  26.492  1.00  0.00     0.068 N 
ATOM     75  O   UNL A   1      30.238  23.685  27.250  1.00  0.00    -0.258 OA
ATOM     76  O   UNL A   1      30.654  21.984  25.948  1.00  0.00    -0.258 OA
ENDBRANCH  69  74
ENDBRANCH  65  67
ENDBRANCH  64  65
ENDBRANCH  63  64
ENDBRANCH  57  59
ENDBRANCH  56  57
ENDBRANCH   1  56
TORSDOF 15
ENDMDL
MODEL 2
REMARK VINA RESULT:     -10.2      4.343      9.317
REMARK SMILES O=C(OCCOC(=O)[C@H]1CC[C@@H](CNc2cccc(F)c2[N+](=O)[O-])O1)c1ccc(-c2c3nc(c(-c4ccccc4)c4ccc([nH]4)c(-c4ccccc4)c4nc(c(-c5ccccc5)c5ccc2[nH]5)C=C4)C=C3)cc1
REMARK SMILES IDX 5 1 4 2 3 3 2 4 1 5 26 6 27 7 73 8 28 9 72 10 29 11 30 12
REMARK SMILES IDX 31 13 66 14 32 15 71 16 65 17 67 18 33 19 70 20 64 21 63 22
REMARK SMILES IDX 34 24 56 25 41 26 55 27 42 28 45 29 54 30 68 31 43 32 44 33
REMARK SMILES IDX 53 35 69 36 46 37 35 38 36 39 40 40 37 41 39 42 38 43 57 44
REMARK SMILES IDX 58 45 62 46 59 47 61 48 60 49 47 50 48 51 52 52 49 53 51 54
REMARK SMILES IDX 50 55 6 56 7 57 8 58 9 59 10 60 25 61 11 62 12 63 13 64
REMARK SMILES IDX 14 65 15 67 16 68 21 69 17 70 19 71 18 72 20 73 22 74 23 75
REMARK SMILES IDX 24 76
REMARK H PARENT 67 23 45 34 14 66
REMARK Flexibility Score: inf
ROOT
ATOM      1  C   UNL A   1      37.611  20.734  25.269  1.00  0.00     0.274 C 
ENDROOT
BRANCH   1   2
ATOM      2  C   UNL A   1      38.555  19.662  24.727  1.00  0.00     0.275 C 
BRANCH   2   3
ATOM      3  O   UNL A   1      39.508  19.153  25.680  1.00  0.00    -0.458 OA
BRANCH   3   4
ATOM      4  C   UNL A   1      40.772  19.549  25.957  1.00  0.00     0.338 C 
ATOM      5  O   UNL A   1      41.688  18.739  25.823  1.00  0.00    -0.246 OA
BRANCH   4   6
ATOM      6  C   UNL A   1      41.119  20.879  26.551  1.00  0.00     0.060 A 
ATOM      7  C   UNL A   1      41.015  21.227  27.900  1.00  0.00     0.016 A 
ATOM      8  C   UNL A   1      41.586  21.859  25.652  1.00  0.00     0.016 A 
ATOM      9  C   UNL A   1      41.460  22.474  28.360  1.00  0.00     0.010 A 
ATOM     10  C   UNL A   1      42.017  23.112  26.104  1.00  0.00     0.010 A 
ATOM     11  C   UNL A   1      41.977  23.418  27.470  1.00  0.00    -0.014 A 
BRANCH  11  12
ATOM     12  C   UNL A   1      42.351  24.765  27.952  1.00  0.00     0.031 A 
ATOM     13  C   UNL A   1      43.792  25.034  28.257  1.00  0.00     0.074 A 
ATOM     14  C   UNL A   1      41.439  25.744  28.099  1.00  0.00     0.049 A 
ATOM     15  N   UNL A   1      44.370  26.166  28.557  1.00  0.00    -0.248 NA
ATOM     16  C   UNL A   1      44.708  23.883  28.173  1.00  0.00     0.031 C 
ATOM     17  C   UNL A   1      40.017  25.642  27.784  1.00  0.00     0.029 A 
ATOM     18  N   UNL A   1      41.573  27.022  28.578  1.00  0.00    -0.354 N 
ATOM     19  C   UNL A   1      45.725  25.880  28.618  1.00  0.00     0.074 A 
ATOM     20  C   UNL A   1      45.874  24.455  28.427  1.00  0.00     0.031 C 
ATOM     21  C   UNL A   1      39.391  26.771  28.163  1.00  0.00     0.029 A 
ATOM     22  C   UNL A   1      40.381  27.695  28.698  1.00  0.00     0.049 A 
ATOM     23  H   UNL A   1      42.443  27.420  28.814  1.00  0.00     0.167 HD
ATOM     24  C   UNL A   1      46.759  26.739  28.767  1.00  0.00     0.031 A 
ATOM     25  C   UNL A   1      40.130  28.926  29.177  1.00  0.00     0.031 A 
ATOM     26  C   UNL A   1      46.606  28.138  29.045  1.00  0.00     0.049 A 
ATOM     27  C   UNL A   1      41.286  29.810  29.552  1.00  0.00     0.074 A 
ATOM     28  C   UNL A   1      47.581  29.103  29.213  1.00  0.00     0.029 A 
ATOM     29  N   UNL A   1      45.382  28.764  29.239  1.00  0.00    -0.354 N 
ATOM     30  N   UNL A   1      42.571  29.561  29.491  1.00  0.00    -0.248 NA
ATOM     31  C   UNL A   1      40.952  31.170  30.000  1.00  0.00     0.031 C 
ATOM     32  C   UNL A   1      46.948  30.299  29.573  1.00  0.00     0.029 A 
ATOM     33  C   UNL A   1      45.578  30.092  29.571  1.00  0.00     0.049 A 
ATOM     34  H   UNL A   1      44.505  28.327  29.154  1.00  0.00     0.167 HD
ATOM     35  C   UNL A   1      43.200  30.751  29.826  1.00  0.00     0.074 A 
ATOM     36  C   UNL A   1      42.155  31.714  30.111  1.00  0.00     0.031 C 
ATOM     37  C   UNL A   1      44.526  31.031  29.859  1.00  0.00     0.031 A 
BRANCH  24  38
ATOM     38  C   UNL A   1      48.129  26.145  28.641  1.00  0.00    -0.014 A 
ATOM     39  C   UNL A   1      48.813  25.681  29.779  1.00  0.00     0.009 A 
ATOM     40  C   UNL A   1      48.772  26.112  27.397  1.00  0.00     0.009 A 
ATOM     41  C   UNL A   1      50.137  25.249  29.681  1.00  0.00     0.001 A 
ATOM     42  C   UNL A   1      50.087  25.655  27.298  1.00  0.00     0.001 A 
ATOM     43  C   UNL A   1      50.773  25.239  28.440  1.00  0.00     0.000 A 
ENDBRANCH  24  38
BRANCH  25  44
ATOM     44  C   UNL A   1      38.748  29.443  29.312  1.00  0.00    -0.014 A 
ATOM     45  C   UNL A   1      37.993  29.177  30.465  1.00  0.00     0.009 A 
ATOM     46  C   UNL A   1      38.135  30.078  28.223  1.00  0.00     0.009 A 
ATOM     47  C   UNL A   1      36.635  29.497  30.508  1.00  0.00     0.001 A 
ATOM     48  C   UNL A   1      36.777  30.391  28.268  1.00  0.00     0.001 A 
ATOM     49  C   UNL A   1      36.025  30.089  29.404  1.00  0.00     0.000 A 
ENDBRANCH  25  44
BRANCH  37  50
ATOM     50  C   UNL A   1      44.910  32.452  30.154  1.00  0.00    -0.014 A 
ATOM     51  C   UNL A   1      45.027  33.409  29.136  1.00  0.00     0.009 A 
ATOM     52  C   UNL A   1      45.138  32.836  31.484  1.00  0.00     0.009 A 
ATOM     53  C   UNL A   1      45.399  34.719  29.444  1.00  0.00     0.001 A 
ATOM     54  C   UNL A   1      45.477  34.153  31.792  1.00  0.00     0.001 A 
ATOM     55  C   UNL A   1      45.617  35.091  30.770  1.00  0.00     0.000 A 
ENDBRANCH  37  50
ENDBRANCH  11  12
ENDBRANCH   4   6
ENDBRANCH   3   4
ENDBRANCH   2   3
ENDBRANCH   1   2
BRANCH   1  56
ATOM     56  O   UNL A   1      36.235  20.394  25.063  1.00  0.00    -0.460 OA
BRANCH  56  57
ATOM     57  C   UNL A   1      35.358  21.435  25.099  1.00  0.00     0.335 C 
ATOM     58  O   UNL A   1      35.543  22.507  24.531  1.00  0.00    -0.249 OA
BRANCH  57  59
ATOM     59  C   UNL A   1      34.088  21.109  25.895  1.00  0.00     0.228 C 
ATOM     60  C   UNL A   1      33.981  21.679  27.296  1.00  0.00     0.047 C 
ATOM     61  O   UNL A   1      32.955  21.609  25.168  1.00  0.00    -0.361 OA
ATOM     62  C   UNL A   1      33.193  22.943  27.120  1.00  0.00     0.037 C 
ATOM     63  C   UNL A   1      32.288  22.602  25.958  1.00  0.00     0.138 C 
BRANCH  63  64
ATOM     64  C   UNL A   1      31.950  23.847  25.126  1.00  0.00     0.145 C 
BRANCH  64  65
ATOM     65  N   UNL A   1      32.774  24.952  25.588  1.00  0.00    -0.377 N 
ATOM     66  H   UNL A   1      33.331  24.761  26.377  1.00  0.00     0.160 HD
BRANCH  65  67
ATOM     67  C   UNL A   1      32.888  26.230  25.079  1.00  0.00     0.116 A 
ATOM     68  C   UNL A   1      33.773  26.523  24.026  1.00  0.00     0.033 A 
ATOM     69  C   UNL A   1      32.081  27.300  25.551  1.00  0.00     0.327 A 
ATOM     70  C   UNL A   1      33.842  27.796  23.448  1.00  0.00     0.006 A 
ATOM     71  C   UNL A   1      32.119  28.555  24.936  1.00  0.00     0.202 A 
ATOM     72  C   UNL A   1      33.002  28.807  23.893  1.00  0.00     0.047 A 
ATOM     73  F   UNL A   1      31.318  29.561  25.312  1.00  0.00    -0.199 F 
BRANCH  69  74
ATOM     74  N   UNL A   1      31.221  27.136  26.729  1.00  0.00     0.068 N 
ATOM     75  O   UNL A   1      30.281  26.325  26.657  1.00  0.00    -0.258 OA
ATOM     76  O   UNL A   1      31.464  27.802  27.744  1.00  0.00    -0.258 OA
ENDBRANCH  69  74
ENDBRANCH  65  67
ENDBRANCH  64  65
ENDBRANCH  63  64
ENDBRANCH  57  59
ENDBRANCH  56  57
ENDBRANCH   1  56
TORSDOF 15
ENDMDL
MODEL 3
REMARK VINA RESULT:     -10.1      3.499      8.168
REMARK SMILES O=C(OCCOC(=O)[C@H]1CC[C@@H](CNc2cccc(F)c2[N+](=O)[O-])O1)c1ccc(-c2c3nc(c(-c4ccccc4)c4ccc([nH]4)c(-c4ccccc4)c4nc(c(-c5ccccc5)c5ccc2[nH]5)C=C4)C=C3)cc1
REMARK SMILES IDX 5 1 4 2 3 3 2 4 1 5 26 6 27 7 73 8 28 9 72 10 29 11 30 12
REMARK SMILES IDX 31 13 66 14 32 15 71 16 65 17 67 18 33 19 70 20 64 21 63 22
REMARK SMILES IDX 34 24 56 25 41 26 55 27 42 28 45 29 54 30 68 31 43 32 44 33
REMARK SMILES IDX 53 35 69 36 46 37 35 38 36 39 40 40 37 41 39 42 38 43 57 44
REMARK SMILES IDX 58 45 62 46 59 47 61 48 60 49 47 50 48 51 52 52 49 53 51 54
REMARK SMILES IDX 50 55 6 56 7 57 8 58 9 59 10 60 25 61 11 62 12 63 13 64
REMARK SMILES IDX 14 65 15 67 16 68 21 69 17 70 19 71 18 72 20 73 22 74 23 75
REMARK SMILES IDX 24 76
REMARK H PARENT 67 23 45 34 14 66
REMARK Flexibility Score: inf
ROOT
ATOM      1  C   UNL A   1      36.196  22.892  23.662  1.00  0.00     0.274 C 
ENDROOT
BRANCH   1   2
ATOM      2  C   UNL A   1      36.794  23.344  24.993  1.00  0.00     0.275 C 
BRANCH   2   3
ATOM      3  O   UNL A   1      37.727  22.419  25.585  1.00  0.00    -0.458 OA
BRANCH   3   4
ATOM      4  C   UNL A   1      38.939  22.632  26.148  1.00  0.00     0.338 C 
ATOM      5  O   UNL A   1      39.680  21.668  26.335  1.00  0.00    -0.246 OA
BRANCH   4   6
ATOM      6  C   UNL A   1      39.390  23.955  26.687  1.00  0.00     0.060 A 
ATOM      7  C   UNL A   1      40.185  24.887  26.015  1.00  0.00     0.016 A 
ATOM      8  C   UNL A   1      38.970  24.268  27.996  1.00  0.00     0.016 A 
ATOM      9  C   UNL A   1      40.466  26.138  26.581  1.00  0.00     0.010 A 
ATOM     10  C   UNL A   1      39.261  25.511  28.573  1.00  0.00     0.010 A 
ATOM     11  C   UNL A   1      39.995  26.463  27.855  1.00  0.00    -0.014 A 
BRANCH  11  12
ATOM     12  C   UNL A   1      40.381  27.747  28.482  1.00  0.00     0.031 A 
ATOM     13  C   UNL A   1      41.775  27.886  29.009  1.00  0.00     0.074 A 
ATOM     14  C   UNL A   1      39.523  28.780  28.567  1.00  0.00     0.049 A 
ATOM     15  N   UNL A   1      42.375  28.950  29.471  1.00  0.00    -0.248 NA
ATOM     16  C   UNL A   1      42.616  26.677  28.975  1.00  0.00     0.031 C 
ATOM     17  C   UNL A   1      38.160  28.805  28.044  1.00  0.00     0.029 A 
ATOM     18  N   UNL A   1      39.668  30.012  29.152  1.00  0.00    -0.354 N 
ATOM     19  C   UNL A   1      43.684  28.561  29.705  1.00  0.00     0.074 A 
ATOM     20  C   UNL A   1      43.767  27.142  29.434  1.00  0.00     0.031 C 
ATOM     21  C   UNL A   1      37.560  29.952  28.409  1.00  0.00     0.029 A 
ATOM     22  C   UNL A   1      38.518  30.764  29.147  1.00  0.00     0.049 A 
ATOM     23  H   UNL A   1      40.517  30.327  29.539  1.00  0.00     0.167 HD
ATOM     24  C   UNL A   1      44.739  29.328  30.063  1.00  0.00     0.031 A 
ATOM     25  C   UNL A   1      38.280  31.978  29.674  1.00  0.00     0.031 A 
ATOM     26  C   UNL A   1      44.637  30.715  30.417  1.00  0.00     0.049 A 
ATOM     27  C   UNL A   1      39.423  32.748  30.274  1.00  0.00     0.074 A 
ATOM     28  C   UNL A   1      45.638  31.591  30.794  1.00  0.00     0.029 A 
ATOM     29  N   UNL A   1      43.442  31.418  30.479  1.00  0.00    -0.354 N 
ATOM     30  N   UNL A   1      40.683  32.407  30.380  1.00  0.00    -0.248 NA
ATOM     31  C   UNL A   1      39.115  34.098  30.767  1.00  0.00     0.031 C 
ATOM     32  C   UNL A   1      45.038  32.807  31.145  1.00  0.00     0.029 A 
ATOM     33  C   UNL A   1      43.673  32.704  30.930  1.00  0.00     0.049 A 
ATOM     34  H   UNL A   1      42.560  31.054  30.237  1.00  0.00     0.167 HD
ATOM     35  C   UNL A   1      41.332  33.523  30.888  1.00  0.00     0.074 A 
ATOM     36  C   UNL A   1      40.321  34.542  31.089  1.00  0.00     0.031 C 
ATOM     37  C   UNL A   1      42.653  33.700  31.131  1.00  0.00     0.031 A 
BRANCH  24  38
ATOM     38  C   UNL A   1      46.071  28.641  30.093  1.00  0.00    -0.014 A 
ATOM     39  C   UNL A   1      46.539  28.043  31.277  1.00  0.00     0.009 A 
ATOM     40  C   UNL A   1      46.895  28.652  28.960  1.00  0.00     0.009 A 
ATOM     41  C   UNL A   1      47.831  27.519  31.340  1.00  0.00     0.001 A 
ATOM     42  C   UNL A   1      48.177  28.104  29.021  1.00  0.00     0.001 A 
ATOM     43  C   UNL A   1      48.649  27.553  30.212  1.00  0.00     0.000 A 
ENDBRANCH  24  38
BRANCH  25  44
ATOM     44  C   UNL A   1      36.929  32.588  29.646  1.00  0.00    -0.014 A 
ATOM     45  C   UNL A   1      36.549  33.437  28.596  1.00  0.00     0.009 A 
ATOM     46  C   UNL A   1      36.075  32.434  30.747  1.00  0.00     0.009 A 
ATOM     47  C   UNL A   1      35.356  34.160  28.670  1.00  0.00     0.001 A 
ATOM     48  C   UNL A   1      34.888  33.162  30.819  1.00  0.00     0.001 A 
ATOM     49  C   UNL A   1      34.535  34.032  29.788  1.00  0.00     0.000 A 
ENDBRANCH  25  44
BRANCH  37  50
ATOM     50  C   UNL A   1      43.082  35.066  31.581  1.00  0.00    -0.014 A 
ATOM     51  C   UNL A   1      43.512  36.040  30.668  1.00  0.00     0.009 A 
ATOM     52  C   UNL A   1      43.031  35.383  32.947  1.00  0.00     0.009 A 
ATOM     53  C   UNL A   1      43.915  37.298  31.121  1.00  0.00     0.001 A 
ATOM     54  C   UNL A   1      43.404  36.651  33.393  1.00  0.00     0.001 A 
ATOM     55  C   UNL A   1      43.855  37.603  32.481  1.00  0.00     0.000 A 
ENDBRANCH  37  50
ENDBRANCH  11  12
ENDBRANCH   4   6
ENDBRANCH   3   4
ENDBRANCH   2   3
ENDBRANCH   1   2
BRANCH   1  56
ATOM     56  O   UNL A   1      34.850  22.421  23.808  1.00  0.00    -0.460 OA
BRANCH  56  57
ATOM     57  C   UNL A   1      33.907  23.103  23.102  1.00  0.00     0.335 C 
ATOM     58  O   UNL A   1      33.992  23.347  21.902  1.00  0.00    -0.249 OA
BRANCH  57  59
ATOM     59  C   UNL A   1      32.699  23.497  23.960  1.00  0.00     0.228 C 
ATOM     60  C   UNL A   1      32.562  22.832  25.315  1.00  0.00     0.047 C 
ATOM     61  O   UNL A   1      32.759  24.911  24.209  1.00  0.00    -0.361 OA
ATOM     62  C   UNL A   1      33.187  23.806  26.269  1.00  0.00     0.037 C 
ATOM     63  C   UNL A   1      32.881  25.137  25.619  1.00  0.00     0.138 C 
BRANCH  63  64
ATOM     64  C   UNL A   1      33.970  26.174  25.929  1.00  0.00     0.145 C 
BRANCH  64  65
ATOM     65  N   UNL A   1      33.567  27.452  25.366  1.00  0.00    -0.377 N 
ATOM     66  H   UNL A   1      33.432  27.459  24.391  1.00  0.00     0.160 HD
BRANCH  65  67
ATOM     67  C   UNL A   1      33.347  28.658  26.003  1.00  0.00     0.116 A 
ATOM     68  C   UNL A   1      34.267  29.174  26.932  1.00  0.00     0.033 A 
ATOM     69  C   UNL A   1      32.212  29.461  25.714  1.00  0.00     0.327 A 
ATOM     70  C   UNL A   1      34.095  30.430  27.525  1.00  0.00     0.006 A 
ATOM     71  C   UNL A   1      32.073  30.735  26.272  1.00  0.00     0.202 A 
ATOM     72  C   UNL A   1      33.005  31.218  27.182  1.00  0.00     0.047 A 
ATOM     73  F   UNL A   1      31.051  31.545  25.961  1.00  0.00    -0.199 F 
BRANCH  69  74
ATOM     74  N   UNL A   1      31.127  28.960  24.861  1.00  0.00     0.068 N 
ATOM     75  O   UNL A   1      30.777  27.775  24.998  1.00  0.00    -0.258 OA
ATOM     76  O   UNL A   1      30.603  29.731  24.046  1.00  0.00    -0.258 OA
ENDBRANCH  69  74
ENDBRANCH  65  67
ENDBRANCH  64  65
ENDBRANCH  63  64
ENDBRANCH  57  59
ENDBRANCH  56  57
ENDBRANCH   1  56
TORSDOF 15
ENDMDL
