MODEL 1
REMARK VINA RESULT:     -10.4      0.000      0.000
REMARK SMILES O=C(CN(Cc1ccccc1Cl)S(=O)(=O)c1ccc(Cl)cc1)OCCOC(=O)c1ccc(-c2c3nc(c(-c4ccccc4)c4ccc([nH]4)c(-c4ccccc4)c4nc(c(-c5ccccc5)c5ccc2[nH]5)C=C4)C=C3)cc1
REMARK SMILES IDX 24 1 23 2 2 3 1 4 3 5 4 6 5 7 6 8 7 9 11 10 8 11 10 12 12 13
REMARK SMILES IDX 9 14 13 15 14 16 15 17 16 18 17 19 22 20 18 21 21 22 19 23
REMARK SMILES IDX 20 24 25 25 26 26 27 27 28 28 29 29 30 30 76 31 31 32 75 33
REMARK SMILES IDX 32 34 33 35 34 36 69 37 35 38 74 39 68 40 70 41 36 42 73 43
REMARK SMILES IDX 67 44 66 45 37 47 59 48 44 49 58 50 45 51 48 52 57 53 71 54
REMARK SMILES IDX 46 55 47 56 56 58 72 59 49 60 38 61 39 62 43 63 40 64 42 65
REMARK SMILES IDX 41 66 60 67 61 68 65 69 62 70 64 71 63 72 50 73 51 74 55 75
REMARK SMILES IDX 52 76 54 77 53 78
REMARK H PARENT 70 46 48 57
REMARK Flexibility Score: inf
ROOT
ATOM      1  C   UNL A   1      31.694  28.816  26.692  1.00  0.00     0.274 C 
ENDROOT
BRANCH   1   2
ATOM      2  O   UNL A   1      31.262  28.064  25.539  1.00  0.00    -0.461 OA
BRANCH   2   3
ATOM      3  C   UNL A   1      30.939  26.748  25.540  1.00  0.00     0.321 C 
ATOM      4  O   UNL A   1      30.366  26.257  26.512  1.00  0.00    -0.251 OA
BRANCH   3   5
ATOM      5  C   UNL A   1      31.375  25.879  24.377  1.00  0.00     0.225 C 
BRANCH   5   6
ATOM      6  N   UNL A   1      32.365  24.773  24.592  1.00  0.00    -0.182 NA
BRANCH   6   7
ATOM      7  C   UNL A   1      31.682  23.470  24.705  1.00  0.00     0.140 C 
BRANCH   7   8
ATOM      8  C   UNL A   1      32.404  22.136  24.718  1.00  0.00    -0.014 A 
ATOM      9  C   UNL A   1      32.213  21.294  23.597  1.00  0.00     0.006 A 
ATOM     10  C   UNL A   1      33.095  21.583  25.809  1.00  0.00     0.045 A 
ATOM     11  C   UNL A   1      32.678  19.976  23.570  1.00  0.00     0.000 A 
ATOM     12  C   UNL A   1      33.580  20.267  25.768  1.00  0.00     0.021 A 
ATOM     13  Cl  UNL A   1      33.324  22.380  27.312  1.00  0.00    -0.084 Cl
ATOM     14  C   UNL A   1      33.365  19.461  24.657  1.00  0.00     0.002 A 
ENDBRANCH   7   8
ENDBRANCH   6   7
BRANCH   6  15
ATOM     15  S   UNL A   1      33.803  25.078  23.748  1.00  0.00     0.243 S 
ATOM     16  O   UNL A   1      33.587  24.698  22.370  1.00  0.00    -0.207 OA
ATOM     17  O   UNL A   1      34.112  26.458  24.074  1.00  0.00    -0.207 OA
BRANCH  15  18
ATOM     18  C   UNL A   1      35.227  24.168  24.331  1.00  0.00     0.082 A 
ATOM     19  C   UNL A   1      35.689  23.156  23.469  1.00  0.00     0.023 A 
ATOM     20  C   UNL A   1      35.851  24.318  25.566  1.00  0.00     0.023 A 
ATOM     21  C   UNL A   1      36.735  22.308  23.851  1.00  0.00     0.022 A 
ATOM     22  C   UNL A   1      36.899  23.473  25.951  1.00  0.00     0.022 A 
ATOM     23  C   UNL A   1      37.333  22.469  25.095  1.00  0.00     0.041 A 
ATOM     24  Cl  UNL A   1      38.592  21.411  25.596  1.00  0.00    -0.084 Cl
ENDBRANCH  15  18
ENDBRANCH   6  15
ENDBRANCH   5   6
ENDBRANCH   3   5
ENDBRANCH   2   3
ENDBRANCH   1   2
BRANCH   1  25
ATOM     25  C   UNL A   1      32.885  29.714  26.343  1.00  0.00     0.275 C 
BRANCH  25  26
ATOM     26  O   UNL A   1      34.018  29.359  27.161  1.00  0.00    -0.458 OA
BRANCH  26  27
ATOM     27  C   UNL A   1      34.581  30.375  27.865  1.00  0.00     0.338 C 
ATOM     28  O   UNL A   1      34.024  31.373  28.286  1.00  0.00    -0.246 OA
BRANCH  27  29
ATOM     29  C   UNL A   1      35.963  29.987  28.232  1.00  0.00     0.060 A 
ATOM     30  C   UNL A   1      36.955  30.054  27.245  1.00  0.00     0.016 A 
ATOM     31  C   UNL A   1      36.299  29.611  29.534  1.00  0.00     0.016 A 
ATOM     32  C   UNL A   1      38.279  29.723  27.552  1.00  0.00     0.010 A 
ATOM     33  C   UNL A   1      37.625  29.282  29.838  1.00  0.00     0.010 A 
ATOM     34  C   UNL A   1      38.624  29.315  28.847  1.00  0.00    -0.014 A 
BRANCH  34  35
ATOM     35  C   UNL A   1      39.989  28.799  29.144  1.00  0.00     0.031 A 
ATOM     36  C   UNL A   1      41.010  29.730  29.743  1.00  0.00     0.074 A 
ATOM     37  C   UNL A   1      40.343  27.523  28.897  1.00  0.00     0.049 A 
ATOM     38  N   UNL A   1      42.249  29.484  30.091  1.00  0.00    -0.248 NA
ATOM     39  C   UNL A   1      40.577  31.113  29.997  1.00  0.00     0.031 C 
ATOM     40  C   UNL A   1      39.474  26.481  28.355  1.00  0.00     0.029 A 
ATOM     41  N   UNL A   1      41.562  26.900  29.036  1.00  0.00    -0.354 N 
ATOM     42  C   UNL A   1      42.712  30.654  30.674  1.00  0.00     0.074 A 
ATOM     43  C   UNL A   1      41.670  31.646  30.522  1.00  0.00     0.031 C 
ATOM     44  C   UNL A   1      40.207  25.375  28.127  1.00  0.00     0.029 A 
ATOM     45  C   UNL A   1      41.592  25.631  28.511  1.00  0.00     0.049 A 
ATOM     46  H   UNL A   1      42.338  27.323  29.469  1.00  0.00     0.167 HD
ATOM     47  C   UNL A   1      43.869  30.875  31.341  1.00  0.00     0.031 A 
ATOM     48  C   UNL A   1      42.621  24.780  28.332  1.00  0.00     0.031 A 
ATOM     49  C   UNL A   1      44.932  29.917  31.479  1.00  0.00     0.049 A 
ATOM     50  C   UNL A   1      43.975  25.109  28.896  1.00  0.00     0.074 A 
ATOM     51  C   UNL A   1      46.118  30.038  32.183  1.00  0.00     0.029 A 
ATOM     52  N   UNL A   1      44.946  28.668  30.884  1.00  0.00    -0.354 N 
ATOM     53  N   UNL A   1      44.365  26.185  29.532  1.00  0.00    -0.248 NA
ATOM     54  C   UNL A   1      45.015  24.076  28.769  1.00  0.00     0.031 C 
ATOM     55  C   UNL A   1      46.874  28.880  31.970  1.00  0.00     0.029 A 
ATOM     56  C   UNL A   1      46.136  28.019  31.177  1.00  0.00     0.049 A 
ATOM     57  H   UNL A   1      44.219  28.294  30.335  1.00  0.00     0.167 HD
ATOM     58  C   UNL A   1      45.664  25.927  29.951  1.00  0.00     0.074 A 
ATOM     59  C   UNL A   1      46.007  24.606  29.470  1.00  0.00     0.031 C 
ATOM     60  C   UNL A   1      46.482  26.704  30.702  1.00  0.00     0.031 A 
BRANCH  47  61
ATOM     61  C   UNL A   1      44.014  32.207  32.017  1.00  0.00    -0.014 A 
ATOM     62  C   UNL A   1      43.551  32.386  33.333  1.00  0.00     0.009 A 
ATOM     63  C   UNL A   1      44.629  33.279  31.358  1.00  0.00     0.009 A 
ATOM     64  C   UNL A   1      43.671  33.626  33.962  1.00  0.00     0.001 A 
ATOM     65  C   UNL A   1      44.770  34.511  31.999  1.00  0.00     0.001 A 
ATOM     66  C   UNL A   1      44.283  34.685  33.295  1.00  0.00     0.000 A 
ENDBRANCH  47  61
BRANCH  48  67
ATOM     67  C   UNL A   1      42.425  23.524  27.564  1.00  0.00    -0.014 A 
ATOM     68  C   UNL A   1      42.002  22.344  28.191  1.00  0.00     0.009 A 
ATOM     69  C   UNL A   1      42.728  23.497  26.192  1.00  0.00     0.009 A 
ATOM     70  C   UNL A   1      41.920  21.152  27.467  1.00  0.00     0.001 A 
ATOM     71  C   UNL A   1      42.624  22.308  25.467  1.00  0.00     0.001 A 
ATOM     72  C   UNL A   1      42.230  21.135  26.108  1.00  0.00     0.000 A 
ENDBRANCH  48  67
BRANCH  60  73
ATOM     73  C   UNL A   1      47.798  26.116  31.124  1.00  0.00    -0.014 A 
ATOM     74  C   UNL A   1      47.987  25.562  32.400  1.00  0.00     0.009 A 
ATOM     75  C   UNL A   1      48.871  26.112  30.217  1.00  0.00     0.009 A 
ATOM     76  C   UNL A   1      49.235  25.054  32.770  1.00  0.00     0.001 A 
ATOM     77  C   UNL A   1      50.108  25.577  30.580  1.00  0.00     0.001 A 
ATOM     78  C   UNL A   1      50.293  25.059  31.860  1.00  0.00     0.000 A 
ENDBRANCH  60  73
ENDBRANCH  34  35
ENDBRANCH  27  29
ENDBRANCH  26  27
ENDBRANCH  25  26
ENDBRANCH   1  25
TORSDOF 16
ENDMDL
MODEL 2
REMARK VINA RESULT:     -10.2      2.727      7.846
REMARK SMILES O=C(CN(Cc1ccccc1Cl)S(=O)(=O)c1ccc(Cl)cc1)OCCOC(=O)c1ccc(-c2c3nc(c(-c4ccccc4)c4ccc([nH]4)c(-c4ccccc4)c4nc(c(-c5ccccc5)c5ccc2[nH]5)C=C4)C=C3)cc1
REMARK SMILES IDX 24 1 23 2 2 3 1 4 3 5 4 6 5 7 6 8 7 9 11 10 8 11 10 12 12 13
REMARK SMILES IDX 9 14 13 15 14 16 15 17 16 18 17 19 22 20 18 21 21 22 19 23
REMARK SMILES IDX 20 24 25 25 26 26 27 27 28 28 29 29 30 30 76 31 31 32 75 33
REMARK SMILES IDX 32 34 33 35 34 36 69 37 35 38 74 39 68 40 70 41 36 42 73 43
REMARK SMILES IDX 67 44 66 45 37 47 59 48 44 49 58 50 45 51 48 52 57 53 71 54
REMARK SMILES IDX 46 55 47 56 56 58 72 59 49 60 38 61 39 62 43 63 40 64 42 65
REMARK SMILES IDX 41 66 60 67 61 68 65 69 62 70 64 71 63 72 50 73 51 74 55 75
REMARK SMILES IDX 52 76 54 77 53 78
REMARK H PARENT 70 46 48 57
REMARK Flexibility Score: inf
ROOT
ATOM      1  C   UNL A   1      35.945  21.383  25.154  1.00  0.00     0.274 C 
ENDROOT
BRANCH   1   2
ATOM      2  O   UNL A   1      35.395  22.682  24.855  1.00  0.00    -0.461 OA
BRANCH   2   3
ATOM      3  C   UNL A   1      34.564  22.961  23.822  1.00  0.00     0.321 C 
ATOM      4  O   UNL A   1      35.008  23.022  22.675  1.00  0.00    -0.251 OA
BRANCH   3   5
ATOM      5  C   UNL A   1      33.112  23.288  24.109  1.00  0.00     0.225 C 
BRANCH   5   6
ATOM      6  N   UNL A   1      32.681  24.714  24.285  1.00  0.00    -0.182 NA
BRANCH   6   7
ATOM      7  C   UNL A   1      31.824  25.147  23.166  1.00  0.00     0.140 C 
BRANCH   7   8
ATOM      8  C   UNL A   1      31.291  26.558  23.006  1.00  0.00    -0.014 A 
ATOM      9  C   UNL A   1      32.223  27.555  22.635  1.00  0.00     0.006 A 
ATOM     10  C   UNL A   1      30.006  27.000  23.364  1.00  0.00     0.045 A 
ATOM     11  C   UNL A   1      31.894  28.914  22.629  1.00  0.00     0.000 A 
ATOM     12  C   UNL A   1      29.674  28.362  23.334  1.00  0.00     0.021 A 
ATOM     13  Cl  UNL A   1      28.766  25.978  23.967  1.00  0.00    -0.084 Cl
ATOM     14  C   UNL A   1      30.616  29.319  22.977  1.00  0.00     0.002 A 
ENDBRANCH   7   8
ENDBRANCH   6   7
BRANCH   6  15
ATOM     15  S   UNL A   1      32.441  25.073  25.925  1.00  0.00     0.243 S 
ATOM     16  O   UNL A   1      31.098  24.660  26.268  1.00  0.00    -0.207 OA
ATOM     17  O   UNL A   1      33.575  24.455  26.586  1.00  0.00    -0.207 OA
BRANCH  15  18
ATOM     18  C   UNL A   1      32.585  26.803  26.346  1.00  0.00     0.082 A 
ATOM     19  C   UNL A   1      33.870  27.356  26.191  1.00  0.00     0.023 A 
ATOM     20  C   UNL A   1      31.580  27.609  26.876  1.00  0.00     0.023 A 
ATOM     21  C   UNL A   1      34.138  28.674  26.579  1.00  0.00     0.022 A 
ATOM     22  C   UNL A   1      31.844  28.928  27.263  1.00  0.00     0.022 A 
ATOM     23  C   UNL A   1      33.122  29.454  27.118  1.00  0.00     0.041 A 
ATOM     24  Cl  UNL A   1      33.443  31.061  27.636  1.00  0.00    -0.084 Cl
ENDBRANCH  15  18
ENDBRANCH   6  15
ENDBRANCH   5   6
ENDBRANCH   3   5
ENDBRANCH   2   3
ENDBRANCH   1   2
BRANCH   1  25
ATOM     25  C   UNL A   1      37.469  21.388  25.008  1.00  0.00     0.275 C 
BRANCH  25  26
ATOM     26  O   UNL A   1      38.000  22.639  25.489  1.00  0.00    -0.458 OA
BRANCH  26  27
ATOM     27  C   UNL A   1      39.137  22.555  26.229  1.00  0.00     0.338 C 
ATOM     28  O   UNL A   1      39.914  21.618  26.276  1.00  0.00    -0.246 OA
BRANCH  27  29
ATOM     29  C   UNL A   1      39.408  23.881  26.831  1.00  0.00     0.060 A 
ATOM     30  C   UNL A   1      40.143  24.811  26.084  1.00  0.00     0.016 A 
ATOM     31  C   UNL A   1      38.911  24.233  28.088  1.00  0.00     0.016 A 
ATOM     32  C   UNL A   1      40.401  26.085  26.601  1.00  0.00     0.010 A 
ATOM     33  C   UNL A   1      39.169  25.509  28.600  1.00  0.00     0.010 A 
ATOM     34  C   UNL A   1      39.933  26.441  27.872  1.00  0.00    -0.014 A 
BRANCH  34  35
ATOM     35  C   UNL A   1      40.343  27.727  28.502  1.00  0.00     0.031 A 
ATOM     36  C   UNL A   1      41.713  27.836  29.119  1.00  0.00     0.074 A 
ATOM     37  C   UNL A   1      39.530  28.800  28.538  1.00  0.00     0.049 A 
ATOM     38  N   UNL A   1      42.275  28.863  29.706  1.00  0.00    -0.248 NA
ATOM     39  C   UNL A   1      42.565  26.639  29.054  1.00  0.00     0.031 C 
ATOM     40  C   UNL A   1      38.190  28.880  27.959  1.00  0.00     0.029 A 
ATOM     41  N   UNL A   1      39.709  30.027  29.133  1.00  0.00    -0.354 N 
ATOM     42  C   UNL A   1      43.567  28.460  30.006  1.00  0.00     0.074 A 
ATOM     43  C   UNL A   1      43.669  27.061  29.653  1.00  0.00     0.031 C 
ATOM     44  C   UNL A   1      37.637  30.059  28.302  1.00  0.00     0.029 A 
ATOM     45  C   UNL A   1      38.583  30.813  29.118  1.00  0.00     0.049 A 
ATOM     46  H   UNL A   1      40.562  30.313  29.533  1.00  0.00     0.167 HD
ATOM     47  C   UNL A   1      44.604  29.197  30.469  1.00  0.00     0.031 A 
ATOM     48  C   UNL A   1      38.331  31.995  29.714  1.00  0.00     0.031 A 
ATOM     49  C   UNL A   1      44.522  30.579  30.856  1.00  0.00     0.049 A 
ATOM     50  C   UNL A   1      39.436  32.735  30.414  1.00  0.00     0.074 A 
ATOM     51  C   UNL A   1      45.535  31.417  31.286  1.00  0.00     0.029 A 
ATOM     52  N   UNL A   1      43.353  31.319  30.880  1.00  0.00    -0.354 N 
ATOM     53  N   UNL A   1      40.681  32.374  30.601  1.00  0.00    -0.248 NA
ATOM     54  C   UNL A   1      39.113  34.074  30.933  1.00  0.00     0.031 C 
ATOM     55  C   UNL A   1      44.969  32.654  31.620  1.00  0.00     0.029 A 
ATOM     56  C   UNL A   1      43.613  32.597  31.349  1.00  0.00     0.049 A 
ATOM     57  H   UNL A   1      42.468  30.988  30.603  1.00  0.00     0.167 HD
ATOM     58  C   UNL A   1      41.309  33.470  31.182  1.00  0.00     0.074 A 
ATOM     59  C   UNL A   1      40.300  34.495  31.346  1.00  0.00     0.031 C 
ATOM     60  C   UNL A   1      42.614  33.621  31.512  1.00  0.00     0.031 A 
BRANCH  47  61
ATOM     61  C   UNL A   1      45.940  28.515  30.531  1.00  0.00    -0.014 A 
ATOM     62  C   UNL A   1      46.342  27.854  31.705  1.00  0.00     0.009 A 
ATOM     63  C   UNL A   1      46.791  28.508  29.419  1.00  0.00     0.009 A 
ATOM     64  C   UNL A   1      47.588  27.230  31.774  1.00  0.00     0.001 A 
ATOM     65  C   UNL A   1      48.026  27.861  29.482  1.00  0.00     0.001 A 
ATOM     66  C   UNL A   1      48.427  27.231  30.662  1.00  0.00     0.000 A 
ENDBRANCH  47  61
BRANCH  48  67
ATOM     67  C   UNL A   1      36.957  32.560  29.697  1.00  0.00    -0.014 A 
ATOM     68  C   UNL A   1      36.568  33.501  28.734  1.00  0.00     0.009 A 
ATOM     69  C   UNL A   1      36.045  32.195  30.701  1.00  0.00     0.009 A 
ATOM     70  C   UNL A   1      35.304  34.092  28.797  1.00  0.00     0.001 A 
ATOM     71  C   UNL A   1      34.774  32.771  30.748  1.00  0.00     0.001 A 
ATOM     72  C   UNL A   1      34.409  33.727  29.802  1.00  0.00     0.000 A 
ENDBRANCH  48  67
BRANCH  60  73
ATOM     73  C   UNL A   1      43.050  34.971  32.008  1.00  0.00    -0.014 A 
ATOM     74  C   UNL A   1      42.998  35.313  33.368  1.00  0.00     0.009 A 
ATOM     75  C   UNL A   1      43.529  35.919  31.088  1.00  0.00     0.009 A 
ATOM     76  C   UNL A   1      43.379  36.590  33.789  1.00  0.00     0.001 A 
ATOM     77  C   UNL A   1      43.937  37.183  31.515  1.00  0.00     0.001 A 
ATOM     78  C   UNL A   1      43.851  37.522  32.864  1.00  0.00     0.000 A 
ENDBRANCH  60  73
ENDBRANCH  34  35
ENDBRANCH  27  29
ENDBRANCH  26  27
ENDBRANCH  25  26
ENDBRANCH   1  25
TORSDOF 16
ENDMDL
MODEL 3
REMARK VINA RESULT:     -10.1      2.778      7.868
REMARK SMILES O=C(CN(Cc1ccccc1Cl)S(=O)(=O)c1ccc(Cl)cc1)OCCOC(=O)c1ccc(-c2c3nc(c(-c4ccccc4)c4ccc([nH]4)c(-c4ccccc4)c4nc(c(-c5ccccc5)c5ccc2[nH]5)C=C4)C=C3)cc1
REMARK SMILES IDX 24 1 23 2 2 3 1 4 3 5 4 6 5 7 6 8 7 9 11 10 8 11 10 12 12 13
REMARK SMILES IDX 9 14 13 15 14 16 15 17 16 18 17 19 22 20 18 21 21 22 19 23
REMARK SMILES IDX 20 24 25 25 26 26 27 27 28 28 29 29 30 30 76 31 31 32 75 33
REMARK SMILES IDX 32 34 33 35 34 36 69 37 35 38 74 39 68 40 70 41 36 42 73 43
REMARK SMILES IDX 67 44 66 45 37 47 59 48 44 49 58 50 45 51 48 52 57 53 71 54
REMARK SMILES IDX 46 55 47 56 56 58 72 59 49 60 38 61 39 62 43 63 40 64 42 65
REMARK SMILES IDX 41 66 60 67 61 68 65 69 62 70 64 71 63 72 50 73 51 74 55 75
REMARK SMILES IDX 52 76 54 77 53 78
REMARK H PARENT 70 46 48 57
REMARK Flexibility Score: inf
ROOT
ATOM      1  C   UNL A   1      35.864  21.661  25.156  1.00  0.00     0.274 C 
ENDROOT
BRANCH   1   2
ATOM      2  O   UNL A   1      35.312  22.993  25.130  1.00  0.00    -0.461 OA
BRANCH   2   3
ATOM      3  C   UNL A   1      34.634  23.539  24.091  1.00  0.00     0.321 C 
ATOM      4  O   UNL A   1      35.212  23.751  23.024  1.00  0.00    -0.251 OA
BRANCH   3   5
ATOM      5  C   UNL A   1      33.195  23.969  24.291  1.00  0.00     0.225 C 
BRANCH   5   6
ATOM      6  N   UNL A   1      32.849  25.426  24.386  1.00  0.00    -0.182 NA
BRANCH   6   7
ATOM      7  C   UNL A   1      33.674  26.096  25.408  1.00  0.00     0.140 C 
BRANCH   7   8
ATOM      8  C   UNL A   1      33.339  27.448  26.011  1.00  0.00    -0.014 A 
ATOM      9  C   UNL A   1      34.415  28.347  26.201  1.00  0.00     0.006 A 
ATOM     10  C   UNL A   1      32.102  27.821  26.562  1.00  0.00     0.045 A 
ATOM     11  C   UNL A   1      34.266  29.545  26.905  1.00  0.00     0.000 A 
ATOM     12  C   UNL A   1      31.952  29.036  27.248  1.00  0.00     0.021 A 
ATOM     13  Cl  UNL A   1      30.704  26.826  26.561  1.00  0.00    -0.084 Cl
ATOM     14  C   UNL A   1      33.031  29.892  27.428  1.00  0.00     0.002 A 
ENDBRANCH   7   8
ENDBRANCH   6   7
BRANCH   6  15
ATOM     15  S   UNL A   1      32.442  26.050  22.863  1.00  0.00     0.243 S 
ATOM     16  O   UNL A   1      33.638  26.636  22.300  1.00  0.00    -0.207 OA
ATOM     17  O   UNL A   1      31.803  24.935  22.189  1.00  0.00    -0.207 OA
BRANCH  15  18
ATOM     18  C   UNL A   1      31.187  27.321  22.880  1.00  0.00     0.082 A 
ATOM     19  C   UNL A   1      29.915  26.906  23.314  1.00  0.00     0.023 A 
ATOM     20  C   UNL A   1      31.337  28.633  22.437  1.00  0.00     0.023 A 
ATOM     21  C   UNL A   1      28.823  27.780  23.282  1.00  0.00     0.022 A 
ATOM     22  C   UNL A   1      30.247  29.511  22.405  1.00  0.00     0.022 A 
ATOM     23  C   UNL A   1      28.994  29.081  22.822  1.00  0.00     0.041 A 
ATOM     24  Cl  UNL A   1      27.656  30.156  22.739  1.00  0.00    -0.084 Cl
ENDBRANCH  15  18
ENDBRANCH   6  15
ENDBRANCH   5   6
ENDBRANCH   3   5
ENDBRANCH   2   3
ENDBRANCH   1   2
BRANCH   1  25
ATOM     25  C   UNL A   1      37.389  21.700  25.020  1.00  0.00     0.275 C 
BRANCH  25  26
ATOM     26  O   UNL A   1      37.899  22.917  25.601  1.00  0.00    -0.458 OA
BRANCH  26  27
ATOM     27  C   UNL A   1      39.153  22.846  26.119  1.00  0.00     0.338 C 
ATOM     28  O   UNL A   1      39.980  21.974  25.920  1.00  0.00    -0.246 OA
BRANCH  27  29
ATOM     29  C   UNL A   1      39.450  24.119  26.817  1.00  0.00     0.060 A 
ATOM     30  C   UNL A   1      40.250  25.064  26.161  1.00  0.00     0.016 A 
ATOM     31  C   UNL A   1      38.915  24.410  28.073  1.00  0.00     0.016 A 
ATOM     32  C   UNL A   1      40.535  26.291  26.769  1.00  0.00     0.010 A 
ATOM     33  C   UNL A   1      39.200  25.639  28.677  1.00  0.00     0.010 A 
ATOM     34  C   UNL A   1      40.028  26.584  28.042  1.00  0.00    -0.014 A 
BRANCH  34  35
ATOM     35  C   UNL A   1      40.460  27.809  28.770  1.00  0.00     0.031 A 
ATOM     36  C   UNL A   1      39.553  29.011  28.785  1.00  0.00     0.074 A 
ATOM     37  C   UNL A   1      41.638  27.879  29.420  1.00  0.00     0.049 A 
ATOM     38  N   UNL A   1      39.728  30.171  29.368  1.00  0.00    -0.248 NA
ATOM     39  C   UNL A   1      38.277  28.886  28.063  1.00  0.00     0.031 C 
ATOM     40  C   UNL A   1      42.618  26.802  29.539  1.00  0.00     0.029 A 
ATOM     41  N   UNL A   1      42.226  28.937  30.074  1.00  0.00    -0.354 N 
ATOM     42  C   UNL A   1      38.555  30.879  29.148  1.00  0.00     0.074 A 
ATOM     43  C   UNL A   1      37.728  30.072  28.278  1.00  0.00     0.031 C 
ATOM     44  C   UNL A   1      43.720  27.280  30.147  1.00  0.00     0.029 A 
ATOM     45  C   UNL A   1      43.520  28.690  30.463  1.00  0.00     0.049 A 
ATOM     46  H   UNL A   1      41.765  29.790  30.246  1.00  0.00     0.167 HD
ATOM     47  C   UNL A   1      38.163  32.062  29.676  1.00  0.00     0.031 A 
ATOM     48  C   UNL A   1      44.450  29.511  30.989  1.00  0.00     0.031 A 
ATOM     49  C   UNL A   1      38.977  32.896  30.517  1.00  0.00     0.049 A 
ATOM     50  C   UNL A   1      44.074  30.909  31.395  1.00  0.00     0.074 A 
ATOM     51  C   UNL A   1      38.640  34.087  31.138  1.00  0.00     0.029 A 
ATOM     52  N   UNL A   1      40.298  32.637  30.838  1.00  0.00    -0.354 N 
ATOM     53  N   UNL A   1      42.926  31.526  31.265  1.00  0.00    -0.248 NA
ATOM     54  C   UNL A   1      45.110  31.703  32.075  1.00  0.00     0.031 C 
ATOM     55  C   UNL A   1      39.776  34.576  31.794  1.00  0.00     0.029 A 
ATOM     56  C   UNL A   1      40.802  33.663  31.622  1.00  0.00     0.049 A 
ATOM     57  H   UNL A   1      40.804  31.843  30.553  1.00  0.00     0.167 HD
ATOM     58  C   UNL A   1      43.076  32.744  31.919  1.00  0.00     0.074 A 
ATOM     59  C   UNL A   1      44.435  32.791  32.415  1.00  0.00     0.031 C 
ATOM     60  C   UNL A   1      42.153  33.715  32.120  1.00  0.00     0.031 A 
BRANCH  47  61
ATOM     61  C   UNL A   1      36.755  32.495  29.386  1.00  0.00    -0.014 A 
ATOM     62  C   UNL A   1      36.481  33.308  28.271  1.00  0.00     0.009 A 
ATOM     63  C   UNL A   1      35.697  32.078  30.203  1.00  0.00     0.009 A 
ATOM     64  C   UNL A   1      35.177  33.725  28.004  1.00  0.00     0.001 A 
ATOM     65  C   UNL A   1      34.390  32.476  29.918  1.00  0.00     0.001 A 
ATOM     66  C   UNL A   1      34.133  33.305  28.826  1.00  0.00     0.000 A 
ENDBRANCH  47  61
BRANCH  48  67
ATOM     67  C   UNL A   1      45.850  29.044  31.154  1.00  0.00    -0.014 A 
ATOM     68  C   UNL A   1      46.791  29.186  30.125  1.00  0.00     0.009 A 
ATOM     69  C   UNL A   1      46.227  28.389  32.338  1.00  0.00     0.009 A 
ATOM     70  C   UNL A   1      48.074  28.651  30.265  1.00  0.00     0.001 A 
ATOM     71  C   UNL A   1      47.517  27.874  32.484  1.00  0.00     0.001 A 
ATOM     72  C   UNL A   1      48.436  27.996  31.443  1.00  0.00     0.000 A 
ENDBRANCH  48  67
BRANCH  60  73
ATOM     73  C   UNL A   1      42.551  34.879  32.983  1.00  0.00    -0.014 A 
ATOM     74  C   UNL A   1      43.120  36.042  32.440  1.00  0.00     0.009 A 
ATOM     75  C   UNL A   1      42.345  34.808  34.371  1.00  0.00     0.009 A 
ATOM     76  C   UNL A   1      43.510  37.092  33.276  1.00  0.00     0.001 A 
ATOM     77  C   UNL A   1      42.709  35.870  35.199  1.00  0.00     0.001 A 
ATOM     78  C   UNL A   1      43.302  37.007  34.653  1.00  0.00     0.000 A 
ENDBRANCH  60  73
ENDBRANCH  34  35
ENDBRANCH  27  29
ENDBRANCH  26  27
ENDBRANCH  25  26
ENDBRANCH   1  25
TORSDOF 16
ENDMDL
