MODEL 1
REMARK VINA RESULT:     -12.3      0.000      0.000
REMARK SMILES CCc1ccc(S(=O)(=O)c2nnn(-c3ccc(C(=O)OCCOC(=O)c4ccc(-c5c6nc(c(-c7ccccc7)c7ccc([nH]7)c(-c7ccccc7)c7nc(c(-c8ccccc8)c8ccc5[nH]8)C=C7)C=C6)cc4)cc3)c2C)cc1
REMARK SMILES IDX 21 1 20 2 18 3 19 4 17 5 14 6 15 7 75 8 16 9 74 10 13 11
REMARK SMILES IDX 10 12 11 13 76 14 12 15 77 16 7 17 8 18 9 19 6 20 3 21 4 22
REMARK SMILES IDX 79 23 5 24 78 25 2 26 1 27 22 28 23 29 24 30 25 31 26 32
REMARK SMILES IDX 27 33 73 34 28 35 72 36 29 37 30 38 31 39 66 40 32 41 71 42
REMARK SMILES IDX 65 43 67 44 33 45 70 46 64 47 63 48 34 50 56 51 41 52 55 53
REMARK SMILES IDX 42 54 45 55 54 56 68 57 43 58 44 59 53 61 69 62 46 63 35 64
REMARK SMILES IDX 36 65 40 66 37 67 39 68 38 69 57 70 58 71 62 72 59 73 61 74
REMARK SMILES IDX 60 75 47 76 48 77 52 78 49 79 51 80 50 81
REMARK H PARENT 67 49 45 60
REMARK Flexibility Score: inf
ROOT
ATOM      1  C   UNL A   1      42.251  19.402  26.817  1.00  0.00     0.275 C 
ENDROOT
BRANCH   1   2
ATOM      2  O   UNL A   1      41.059  19.910  26.197  1.00  0.00    -0.458 OA
BRANCH   2   3
ATOM      3  C   UNL A   1      40.360  20.840  26.897  1.00  0.00     0.338 C 
ATOM      4  O   UNL A   1      40.606  21.236  28.027  1.00  0.00    -0.246 OA
BRANCH   3   5
ATOM      5  C   UNL A   1      39.274  21.403  26.054  1.00  0.00     0.060 A 
ATOM      6  C   UNL A   1      37.080  22.438  24.701  1.00  0.00     0.067 A 
ATOM      7  C   UNL A   1      37.873  23.300  25.463  1.00  0.00     0.029 A 
ATOM      8  C   UNL A   1      37.464  21.108  24.492  1.00  0.00     0.029 A 
ATOM      9  C   UNL A   1      38.961  22.769  26.162  1.00  0.00     0.018 A 
ATOM     10  C   UNL A   1      38.563  20.592  25.164  1.00  0.00     0.018 A 
BRANCH   6  11
ATOM     11  N   UNL A   1      35.805  22.854  24.269  1.00  0.00    -0.216 N 
ATOM     12  C   UNL A   1      33.716  23.453  24.172  1.00  0.00     0.205 A 
ATOM     13  N   UNL A   1      34.294  23.681  22.952  1.00  0.00    -0.117 NA
ATOM     14  C   UNL A   1      34.675  22.997  25.060  1.00  0.00     0.081 A 
ATOM     15  N   UNL A   1      35.586  23.392  23.050  1.00  0.00    -0.061 NA
ATOM     16  C   UNL A   1      34.661  22.868  26.540  1.00  0.00     0.070 C 
BRANCH  12  17
ATOM     17  S   UNL A   1      32.094  23.922  24.537  1.00  0.00     0.227 S 
ATOM     18  O   UNL A   1      31.667  22.960  25.537  1.00  0.00    -0.217 OA
ATOM     19  O   UNL A   1      31.418  24.076  23.267  1.00  0.00    -0.217 OA
BRANCH  17  20
ATOM     20  C   UNL A   1      32.173  25.512  25.318  1.00  0.00     0.073 A 
ATOM     21  C   UNL A   1      32.218  27.996  26.631  1.00  0.00    -0.048 A 
ATOM     22  C   UNL A   1      31.047  27.224  26.602  1.00  0.00     0.005 A 
ATOM     23  C   UNL A   1      33.373  27.485  26.018  1.00  0.00     0.005 A 
ATOM     24  C   UNL A   1      31.021  25.988  25.951  1.00  0.00     0.021 A 
ATOM     25  C   UNL A   1      33.353  26.259  25.351  1.00  0.00     0.021 A 
BRANCH  21  26
ATOM     26  C   UNL A   1      32.307  29.335  27.329  1.00  0.00     0.032 C 
ATOM     27  C   UNL A   1      32.096  30.562  26.451  1.00  0.00     0.009 C 
ENDBRANCH  21  26
ENDBRANCH  17  20
ENDBRANCH  12  17
ENDBRANCH   6  11
ENDBRANCH   3   5
ENDBRANCH   2   3
ENDBRANCH   1   2
BRANCH   1  28
ATOM     28  C   UNL A   1      43.185  18.793  25.780  1.00  0.00     0.275 C 
BRANCH  28  29
ATOM     29  O   UNL A   1      43.289  19.640  24.638  1.00  0.00    -0.458 OA
BRANCH  29  30
ATOM     30  C   UNL A   1      44.547  19.871  24.204  1.00  0.00     0.338 C 
ATOM     31  O   UNL A   1      45.348  19.055  23.777  1.00  0.00    -0.246 OA
BRANCH  30  32
ATOM     32  C   UNL A   1      44.909  21.257  24.503  1.00  0.00     0.060 A 
ATOM     33  C   UNL A   1      45.986  21.466  25.372  1.00  0.00     0.016 A 
ATOM     34  C   UNL A   1      43.981  22.264  24.208  1.00  0.00     0.016 A 
ATOM     35  C   UNL A   1      46.007  22.623  26.120  1.00  0.00     0.010 A 
ATOM     36  C   UNL A   1      43.989  23.403  24.970  1.00  0.00     0.010 A 
ATOM     37  C   UNL A   1      44.948  23.520  25.975  1.00  0.00    -0.014 A 
BRANCH  37  38
ATOM     38  C   UNL A   1      44.831  24.611  26.915  1.00  0.00     0.031 A 
ATOM     39  C   UNL A   1      45.992  25.525  26.947  1.00  0.00     0.074 A 
ATOM     40  C   UNL A   1      43.667  24.845  27.549  1.00  0.00     0.049 A 
ATOM     41  N   UNL A   1      46.715  25.866  27.960  1.00  0.00    -0.248 NA
ATOM     42  C   UNL A   1      46.473  26.046  25.656  1.00  0.00     0.031 C 
ATOM     43  C   UNL A   1      42.372  24.187  27.328  1.00  0.00     0.029 A 
ATOM     44  N   UNL A   1      43.363  25.837  28.423  1.00  0.00    -0.354 N 
ATOM     45  C   UNL A   1      47.658  26.761  27.466  1.00  0.00     0.074 A 
ATOM     46  C   UNL A   1      47.557  26.720  26.030  1.00  0.00     0.031 C 
ATOM     47  C   UNL A   1      41.393  24.955  27.855  1.00  0.00     0.029 A 
ATOM     48  C   UNL A   1      42.003  26.076  28.550  1.00  0.00     0.049 A 
ATOM     49  H   UNL A   1      44.046  26.341  28.922  1.00  0.00     0.167 HD
ATOM     50  C   UNL A   1      48.317  27.637  28.269  1.00  0.00     0.031 A 
ATOM     51  C   UNL A   1      41.430  27.171  29.104  1.00  0.00     0.031 A 
ATOM     52  C   UNL A   1      48.239  27.265  29.654  1.00  0.00     0.049 A 
ATOM     53  C   UNL A   1      42.464  27.867  29.907  1.00  0.00     0.074 A 
ATOM     54  C   UNL A   1      48.686  26.189  30.392  1.00  0.00     0.029 A 
ATOM     55  N   UNL A   1      47.288  27.890  30.424  1.00  0.00    -0.354 N 
ATOM     56  N   UNL A   1      42.977  27.378  31.000  1.00  0.00    -0.248 NA
ATOM     57  C   UNL A   1      43.256  28.904  29.261  1.00  0.00     0.031 C 
ATOM     58  C   UNL A   1      47.664  25.953  31.356  1.00  0.00     0.029 A 
ATOM     59  C   UNL A   1      46.675  26.924  31.182  1.00  0.00     0.049 A 
ATOM     60  H   UNL A   1      47.084  28.853  30.432  1.00  0.00     0.167 HD
ATOM     61  C   UNL A   1      44.321  27.720  30.949  1.00  0.00     0.074 A 
ATOM     62  C   UNL A   1      44.410  28.752  29.918  1.00  0.00     0.031 C 
ATOM     63  C   UNL A   1      45.272  26.937  31.539  1.00  0.00     0.031 A 
BRANCH  50  64
ATOM     64  C   UNL A   1      48.717  29.015  27.819  1.00  0.00    -0.014 A 
ATOM     65  C   UNL A   1      49.982  29.507  28.179  1.00  0.00     0.009 A 
ATOM     66  C   UNL A   1      47.802  29.943  27.282  1.00  0.00     0.009 A 
ATOM     67  C   UNL A   1      50.293  30.868  28.055  1.00  0.00     0.001 A 
ATOM     68  C   UNL A   1      48.124  31.291  27.115  1.00  0.00     0.001 A 
ATOM     69  C   UNL A   1      49.362  31.758  27.526  1.00  0.00     0.000 A 
ENDBRANCH  50  64
BRANCH  51  70
ATOM     70  C   UNL A   1      40.146  27.800  28.732  1.00  0.00    -0.014 A 
ATOM     71  C   UNL A   1      39.091  27.895  29.650  1.00  0.00     0.009 A 
ATOM     72  C   UNL A   1      40.037  28.524  27.529  1.00  0.00     0.009 A 
ATOM     73  C   UNL A   1      37.976  28.700  29.380  1.00  0.00     0.001 A 
ATOM     74  C   UNL A   1      38.924  29.325  27.258  1.00  0.00     0.001 A 
ATOM     75  C   UNL A   1      37.898  29.422  28.189  1.00  0.00     0.000 A 
ENDBRANCH  51  70
BRANCH  63  76
ATOM     76  C   UNL A   1      44.799  25.803  32.418  1.00  0.00    -0.014 A 
ATOM     77  C   UNL A   1      44.541  24.513  31.918  1.00  0.00     0.009 A 
ATOM     78  C   UNL A   1      44.778  25.991  33.807  1.00  0.00     0.009 A 
ATOM     79  C   UNL A   1      44.243  23.454  32.781  1.00  0.00     0.001 A 
ATOM     80  C   UNL A   1      44.501  24.928  34.671  1.00  0.00     0.001 A 
ATOM     81  C   UNL A   1      44.229  23.661  34.157  1.00  0.00     0.000 A 
ENDBRANCH  63  76
ENDBRANCH  37  38
ENDBRANCH  30  32
ENDBRANCH  29  30
ENDBRANCH  28  29
ENDBRANCH   1  28
TORSDOF 15
ENDMDL
MODEL 2
REMARK VINA RESULT:     -12.3      3.094      8.004
REMARK SMILES CCc1ccc(S(=O)(=O)c2nnn(-c3ccc(C(=O)OCCOC(=O)c4ccc(-c5c6nc(c(-c7ccccc7)c7ccc([nH]7)c(-c7ccccc7)c7nc(c(-c8ccccc8)c8ccc5[nH]8)C=C7)C=C6)cc4)cc3)c2C)cc1
REMARK SMILES IDX 21 1 20 2 18 3 19 4 17 5 14 6 15 7 75 8 16 9 74 10 13 11
REMARK SMILES IDX 10 12 11 13 76 14 12 15 77 16 7 17 8 18 9 19 6 20 3 21 4 22
REMARK SMILES IDX 79 23 5 24 78 25 2 26 1 27 22 28 23 29 24 30 25 31 26 32
REMARK SMILES IDX 27 33 73 34 28 35 72 36 29 37 30 38 31 39 66 40 32 41 71 42
REMARK SMILES IDX 65 43 67 44 33 45 70 46 64 47 63 48 34 50 56 51 41 52 55 53
REMARK SMILES IDX 42 54 45 55 54 56 68 57 43 58 44 59 53 61 69 62 46 63 35 64
REMARK SMILES IDX 36 65 40 66 37 67 39 68 38 69 57 70 58 71 62 72 59 73 61 74
REMARK SMILES IDX 60 75 47 76 48 77 52 78 49 79 51 80 50 81
REMARK H PARENT 67 49 45 60
REMARK Flexibility Score: inf
ROOT
ATOM      1  C   UNL A   1      34.000  32.175  28.010  1.00  0.00     0.275 C 
ENDROOT
BRANCH   1   2
ATOM      2  O   UNL A   1      33.496  30.955  27.443  1.00  0.00    -0.458 OA
BRANCH   2   3
ATOM      3  C   UNL A   1      32.244  31.002  26.920  1.00  0.00     0.338 C 
ATOM      4  O   UNL A   1      31.540  31.994  26.806  1.00  0.00    -0.246 OA
BRANCH   3   5
ATOM      5  C   UNL A   1      31.858  29.664  26.402  1.00  0.00     0.060 A 
ATOM      6  C   UNL A   1      31.406  27.120  25.383  1.00  0.00     0.067 A 
ATOM      7  C   UNL A   1      31.767  27.256  26.726  1.00  0.00     0.029 A 
ATOM      8  C   UNL A   1      31.124  28.244  24.599  1.00  0.00     0.029 A 
ATOM      9  C   UNL A   1      32.018  28.537  27.226  1.00  0.00     0.018 A 
ATOM     10  C   UNL A   1      31.345  29.517  25.109  1.00  0.00     0.018 A 
BRANCH   6  11
ATOM     11  N   UNL A   1      31.478  25.858  24.761  1.00  0.00    -0.216 N 
ATOM     12  C   UNL A   1      32.083  24.132  23.584  1.00  0.00     0.205 A 
ATOM     13  N   UNL A   1      31.025  23.773  24.374  1.00  0.00    -0.117 NA
ATOM     14  C   UNL A   1      32.448  25.437  23.865  1.00  0.00     0.081 A 
ATOM     15  N   UNL A   1      30.720  24.808  25.147  1.00  0.00    -0.061 NA
ATOM     16  C   UNL A   1      33.667  26.213  23.517  1.00  0.00     0.070 C 
BRANCH  12  17
ATOM     17  S   UNL A   1      32.936  22.998  22.597  1.00  0.00     0.227 S 
ATOM     18  O   UNL A   1      33.318  23.770  21.428  1.00  0.00    -0.217 OA
ATOM     19  O   UNL A   1      32.099  21.821  22.513  1.00  0.00    -0.217 OA
BRANCH  17  20
ATOM     20  C   UNL A   1      34.420  22.562  23.464  1.00  0.00     0.073 A 
ATOM     21  C   UNL A   1      36.726  21.765  24.857  1.00  0.00    -0.048 A 
ATOM     22  C   UNL A   1      35.472  21.225  25.183  1.00  0.00     0.005 A 
ATOM     23  C   UNL A   1      36.806  22.686  23.801  1.00  0.00     0.005 A 
ATOM     24  C   UNL A   1      34.324  21.618  24.491  1.00  0.00     0.021 A 
ATOM     25  C   UNL A   1      35.662  23.097  23.115  1.00  0.00     0.021 A 
BRANCH  21  26
ATOM     26  C   UNL A   1      38.003  21.369  25.564  1.00  0.00     0.032 C 
ATOM     27  C   UNL A   1      38.819  22.510  26.159  1.00  0.00     0.009 C 
ENDBRANCH  21  26
ENDBRANCH  17  20
ENDBRANCH  12  17
ENDBRANCH   6  11
ENDBRANCH   3   5
ENDBRANCH   2   3
ENDBRANCH   1   2
BRANCH   1  28
ATOM     28  C   UNL A   1      35.523  32.199  27.978  1.00  0.00     0.275 C 
BRANCH  28  29
ATOM     29  O   UNL A   1      36.046  30.875  27.911  1.00  0.00    -0.458 OA
BRANCH  29  30
ATOM     30  C   UNL A   1      36.735  30.471  29.001  1.00  0.00     0.338 C 
ATOM     31  O   UNL A   1      36.728  30.974  30.112  1.00  0.00    -0.246 OA
BRANCH  30  32
ATOM     32  C   UNL A   1      37.678  29.423  28.609  1.00  0.00     0.060 A 
ATOM     33  C   UNL A   1      38.112  28.544  29.607  1.00  0.00     0.016 A 
ATOM     34  C   UNL A   1      38.352  29.560  27.389  1.00  0.00     0.016 A 
ATOM     35  C   UNL A   1      39.352  27.961  29.471  1.00  0.00     0.010 A 
ATOM     36  C   UNL A   1      39.597  28.999  27.264  1.00  0.00     0.010 A 
ATOM     37  C   UNL A   1      40.112  28.285  28.346  1.00  0.00    -0.014 A 
BRANCH  37  38
ATOM     38  C   UNL A   1      41.497  27.876  28.304  1.00  0.00     0.031 A 
ATOM     39  C   UNL A   1      41.728  26.540  27.716  1.00  0.00     0.074 A 
ATOM     40  C   UNL A   1      42.476  28.748  28.610  1.00  0.00     0.049 A 
ATOM     41  N   UNL A   1      42.342  25.531  28.237  1.00  0.00    -0.248 NA
ATOM     42  C   UNL A   1      41.100  26.261  26.413  1.00  0.00     0.031 C 
ATOM     43  C   UNL A   1      42.350  30.185  28.885  1.00  0.00     0.029 A 
ATOM     44  N   UNL A   1      43.819  28.555  28.585  1.00  0.00    -0.354 N 
ATOM     45  C   UNL A   1      42.306  24.530  27.272  1.00  0.00     0.074 A 
ATOM     46  C   UNL A   1      41.410  24.980  26.239  1.00  0.00     0.031 C 
ATOM     47  C   UNL A   1      43.563  30.766  28.752  1.00  0.00     0.029 A 
ATOM     48  C   UNL A   1      44.553  29.730  28.512  1.00  0.00     0.049 A 
ATOM     49  H   UNL A   1      44.234  27.663  28.617  1.00  0.00     0.167 HD
ATOM     50  C   UNL A   1      43.178  23.487  27.277  1.00  0.00     0.031 A 
ATOM     51  C   UNL A   1      45.861  29.838  28.180  1.00  0.00     0.031 A 
ATOM     52  C   UNL A   1      43.823  23.328  28.550  1.00  0.00     0.049 A 
ATOM     53  C   UNL A   1      46.475  28.494  28.308  1.00  0.00     0.074 A 
ATOM     54  C   UNL A   1      43.387  23.022  29.823  1.00  0.00     0.029 A 
ATOM     55  N   UNL A   1      45.081  23.863  28.694  1.00  0.00    -0.354 N 
ATOM     56  N   UNL A   1      46.642  27.884  29.447  1.00  0.00    -0.248 NA
ATOM     57  C   UNL A   1      46.496  27.632  27.135  1.00  0.00     0.031 C 
ATOM     58  C   UNL A   1      44.200  23.808  30.690  1.00  0.00     0.029 A 
ATOM     59  C   UNL A   1      45.114  24.512  29.902  1.00  0.00     0.049 A 
ATOM     60  H   UNL A   1      45.821  23.793  28.050  1.00  0.00     0.167 HD
ATOM     61  C   UNL A   1      46.362  26.551  29.184  1.00  0.00     0.074 A 
ATOM     62  C   UNL A   1      46.390  26.438  27.728  1.00  0.00     0.031 C 
ATOM     63  C   UNL A   1      45.853  25.732  30.152  1.00  0.00     0.031 A 
BRANCH  50  64
ATOM     64  C   UNL A   1      43.698  22.853  26.017  1.00  0.00    -0.014 A 
ATOM     65  C   UNL A   1      43.671  21.453  25.899  1.00  0.00     0.009 A 
ATOM     66  C   UNL A   1      44.452  23.557  25.057  1.00  0.00     0.009 A 
ATOM     67  C   UNL A   1      44.404  20.796  24.902  1.00  0.00     0.001 A 
ATOM     68  C   UNL A   1      45.146  22.908  24.035  1.00  0.00     0.001 A 
ATOM     69  C   UNL A   1      45.143  21.524  23.974  1.00  0.00     0.000 A 
ENDBRANCH  50  64
BRANCH  51  70
ATOM     70  C   UNL A   1      46.522  30.956  27.476  1.00  0.00    -0.014 A 
ATOM     71  C   UNL A   1      45.777  32.002  26.914  1.00  0.00     0.009 A 
ATOM     72  C   UNL A   1      47.919  31.115  27.559  1.00  0.00     0.009 A 
ATOM     73  C   UNL A   1      46.408  33.171  26.468  1.00  0.00     0.001 A 
ATOM     74  C   UNL A   1      48.549  32.280  27.111  1.00  0.00     0.001 A 
ATOM     75  C   UNL A   1      47.791  33.314  26.575  1.00  0.00     0.000 A 
ENDBRANCH  51  70
BRANCH  63  76
ATOM     76  C   UNL A   1      45.797  26.267  31.564  1.00  0.00    -0.014 A 
ATOM     77  C   UNL A   1      44.695  26.990  32.057  1.00  0.00     0.009 A 
ATOM     78  C   UNL A   1      46.798  25.886  32.468  1.00  0.00     0.009 A 
ATOM     79  C   UNL A   1      44.614  27.346  33.407  1.00  0.00     0.001 A 
ATOM     80  C   UNL A   1      46.708  26.223  33.821  1.00  0.00     0.001 A 
ATOM     81  C   UNL A   1      45.618  26.957  34.289  1.00  0.00     0.000 A 
ENDBRANCH  63  76
ENDBRANCH  37  38
ENDBRANCH  30  32
ENDBRANCH  29  30
ENDBRANCH  28  29
ENDBRANCH   1  28
TORSDOF 15
ENDMDL
MODEL 3
REMARK VINA RESULT:     -12.1      3.758      8.996
REMARK SMILES CCc1ccc(S(=O)(=O)c2nnn(-c3ccc(C(=O)OCCOC(=O)c4ccc(-c5c6nc(c(-c7ccccc7)c7ccc([nH]7)c(-c7ccccc7)c7nc(c(-c8ccccc8)c8ccc5[nH]8)C=C7)C=C6)cc4)cc3)c2C)cc1
REMARK SMILES IDX 21 1 20 2 18 3 19 4 17 5 14 6 15 7 75 8 16 9 74 10 13 11
REMARK SMILES IDX 10 12 11 13 76 14 12 15 77 16 7 17 8 18 9 19 6 20 3 21 4 22
REMARK SMILES IDX 79 23 5 24 78 25 2 26 1 27 22 28 23 29 24 30 25 31 26 32
REMARK SMILES IDX 27 33 73 34 28 35 72 36 29 37 30 38 31 39 66 40 32 41 71 42
REMARK SMILES IDX 65 43 67 44 33 45 70 46 64 47 63 48 34 50 56 51 41 52 55 53
REMARK SMILES IDX 42 54 45 55 54 56 68 57 43 58 44 59 53 61 69 62 46 63 35 64
REMARK SMILES IDX 36 65 40 66 37 67 39 68 38 69 57 70 58 71 62 72 59 73 61 74
REMARK SMILES IDX 60 75 47 76 48 77 52 78 49 79 51 80 50 81
REMARK H PARENT 67 49 45 60
REMARK Flexibility Score: inf
ROOT
ATOM      1  C   UNL A   1      34.461  34.346  30.500  1.00  0.00     0.275 C 
ENDROOT
BRANCH   1   2
ATOM      2  O   UNL A   1      34.501  34.267  29.067  1.00  0.00    -0.458 OA
BRANCH   2   3
ATOM      3  C   UNL A   1      33.306  34.285  28.424  1.00  0.00     0.338 C 
ATOM      4  O   UNL A   1      32.572  35.252  28.280  1.00  0.00    -0.246 OA
BRANCH   3   5
ATOM      5  C   UNL A   1      33.033  32.957  27.817  1.00  0.00     0.060 A 
ATOM      6  C   UNL A   1      32.353  30.426  26.898  1.00  0.00     0.067 A 
ATOM      7  C   UNL A   1      31.514  31.502  26.597  1.00  0.00     0.029 A 
ATOM      8  C   UNL A   1      33.592  30.633  27.516  1.00  0.00     0.029 A 
ATOM      9  C   UNL A   1      31.848  32.769  27.085  1.00  0.00     0.018 A 
ATOM     10  C   UNL A   1      33.933  31.899  27.971  1.00  0.00     0.018 A 
BRANCH   6  11
ATOM     11  N   UNL A   1      31.890  29.106  26.728  1.00  0.00    -0.216 N 
ATOM     12  C   UNL A   1      31.474  27.112  25.964  1.00  0.00     0.205 A 
ATOM     13  N   UNL A   1      31.045  27.182  27.262  1.00  0.00    -0.117 NA
ATOM     14  C   UNL A   1      32.091  28.301  25.617  1.00  0.00     0.081 A 
ATOM     15  N   UNL A   1      31.381  28.373  27.742  1.00  0.00    -0.061 NA
ATOM     16  C   UNL A   1      32.959  28.658  24.464  1.00  0.00     0.070 C 
BRANCH  12  17
ATOM     17  S   UNL A   1      31.439  25.647  25.049  1.00  0.00     0.227 S 
ATOM     18  O   UNL A   1      31.435  26.096  23.668  1.00  0.00    -0.217 OA
ATOM     19  O   UNL A   1      30.375  24.842  25.608  1.00  0.00    -0.217 OA
BRANCH  17  20
ATOM     20  C   UNL A   1      32.976  24.812  25.339  1.00  0.00     0.073 A 
ATOM     21  C   UNL A   1      35.467  23.584  25.762  1.00  0.00    -0.048 A 
ATOM     22  C   UNL A   1      35.304  24.537  24.746  1.00  0.00     0.005 A 
ATOM     23  C   UNL A   1      34.368  23.282  26.582  1.00  0.00     0.005 A 
ATOM     24  C   UNL A   1      34.067  25.151  24.535  1.00  0.00     0.021 A 
ATOM     25  C   UNL A   1      33.124  23.877  26.367  1.00  0.00     0.021 A 
BRANCH  21  26
ATOM     26  C   UNL A   1      36.784  22.896  26.045  1.00  0.00     0.032 C 
ATOM     27  C   UNL A   1      38.036  23.740  25.846  1.00  0.00     0.009 C 
ENDBRANCH  21  26
ENDBRANCH  17  20
ENDBRANCH  12  17
ENDBRANCH   6  11
ENDBRANCH   3   5
ENDBRANCH   2   3
ENDBRANCH   1   2
BRANCH   1  28
ATOM     28  C   UNL A   1      35.794  33.927  31.105  1.00  0.00     0.275 C 
BRANCH  28  29
ATOM     29  O   UNL A   1      36.416  32.923  30.305  1.00  0.00    -0.458 OA
BRANCH  29  30
ATOM     30  C   UNL A   1      36.231  31.653  30.727  1.00  0.00     0.338 C 
ATOM     31  O   UNL A   1      35.533  31.271  31.652  1.00  0.00    -0.246 OA
BRANCH  30  32
ATOM     32  C   UNL A   1      37.165  30.775  30.021  1.00  0.00     0.060 A 
ATOM     33  C   UNL A   1      36.949  29.396  30.122  1.00  0.00     0.016 A 
ATOM     34  C   UNL A   1      38.385  31.311  29.591  1.00  0.00     0.016 A 
ATOM     35  C   UNL A   1      38.034  28.555  30.004  1.00  0.00     0.010 A 
ATOM     36  C   UNL A   1      39.468  30.476  29.499  1.00  0.00     0.010 A 
ATOM     37  C   UNL A   1      39.290  29.126  29.796  1.00  0.00    -0.014 A 
BRANCH  37  38
ATOM     38  C   UNL A   1      40.461  28.286  29.908  1.00  0.00     0.031 A 
ATOM     39  C   UNL A   1      41.036  28.208  31.268  1.00  0.00     0.074 A 
ATOM     40  C   UNL A   1      40.846  27.509  28.879  1.00  0.00     0.049 A 
ATOM     41  N   UNL A   1      42.244  28.465  31.642  1.00  0.00    -0.248 NA
ATOM     42  C   UNL A   1      40.110  27.903  32.373  1.00  0.00     0.031 C 
ATOM     43  C   UNL A   1      40.142  27.279  27.610  1.00  0.00     0.029 A 
ATOM     44  N   UNL A   1      41.882  26.635  28.819  1.00  0.00    -0.354 N 
ATOM     45  C   UNL A   1      42.276  28.216  33.009  1.00  0.00     0.074 A 
ATOM     46  C   UNL A   1      40.912  28.018  33.428  1.00  0.00     0.031 C 
ATOM     47  C   UNL A   1      40.631  26.160  27.032  1.00  0.00     0.029 A 
ATOM     48  C   UNL A   1      41.753  25.680  27.821  1.00  0.00     0.049 A 
ATOM     49  H   UNL A   1      42.654  26.675  29.428  1.00  0.00     0.167 HD
ATOM     50  C   UNL A   1      43.436  27.976  33.676  1.00  0.00     0.031 A 
ATOM     51  C   UNL A   1      42.461  24.531  27.716  1.00  0.00     0.031 A 
ATOM     52  C   UNL A   1      44.586  28.401  32.929  1.00  0.00     0.049 A 
ATOM     53  C   UNL A   1      43.655  24.651  28.587  1.00  0.00     0.074 A 
ATOM     54  C   UNL A   1      45.050  29.619  32.478  1.00  0.00     0.029 A 
ATOM     55  N   UNL A   1      45.265  27.444  32.213  1.00  0.00    -0.354 N 
ATOM     56  N   UNL A   1      44.638  25.473  28.353  1.00  0.00    -0.248 NA
ATOM     57  C   UNL A   1      43.554  24.181  29.962  1.00  0.00     0.031 C 
ATOM     58  C   UNL A   1      45.632  29.345  31.207  1.00  0.00     0.029 A 
ATOM     59  C   UNL A   1      45.532  27.971  30.975  1.00  0.00     0.049 A 
ATOM     60  H   UNL A   1      45.514  26.546  32.530  1.00  0.00     0.167 HD
ATOM     61  C   UNL A   1      45.007  25.954  29.601  1.00  0.00     0.074 A 
ATOM     62  C   UNL A   1      44.385  25.043  30.558  1.00  0.00     0.031 C 
ATOM     63  C   UNL A   1      45.539  27.204  29.747  1.00  0.00     0.031 A 
BRANCH  50  64
ATOM     64  C   UNL A   1      43.527  27.030  34.841  1.00  0.00    -0.014 A 
ATOM     65  C   UNL A   1      43.304  25.661  34.623  1.00  0.00     0.009 A 
ATOM     66  C   UNL A   1      43.565  27.463  36.182  1.00  0.00     0.009 A 
ATOM     67  C   UNL A   1      43.079  24.784  35.693  1.00  0.00     0.001 A 
ATOM     68  C   UNL A   1      43.386  26.585  37.251  1.00  0.00     0.001 A 
ATOM     69  C   UNL A   1      43.116  25.248  37.005  1.00  0.00     0.000 A 
ENDBRANCH  50  64
BRANCH  51  70
ATOM     70  C   UNL A   1      42.007  23.243  27.152  1.00  0.00    -0.014 A 
ATOM     71  C   UNL A   1      42.799  22.529  26.242  1.00  0.00     0.009 A 
ATOM     72  C   UNL A   1      40.881  22.594  27.692  1.00  0.00     0.009 A 
ATOM     73  C   UNL A   1      42.483  21.207  25.901  1.00  0.00     0.001 A 
ATOM     74  C   UNL A   1      40.564  21.276  27.351  1.00  0.00     0.001 A 
ATOM     75  C   UNL A   1      41.372  20.578  26.462  1.00  0.00     0.000 A 
ENDBRANCH  51  70
BRANCH  63  76
ATOM     76  C   UNL A   1      45.900  27.962  28.491  1.00  0.00    -0.014 A 
ATOM     77  C   UNL A   1      44.993  28.812  27.831  1.00  0.00     0.009 A 
ATOM     78  C   UNL A   1      47.235  27.955  28.060  1.00  0.00     0.009 A 
ATOM     79  C   UNL A   1      45.404  29.607  26.757  1.00  0.00     0.001 A 
ATOM     80  C   UNL A   1      47.650  28.765  27.000  1.00  0.00     0.001 A 
ATOM     81  C   UNL A   1      46.734  29.587  26.346  1.00  0.00     0.000 A 
ENDBRANCH  63  76
ENDBRANCH  37  38
ENDBRANCH  30  32
ENDBRANCH  29  30
ENDBRANCH  28  29
ENDBRANCH   1  28
TORSDOF 15
ENDMDL
