MODEL 1
REMARK VINA RESULT:     -11.8      0.000      0.000
REMARK SMILES Cc1cccc(-c2ncc([C@@H]3[NH2+][C@H](C(=O)OCCOC(=O)c4ccc(-c5c6nc(c(-c7ccccc7)c7ccc([nH]7)c(-c7ccccc7)c7nc(c(-c8ccccc8)c8ccc5[nH]8)C=C7)C=C6)cc4)C(C)(C)S3)s2)c1
REMARK SMILES IDX 17 1 16 2 14 3 15 4 13 5 11 6 12 7 73 8 70 11 71 12 72 13
REMARK SMILES IDX 10 14 7 15 8 16 74 17 9 18 6 19 1 20 2 21 3 22 75 23 4 24
REMARK SMILES IDX 5 25 18 26 19 27 20 28 21 29 22 30 23 31 69 32 24 33 68 34
REMARK SMILES IDX 25 35 26 36 27 37 62 38 28 39 67 40 61 41 63 42 29 43 66 44
REMARK SMILES IDX 60 45 59 46 30 48 52 49 37 50 51 51 38 52 41 53 50 54 64 55
REMARK SMILES IDX 39 56 40 57 49 59 65 60 42 61 31 62 32 63 36 64 33 65 35 66
REMARK SMILES IDX 34 67 53 68 54 69 58 70 55 71 57 72 56 73 43 74 44 75 48 76
REMARK SMILES IDX 45 77 47 78 46 79
REMARK H PARENT 12 9 12 10 63 47 41 58
REMARK Flexibility Score: inf
ROOT
ATOM      1  C   UNL A   1      33.575  27.018  24.942  1.00  0.00     0.274 C 
ENDROOT
BRANCH   1   2
ATOM      2  O   UNL A   1      33.775  26.107  26.019  1.00  0.00    -0.458 OA
BRANCH   2   3
ATOM      3  C   UNL A   1      33.458  24.828  25.751  1.00  0.00     0.366 C 
ATOM      4  O   UNL A   1      33.663  23.929  26.550  1.00  0.00    -0.245 OA
BRANCH   3   5
ATOM      5  C   UNL A   1      32.802  24.717  24.355  1.00  0.00     0.310 C 
ATOM      6  C   UNL A   1      33.670  22.593  23.609  1.00  0.00     0.286 C 
ATOM      7  N   UNL A   1      33.688  24.045  23.367  1.00  0.00    -0.318 N 
ATOM      8  S   UNL A   1      32.103  22.217  24.485  1.00  0.00    -0.080 SA
ATOM      9  H   UNL A   1      33.354  24.237  22.422  1.00  0.00     0.348 HD
ATOM     10  H   UNL A   1      34.640  24.397  23.466  1.00  0.00     0.348 HD
ATOM     11  C   UNL A   1      31.481  23.951  24.415  1.00  0.00     0.079 C 
ATOM     12  C   UNL A   1      30.653  24.132  23.128  1.00  0.00     0.030 C 
ATOM     13  C   UNL A   1      30.623  24.420  25.598  1.00  0.00     0.030 C 
BRANCH   6  14
ATOM     14  C   UNL A   1      34.977  22.184  24.238  1.00  0.00     0.093 A 
ATOM     15  C   UNL A   1      37.159  22.324  25.379  1.00  0.00     0.123 A 
ATOM     16  N   UNL A   1      36.556  21.180  25.651  1.00  0.00    -0.244 NA
ATOM     17  S   UNL A   1      36.371  23.223  24.129  1.00  0.00    -0.112 S 
ATOM     18  C   UNL A   1      35.340  21.096  25.002  1.00  0.00     0.134 A 
BRANCH  15  19
ATOM     19  C   UNL A   1      38.409  22.752  26.063  1.00  0.00     0.011 A 
ATOM     20  C   UNL A   1      41.798  21.093  26.723  1.00  0.00     0.044 C 
ATOM     21  C   UNL A   1      40.697  22.112  26.729  1.00  0.00    -0.050 A 
ATOM     22  C   UNL A   1      40.901  23.387  27.258  1.00  0.00     0.003 A 
ATOM     23  C   UNL A   1      39.458  21.813  26.145  1.00  0.00     0.014 A 
ATOM     24  C   UNL A   1      39.866  24.324  27.232  1.00  0.00     0.001 A 
ATOM     25  C   UNL A   1      38.628  24.008  26.646  1.00  0.00     0.011 A 
ENDBRANCH  15  19
ENDBRANCH   6  14
ENDBRANCH   3   5
ENDBRANCH   2   3
ENDBRANCH   1   2
BRANCH   1  26
ATOM     26  C   UNL A   1      33.841  28.516  25.266  1.00  0.00     0.275 C 
BRANCH  26  27
ATOM     27  O   UNL A   1      34.223  29.082  26.586  1.00  0.00    -0.458 OA
BRANCH  27  28
ATOM     28  C   UNL A   1      34.287  30.252  27.261  1.00  0.00     0.338 C 
ATOM     29  O   UNL A   1      33.372  31.075  27.276  1.00  0.00    -0.246 OA
BRANCH  28  30
ATOM     30  C   UNL A   1      35.493  30.555  28.003  1.00  0.00     0.060 A 
ATOM     31  C   UNL A   1      36.235  31.747  27.881  1.00  0.00     0.016 A 
ATOM     32  C   UNL A   1      35.897  29.560  28.851  1.00  0.00     0.016 A 
ATOM     33  C   UNL A   1      37.389  31.895  28.644  1.00  0.00     0.010 A 
ATOM     34  C   UNL A   1      36.732  29.881  29.868  1.00  0.00     0.010 A 
ATOM     35  C   UNL A   1      37.622  30.915  29.605  1.00  0.00    -0.014 A 
BRANCH  35  36
ATOM     36  C   UNL A   1      38.929  30.431  30.009  1.00  0.00     0.031 A 
ATOM     37  C   UNL A   1      39.514  29.340  29.236  1.00  0.00     0.074 A 
ATOM     38  C   UNL A   1      39.578  31.394  30.725  1.00  0.00     0.049 A 
ATOM     39  N   UNL A   1      40.239  28.400  29.727  1.00  0.00    -0.248 NA
ATOM     40  C   UNL A   1      39.256  29.181  27.798  1.00  0.00     0.031 C 
ATOM     41  C   UNL A   1      40.983  31.702  30.901  1.00  0.00     0.029 A 
ATOM     42  N   UNL A   1      38.973  32.458  31.414  1.00  0.00    -0.354 N 
ATOM     43  C   UNL A   1      40.913  27.890  28.638  1.00  0.00     0.074 A 
ATOM     44  C   UNL A   1      40.081  28.175  27.492  1.00  0.00     0.031 C 
ATOM     45  C   UNL A   1      41.098  32.601  31.909  1.00  0.00     0.029 A 
ATOM     46  C   UNL A   1      39.770  32.836  32.474  1.00  0.00     0.049 A 
ATOM     47  H   UNL A   1      38.111  32.871  31.176  1.00  0.00     0.167 HD
ATOM     48  C   UNL A   1      42.259  27.680  28.728  1.00  0.00     0.031 A 
ATOM     49  C   UNL A   1      39.316  32.525  33.726  1.00  0.00     0.031 A 
ATOM     50  C   UNL A   1      42.778  28.227  29.997  1.00  0.00     0.049 A 
ATOM     51  C   UNL A   1      40.022  31.273  34.219  1.00  0.00     0.074 A 
ATOM     52  C   UNL A   1      43.530  29.355  30.286  1.00  0.00     0.029 A 
ATOM     53  N   UNL A   1      42.214  27.832  31.207  1.00  0.00    -0.354 N 
ATOM     54  N   UNL A   1      40.794  30.531  33.476  1.00  0.00    -0.248 NA
ATOM     55  C   UNL A   1      39.891  30.746  35.570  1.00  0.00     0.031 C 
ATOM     56  C   UNL A   1      43.360  29.663  31.670  1.00  0.00     0.029 A 
ATOM     57  C   UNL A   1      42.510  28.723  32.228  1.00  0.00     0.049 A 
ATOM     58  H   UNL A   1      41.673  27.018  31.325  1.00  0.00     0.167 HD
ATOM     59  C   UNL A   1      41.237  29.447  34.171  1.00  0.00     0.074 A 
ATOM     60  C   UNL A   1      40.677  29.656  35.500  1.00  0.00     0.031 C 
ATOM     61  C   UNL A   1      41.992  28.470  33.580  1.00  0.00     0.031 A 
BRANCH  48  62
ATOM     62  C   UNL A   1      43.144  27.322  27.552  1.00  0.00    -0.014 A 
ATOM     63  C   UNL A   1      43.178  25.994  27.088  1.00  0.00     0.009 A 
ATOM     64  C   UNL A   1      43.919  28.243  26.820  1.00  0.00     0.009 A 
ATOM     65  C   UNL A   1      43.976  25.600  26.003  1.00  0.00     0.001 A 
ATOM     66  C   UNL A   1      44.747  27.852  25.756  1.00  0.00     0.001 A 
ATOM     67  C   UNL A   1      44.774  26.527  25.346  1.00  0.00     0.000 A 
ENDBRANCH  48  62
BRANCH  49  68
ATOM     68  C   UNL A   1      37.842  32.807  33.917  1.00  0.00    -0.014 A 
ATOM     69  C   UNL A   1      37.452  34.117  34.281  1.00  0.00     0.009 A 
ATOM     70  C   UNL A   1      36.844  31.948  33.427  1.00  0.00     0.009 A 
ATOM     71  C   UNL A   1      36.145  34.578  34.069  1.00  0.00     0.001 A 
ATOM     72  C   UNL A   1      35.528  32.406  33.240  1.00  0.00     0.001 A 
ATOM     73  C   UNL A   1      35.187  33.726  33.532  1.00  0.00     0.000 A 
ENDBRANCH  49  68
BRANCH  61  74
ATOM     74  C   UNL A   1      42.368  27.161  34.230  1.00  0.00    -0.014 A 
ATOM     75  C   UNL A   1      43.672  26.667  34.330  1.00  0.00     0.009 A 
ATOM     76  C   UNL A   1      41.360  26.400  34.866  1.00  0.00     0.009 A 
ATOM     77  C   UNL A   1      43.941  25.438  34.943  1.00  0.00     0.001 A 
ATOM     78  C   UNL A   1      41.633  25.218  35.552  1.00  0.00     0.001 A 
ATOM     79  C   UNL A   1      42.925  24.720  35.561  1.00  0.00     0.000 A 
ENDBRANCH  61  74
ENDBRANCH  35  36
ENDBRANCH  28  30
ENDBRANCH  27  28
ENDBRANCH  26  27
ENDBRANCH   1  26
TORSDOF 13
ENDMDL
MODEL 2
REMARK VINA RESULT:     -11.6      1.880      4.608
REMARK SMILES Cc1cccc(-c2ncc([C@@H]3[NH2+][C@H](C(=O)OCCOC(=O)c4ccc(-c5c6nc(c(-c7ccccc7)c7ccc([nH]7)c(-c7ccccc7)c7nc(c(-c8ccccc8)c8ccc5[nH]8)C=C7)C=C6)cc4)C(C)(C)S3)s2)c1
REMARK SMILES IDX 17 1 16 2 14 3 15 4 13 5 11 6 12 7 73 8 70 11 71 12 72 13
REMARK SMILES IDX 10 14 7 15 8 16 74 17 9 18 6 19 1 20 2 21 3 22 75 23 4 24
REMARK SMILES IDX 5 25 18 26 19 27 20 28 21 29 22 30 23 31 69 32 24 33 68 34
REMARK SMILES IDX 25 35 26 36 27 37 62 38 28 39 67 40 61 41 63 42 29 43 66 44
REMARK SMILES IDX 60 45 59 46 30 48 52 49 37 50 51 51 38 52 41 53 50 54 64 55
REMARK SMILES IDX 39 56 40 57 49 59 65 60 42 61 31 62 32 63 36 64 33 65 35 66
REMARK SMILES IDX 34 67 53 68 54 69 58 70 55 71 57 72 56 73 43 74 44 75 48 76
REMARK SMILES IDX 45 77 47 78 46 79
REMARK H PARENT 12 9 12 10 63 47 41 58
REMARK Flexibility Score: inf
ROOT
ATOM      1  C   UNL A   1      33.421  26.610  25.574  1.00  0.00     0.274 C 
ENDROOT
BRANCH   1   2
ATOM      2  O   UNL A   1      32.931  25.329  25.960  1.00  0.00    -0.458 OA
BRANCH   2   3
ATOM      3  C   UNL A   1      33.446  24.291  25.278  1.00  0.00     0.366 C 
ATOM      4  O   UNL A   1      34.528  24.357  24.719  1.00  0.00    -0.245 OA
BRANCH   3   5
ATOM      5  C   UNL A   1      32.496  23.072  25.355  1.00  0.00     0.310 C 
ATOM      6  C   UNL A   1      31.038  23.511  23.483  1.00  0.00     0.286 C 
ATOM      7  N   UNL A   1      31.106  23.415  24.950  1.00  0.00    -0.318 N 
ATOM      8  S   UNL A   1      32.426  22.513  22.817  1.00  0.00    -0.080 SA
ATOM      9  H   UNL A   1      30.467  22.688  25.274  1.00  0.00     0.348 HD
ATOM     10  H   UNL A   1      30.839  24.307  25.365  1.00  0.00     0.348 HD
ATOM     11  C   UNL A   1      32.984  21.924  24.472  1.00  0.00     0.079 C 
ATOM     12  C   UNL A   1      32.264  20.602  24.800  1.00  0.00     0.030 C 
ATOM     13  C   UNL A   1      34.492  21.696  24.647  1.00  0.00     0.030 C 
BRANCH   6  14
ATOM     14  C   UNL A   1      30.926  24.961  23.091  1.00  0.00     0.093 A 
ATOM     15  C   UNL A   1      30.607  27.402  23.253  1.00  0.00     0.123 A 
ATOM     16  N   UNL A   1      31.437  27.098  22.271  1.00  0.00    -0.244 NA
ATOM     17  S   UNL A   1      29.819  26.017  23.924  1.00  0.00    -0.112 S 
ATOM     18  C   UNL A   1      31.606  25.730  22.171  1.00  0.00     0.134 A 
BRANCH  15  19
ATOM     19  C   UNL A   1      30.364  28.803  23.689  1.00  0.00     0.011 A 
ATOM     20  C   UNL A   1      27.674  31.416  22.909  1.00  0.00     0.044 C 
ATOM     21  C   UNL A   1      28.902  30.782  23.490  1.00  0.00    -0.050 A 
ATOM     22  C   UNL A   1      29.677  31.450  24.439  1.00  0.00     0.003 A 
ATOM     23  C   UNL A   1      29.258  29.474  23.128  1.00  0.00     0.014 A 
ATOM     24  C   UNL A   1      30.804  30.828  24.980  1.00  0.00     0.001 A 
ATOM     25  C   UNL A   1      31.150  29.519  24.604  1.00  0.00     0.011 A 
ENDBRANCH  15  19
ENDBRANCH   6  14
ENDBRANCH   3   5
ENDBRANCH   2   3
ENDBRANCH   1   2
BRANCH   1  26
ATOM     26  C   UNL A   1      33.400  27.703  26.680  1.00  0.00     0.275 C 
BRANCH  26  27
ATOM     27  O   UNL A   1      34.250  28.921  26.736  1.00  0.00    -0.458 OA
BRANCH  27  28
ATOM     28  C   UNL A   1      34.321  30.140  27.317  1.00  0.00     0.338 C 
ATOM     29  O   UNL A   1      33.425  30.981  27.239  1.00  0.00    -0.246 OA
BRANCH  28  30
ATOM     30  C   UNL A   1      35.512  30.477  28.070  1.00  0.00     0.060 A 
ATOM     31  C   UNL A   1      36.211  31.696  27.968  1.00  0.00     0.016 A 
ATOM     32  C   UNL A   1      35.946  29.486  28.908  1.00  0.00     0.016 A 
ATOM     33  C   UNL A   1      37.354  31.876  28.739  1.00  0.00     0.010 A 
ATOM     34  C   UNL A   1      36.764  29.824  29.934  1.00  0.00     0.010 A 
ATOM     35  C   UNL A   1      37.618  30.893  29.689  1.00  0.00    -0.014 A 
BRANCH  35  36
ATOM     36  C   UNL A   1      38.939  30.451  30.094  1.00  0.00     0.031 A 
ATOM     37  C   UNL A   1      39.574  29.405  29.300  1.00  0.00     0.074 A 
ATOM     38  C   UNL A   1      39.542  31.420  30.840  1.00  0.00     0.049 A 
ATOM     39  N   UNL A   1      40.333  28.482  29.775  1.00  0.00    -0.248 NA
ATOM     40  C   UNL A   1      39.337  29.272  27.856  1.00  0.00     0.031 C 
ATOM     41  C   UNL A   1      40.932  31.780  31.040  1.00  0.00     0.029 A 
ATOM     42  N   UNL A   1      38.888  32.442  31.550  1.00  0.00    -0.354 N 
ATOM     43  C   UNL A   1      41.037  28.027  28.680  1.00  0.00     0.074 A 
ATOM     44  C   UNL A   1      40.205  28.308  27.533  1.00  0.00     0.031 C 
ATOM     45  C   UNL A   1      41.001  32.657  32.071  1.00  0.00     0.029 A 
ATOM     46  C   UNL A   1      39.660  32.824  32.628  1.00  0.00     0.049 A 
ATOM     47  H   UNL A   1      38.013  32.826  31.314  1.00  0.00     0.167 HD
ATOM     48  C   UNL A   1      42.389  27.869  28.779  1.00  0.00     0.031 A 
ATOM     49  C   UNL A   1      39.207  32.463  33.866  1.00  0.00     0.031 A 
ATOM     50  C   UNL A   1      42.873  28.403  30.067  1.00  0.00     0.049 A 
ATOM     51  C   UNL A   1      39.957  31.228  34.336  1.00  0.00     0.074 A 
ATOM     52  C   UNL A   1      43.577  29.553  30.392  1.00  0.00     0.029 A 
ATOM     53  N   UNL A   1      42.315  27.955  31.261  1.00  0.00    -0.354 N 
ATOM     54  N   UNL A   1      40.766  30.536  33.582  1.00  0.00    -0.248 NA
ATOM     55  C   UNL A   1      39.835  30.662  35.671  1.00  0.00     0.031 C 
ATOM     56  C   UNL A   1      43.382  29.818  31.781  1.00  0.00     0.029 A 
ATOM     57  C   UNL A   1      42.565  28.831  32.307  1.00  0.00     0.049 A 
ATOM     58  H   UNL A   1      41.805  27.118  31.352  1.00  0.00     0.167 HD
ATOM     59  C   UNL A   1      41.245  29.454  34.253  1.00  0.00     0.074 A 
ATOM     60  C   UNL A   1      40.665  29.606  35.581  1.00  0.00     0.031 C 
ATOM     61  C   UNL A   1      42.044  28.523  33.646  1.00  0.00     0.031 A 
BRANCH  48  62
ATOM     62  C   UNL A   1      43.298  27.576  27.603  1.00  0.00    -0.014 A 
ATOM     63  C   UNL A   1      43.371  26.269  27.090  1.00  0.00     0.009 A 
ATOM     64  C   UNL A   1      44.062  28.542  26.919  1.00  0.00     0.009 A 
ATOM     65  C   UNL A   1      44.193  25.935  26.003  1.00  0.00     0.001 A 
ATOM     66  C   UNL A   1      44.914  28.212  25.853  1.00  0.00     0.001 A 
ATOM     67  C   UNL A   1      44.978  26.904  25.394  1.00  0.00     0.000 A 
ENDBRANCH  48  62
BRANCH  49  68
ATOM     68  C   UNL A   1      37.721  32.681  34.050  1.00  0.00    -0.014 A 
ATOM     69  C   UNL A   1      37.295  33.805  34.796  1.00  0.00     0.009 A 
ATOM     70  C   UNL A   1      36.763  32.038  33.247  1.00  0.00     0.009 A 
ATOM     71  C   UNL A   1      35.999  34.322  34.666  1.00  0.00     0.001 A 
ATOM     72  C   UNL A   1      35.456  32.544  33.140  1.00  0.00     0.001 A 
ATOM     73  C   UNL A   1      35.084  33.700  33.825  1.00  0.00     0.000 A 
ENDBRANCH  49  68
BRANCH  61  74
ATOM     74  C   UNL A   1      42.467  27.214  34.267  1.00  0.00    -0.014 A 
ATOM     75  C   UNL A   1      43.789  26.775  34.379  1.00  0.00     0.009 A 
ATOM     76  C   UNL A   1      41.481  26.391  34.861  1.00  0.00     0.009 A 
ATOM     77  C   UNL A   1      44.102  25.543  34.963  1.00  0.00     0.001 A 
ATOM     78  C   UNL A   1      41.794  25.203  35.519  1.00  0.00     0.001 A 
ATOM     79  C   UNL A   1      43.107  24.763  35.541  1.00  0.00     0.000 A 
ENDBRANCH  61  74
ENDBRANCH  35  36
ENDBRANCH  28  30
ENDBRANCH  27  28
ENDBRANCH  26  27
ENDBRANCH   1  26
TORSDOF 13
ENDMDL
MODEL 3
REMARK VINA RESULT:     -11.5      3.009      6.086
REMARK SMILES Cc1cccc(-c2ncc([C@@H]3[NH2+][C@H](C(=O)OCCOC(=O)c4ccc(-c5c6nc(c(-c7ccccc7)c7ccc([nH]7)c(-c7ccccc7)c7nc(c(-c8ccccc8)c8ccc5[nH]8)C=C7)C=C6)cc4)C(C)(C)S3)s2)c1
REMARK SMILES IDX 17 1 16 2 14 3 15 4 13 5 11 6 12 7 73 8 70 11 71 12 72 13
REMARK SMILES IDX 10 14 7 15 8 16 74 17 9 18 6 19 1 20 2 21 3 22 75 23 4 24
REMARK SMILES IDX 5 25 18 26 19 27 20 28 21 29 22 30 23 31 69 32 24 33 68 34
REMARK SMILES IDX 25 35 26 36 27 37 62 38 28 39 67 40 61 41 63 42 29 43 66 44
REMARK SMILES IDX 60 45 59 46 30 48 52 49 37 50 51 51 38 52 41 53 50 54 64 55
REMARK SMILES IDX 39 56 40 57 49 59 65 60 42 61 31 62 32 63 36 64 33 65 35 66
REMARK SMILES IDX 34 67 53 68 54 69 58 70 55 71 57 72 56 73 43 74 44 75 48 76
REMARK SMILES IDX 45 77 47 78 46 79
REMARK H PARENT 12 9 12 10 63 47 41 58
REMARK Flexibility Score: inf
ROOT
ATOM      1  C   UNL A   1      34.324  28.890  26.290  1.00  0.00     0.274 C 
ENDROOT
BRANCH   1   2
ATOM      2  O   UNL A   1      33.533  27.743  26.589  1.00  0.00    -0.458 OA
BRANCH   2   3
ATOM      3  C   UNL A   1      33.454  26.831  25.604  1.00  0.00     0.366 C 
ATOM      4  O   UNL A   1      33.893  27.046  24.486  1.00  0.00    -0.245 OA
BRANCH   3   5
ATOM      5  C   UNL A   1      32.782  25.537  26.122  1.00  0.00     0.310 C 
ATOM      6  C   UNL A   1      31.298  25.029  24.289  1.00  0.00     0.286 C 
ATOM      7  N   UNL A   1      31.359  25.435  25.702  1.00  0.00    -0.318 N 
ATOM      8  S   UNL A   1      32.876  24.176  23.909  1.00  0.00    -0.080 SA
ATOM      9  H   UNL A   1      30.882  24.740  26.277  1.00  0.00     0.348 HD
ATOM     10  H   UNL A   1      30.902  26.339  25.819  1.00  0.00     0.348 HD
ATOM     11  C   UNL A   1      33.517  24.290  25.634  1.00  0.00     0.079 C 
ATOM     12  C   UNL A   1      33.088  23.030  26.410  1.00  0.00     0.030 C 
ATOM     13  C   UNL A   1      35.036  24.447  25.792  1.00  0.00     0.030 C 
BRANCH   6  14
ATOM     14  C   UNL A   1      30.888  26.215  23.455  1.00  0.00     0.093 A 
ATOM     15  C   UNL A   1      30.079  28.462  22.836  1.00  0.00     0.123 A 
ATOM     16  N   UNL A   1      30.945  28.010  21.946  1.00  0.00    -0.244 NA
ATOM     17  S   UNL A   1      29.596  27.259  23.980  1.00  0.00    -0.112 S 
ATOM     18  C   UNL A   1      31.388  26.746  22.285  1.00  0.00     0.134 A 
BRANCH  15  19
ATOM     19  C   UNL A   1      29.558  29.855  22.809  1.00  0.00     0.011 A 
ATOM     20  C   UNL A   1      27.924  32.046  20.126  1.00  0.00     0.044 C 
ATOM     21  C   UNL A   1      28.504  31.618  21.441  1.00  0.00    -0.050 A 
ATOM     22  C   UNL A   1      28.451  32.454  22.557  1.00  0.00     0.003 A 
ATOM     23  C   UNL A   1      29.057  30.337  21.582  1.00  0.00     0.014 A 
ATOM     24  C   UNL A   1      28.980  32.021  23.775  1.00  0.00     0.001 A 
ATOM     25  C   UNL A   1      29.535  30.736  23.900  1.00  0.00     0.011 A 
ENDBRANCH  15  19
ENDBRANCH   6  14
ENDBRANCH   3   5
ENDBRANCH   2   3
ENDBRANCH   1   2
BRANCH   1  26
ATOM     26  C   UNL A   1      34.546  29.883  27.465  1.00  0.00     0.275 C 
BRANCH  26  27
ATOM     27  O   UNL A   1      35.673  30.843  27.613  1.00  0.00    -0.458 OA
BRANCH  27  28
ATOM     28  C   UNL A   1      36.825  31.030  28.295  1.00  0.00     0.338 C 
ATOM     29  O   UNL A   1      37.228  32.138  28.650  1.00  0.00    -0.246 OA
BRANCH  28  30
ATOM     30  C   UNL A   1      37.627  29.871  28.625  1.00  0.00     0.060 A 
ATOM     31  C   UNL A   1      37.376  28.998  29.702  1.00  0.00     0.016 A 
ATOM     32  C   UNL A   1      38.703  29.679  27.802  1.00  0.00     0.016 A 
ATOM     33  C   UNL A   1      38.243  27.931  29.913  1.00  0.00     0.010 A 
ATOM     34  C   UNL A   1      39.260  28.444  27.747  1.00  0.00     0.010 A 
ATOM     35  C   UNL A   1      39.200  27.711  28.926  1.00  0.00    -0.014 A 
BRANCH  35  36
ATOM     36  C   UNL A   1      40.544  27.215  29.157  1.00  0.00     0.031 A 
ATOM     37  C   UNL A   1      40.928  25.972  28.496  1.00  0.00     0.074 A 
ATOM     38  C   UNL A   1      41.353  28.238  29.553  1.00  0.00     0.049 A 
ATOM     39  N   UNL A   1      41.705  25.082  29.001  1.00  0.00    -0.248 NA
ATOM     40  C   UNL A   1      40.387  25.589  27.184  1.00  0.00     0.031 C 
ATOM     41  C   UNL A   1      42.775  28.477  29.404  1.00  0.00     0.029 A 
ATOM     42  N   UNL A   1      40.932  29.442  30.142  1.00  0.00    -0.354 N 
ATOM     43  C   UNL A   1      42.133  24.350  27.914  1.00  0.00     0.074 A 
ATOM     44  C   UNL A   1      41.102  24.493  26.913  1.00  0.00     0.031 C 
ATOM     45  C   UNL A   1      43.117  29.523  30.194  1.00  0.00     0.029 A 
ATOM     46  C   UNL A   1      41.935  29.940  30.948  1.00  0.00     0.049 A 
ATOM     47  H   UNL A   1      40.055  29.866  30.001  1.00  0.00     0.167 HD
ATOM     48  C   UNL A   1      43.463  24.068  27.785  1.00  0.00     0.031 A 
ATOM     49  C   UNL A   1      41.726  29.876  32.298  1.00  0.00     0.031 A 
ATOM     50  C   UNL A   1      44.240  24.785  28.815  1.00  0.00     0.049 A 
ATOM     51  C   UNL A   1      42.473  28.681  32.866  1.00  0.00     0.074 A 
ATOM     52  C   UNL A   1      45.071  25.893  28.751  1.00  0.00     0.029 A 
ATOM     53  N   UNL A   1      43.913  24.640  30.161  1.00  0.00    -0.354 N 
ATOM     54  N   UNL A   1      43.059  27.773  32.135  1.00  0.00    -0.248 NA
ATOM     55  C   UNL A   1      42.593  28.400  34.289  1.00  0.00     0.031 C 
ATOM     56  C   UNL A   1      45.188  26.441  30.064  1.00  0.00     0.029 A 
ATOM     57  C   UNL A   1      44.433  25.669  30.931  1.00  0.00     0.049 A 
ATOM     58  H   UNL A   1      43.378  23.896  30.522  1.00  0.00     0.167 HD
ATOM     59  C   UNL A   1      43.593  26.795  32.917  1.00  0.00     0.074 A 
ATOM     60  C   UNL A   1      43.314  27.263  34.269  1.00  0.00     0.031 C 
ATOM     61  C   UNL A   1      44.184  25.684  32.380  1.00  0.00     0.031 A 
BRANCH  48  62
ATOM     62  C   UNL A   1      44.086  23.457  26.547  1.00  0.00    -0.014 A 
ATOM     63  C   UNL A   1      44.909  24.245  25.723  1.00  0.00     0.009 A 
ATOM     64  C   UNL A   1      43.954  22.107  26.165  1.00  0.00     0.009 A 
ATOM     65  C   UNL A   1      45.515  23.736  24.564  1.00  0.00     0.001 A 
ATOM     66  C   UNL A   1      44.528  21.598  24.989  1.00  0.00     0.001 A 
ATOM     67  C   UNL A   1      45.311  22.416  24.188  1.00  0.00     0.000 A 
ENDBRANCH  48  62
BRANCH  49  68
ATOM     68  C   UNL A   1      40.329  30.285  32.710  1.00  0.00    -0.014 A 
ATOM     69  C   UNL A   1      39.832  31.528  32.252  1.00  0.00     0.009 A 
ATOM     70  C   UNL A   1      39.397  29.365  33.220  1.00  0.00     0.009 A 
ATOM     71  C   UNL A   1      38.457  31.798  32.213  1.00  0.00     0.001 A 
ATOM     72  C   UNL A   1      38.021  29.650  33.203  1.00  0.00     0.001 A 
ATOM     73  C   UNL A   1      37.550  30.851  32.674  1.00  0.00     0.000 A 
ENDBRANCH  49  68
BRANCH  61  74
ATOM     74  C   UNL A   1      44.637  24.481  33.171  1.00  0.00    -0.014 A 
ATOM     75  C   UNL A   1      43.881  23.320  33.359  1.00  0.00     0.009 A 
ATOM     76  C   UNL A   1      45.948  24.467  33.701  1.00  0.00     0.009 A 
ATOM     77  C   UNL A   1      44.368  22.247  34.113  1.00  0.00     0.001 A 
ATOM     78  C   UNL A   1      46.470  23.368  34.381  1.00  0.00     0.001 A 
ATOM     79  C   UNL A   1      45.663  22.267  34.615  1.00  0.00     0.000 A 
ENDBRANCH  61  74
ENDBRANCH  35  36
ENDBRANCH  28  30
ENDBRANCH  27  28
ENDBRANCH  26  27
ENDBRANCH   1  26
TORSDOF 13
ENDMDL
