MODEL 1
REMARK VINA RESULT:     -15.1      0.000      0.000
REMARK SMILES O=C(OCCOC(=O)[C@@H]1C[NH2+]CCN1C(=O)N[C@@H]1CCOC1)c1ccc(-c2c3nc(c(-c4ccccc4)c4ccc([nH]4)c(-c4ccccc4)c4nc(c(-c5ccccc5)c5ccc2[nH]5)C=C4)C=C3)cc1
REMARK SMILES IDX 4 1 3 2 2 3 1 4 23 5 24 6 70 7 25 8 69 9 26 10 27 11 28 12
REMARK SMILES IDX 63 13 29 14 68 15 62 16 64 17 30 18 67 19 61 20 60 21 31 23
REMARK SMILES IDX 53 24 38 25 52 26 39 27 42 28 51 29 65 30 40 31 41 32 50 34
REMARK SMILES IDX 66 35 43 36 32 37 33 38 37 39 34 40 36 41 35 42 54 43 55 44
REMARK SMILES IDX 59 45 56 46 58 47 57 48 44 49 45 50 49 51 46 52 48 53 47 54
REMARK SMILES IDX 5 55 6 56 7 57 8 58 9 59 10 60 14 61 11 62 13 63 12 64 15 67
REMARK SMILES IDX 16 68 17 69 18 71 19 72 22 73 20 74 21 75
REMARK H PARENT 64 22 42 33 11 65 11 66 17 70
REMARK Flexibility Score: inf
ROOT
ATOM      1  C   UNL A   1      33.092  33.346  28.000  1.00  0.00     0.275 C 
ENDROOT
BRANCH   1   2
ATOM      2  O   UNL A   1      32.504  35.057  28.421  1.00  0.00    -0.458 OA
BRANCH   2   3
ATOM      3  C   UNL A   1      32.973  35.718  30.067  1.00  0.00     0.338 C 
ATOM      4  O   UNL A   1      32.302  36.765  30.160  1.00  0.00    -0.246 OA
BRANCH   3   5
ATOM      5  C   UNL A   1      34.225  34.512  31.318  1.00  0.00     0.060 A 
ATOM      6  C   UNL A   1      34.058  33.958  32.710  1.00  0.00     0.016 A 
ATOM      7  C   UNL A   1      35.708  34.265  31.276  1.00  0.00     0.016 A 
ATOM      8  C   UNL A   1      34.834  32.982  33.450  1.00  0.00     0.010 A 
ATOM      9  C   UNL A   1      36.566  33.405  31.999  1.00  0.00     0.010 A 
ATOM     10  C   UNL A   1      36.091  32.636  33.028  1.00  0.00    -0.014 A 
BRANCH  10  11
ATOM     11  C   UNL A   1      37.069  31.707  33.637  1.00  0.00     0.031 A 
ATOM     12  C   UNL A   1      37.902  32.156  34.798  1.00  0.00     0.074 A 
ATOM     13  C   UNL A   1      37.467  30.672  32.865  1.00  0.00     0.049 A 
ATOM     14  N   UNL A   1      39.090  31.746  35.162  1.00  0.00    -0.248 NA
ATOM     15  C   UNL A   1      37.347  33.229  35.633  1.00  0.00     0.031 C 
ATOM     16  C   UNL A   1      36.775  30.217  31.653  1.00  0.00     0.029 A 
ATOM     17  N   UNL A   1      38.640  29.954  32.873  1.00  0.00    -0.354 N 
ATOM     18  C   UNL A   1      39.434  32.524  36.258  1.00  0.00     0.074 A 
ATOM     19  C   UNL A   1      38.329  33.426  36.502  1.00  0.00     0.031 C 
ATOM     20  C   UNL A   1      37.605  29.433  30.949  1.00  0.00     0.029 A 
ATOM     21  C   UNL A   1      38.865  29.313  31.672  1.00  0.00     0.049 A 
ATOM     22  H   UNL A   1      39.247  29.902  33.646  1.00  0.00     0.167 HD
ATOM     23  C   UNL A   1      40.573  32.501  36.989  1.00  0.00     0.031 A 
ATOM     24  C   UNL A   1      39.983  28.752  31.175  1.00  0.00     0.031 A 
ATOM     25  C   UNL A   1      41.689  31.635  36.729  1.00  0.00     0.049 A 
ATOM     26  C   UNL A   1      41.219  28.697  32.017  1.00  0.00     0.074 A 
ATOM     27  C   UNL A   1      42.847  31.465  37.467  1.00  0.00     0.029 A 
ATOM     28  N   UNL A   1      41.790  30.808  35.623  1.00  0.00    -0.354 N 
ATOM     29  N   UNL A   1      41.479  29.325  33.135  1.00  0.00    -0.248 NA
ATOM     30  C   UNL A   1      42.295  27.813  31.548  1.00  0.00     0.031 C 
ATOM     31  C   UNL A   1      43.657  30.536  36.799  1.00  0.00     0.029 A 
ATOM     32  C   UNL A   1      42.992  30.123  35.656  1.00  0.00     0.049 A 
ATOM     33  H   UNL A   1      41.109  30.720  34.919  1.00  0.00     0.167 HD
ATOM     34  C   UNL A   1      42.724  28.869  33.538  1.00  0.00     0.074 A 
ATOM     35  C   UNL A   1      43.184  27.939  32.526  1.00  0.00     0.031 C 
ATOM     36  C   UNL A   1      43.414  29.175  34.662  1.00  0.00     0.031 A 
BRANCH  23  37
ATOM     37  C   UNL A   1      40.655  33.461  38.136  1.00  0.00    -0.014 A 
ATOM     38  C   UNL A   1      41.205  34.740  37.961  1.00  0.00     0.009 A 
ATOM     39  C   UNL A   1      40.194  33.080  39.406  1.00  0.00     0.009 A 
ATOM     40  C   UNL A   1      41.322  35.610  39.045  1.00  0.00     0.001 A 
ATOM     41  C   UNL A   1      40.302  33.959  40.485  1.00  0.00     0.001 A 
ATOM     42  C   UNL A   1      40.873  35.219  40.305  1.00  0.00     0.000 A 
ENDBRANCH  23  37
BRANCH  24  43
ATOM     43  C   UNL A   1      39.987  28.205  29.798  1.00  0.00    -0.014 A 
ATOM     44  C   UNL A   1      39.542  26.899  29.550  1.00  0.00     0.009 A 
ATOM     45  C   UNL A   1      40.421  28.997  28.724  1.00  0.00     0.009 A 
ATOM     46  C   UNL A   1      39.546  26.391  28.250  1.00  0.00     0.001 A 
ATOM     47  C   UNL A   1      40.417  28.487  27.425  1.00  0.00     0.001 A 
ATOM     48  C   UNL A   1      39.982  27.183  27.189  1.00  0.00     0.000 A 
ENDBRANCH  24  43
BRANCH  36  49
ATOM     49  C   UNL A   1      44.683  28.419  34.901  1.00  0.00    -0.014 A 
ATOM     50  C   UNL A   1      44.686  27.194  35.581  1.00  0.00     0.009 A 
ATOM     51  C   UNL A   1      45.891  28.944  34.419  1.00  0.00     0.009 A 
ATOM     52  C   UNL A   1      45.888  26.515  35.791  1.00  0.00     0.001 A 
ATOM     53  C   UNL A   1      47.087  28.260  34.624  1.00  0.00     0.001 A 
ATOM     54  C   UNL A   1      47.085  27.048  35.312  1.00  0.00     0.000 A 
ENDBRANCH  36  49
ENDBRANCH  10  11
ENDBRANCH   3   5
ENDBRANCH   2   3
ENDBRANCH   1   2
BRANCH   1  55
ATOM     55  C   UNL A   1      31.827  32.345  26.930  1.00  0.00     0.274 C 
BRANCH  55  56
ATOM     56  O   UNL A   1      32.108  30.604  26.385  1.00  0.00    -0.460 OA
BRANCH  56  57
ATOM     57  C   UNL A   1      32.197  29.408  25.307  1.00  0.00     0.334 C 
ATOM     58  O   UNL A   1      33.132  29.505  24.504  1.00  0.00    -0.250 OA
BRANCH  57  59
ATOM     59  C   UNL A   1      31.138  27.787  25.274  1.00  0.00     0.252 C 
ATOM     60  C   UNL A   1      31.185  26.981  26.621  1.00  0.00     0.298 C 
ATOM     61  N   UNL A   1      31.135  26.489  23.863  1.00  0.00    -0.300 N 
ATOM     62  N   UNL A   1      30.292  25.798  26.622  1.00  0.00    -0.343 N 
ATOM     63  C   UNL A   1      30.518  25.195  24.124  1.00  0.00     0.183 C 
ATOM     64  C   UNL A   1      30.651  24.776  25.610  1.00  0.00     0.282 C 
ATOM     65  H   UNL A   1      29.340  26.113  26.437  1.00  0.00     0.346 HD
ATOM     66  H   UNL A   1      30.386  25.355  27.537  1.00  0.00     0.346 HD
BRANCH  61  67
ATOM     67  C   UNL A   1      31.615  26.905  22.150  1.00  0.00     0.318 C 
ATOM     68  O   UNL A   1      32.182  26.204  21.332  1.00  0.00    -0.249 OA
ATOM     69  N   UNL A   1      31.196  28.722  21.912  1.00  0.00    -0.333 N 
ATOM     70  H   UNL A   1      31.838  29.265  21.399  1.00  0.00     0.165 HD
BRANCH  69  71
ATOM     71  C   UNL A   1      29.516  29.681  22.624  1.00  0.00     0.112 C 
ATOM     72  C   UNL A   1      28.161  30.157  21.659  1.00  0.00     0.056 C 
ATOM     73  C   UNL A   1      29.189  30.981  23.627  1.00  0.00     0.185 C 
ATOM     74  C   UNL A   1      28.074  31.660  21.689  1.00  0.00     0.162 C 
ATOM     75  O   UNL A   1      28.738  32.110  22.864  1.00  0.00    -0.379 OA
ENDBRANCH  69  71
ENDBRANCH  61  67
ENDBRANCH  57  59
ENDBRANCH  56  57
ENDBRANCH  55  56
ENDBRANCH   1  55
TORSDOF 13
ENDMDL
MODEL 2
REMARK VINA RESULT:     -15.1      4.600      6.826
REMARK SMILES O=C(OCCOC(=O)[C@@H]1C[NH2+]CCN1C(=O)N[C@@H]1CCOC1)c1ccc(-c2c3nc(c(-c4ccccc4)c4ccc([nH]4)c(-c4ccccc4)c4nc(c(-c5ccccc5)c5ccc2[nH]5)C=C4)C=C3)cc1
REMARK SMILES IDX 4 1 3 2 2 3 1 4 23 5 24 6 70 7 25 8 69 9 26 10 27 11 28 12
REMARK SMILES IDX 63 13 29 14 68 15 62 16 64 17 30 18 67 19 61 20 60 21 31 23
REMARK SMILES IDX 53 24 38 25 52 26 39 27 42 28 51 29 65 30 40 31 41 32 50 34
REMARK SMILES IDX 66 35 43 36 32 37 33 38 37 39 34 40 36 41 35 42 54 43 55 44
REMARK SMILES IDX 59 45 56 46 58 47 57 48 44 49 45 50 49 51 46 52 48 53 47 54
REMARK SMILES IDX 5 55 6 56 7 57 8 58 9 59 10 60 14 61 11 62 13 63 12 64 15 67
REMARK SMILES IDX 16 68 17 69 18 71 19 72 22 73 20 74 21 75
REMARK H PARENT 64 22 42 33 11 65 11 66 17 70
REMARK Flexibility Score: inf
ROOT
ATOM      1  C   UNL A   1      34.089  33.517  28.453  1.00  0.00     0.275 C 
ENDROOT
BRANCH   1   2
ATOM      2  O   UNL A   1      33.647  33.907  30.215  1.00  0.00    -0.458 OA
BRANCH   2   3
ATOM      3  C   UNL A   1      34.575  33.016  31.524  1.00  0.00     0.338 C 
ATOM      4  O   UNL A   1      33.826  33.102  32.518  1.00  0.00    -0.246 OA
BRANCH   3   5
ATOM      5  C   UNL A   1      36.375  31.999  30.968  1.00  0.00     0.060 A 
ATOM      6  C   UNL A   1      36.859  31.400  29.671  1.00  0.00     0.016 A 
ATOM      7  C   UNL A   1      37.402  31.291  31.808  1.00  0.00     0.016 A 
ATOM      8  C   UNL A   1      38.160  30.898  29.277  1.00  0.00     0.010 A 
ATOM      9  C   UNL A   1      38.652  30.700  31.513  1.00  0.00     0.010 A 
ATOM     10  C   UNL A   1      39.111  30.623  30.225  1.00  0.00    -0.014 A 
BRANCH  10  11
ATOM     11  C   UNL A   1      40.475  30.073  30.062  1.00  0.00     0.031 A 
ATOM     12  C   UNL A   1      41.614  30.988  29.733  1.00  0.00     0.074 A 
ATOM     13  C   UNL A   1      40.555  28.751  29.792  1.00  0.00     0.049 A 
ATOM     14  N   UNL A   1      42.723  30.719  29.091  1.00  0.00    -0.248 NA
ATOM     15  C   UNL A   1      41.474  32.391  30.143  1.00  0.00     0.031 C 
ATOM     16  C   UNL A   1      39.462  27.790  29.987  1.00  0.00     0.029 A 
ATOM     17  N   UNL A   1      41.519  28.036  29.122  1.00  0.00    -0.354 N 
ATOM     18  C   UNL A   1      43.405  31.924  29.004  1.00  0.00     0.074 A 
ATOM     19  C   UNL A   1      42.589  32.923  29.660  1.00  0.00     0.031 C 
ATOM     20  C   UNL A   1      39.743  26.672  29.302  1.00  0.00     0.029 A 
ATOM     21  C   UNL A   1      41.037  26.832  28.651  1.00  0.00     0.049 A 
ATOM     22  H   UNL A   1      42.444  28.345  28.995  1.00  0.00     0.167 HD
ATOM     23  C   UNL A   1      44.597  32.182  28.416  1.00  0.00     0.031 A 
ATOM     24  C   UNL A   1      41.547  25.982  27.739  1.00  0.00     0.031 A 
ATOM     25  C   UNL A   1      45.393  31.204  27.730  1.00  0.00     0.049 A 
ATOM     26  C   UNL A   1      42.887  26.262  27.136  1.00  0.00     0.074 A 
ATOM     27  C   UNL A   1      46.659  31.340  27.186  1.00  0.00     0.029 A 
ATOM     28  N   UNL A   1      44.981  29.908  27.472  1.00  0.00    -0.354 N 
ATOM     29  N   UNL A   1      43.594  27.362  27.183  1.00  0.00    -0.248 NA
ATOM     30  C   UNL A   1      43.517  25.161  26.394  1.00  0.00     0.031 C 
ATOM     31  C   UNL A   1      47.009  30.121  26.589  1.00  0.00     0.029 A 
ATOM     32  C   UNL A   1      45.966  29.230  26.776  1.00  0.00     0.049 A 
ATOM     33  H   UNL A   1      44.116  29.525  27.743  1.00  0.00     0.167 HD
ATOM     34  C   UNL A   1      44.782  27.070  26.529  1.00  0.00     0.074 A 
ATOM     35  C   UNL A   1      44.684  25.700  26.063  1.00  0.00     0.031 C 
ATOM     36  C   UNL A   1      45.867  27.859  26.355  1.00  0.00     0.031 A 
BRANCH  23  37
ATOM     37  C   UNL A   1      45.093  33.593  28.494  1.00  0.00    -0.014 A 
ATOM     38  C   UNL A   1      44.866  34.490  27.439  1.00  0.00     0.009 A 
ATOM     39  C   UNL A   1      45.808  34.026  29.621  1.00  0.00     0.009 A 
ATOM     40  C   UNL A   1      45.373  35.789  27.497  1.00  0.00     0.001 A 
ATOM     41  C   UNL A   1      46.302  35.331  29.680  1.00  0.00     0.001 A 
ATOM     42  C   UNL A   1      46.092  36.207  28.616  1.00  0.00     0.000 A 
ENDBRANCH  23  37
BRANCH  24  43
ATOM     43  C   UNL A   1      40.775  24.785  27.332  1.00  0.00    -0.014 A 
ATOM     44  C   UNL A   1      41.146  23.511  27.785  1.00  0.00     0.009 A 
ATOM     45  C   UNL A   1      39.652  24.916  26.500  1.00  0.00     0.009 A 
ATOM     46  C   UNL A   1      40.413  22.387  27.400  1.00  0.00     0.001 A 
ATOM     47  C   UNL A   1      38.918  23.790  26.123  1.00  0.00     0.001 A 
ATOM     48  C   UNL A   1      39.300  22.526  26.571  1.00  0.00     0.000 A 
ENDBRANCH  24  43
BRANCH  36  49
ATOM     49  C   UNL A   1      47.067  27.226  25.725  1.00  0.00    -0.014 A 
ATOM     50  C   UNL A   1      47.277  27.276  24.340  1.00  0.00     0.009 A 
ATOM     51  C   UNL A   1      48.008  26.583  26.543  1.00  0.00     0.009 A 
ATOM     52  C   UNL A   1      48.406  26.672  23.783  1.00  0.00     0.001 A 
ATOM     53  C   UNL A   1      49.137  25.988  25.983  1.00  0.00     0.001 A 
ATOM     54  C   UNL A   1      49.334  26.031  24.604  1.00  0.00     0.000 A 
ENDBRANCH  36  49
ENDBRANCH  10  11
ENDBRANCH   3   5
ENDBRANCH   2   3
ENDBRANCH   1   2
BRANCH   1  55
ATOM     55  C   UNL A   1      34.055  31.623  28.058  1.00  0.00     0.274 C 
BRANCH  55  56
ATOM     56  O   UNL A   1      32.711  30.809  27.090  1.00  0.00    -0.460 OA
BRANCH  56  57
ATOM     57  C   UNL A   1      32.057  30.139  25.777  1.00  0.00     0.334 C 
ATOM     58  O   UNL A   1      31.052  30.718  25.349  1.00  0.00    -0.250 OA
BRANCH  57  59
ATOM     59  C   UNL A   1      32.784  28.685  24.725  1.00  0.00     0.252 C 
ATOM     60  C   UNL A   1      33.356  29.142  23.336  1.00  0.00     0.298 C 
ATOM     61  N   UNL A   1      31.936  26.991  24.434  1.00  0.00    -0.300 N 
ATOM     62  N   UNL A   1      34.002  28.041  22.582  1.00  0.00    -0.343 N 
ATOM     63  C   UNL A   1      32.468  26.129  23.387  1.00  0.00     0.183 C 
ATOM     64  C   UNL A   1      33.077  26.942  22.217  1.00  0.00     0.282 C 
ATOM     65  H   UNL A   1      34.750  27.653  23.157  1.00  0.00     0.346 HD
ATOM     66  H   UNL A   1      34.348  28.441  21.709  1.00  0.00     0.346 HD
BRANCH  61  67
ATOM     67  C   UNL A   1      30.688  26.311  25.583  1.00  0.00     0.318 C 
ATOM     68  O   UNL A   1      30.851  25.892  26.714  1.00  0.00    -0.249 OA
ATOM     69  N   UNL A   1      29.075  26.230  24.621  1.00  0.00    -0.333 N 
ATOM     70  H   UNL A   1      28.509  25.438  24.765  1.00  0.00     0.165 HD
BRANCH  69  71
ATOM     71  C   UNL A   1      28.384  27.649  23.294  1.00  0.00     0.112 C 
ATOM     72  C   UNL A   1      29.304  28.994  22.712  1.00  0.00     0.056 C 
ATOM     73  C   UNL A   1      27.007  28.584  23.120  1.00  0.00     0.185 C 
ATOM     74  C   UNL A   1      28.638  30.256  23.194  1.00  0.00     0.162 C 
ATOM     75  O   UNL A   1      27.275  29.952  23.464  1.00  0.00    -0.379 OA
ENDBRANCH  69  71
ENDBRANCH  61  67
ENDBRANCH  57  59
ENDBRANCH  56  57
ENDBRANCH  55  56
ENDBRANCH   1  55
TORSDOF 13
ENDMDL
MODEL 3
REMARK VINA RESULT:     -15.0      3.964      8.685
REMARK SMILES O=C(OCCOC(=O)[C@@H]1C[NH2+]CCN1C(=O)N[C@@H]1CCOC1)c1ccc(-c2c3nc(c(-c4ccccc4)c4ccc([nH]4)c(-c4ccccc4)c4nc(c(-c5ccccc5)c5ccc2[nH]5)C=C4)C=C3)cc1
REMARK SMILES IDX 4 1 3 2 2 3 1 4 23 5 24 6 70 7 25 8 69 9 26 10 27 11 28 12
REMARK SMILES IDX 63 13 29 14 68 15 62 16 64 17 30 18 67 19 61 20 60 21 31 23
REMARK SMILES IDX 53 24 38 25 52 26 39 27 42 28 51 29 65 30 40 31 41 32 50 34
REMARK SMILES IDX 66 35 43 36 32 37 33 38 37 39 34 40 36 41 35 42 54 43 55 44
REMARK SMILES IDX 59 45 56 46 58 47 57 48 44 49 45 50 49 51 46 52 48 53 47 54
REMARK SMILES IDX 5 55 6 56 7 57 8 58 9 59 10 60 14 61 11 62 13 63 12 64 15 67
REMARK SMILES IDX 16 68 17 69 18 71 19 72 22 73 20 74 21 75
REMARK H PARENT 64 22 42 33 11 65 11 66 17 70
REMARK Flexibility Score: inf
ROOT
ATOM      1  C   UNL A   1      40.722  19.907  26.068  1.00  0.00     0.275 C 
ENDROOT
BRANCH   1   2
ATOM      2  O   UNL A   1      42.542  20.186  26.310  1.00  0.00    -0.458 OA
BRANCH   2   3
ATOM      3  C   UNL A   1      43.225  21.785  25.724  1.00  0.00     0.338 C 
ATOM      4  O   UNL A   1      43.743  21.494  24.628  1.00  0.00    -0.246 OA
BRANCH   3   5
ATOM      5  C   UNL A   1      42.784  23.546  26.861  1.00  0.00     0.060 A 
ATOM      6  C   UNL A   1      41.508  24.101  27.441  1.00  0.00     0.016 A 
ATOM      7  C   UNL A   1      43.545  24.834  27.011  1.00  0.00     0.016 A 
ATOM      8  C   UNL A   1      41.274  25.187  28.372  1.00  0.00     0.010 A 
ATOM      9  C   UNL A   1      43.360  25.977  27.822  1.00  0.00     0.010 A 
ATOM     10  C   UNL A   1      42.263  26.099  28.632  1.00  0.00    -0.014 A 
BRANCH  10  11
ATOM     11  C   UNL A   1      42.239  27.295  29.502  1.00  0.00     0.031 A 
ATOM     12  C   UNL A   1      42.829  27.230  30.877  1.00  0.00     0.074 A 
ATOM     13  C   UNL A   1      41.322  28.238  29.193  1.00  0.00     0.049 A 
ATOM     14  N   UNL A   1      42.512  27.925  31.940  1.00  0.00    -0.248 NA
ATOM     15  C   UNL A   1      43.882  26.230  31.098  1.00  0.00     0.031 C 
ATOM     16  C   UNL A   1      40.616  28.328  27.909  1.00  0.00     0.029 A 
ATOM     17  N   UNL A   1      40.692  29.165  29.990  1.00  0.00    -0.354 N 
ATOM     18  C   UNL A   1      43.314  27.434  32.960  1.00  0.00     0.074 A 
ATOM     19  C   UNL A   1      44.133  26.387  32.390  1.00  0.00     0.031 C 
ATOM     20  C   UNL A   1      39.547  29.126  28.057  1.00  0.00     0.029 A 
ATOM     21  C   UNL A   1      39.516  29.618  29.429  1.00  0.00     0.049 A 
ATOM     22  H   UNL A   1      41.041  29.470  30.858  1.00  0.00     0.167 HD
ATOM     23  C   UNL A   1      43.355  27.809  34.260  1.00  0.00     0.031 A 
ATOM     24  C   UNL A   1      38.489  30.294  29.977  1.00  0.00     0.031 A 
ATOM     25  C   UNL A   1      42.518  28.821  34.841  1.00  0.00     0.049 A 
ATOM     26  C   UNL A   1      38.574  30.740  31.402  1.00  0.00     0.074 A 
ATOM     27  C   UNL A   1      42.548  29.343  36.122  1.00  0.00     0.029 A 
ATOM     28  N   UNL A   1      41.477  29.446  34.175  1.00  0.00    -0.354 N 
ATOM     29  N   UNL A   1      39.430  30.381  32.325  1.00  0.00    -0.248 NA
ATOM     30  C   UNL A   1      37.576  31.724  31.845  1.00  0.00     0.031 C 
ATOM     31  C   UNL A   1      41.514  30.284  36.234  1.00  0.00     0.029 A 
ATOM     32  C   UNL A   1      40.855  30.350  35.017  1.00  0.00     0.049 A 
ATOM     33  H   UNL A   1      41.218  29.273  33.242  1.00  0.00     0.167 HD
ATOM     34  C   UNL A   1      39.115  31.138  33.442  1.00  0.00     0.074 A 
ATOM     35  C   UNL A   1      37.965  31.950  33.094  1.00  0.00     0.031 C 
ATOM     36  C   UNL A   1      39.740  31.176  34.642  1.00  0.00     0.031 A 
BRANCH  23  37
ATOM     37  C   UNL A   1      44.344  27.101  35.134  1.00  0.00    -0.014 A 
ATOM     38  C   UNL A   1      43.975  25.947  35.842  1.00  0.00     0.009 A 
ATOM     39  C   UNL A   1      45.650  27.597  35.264  1.00  0.00     0.009 A 
ATOM     40  C   UNL A   1      44.887  25.319  36.691  1.00  0.00     0.001 A 
ATOM     41  C   UNL A   1      46.563  26.958  36.105  1.00  0.00     0.001 A 
ATOM     42  C   UNL A   1      46.179  25.826  36.823  1.00  0.00     0.000 A 
ENDBRANCH  23  37
BRANCH  24  43
ATOM     43  C   UNL A   1      37.279  30.582  29.171  1.00  0.00    -0.014 A 
ATOM     44  C   UNL A   1      37.004  31.889  28.744  1.00  0.00     0.009 A 
ATOM     45  C   UNL A   1      36.405  29.545  28.812  1.00  0.00     0.009 A 
ATOM     46  C   UNL A   1      35.864  32.154  27.982  1.00  0.00     0.001 A 
ATOM     47  C   UNL A   1      35.271  29.813  28.045  1.00  0.00     0.001 A 
ATOM     48  C   UNL A   1      34.999  31.118  27.633  1.00  0.00     0.000 A 
ENDBRANCH  24  43
BRANCH  36  49
ATOM     49  C   UNL A   1      39.257  32.198  35.622  1.00  0.00    -0.014 A 
ATOM     50  C   UNL A   1      38.214  31.919  36.515  1.00  0.00     0.009 A 
ATOM     51  C   UNL A   1      39.876  33.457  35.655  1.00  0.00     0.009 A 
ATOM     52  C   UNL A   1      37.785  32.897  37.415  1.00  0.00     0.001 A 
ATOM     53  C   UNL A   1      39.450  34.427  36.560  1.00  0.00     0.001 A 
ATOM     54  C   UNL A   1      38.403  34.147  37.437  1.00  0.00     0.000 A 
ENDBRANCH  36  49
ENDBRANCH  10  11
ENDBRANCH   3   5
ENDBRANCH   2   3
ENDBRANCH   1   2
BRANCH   1  55
ATOM     55  C   UNL A   1      39.682  21.538  26.138  1.00  0.00     0.274 C 
BRANCH  55  56
ATOM     56  O   UNL A   1      37.898  21.629  25.676  1.00  0.00    -0.460 OA
BRANCH  56  57
ATOM     57  C   UNL A   1      36.643  22.109  24.783  1.00  0.00     0.334 C 
ATOM     58  O   UNL A   1      36.921  22.932  23.903  1.00  0.00    -0.250 OA
BRANCH  57  59
ATOM     59  C   UNL A   1      34.843  21.397  24.824  1.00  0.00     0.252 C 
ATOM     60  C   UNL A   1      34.790  19.838  25.004  1.00  0.00     0.298 C 
ATOM     61  N   UNL A   1      33.440  21.851  23.601  1.00  0.00    -0.300 N 
ATOM     62  N   UNL A   1      33.409  19.315  25.138  1.00  0.00    -0.343 N 
ATOM     63  C   UNL A   1      32.246  21.014  23.584  1.00  0.00     0.183 C 
ATOM     64  C   UNL A   1      32.565  19.541  23.941  1.00  0.00     0.282 C 
ATOM     65  H   UNL A   1      32.967  19.773  25.935  1.00  0.00     0.346 HD
ATOM     66  H   UNL A   1      33.485  18.304  25.261  1.00  0.00     0.346 HD
BRANCH  61  67
ATOM     67  C   UNL A   1      33.421  23.426  22.673  1.00  0.00     0.318 C 
ATOM     68  O   UNL A   1      33.409  23.593  21.468  1.00  0.00    -0.249 OA
ATOM     69  N   UNL A   1      33.579  24.793  23.953  1.00  0.00    -0.333 N 
ATOM     70  H   UNL A   1      34.151  25.559  23.721  1.00  0.00     0.165 HD
BRANCH  69  71
ATOM     71  C   UNL A   1      32.662  24.835  25.800  1.00  0.00     0.112 C 
ATOM     72  C   UNL A   1      32.268  23.440  26.743  1.00  0.00     0.056 C 
ATOM     73  C   UNL A   1      31.346  25.607  26.488  1.00  0.00     0.185 C 
ATOM     74  C   UNL A   1      30.769  23.374  26.873  1.00  0.00     0.162 C 
ATOM     75  O   UNL A   1      30.258  24.687  26.672  1.00  0.00    -0.379 OA
ENDBRANCH  69  71
ENDBRANCH  61  67
ENDBRANCH  57  59
ENDBRANCH  56  57
ENDBRANCH  55  56
ENDBRANCH   1  55
TORSDOF 13
ENDMDL
