MODEL 1
REMARK VINA RESULT:     -11.6      0.000      0.000
REMARK SMILES CC1=C(C(=O)OCCOC(=O)c2ccc(-c3c4nc(c(-c5ccccc5)c5ccc([nH]5)c(-c5ccccc5)c5nc(c(-c6ccccc6)c6ccc3[nH]6)C=C5)C=C4)cc2)N2C(=O)[C@H](NC(=O)c3cc(C(F)(F)F)nn3C)[C@@H]2SC1
REMARK SMILES IDX 7 1 6 2 4 3 5 4 3 5 1 6 2 7 79 8 60 9 78 10 61 11 77 12
REMARK SMILES IDX 62 13 63 14 64 15 65 16 66 18 67 19 68 20 75 21 69 22 74 23
REMARK SMILES IDX 76 24 70 25 71 26 72 27 73 28 8 29 9 30 10 31 11 32 12 33
REMARK SMILES IDX 13 34 59 35 14 36 58 37 15 38 16 39 17 40 52 41 18 42 57 43
REMARK SMILES IDX 51 44 53 45 19 46 56 47 50 48 49 49 20 51 42 52 27 53 41 54
REMARK SMILES IDX 28 55 31 56 40 57 54 58 29 59 30 60 39 62 55 63 32 64 21 65
REMARK SMILES IDX 22 66 26 67 23 68 25 69 24 70 43 71 44 72 48 73 45 74 47 75
REMARK SMILES IDX 46 76 33 77 34 78 38 79 35 80 37 81 36 82
REMARK H PARENT 64 17 53 50 31 61
REMARK Flexibility Score: inf
ROOT
ATOM      1  C   UNL A   1      35.458  21.225  24.481  1.00  0.00     0.275 C 
ENDROOT
BRANCH   1   2
ATOM      2  O   UNL A   1      34.289  20.905  25.267  1.00  0.00    -0.457 OA
BRANCH   2   3
ATOM      3  C   UNL A   1      33.093  21.385  24.830  1.00  0.00     0.355 C 
ATOM      4  O   UNL A   1      32.237  20.727  24.262  1.00  0.00    -0.244 OA
BRANCH   3   5
ATOM      5  C   UNL A   1      32.925  22.832  25.234  1.00  0.00     0.131 C 
ATOM      6  C   UNL A   1      32.794  22.310  27.722  1.00  0.00     0.043 C 
ATOM      7  C   UNL A   1      32.786  23.235  26.525  1.00  0.00    -0.032 C 
ATOM      8  C   UNL A   1      32.661  24.694  26.958  1.00  0.00     0.105 C 
ATOM      9  N   UNL A   1      32.932  23.774  24.243  1.00  0.00    -0.289 N 
ATOM     10  S   UNL A   1      33.209  25.911  25.718  1.00  0.00    -0.129 SA
ATOM     11  C   UNL A   1      33.280  23.904  22.945  1.00  0.00     0.253 C 
ATOM     12  C   UNL A   1      32.322  25.079  24.393  1.00  0.00     0.181 C 
ATOM     13  O   UNL A   1      33.795  23.180  22.130  1.00  0.00    -0.272 OA
ATOM     14  C   UNL A   1      32.712  25.358  22.923  1.00  0.00     0.206 C 
BRANCH  14  15
ATOM     15  N   UNL A   1      33.691  26.422  22.601  1.00  0.00    -0.336 N 
ATOM     16  C   UNL A   1      33.427  27.746  22.330  1.00  0.00     0.270 C 
ATOM     17  H   UNL A   1      34.638  26.152  22.579  1.00  0.00     0.164 HD
ATOM     18  O   UNL A   1      34.279  28.399  21.733  1.00  0.00    -0.268 OA
BRANCH  16  19
ATOM     19  C   UNL A   1      32.173  28.312  22.767  1.00  0.00     0.126 A 
ATOM     20  C   UNL A   1      30.907  28.198  22.218  1.00  0.00     0.069 A 
ATOM     21  N   UNL A   1      31.982  29.015  23.933  1.00  0.00    -0.262 N 
ATOM     22  C   UNL A   1      30.020  28.867  23.102  1.00  0.00     0.167 A 
ATOM     23  N   UNL A   1      30.698  29.369  24.147  1.00  0.00    -0.168 NA
ATOM     24  C   UNL A   1      32.966  29.427  24.908  1.00  0.00     0.174 C 
BRANCH  22  25
ATOM     25  C   UNL A   1      28.526  28.997  22.955  1.00  0.00     0.435 C 
ATOM     26  F   UNL A   1      28.137  29.188  21.666  1.00  0.00    -0.164 F 
ATOM     27  F   UNL A   1      27.843  27.922  23.429  1.00  0.00    -0.164 F 
ATOM     28  F   UNL A   1      28.057  30.073  23.653  1.00  0.00    -0.164 F 
ENDBRANCH  22  25
ENDBRANCH  16  19
ENDBRANCH  14  15
ENDBRANCH   3   5
ENDBRANCH   2   3
ENDBRANCH   1   2
BRANCH   1  29
ATOM     29  C   UNL A   1      36.720  20.662  25.141  1.00  0.00     0.275 C 
BRANCH  29  30
ATOM     30  O   UNL A   1      37.453  21.709  25.807  1.00  0.00    -0.458 OA
BRANCH  30  31
ATOM     31  C   UNL A   1      38.744  21.413  26.070  1.00  0.00     0.338 C 
ATOM     32  O   UNL A   1      39.364  20.412  25.750  1.00  0.00    -0.246 OA
BRANCH  31  33
ATOM     33  C   UNL A   1      39.411  22.604  26.615  1.00  0.00     0.060 A 
ATOM     34  C   UNL A   1      38.943  23.827  26.146  1.00  0.00     0.016 A 
ATOM     35  C   UNL A   1      40.502  22.552  27.477  1.00  0.00     0.016 A 
ATOM     36  C   UNL A   1      39.565  25.011  26.515  1.00  0.00     0.010 A 
ATOM     37  C   UNL A   1      41.128  23.751  27.858  1.00  0.00     0.010 A 
ATOM     38  C   UNL A   1      40.672  24.989  27.364  1.00  0.00    -0.014 A 
BRANCH  38  39
ATOM     39  C   UNL A   1      41.381  26.266  27.640  1.00  0.00     0.031 A 
ATOM     40  C   UNL A   1      40.753  27.282  28.554  1.00  0.00     0.074 A 
ATOM     41  C   UNL A   1      42.621  26.482  27.158  1.00  0.00     0.049 A 
ATOM     42  N   UNL A   1      41.157  28.490  28.853  1.00  0.00    -0.248 NA
ATOM     43  C   UNL A   1      39.507  26.879  29.224  1.00  0.00     0.031 C 
ATOM     44  C   UNL A   1      43.399  25.538  26.354  1.00  0.00     0.029 A 
ATOM     45  N   UNL A   1      43.449  27.571  27.287  1.00  0.00    -0.354 N 
ATOM     46  C   UNL A   1      40.205  28.999  29.728  1.00  0.00     0.074 A 
ATOM     47  C   UNL A   1      39.191  27.979  29.889  1.00  0.00     0.031 C 
ATOM     48  C   UNL A   1      44.588  26.089  26.063  1.00  0.00     0.029 A 
ATOM     49  C   UNL A   1      44.631  27.445  26.597  1.00  0.00     0.049 A 
ATOM     50  H   UNL A   1      43.218  28.364  27.822  1.00  0.00     0.167 HD
ATOM     51  C   UNL A   1      40.175  30.208  30.340  1.00  0.00     0.031 A 
ATOM     52  C   UNL A   1      45.617  28.337  26.384  1.00  0.00     0.031 A 
ATOM     53  C   UNL A   1      41.186  31.220  30.184  1.00  0.00     0.049 A 
ATOM     54  C   UNL A   1      45.500  29.719  26.968  1.00  0.00     0.074 A 
ATOM     55  C   UNL A   1      41.231  32.488  30.739  1.00  0.00     0.029 A 
ATOM     56  N   UNL A   1      42.335  31.078  29.423  1.00  0.00    -0.354 N 
ATOM     57  N   UNL A   1      44.570  30.211  27.748  1.00  0.00    -0.248 NA
ATOM     58  C   UNL A   1      46.572  30.669  26.637  1.00  0.00     0.031 C 
ATOM     59  C   UNL A   1      42.372  33.137  30.255  1.00  0.00     0.029 A 
ATOM     60  C   UNL A   1      43.076  32.247  29.460  1.00  0.00     0.049 A 
ATOM     61  H   UNL A   1      42.589  30.264  28.928  1.00  0.00     0.167 HD
ATOM     62  C   UNL A   1      44.960  31.515  28.029  1.00  0.00     0.074 A 
ATOM     63  C   UNL A   1      46.220  31.731  27.348  1.00  0.00     0.031 C 
ATOM     64  C   UNL A   1      44.330  32.450  28.783  1.00  0.00     0.031 A 
BRANCH  51  65
ATOM     65  C   UNL A   1      38.970  30.526  31.181  1.00  0.00    -0.014 A 
ATOM     66  C   UNL A   1      37.807  31.085  30.628  1.00  0.00     0.009 A 
ATOM     67  C   UNL A   1      38.998  30.240  32.556  1.00  0.00     0.009 A 
ATOM     68  C   UNL A   1      36.713  31.388  31.443  1.00  0.00     0.001 A 
ATOM     69  C   UNL A   1      37.891  30.513  33.362  1.00  0.00     0.001 A 
ATOM     70  C   UNL A   1      36.754  31.097  32.806  1.00  0.00     0.000 A 
ENDBRANCH  51  65
BRANCH  52  71
ATOM     71  C   UNL A   1      46.780  27.978  25.525  1.00  0.00    -0.014 A 
ATOM     72  C   UNL A   1      46.677  28.006  24.126  1.00  0.00     0.009 A 
ATOM     73  C   UNL A   1      47.991  27.569  26.106  1.00  0.00     0.009 A 
ATOM     74  C   UNL A   1      47.753  27.603  23.330  1.00  0.00     0.001 A 
ATOM     75  C   UNL A   1      49.075  27.202  25.308  1.00  0.00     0.001 A 
ATOM     76  C   UNL A   1      48.952  27.206  23.921  1.00  0.00     0.000 A 
ENDBRANCH  52  71
BRANCH  64  77
ATOM     77  C   UNL A   1      45.019  33.776  28.953  1.00  0.00    -0.014 A 
ATOM     78  C   UNL A   1      44.773  34.852  28.086  1.00  0.00     0.009 A 
ATOM     79  C   UNL A   1      45.908  33.960  30.026  1.00  0.00     0.009 A 
ATOM     80  C   UNL A   1      45.433  36.070  28.266  1.00  0.00     0.001 A 
ATOM     81  C   UNL A   1      46.539  35.188  30.224  1.00  0.00     0.001 A 
ATOM     82  C   UNL A   1      46.311  36.238  29.336  1.00  0.00     0.000 A 
ENDBRANCH  64  77
ENDBRANCH  38  39
ENDBRANCH  31  33
ENDBRANCH  30  31
ENDBRANCH  29  30
ENDBRANCH   1  29
TORSDOF 14
ENDMDL
MODEL 2
REMARK VINA RESULT:     -11.6      2.437      3.262
REMARK SMILES CC1=C(C(=O)OCCOC(=O)c2ccc(-c3c4nc(c(-c5ccccc5)c5ccc([nH]5)c(-c5ccccc5)c5nc(c(-c6ccccc6)c6ccc3[nH]6)C=C5)C=C4)cc2)N2C(=O)[C@H](NC(=O)c3cc(C(F)(F)F)nn3C)[C@@H]2SC1
REMARK SMILES IDX 7 1 6 2 4 3 5 4 3 5 1 6 2 7 79 8 60 9 78 10 61 11 77 12
REMARK SMILES IDX 62 13 63 14 64 15 65 16 66 18 67 19 68 20 75 21 69 22 74 23
REMARK SMILES IDX 76 24 70 25 71 26 72 27 73 28 8 29 9 30 10 31 11 32 12 33
REMARK SMILES IDX 13 34 59 35 14 36 58 37 15 38 16 39 17 40 52 41 18 42 57 43
REMARK SMILES IDX 51 44 53 45 19 46 56 47 50 48 49 49 20 51 42 52 27 53 41 54
REMARK SMILES IDX 28 55 31 56 40 57 54 58 29 59 30 60 39 62 55 63 32 64 21 65
REMARK SMILES IDX 22 66 26 67 23 68 25 69 24 70 43 71 44 72 48 73 45 74 47 75
REMARK SMILES IDX 46 76 33 77 34 78 38 79 35 80 37 81 36 82
REMARK H PARENT 64 17 53 50 31 61
REMARK Flexibility Score: inf
ROOT
ATOM      1  C   UNL A   1      38.030  21.753  25.701  1.00  0.00     0.275 C 
ENDROOT
BRANCH   1   2
ATOM      2  O   UNL A   1      36.609  21.509  25.607  1.00  0.00    -0.457 OA
BRANCH   2   3
ATOM      3  C   UNL A   1      35.967  21.982  24.504  1.00  0.00     0.355 C 
ATOM      4  O   UNL A   1      36.511  22.311  23.463  1.00  0.00    -0.244 OA
BRANCH   3   5
ATOM      5  C   UNL A   1      34.470  21.950  24.708  1.00  0.00     0.131 C 
ATOM      6  C   UNL A   1      34.325  19.411  24.576  1.00  0.00     0.043 C 
ATOM      7  C   UNL A   1      33.745  20.799  24.733  1.00  0.00    -0.032 C 
ATOM      8  C   UNL A   1      32.240  20.742  24.984  1.00  0.00     0.105 C 
ATOM      9  N   UNL A   1      33.828  23.142  24.894  1.00  0.00    -0.289 N 
ATOM     10  S   UNL A   1      31.532  22.237  25.747  1.00  0.00    -0.129 SA
ATOM     11  C   UNL A   1      34.106  24.428  25.199  1.00  0.00     0.253 C 
ATOM     12  C   UNL A   1      32.417  23.326  24.624  1.00  0.00     0.181 C 
ATOM     13  O   UNL A   1      35.109  25.031  25.486  1.00  0.00    -0.272 OA
ATOM     14  C   UNL A   1      32.607  24.815  24.998  1.00  0.00     0.206 C 
BRANCH  14  15
ATOM     15  N   UNL A   1      31.925  25.377  26.187  1.00  0.00    -0.336 N 
ATOM     16  C   UNL A   1      31.569  26.689  26.403  1.00  0.00     0.270 C 
ATOM     17  H   UNL A   1      31.701  24.739  26.903  1.00  0.00     0.164 HD
ATOM     18  O   UNL A   1      31.356  27.052  27.557  1.00  0.00    -0.268 OA
BRANCH  16  19
ATOM     19  C   UNL A   1      31.448  27.575  25.271  1.00  0.00     0.126 A 
ATOM     20  C   UNL A   1      30.336  27.897  24.509  1.00  0.00     0.069 A 
ATOM     21  N   UNL A   1      32.445  28.386  24.786  1.00  0.00    -0.262 N 
ATOM     22  C   UNL A   1      30.752  28.893  23.586  1.00  0.00     0.167 A 
ATOM     23  N   UNL A   1      32.052  29.177  23.765  1.00  0.00    -0.168 NA
ATOM     24  C   UNL A   1      33.825  28.469  25.209  1.00  0.00     0.174 C 
BRANCH  22  25
ATOM     25  C   UNL A   1      29.895  29.585  22.558  1.00  0.00     0.435 C 
ATOM     26  F   UNL A   1      29.281  30.696  23.044  1.00  0.00    -0.164 F 
ATOM     27  F   UNL A   1      30.583  29.955  21.446  1.00  0.00    -0.164 F 
ATOM     28  F   UNL A   1      28.895  28.763  22.121  1.00  0.00    -0.164 F 
ENDBRANCH  22  25
ENDBRANCH  16  19
ENDBRANCH  14  15
ENDBRANCH   3   5
ENDBRANCH   2   3
ENDBRANCH   1   2
BRANCH   1  29
ATOM     29  C   UNL A   1      38.817  20.506  25.289  1.00  0.00     0.275 C 
BRANCH  29  30
ATOM     30  O   UNL A   1      39.563  19.986  26.407  1.00  0.00    -0.458 OA
BRANCH  30  31
ATOM     31  C   UNL A   1      40.896  19.905  26.207  1.00  0.00     0.338 C 
ATOM     32  O   UNL A   1      41.512  19.042  25.602  1.00  0.00    -0.246 OA
BRANCH  31  33
ATOM     33  C   UNL A   1      41.525  21.165  26.625  1.00  0.00     0.060 A 
ATOM     34  C   UNL A   1      41.448  21.459  27.983  1.00  0.00     0.016 A 
ATOM     35  C   UNL A   1      42.092  22.076  25.739  1.00  0.00     0.016 A 
ATOM     36  C   UNL A   1      41.918  22.669  28.472  1.00  0.00     0.010 A 
ATOM     37  C   UNL A   1      42.575  23.299  26.235  1.00  0.00     0.010 A 
ATOM     38  C   UNL A   1      42.475  23.610  27.605  1.00  0.00    -0.014 A 
BRANCH  38  39
ATOM     39  C   UNL A   1      42.857  24.938  28.151  1.00  0.00     0.031 A 
ATOM     40  C   UNL A   1      41.794  25.973  28.399  1.00  0.00     0.074 A 
ATOM     41  C   UNL A   1      44.130  25.193  28.514  1.00  0.00     0.049 A 
ATOM     42  N   UNL A   1      41.923  27.218  28.782  1.00  0.00    -0.248 NA
ATOM     43  C   UNL A   1      40.402  25.544  28.195  1.00  0.00     0.031 C 
ATOM     44  C   UNL A   1      45.243  24.245  28.438  1.00  0.00     0.029 A 
ATOM     45  N   UNL A   1      44.698  26.331  29.032  1.00  0.00    -0.354 N 
ATOM     46  C   UNL A   1      40.632  27.727  28.843  1.00  0.00     0.074 A 
ATOM     47  C   UNL A   1      39.738  26.666  28.433  1.00  0.00     0.031 C 
ATOM     48  C   UNL A   1      46.357  24.841  28.892  1.00  0.00     0.029 A 
ATOM     49  C   UNL A   1      46.055  26.228  29.225  1.00  0.00     0.049 A 
ATOM     50  H   UNL A   1      44.183  27.142  29.246  1.00  0.00     0.167 HD
ATOM     51  C   UNL A   1      40.225  28.969  29.205  1.00  0.00     0.031 A 
ATOM     52  C   UNL A   1      46.959  27.158  29.589  1.00  0.00     0.031 A 
ATOM     53  C   UNL A   1      41.112  30.023  29.619  1.00  0.00     0.049 A 
ATOM     54  C   UNL A   1      46.500  28.565  29.861  1.00  0.00     0.074 A 
ATOM     55  C   UNL A   1      40.800  31.324  29.977  1.00  0.00     0.029 A 
ATOM     56  N   UNL A   1      42.488  29.897  29.737  1.00  0.00    -0.354 N 
ATOM     57  N   UNL A   1      45.284  29.053  29.863  1.00  0.00    -0.248 NA
ATOM     58  C   UNL A   1      47.544  29.550  30.179  1.00  0.00     0.031 C 
ATOM     59  C   UNL A   1      41.993  32.003  30.243  1.00  0.00     0.029 A 
ATOM     60  C   UNL A   1      43.042  31.106  30.124  1.00  0.00     0.049 A 
ATOM     61  H   UNL A   1      42.996  29.069  29.571  1.00  0.00     0.167 HD
ATOM     62  C   UNL A   1      45.412  30.391  30.215  1.00  0.00     0.074 A 
ATOM     63  C   UNL A   1      46.823  30.633  30.433  1.00  0.00     0.031 C 
ATOM     64  C   UNL A   1      44.447  31.335  30.343  1.00  0.00     0.031 A 
BRANCH  51  65
ATOM     65  C   UNL A   1      38.756  29.271  29.102  1.00  0.00    -0.014 A 
ATOM     66  C   UNL A   1      37.894  29.140  30.203  1.00  0.00     0.009 A 
ATOM     67  C   UNL A   1      38.230  29.715  27.878  1.00  0.00     0.009 A 
ATOM     68  C   UNL A   1      36.529  29.410  30.067  1.00  0.00     0.001 A 
ATOM     69  C   UNL A   1      36.873  30.016  27.753  1.00  0.00     0.001 A 
ATOM     70  C   UNL A   1      36.022  29.852  28.845  1.00  0.00     0.000 A 
ENDBRANCH  51  65
BRANCH  52  71
ATOM     71  C   UNL A   1      48.406  26.811  29.656  1.00  0.00    -0.014 A 
ATOM     72  C   UNL A   1      48.994  26.404  30.863  1.00  0.00     0.009 A 
ATOM     73  C   UNL A   1      49.215  26.923  28.513  1.00  0.00     0.009 A 
ATOM     74  C   UNL A   1      50.366  26.145  30.929  1.00  0.00     0.001 A 
ATOM     75  C   UNL A   1      50.578  26.629  28.575  1.00  0.00     0.001 A 
ATOM     76  C   UNL A   1      51.155  26.253  29.785  1.00  0.00     0.000 A 
ENDBRANCH  52  71
BRANCH  64  77
ATOM     77  C   UNL A   1      44.878  32.705  30.790  1.00  0.00    -0.014 A 
ATOM     78  C   UNL A   1      44.974  33.042  32.149  1.00  0.00     0.009 A 
ATOM     79  C   UNL A   1      45.227  33.667  29.827  1.00  0.00     0.009 A 
ATOM     80  C   UNL A   1      45.372  34.325  32.533  1.00  0.00     0.001 A 
ATOM     81  C   UNL A   1      45.656  34.937  30.214  1.00  0.00     0.001 A 
ATOM     82  C   UNL A   1      45.716  35.269  31.566  1.00  0.00     0.000 A 
ENDBRANCH  64  77
ENDBRANCH  38  39
ENDBRANCH  31  33
ENDBRANCH  30  31
ENDBRANCH  29  30
ENDBRANCH   1  29
TORSDOF 14
ENDMDL
MODEL 3
REMARK VINA RESULT:     -11.4      0.449      5.753
REMARK SMILES CC1=C(C(=O)OCCOC(=O)c2ccc(-c3c4nc(c(-c5ccccc5)c5ccc([nH]5)c(-c5ccccc5)c5nc(c(-c6ccccc6)c6ccc3[nH]6)C=C5)C=C4)cc2)N2C(=O)[C@H](NC(=O)c3cc(C(F)(F)F)nn3C)[C@@H]2SC1
REMARK SMILES IDX 7 1 6 2 4 3 5 4 3 5 1 6 2 7 79 8 60 9 78 10 61 11 77 12
REMARK SMILES IDX 62 13 63 14 64 15 65 16 66 18 67 19 68 20 75 21 69 22 74 23
REMARK SMILES IDX 76 24 70 25 71 26 72 27 73 28 8 29 9 30 10 31 11 32 12 33
REMARK SMILES IDX 13 34 59 35 14 36 58 37 15 38 16 39 17 40 52 41 18 42 57 43
REMARK SMILES IDX 51 44 53 45 19 46 56 47 50 48 49 49 20 51 42 52 27 53 41 54
REMARK SMILES IDX 28 55 31 56 40 57 54 58 29 59 30 60 39 62 55 63 32 64 21 65
REMARK SMILES IDX 22 66 26 67 23 68 25 69 24 70 43 71 44 72 48 73 45 74 47 75
REMARK SMILES IDX 46 76 33 77 34 78 38 79 35 80 37 81 36 82
REMARK H PARENT 64 17 53 50 31 61
REMARK Flexibility Score: inf
ROOT
ATOM      1  C   UNL A   1      35.441  21.362  24.416  1.00  0.00     0.275 C 
ENDROOT
BRANCH   1   2
ATOM      2  O   UNL A   1      34.266  20.827  25.065  1.00  0.00    -0.457 OA
BRANCH   2   3
ATOM      3  C   UNL A   1      33.061  21.339  24.693  1.00  0.00     0.355 C 
ATOM      4  O   UNL A   1      32.172  20.713  24.140  1.00  0.00    -0.244 OA
BRANCH   3   5
ATOM      5  C   UNL A   1      32.933  22.775  25.149  1.00  0.00     0.131 C 
ATOM      6  C   UNL A   1      32.885  22.172  27.623  1.00  0.00     0.043 C 
ATOM      7  C   UNL A   1      32.848  23.136  26.458  1.00  0.00    -0.032 C 
ATOM      8  C   UNL A   1      32.764  24.582  26.942  1.00  0.00     0.105 C 
ATOM      9  N   UNL A   1      32.919  23.748  24.191  1.00  0.00    -0.289 N 
ATOM     10  S   UNL A   1      33.286  25.831  25.722  1.00  0.00    -0.129 SA
ATOM     11  C   UNL A   1      33.221  23.915  22.885  1.00  0.00     0.253 C 
ATOM     12  C   UNL A   1      32.337  25.057  24.406  1.00  0.00     0.181 C 
ATOM     13  O   UNL A   1      33.694  23.211  22.029  1.00  0.00    -0.272 OA
ATOM     14  C   UNL A   1      32.678  25.378  22.932  1.00  0.00     0.206 C 
BRANCH  14  15
ATOM     15  N   UNL A   1      33.662  26.437  22.608  1.00  0.00    -0.336 N 
ATOM     16  C   UNL A   1      33.403  27.760  22.325  1.00  0.00     0.270 C 
ATOM     17  H   UNL A   1      34.608  26.164  22.594  1.00  0.00     0.164 HD
ATOM     18  O   UNL A   1      34.261  28.406  21.729  1.00  0.00    -0.268 OA
BRANCH  16  19
ATOM     19  C   UNL A   1      32.149  28.332  22.750  1.00  0.00     0.126 A 
ATOM     20  C   UNL A   1      30.888  28.231  22.185  1.00  0.00     0.069 A 
ATOM     21  N   UNL A   1      31.949  29.030  23.917  1.00  0.00    -0.262 N 
ATOM     22  C   UNL A   1      29.995  28.902  23.062  1.00  0.00     0.167 A 
ATOM     23  N   UNL A   1      30.665  29.393  24.117  1.00  0.00    -0.168 NA
ATOM     24  C   UNL A   1      32.924  29.429  24.907  1.00  0.00     0.174 C 
BRANCH  22  25
ATOM     25  C   UNL A   1      28.505  29.045  22.896  1.00  0.00     0.435 C 
ATOM     26  F   UNL A   1      28.142  29.354  21.624  1.00  0.00    -0.164 F 
ATOM     27  F   UNL A   1      27.815  27.930  23.255  1.00  0.00    -0.164 F 
ATOM     28  F   UNL A   1      28.019  30.051  23.682  1.00  0.00    -0.164 F 
ENDBRANCH  22  25
ENDBRANCH  16  19
ENDBRANCH  14  15
ENDBRANCH   3   5
ENDBRANCH   2   3
ENDBRANCH   1   2
BRANCH   1  29
ATOM     29  C   UNL A   1      36.712  20.783  25.044  1.00  0.00     0.275 C 
BRANCH  29  30
ATOM     30  O   UNL A   1      37.403  21.789  25.809  1.00  0.00    -0.458 OA
BRANCH  30  31
ATOM     31  C   UNL A   1      38.699  21.510  26.068  1.00  0.00     0.338 C 
ATOM     32  O   UNL A   1      39.330  20.517  25.747  1.00  0.00    -0.246 OA
BRANCH  31  33
ATOM     33  C   UNL A   1      39.352  22.710  26.609  1.00  0.00     0.060 A 
ATOM     34  C   UNL A   1      38.835  23.927  26.177  1.00  0.00     0.016 A 
ATOM     35  C   UNL A   1      40.474  22.674  27.431  1.00  0.00     0.016 A 
ATOM     36  C   UNL A   1      39.438  25.121  26.544  1.00  0.00     0.010 A 
ATOM     37  C   UNL A   1      41.081  23.883  27.809  1.00  0.00     0.010 A 
ATOM     38  C   UNL A   1      40.576  25.116  27.353  1.00  0.00    -0.014 A 
BRANCH  38  39
ATOM     39  C   UNL A   1      41.259  26.407  27.624  1.00  0.00     0.031 A 
ATOM     40  C   UNL A   1      42.604  26.679  27.009  1.00  0.00     0.074 A 
ATOM     41  C   UNL A   1      40.646  27.374  28.336  1.00  0.00     0.049 A 
ATOM     42  N   UNL A   1      43.409  27.697  27.190  1.00  0.00    -0.248 NA
ATOM     43  C   UNL A   1      43.106  25.674  26.060  1.00  0.00     0.031 C 
ATOM     44  C   UNL A   1      39.296  27.293  28.896  1.00  0.00     0.029 A 
ATOM     45  N   UNL A   1      41.083  28.624  28.702  1.00  0.00    -0.354 N 
ATOM     46  C   UNL A   1      44.519  27.443  26.395  1.00  0.00     0.074 A 
ATOM     47  C   UNL A   1      44.297  26.166  25.752  1.00  0.00     0.031 C 
ATOM     48  C   UNL A   1      39.017  28.442  29.532  1.00  0.00     0.029 A 
ATOM     49  C   UNL A   1      40.188  29.311  29.486  1.00  0.00     0.049 A 
ATOM     50  H   UNL A   1      41.954  28.993  28.427  1.00  0.00     0.167 HD
ATOM     51  C   UNL A   1      45.627  28.204  26.217  1.00  0.00     0.031 A 
ATOM     52  C   UNL A   1      40.312  30.487  30.130  1.00  0.00     0.031 A 
ATOM     53  C   UNL A   1      45.846  29.477  26.850  1.00  0.00     0.049 A 
ATOM     54  C   UNL A   1      41.602  31.253  30.021  1.00  0.00     0.074 A 
ATOM     55  C   UNL A   1      46.948  30.311  26.756  1.00  0.00     0.029 A 
ATOM     56  N   UNL A   1      44.941  30.107  27.691  1.00  0.00    -0.354 N 
ATOM     57  N   UNL A   1      42.670  30.981  29.312  1.00  0.00    -0.248 NA
ATOM     58  C   UNL A   1      41.704  32.491  30.807  1.00  0.00     0.031 C 
ATOM     59  C   UNL A   1      46.738  31.409  27.596  1.00  0.00     0.029 A 
ATOM     60  C   UNL A   1      45.475  31.298  28.154  1.00  0.00     0.049 A 
ATOM     61  H   UNL A   1      44.049  29.759  27.923  1.00  0.00     0.167 HD
ATOM     62  C   UNL A   1      43.555  32.028  29.538  1.00  0.00     0.074 A 
ATOM     63  C   UNL A   1      42.893  32.948  30.439  1.00  0.00     0.031 C 
ATOM     64  C   UNL A   1      44.805  32.209  29.046  1.00  0.00     0.031 A 
BRANCH  51  65
ATOM     65  C   UNL A   1      46.719  27.641  25.350  1.00  0.00    -0.014 A 
ATOM     66  C   UNL A   1      47.655  26.718  25.846  1.00  0.00     0.009 A 
ATOM     67  C   UNL A   1      46.798  28.031  24.004  1.00  0.00     0.009 A 
ATOM     68  C   UNL A   1      48.671  26.230  25.018  1.00  0.00     0.001 A 
ATOM     69  C   UNL A   1      47.794  27.517  23.171  1.00  0.00     0.001 A 
ATOM     70  C   UNL A   1      48.735  26.626  23.683  1.00  0.00     0.000 A 
ENDBRANCH  51  65
BRANCH  52  71
ATOM     71  C   UNL A   1      39.207  30.990  30.992  1.00  0.00    -0.014 A 
ATOM     72  C   UNL A   1      38.227  31.852  30.478  1.00  0.00     0.009 A 
ATOM     73  C   UNL A   1      39.152  30.637  32.350  1.00  0.00     0.009 A 
ATOM     74  C   UNL A   1      37.234  32.372  31.313  1.00  0.00     0.001 A 
ATOM     75  C   UNL A   1      38.137  31.128  33.173  1.00  0.00     0.001 A 
ATOM     76  C   UNL A   1      37.186  32.005  32.657  1.00  0.00     0.000 A 
ENDBRANCH  52  71
BRANCH  64  77
ATOM     77  C   UNL A   1      45.520  33.476  29.429  1.00  0.00    -0.014 A 
ATOM     78  C   UNL A   1      45.392  34.652  28.673  1.00  0.00     0.009 A 
ATOM     79  C   UNL A   1      46.311  33.499  30.589  1.00  0.00     0.009 A 
ATOM     80  C   UNL A   1      46.073  35.812  29.051  1.00  0.00     0.001 A 
ATOM     81  C   UNL A   1      46.962  34.668  30.982  1.00  0.00     0.001 A 
ATOM     82  C   UNL A   1      46.853  35.820  30.206  1.00  0.00     0.000 A 
ENDBRANCH  64  77
ENDBRANCH  38  39
ENDBRANCH  31  33
ENDBRANCH  30  31
ENDBRANCH  29  30
ENDBRANCH   1  29
TORSDOF 14
ENDMDL
