MODEL 1
REMARK VINA RESULT:     -12.0      0.000      0.000
REMARK SMILES NS(=O)(=O)c1ccc(-n2nc(C(F)F)cc2-c2ccc(C(=O)OCCOC(=O)c3ccc(-c4c5nc(c(-c6ccccc6)c6ccc([nH]6)c(-c6ccccc6)c6nc(c(-c7ccccc7)c7ccc4[nH]7)C=C6)C=C5)cc3)cc2)cc1
REMARK SMILES IDX 24 1 23 2 21 3 22 4 20 5 17 6 18 7 78 8 19 9 77 10 16 11
REMARK SMILES IDX 9 12 10 13 11 14 15 15 8 16 5 17 6 18 80 19 7 20 79 21 2 22
REMARK SMILES IDX 3 23 4 24 1 25 12 28 13 29 14 30 25 31 26 32 27 33 28 34
REMARK SMILES IDX 29 35 30 36 76 37 31 38 75 39 32 40 33 41 34 42 69 43 35 44
REMARK SMILES IDX 74 45 68 46 70 47 36 48 73 49 67 50 66 51 37 53 59 54 44 55
REMARK SMILES IDX 58 56 45 57 48 58 57 59 71 60 46 61 47 62 56 64 72 65 49 66
REMARK SMILES IDX 38 67 39 68 43 69 40 70 42 71 41 72 60 73 61 74 65 75 62 76
REMARK SMILES IDX 64 77 63 78 50 79 51 80 55 81 52 82 54 83 53 84
REMARK H PARENT 1 26 1 27 70 52 48 63
REMARK Flexibility Score: inf
ROOT
ATOM      1  C   UNL A   1      33.968  33.226  28.368  1.00  0.00     0.275 C 
ENDROOT
BRANCH   1   2
ATOM      2  O   UNL A   1      33.528  31.877  28.156  1.00  0.00    -0.458 OA
BRANCH   2   3
ATOM      3  C   UNL A   1      34.425  31.053  27.556  1.00  0.00     0.338 C 
ATOM      4  O   UNL A   1      35.613  31.275  27.387  1.00  0.00    -0.246 OA
BRANCH   3   5
ATOM      5  C   UNL A   1      33.778  29.767  27.199  1.00  0.00     0.060 A 
ATOM      6  C   UNL A   1      32.605  27.352  26.397  1.00  0.00     0.000 A 
ATOM      7  C   UNL A   1      33.935  27.638  26.058  1.00  0.00     0.011 A 
ATOM      8  C   UNL A   1      31.877  28.267  27.165  1.00  0.00     0.011 A 
ATOM      9  C   UNL A   1      34.519  28.840  26.456  1.00  0.00     0.016 A 
ATOM     10  C   UNL A   1      32.463  29.466  27.574  1.00  0.00     0.016 A 
BRANCH   6  11
ATOM     11  C   UNL A   1      31.963  26.143  25.889  1.00  0.00     0.075 A 
ATOM     12  N   UNL A   1      30.823  26.096  25.097  1.00  0.00    -0.233 N 
ATOM     13  N   UNL A   1      30.276  24.852  25.084  1.00  0.00    -0.166 NA
ATOM     14  C   UNL A   1      31.195  24.064  25.669  1.00  0.00     0.129 A 
ATOM     15  C   UNL A   1      32.253  24.831  26.204  1.00  0.00     0.060 A 
BRANCH  12  16
ATOM     16  C   UNL A   1      30.234  27.150  24.348  1.00  0.00     0.065 A 
ATOM     17  C   UNL A   1      29.057  29.249  22.941  1.00  0.00     0.082 A 
ATOM     18  C   UNL A   1      30.407  29.326  23.289  1.00  0.00     0.024 A 
ATOM     19  C   UNL A   1      28.296  28.122  23.274  1.00  0.00     0.024 A 
ATOM     20  C   UNL A   1      30.992  28.281  24.005  1.00  0.00     0.030 A 
ATOM     21  C   UNL A   1      28.894  27.055  23.952  1.00  0.00     0.030 A 
BRANCH  17  22
ATOM     22  S   UNL A   1      28.291  30.590  22.079  1.00  0.00     0.238 S 
ATOM     23  O   UNL A   1      27.278  31.171  22.933  1.00  0.00    -0.207 OA
ATOM     24  O   UNL A   1      28.031  30.172  20.725  1.00  0.00    -0.207 OA
BRANCH  22  25
ATOM     25  N   UNL A   1      29.503  31.756  21.990  1.00  0.00    -0.225 NA
ATOM     26  H   UNL A   1      30.383  31.312  21.729  1.00  0.00     0.137 HD
ATOM     27  H   UNL A   1      29.606  32.209  22.897  1.00  0.00     0.137 HD
ENDBRANCH  22  25
ENDBRANCH  17  22
ENDBRANCH  12  16
BRANCH  14  28
ATOM     28  C   UNL A   1      31.060  22.572  25.752  1.00  0.00     0.393 C 
ATOM     29  F   UNL A   1      32.067  21.992  26.458  1.00  0.00    -0.203 F 
ATOM     30  F   UNL A   1      29.896  22.209  26.359  1.00  0.00    -0.203 F 
ENDBRANCH  14  28
ENDBRANCH   6  11
ENDBRANCH   3   5
ENDBRANCH   2   3
ENDBRANCH   1   2
BRANCH   1  31
ATOM     31  C   UNL A   1      34.337  33.453  29.825  1.00  0.00     0.275 C 
BRANCH  31  32
ATOM     32  O   UNL A   1      35.708  33.142  30.071  1.00  0.00    -0.458 OA
BRANCH  32  33
ATOM     33  C   UNL A   1      35.934  32.155  30.967  1.00  0.00     0.338 C 
ATOM     34  O   UNL A   1      35.549  32.099  32.123  1.00  0.00    -0.246 OA
BRANCH  33  35
ATOM     35  C   UNL A   1      36.965  31.260  30.421  1.00  0.00     0.060 A 
ATOM     36  C   UNL A   1      36.670  29.896  30.379  1.00  0.00     0.016 A 
ATOM     37  C   UNL A   1      38.274  31.734  30.231  1.00  0.00     0.016 A 
ATOM     38  C   UNL A   1      37.718  29.000  30.320  1.00  0.00     0.010 A 
ATOM     39  C   UNL A   1      39.319  30.839  30.183  1.00  0.00     0.010 A 
ATOM     40  C   UNL A   1      39.034  29.483  30.303  1.00  0.00    -0.014 A 
BRANCH  40  41
ATOM     41  C   UNL A   1      40.108  28.510  30.301  1.00  0.00     0.031 A 
ATOM     42  C   UNL A   1      40.700  28.291  31.639  1.00  0.00     0.074 A 
ATOM     43  C   UNL A   1      40.481  27.804  29.219  1.00  0.00     0.049 A 
ATOM     44  N   UNL A   1      41.896  28.585  32.024  1.00  0.00    -0.248 NA
ATOM     45  C   UNL A   1      39.808  27.828  32.713  1.00  0.00     0.031 C 
ATOM     46  C   UNL A   1      39.820  27.705  27.916  1.00  0.00     0.029 A 
ATOM     47  N   UNL A   1      41.513  26.925  29.108  1.00  0.00    -0.354 N 
ATOM     48  C   UNL A   1      41.971  28.182  33.352  1.00  0.00     0.074 A 
ATOM     49  C   UNL A   1      40.626  27.867  33.763  1.00  0.00     0.031 C 
ATOM     50  C   UNL A   1      40.332  26.651  27.238  1.00  0.00     0.029 A 
ATOM     51  C   UNL A   1      41.443  26.101  27.997  1.00  0.00     0.049 A 
ATOM     52  H   UNL A   1      42.247  26.878  29.763  1.00  0.00     0.167 HD
ATOM     53  C   UNL A   1      43.163  27.913  33.946  1.00  0.00     0.031 A 
ATOM     54  C   UNL A   1      42.212  25.009  27.759  1.00  0.00     0.031 A 
ATOM     55  C   UNL A   1      44.266  28.493  33.227  1.00  0.00     0.049 A 
ATOM     56  C   UNL A   1      43.424  25.119  28.604  1.00  0.00     0.074 A 
ATOM     57  C   UNL A   1      44.637  29.779  32.888  1.00  0.00     0.029 A 
ATOM     58  N   UNL A   1      44.991  27.663  32.405  1.00  0.00    -0.354 N 
ATOM     59  N   UNL A   1      44.351  26.012  28.413  1.00  0.00    -0.248 NA
ATOM     60  C   UNL A   1      43.402  24.517  29.928  1.00  0.00     0.031 C 
ATOM     61  C   UNL A   1      45.188  29.670  31.576  1.00  0.00     0.029 A 
ATOM     62  C   UNL A   1      45.173  28.321  31.215  1.00  0.00     0.049 A 
ATOM     63  H   UNL A   1      45.318  26.762  32.628  1.00  0.00     0.167 HD
ATOM     64  C   UNL A   1      44.730  26.405  29.688  1.00  0.00     0.074 A 
ATOM     65  C   UNL A   1      44.195  25.376  30.576  1.00  0.00     0.031 C 
ATOM     66  C   UNL A   1      45.196  27.667  29.925  1.00  0.00     0.031 A 
BRANCH  53  67
ATOM     67  C   UNL A   1      43.338  26.785  34.929  1.00  0.00    -0.014 A 
ATOM     68  C   UNL A   1      43.830  27.074  36.213  1.00  0.00     0.009 A 
ATOM     69  C   UNL A   1      43.310  25.427  34.550  1.00  0.00     0.009 A 
ATOM     70  C   UNL A   1      44.330  26.062  37.042  1.00  0.00     0.001 A 
ATOM     71  C   UNL A   1      43.769  24.411  35.391  1.00  0.00     0.001 A 
ATOM     72  C   UNL A   1      44.306  24.733  36.627  1.00  0.00     0.000 A 
ENDBRANCH  53  67
BRANCH  54  73
ATOM     73  C   UNL A   1      41.845  23.750  27.079  1.00  0.00    -0.014 A 
ATOM     74  C   UNL A   1      42.713  23.156  26.150  1.00  0.00     0.009 A 
ATOM     75  C   UNL A   1      40.769  22.980  27.556  1.00  0.00     0.009 A 
ATOM     76  C   UNL A   1      42.534  21.826  25.746  1.00  0.00     0.001 A 
ATOM     77  C   UNL A   1      40.589  21.654  27.151  1.00  0.00     0.001 A 
ATOM     78  C   UNL A   1      41.481  21.071  26.258  1.00  0.00     0.000 A 
ENDBRANCH  54  73
BRANCH  66  79
ATOM     79  C   UNL A   1      45.509  28.538  28.732  1.00  0.00    -0.014 A 
ATOM     80  C   UNL A   1      46.800  28.661  28.187  1.00  0.00     0.009 A 
ATOM     81  C   UNL A   1      44.443  29.145  28.051  1.00  0.00     0.009 A 
ATOM     82  C   UNL A   1      47.020  29.397  27.017  1.00  0.00     0.001 A 
ATOM     83  C   UNL A   1      44.658  29.860  26.871  1.00  0.00     0.001 A 
ATOM     84  C   UNL A   1      45.947  29.993  26.358  1.00  0.00     0.000 A 
ENDBRANCH  66  79
ENDBRANCH  40  41
ENDBRANCH  33  35
ENDBRANCH  32  33
ENDBRANCH  31  32
ENDBRANCH   1  31
TORSDOF 16
ENDMDL
MODEL 2
REMARK VINA RESULT:     -11.8      1.652      2.221
REMARK SMILES NS(=O)(=O)c1ccc(-n2nc(C(F)F)cc2-c2ccc(C(=O)OCCOC(=O)c3ccc(-c4c5nc(c(-c6ccccc6)c6ccc([nH]6)c(-c6ccccc6)c6nc(c(-c7ccccc7)c7ccc4[nH]7)C=C6)C=C5)cc3)cc2)cc1
REMARK SMILES IDX 24 1 23 2 21 3 22 4 20 5 17 6 18 7 78 8 19 9 77 10 16 11
REMARK SMILES IDX 9 12 10 13 11 14 15 15 8 16 5 17 6 18 80 19 7 20 79 21 2 22
REMARK SMILES IDX 3 23 4 24 1 25 12 28 13 29 14 30 25 31 26 32 27 33 28 34
REMARK SMILES IDX 29 35 30 36 76 37 31 38 75 39 32 40 33 41 34 42 69 43 35 44
REMARK SMILES IDX 74 45 68 46 70 47 36 48 73 49 67 50 66 51 37 53 59 54 44 55
REMARK SMILES IDX 58 56 45 57 48 58 57 59 71 60 46 61 47 62 56 64 72 65 49 66
REMARK SMILES IDX 38 67 39 68 43 69 40 70 42 71 41 72 60 73 61 74 65 75 62 76
REMARK SMILES IDX 64 77 63 78 50 79 51 80 55 81 52 82 54 83 53 84
REMARK H PARENT 1 26 1 27 70 52 48 63
REMARK Flexibility Score: inf
ROOT
ATOM      1  C   UNL A   1      35.971  33.071  28.081  1.00  0.00     0.275 C 
ENDROOT
BRANCH   1   2
ATOM      2  O   UNL A   1      35.341  31.796  28.263  1.00  0.00    -0.458 OA
BRANCH   2   3
ATOM      3  C   UNL A   1      34.033  31.728  27.905  1.00  0.00     0.338 C 
ATOM      4  O   UNL A   1      33.220  32.638  27.956  1.00  0.00    -0.246 OA
BRANCH   3   5
ATOM      5  C   UNL A   1      33.725  30.392  27.341  1.00  0.00     0.060 A 
ATOM      6  C   UNL A   1      33.229  27.895  26.170  1.00  0.00     0.000 A 
ATOM      7  C   UNL A   1      34.543  28.366  26.299  1.00  0.00     0.011 A 
ATOM      8  C   UNL A   1      32.169  28.667  26.657  1.00  0.00     0.011 A 
ATOM      9  C   UNL A   1      34.791  29.609  26.882  1.00  0.00     0.016 A 
ATOM     10  C   UNL A   1      32.414  29.907  27.250  1.00  0.00     0.016 A 
BRANCH   6  11
ATOM     11  C   UNL A   1      32.965  26.644  25.465  1.00  0.00     0.075 A 
ATOM     12  N   UNL A   1      31.899  26.399  24.609  1.00  0.00    -0.233 N 
ATOM     13  N   UNL A   1      31.727  25.069  24.394  1.00  0.00    -0.166 NA
ATOM     14  C   UNL A   1      32.821  24.490  24.919  1.00  0.00     0.129 A 
ATOM     15  C   UNL A   1      33.608  25.433  25.616  1.00  0.00     0.060 A 
BRANCH  12  16
ATOM     16  C   UNL A   1      31.049  27.347  23.977  1.00  0.00     0.065 A 
ATOM     17  C   UNL A   1      29.380  29.245  22.800  1.00  0.00     0.082 A 
ATOM     18  C   UNL A   1      30.765  29.382  22.687  1.00  0.00     0.024 A 
ATOM     19  C   UNL A   1      28.823  28.156  23.481  1.00  0.00     0.024 A 
ATOM     20  C   UNL A   1      31.600  28.439  23.287  1.00  0.00     0.030 A 
ATOM     21  C   UNL A   1      29.660  27.187  24.044  1.00  0.00     0.030 A 
BRANCH  17  22
ATOM     22  S   UNL A   1      28.312  30.462  22.088  1.00  0.00     0.238 S 
ATOM     23  O   UNL A   1      27.280  30.791  23.046  1.00  0.00    -0.207 OA
ATOM     24  O   UNL A   1      28.028  30.078  20.728  1.00  0.00    -0.207 OA
BRANCH  22  25
ATOM     25  N   UNL A   1      29.276  31.840  21.998  1.00  0.00    -0.225 NA
ATOM     26  H   UNL A   1      30.026  31.688  21.324  1.00  0.00     0.137 HD
ATOM     27  H   UNL A   1      29.677  32.033  22.915  1.00  0.00     0.137 HD
ENDBRANCH  22  25
ENDBRANCH  17  22
ENDBRANCH  12  16
BRANCH  14  28
ATOM     28  C   UNL A   1      33.112  23.023  24.790  1.00  0.00     0.393 C 
ATOM     29  F   UNL A   1      34.179  22.633  25.537  1.00  0.00    -0.203 F 
ATOM     30  F   UNL A   1      32.053  22.267  25.193  1.00  0.00    -0.203 F 
ENDBRANCH  14  28
ENDBRANCH   6  11
ENDBRANCH   3   5
ENDBRANCH   2   3
ENDBRANCH   1   2
BRANCH   1  31
ATOM     31  C   UNL A   1      36.720  33.490  29.336  1.00  0.00     0.275 C 
BRANCH  31  32
ATOM     32  O   UNL A   1      38.131  33.344  29.176  1.00  0.00    -0.458 OA
BRANCH  32  33
ATOM     33  C   UNL A   1      38.870  33.527  30.292  1.00  0.00     0.338 C 
ATOM     34  O   UNL A   1      39.147  34.585  30.835  1.00  0.00    -0.246 OA
BRANCH  33  35
ATOM     35  C   UNL A   1      39.539  32.259  30.618  1.00  0.00     0.060 A 
ATOM     36  C   UNL A   1      40.862  32.109  30.198  1.00  0.00     0.016 A 
ATOM     37  C   UNL A   1      38.783  31.163  31.067  1.00  0.00     0.016 A 
ATOM     38  C   UNL A   1      41.367  30.831  30.065  1.00  0.00     0.010 A 
ATOM     39  C   UNL A   1      39.284  29.889  30.923  1.00  0.00     0.010 A 
ATOM     40  C   UNL A   1      40.543  29.734  30.354  1.00  0.00    -0.014 A 
BRANCH  40  41
ATOM     41  C   UNL A   1      41.090  28.409  30.145  1.00  0.00     0.031 A 
ATOM     42  C   UNL A   1      41.877  27.913  31.295  1.00  0.00     0.074 A 
ATOM     43  C   UNL A   1      40.844  27.657  29.057  1.00  0.00     0.049 A 
ATOM     44  N   UNL A   1      43.146  27.678  31.333  1.00  0.00    -0.248 NA
ATOM     45  C   UNL A   1      41.197  27.810  32.594  1.00  0.00     0.031 C 
ATOM     46  C   UNL A   1      39.878  27.889  27.981  1.00  0.00     0.029 A 
ATOM     47  N   UNL A   1      41.363  26.439  28.746  1.00  0.00    -0.354 N 
ATOM     48  C   UNL A   1      43.403  27.226  32.621  1.00  0.00     0.074 A 
ATOM     49  C   UNL A   1      42.209  27.470  33.390  1.00  0.00     0.031 C 
ATOM     50  C   UNL A   1      39.720  26.747  27.273  1.00  0.00     0.029 A 
ATOM     51  C   UNL A   1      40.673  25.761  27.754  1.00  0.00     0.049 A 
ATOM     52  H   UNL A   1      42.162  26.070  29.190  1.00  0.00     0.167 HD
ATOM     53  C   UNL A   1      44.497  26.470  32.903  1.00  0.00     0.031 A 
ATOM     54  C   UNL A   1      40.842  24.461  27.406  1.00  0.00     0.031 A 
ATOM     55  C   UNL A   1      45.504  26.578  31.882  1.00  0.00     0.049 A 
ATOM     56  C   UNL A   1      42.173  24.033  27.896  1.00  0.00     0.074 A 
ATOM     57  C   UNL A   1      46.257  27.614  31.365  1.00  0.00     0.029 A 
ATOM     58  N   UNL A   1      45.585  25.559  30.963  1.00  0.00    -0.354 N 
ATOM     59  N   UNL A   1      43.294  24.477  27.406  1.00  0.00    -0.248 NA
ATOM     60  C   UNL A   1      42.264  23.439  29.221  1.00  0.00     0.031 C 
ATOM     61  C   UNL A   1      46.345  27.344  29.967  1.00  0.00     0.029 A 
ATOM     62  C   UNL A   1      45.692  26.134  29.722  1.00  0.00     0.049 A 
ATOM     63  H   UNL A   1      45.568  24.595  31.159  1.00  0.00     0.167 HD
ATOM     64  C   UNL A   1      44.124  24.630  28.507  1.00  0.00     0.074 A 
ATOM     65  C   UNL A   1      43.478  23.872  29.575  1.00  0.00     0.031 C 
ATOM     66  C   UNL A   1      45.104  25.581  28.522  1.00  0.00     0.031 A 
BRANCH  53  67
ATOM     67  C   UNL A   1      44.457  25.330  33.887  1.00  0.00    -0.014 A 
ATOM     68  C   UNL A   1      45.342  25.343  34.978  1.00  0.00     0.009 A 
ATOM     69  C   UNL A   1      43.790  24.115  33.626  1.00  0.00     0.009 A 
ATOM     70  C   UNL A   1      45.595  24.183  35.722  1.00  0.00     0.001 A 
ATOM     71  C   UNL A   1      44.008  22.968  34.391  1.00  0.00     0.001 A 
ATOM     72  C   UNL A   1      44.933  22.996  35.423  1.00  0.00     0.000 A 
ENDBRANCH  53  67
BRANCH  54  73
ATOM     73  C   UNL A   1      39.832  23.490  26.938  1.00  0.00    -0.014 A 
ATOM     74  C   UNL A   1      38.570  23.920  26.501  1.00  0.00     0.009 A 
ATOM     75  C   UNL A   1      40.210  22.165  26.652  1.00  0.00     0.009 A 
ATOM     76  C   UNL A   1      37.734  23.068  25.765  1.00  0.00     0.001 A 
ATOM     77  C   UNL A   1      39.375  21.314  25.920  1.00  0.00     0.001 A 
ATOM     78  C   UNL A   1      38.144  21.770  25.463  1.00  0.00     0.000 A 
ENDBRANCH  54  73
BRANCH  66  79
ATOM     79  C   UNL A   1      45.410  26.297  27.228  1.00  0.00    -0.014 A 
ATOM     80  C   UNL A   1      44.780  27.495  26.844  1.00  0.00     0.009 A 
ATOM     81  C   UNL A   1      46.468  25.823  26.437  1.00  0.00     0.009 A 
ATOM     82  C   UNL A   1      45.174  28.176  25.686  1.00  0.00     0.001 A 
ATOM     83  C   UNL A   1      46.877  26.514  25.295  1.00  0.00     0.001 A 
ATOM     84  C   UNL A   1      46.225  27.686  24.914  1.00  0.00     0.000 A 
ENDBRANCH  66  79
ENDBRANCH  40  41
ENDBRANCH  33  35
ENDBRANCH  32  33
ENDBRANCH  31  32
ENDBRANCH   1  31
TORSDOF 16
ENDMDL
MODEL 3
REMARK VINA RESULT:     -11.6      3.060      4.289
REMARK SMILES NS(=O)(=O)c1ccc(-n2nc(C(F)F)cc2-c2ccc(C(=O)OCCOC(=O)c3ccc(-c4c5nc(c(-c6ccccc6)c6ccc([nH]6)c(-c6ccccc6)c6nc(c(-c7ccccc7)c7ccc4[nH]7)C=C6)C=C5)cc3)cc2)cc1
REMARK SMILES IDX 24 1 23 2 21 3 22 4 20 5 17 6 18 7 78 8 19 9 77 10 16 11
REMARK SMILES IDX 9 12 10 13 11 14 15 15 8 16 5 17 6 18 80 19 7 20 79 21 2 22
REMARK SMILES IDX 3 23 4 24 1 25 12 28 13 29 14 30 25 31 26 32 27 33 28 34
REMARK SMILES IDX 29 35 30 36 76 37 31 38 75 39 32 40 33 41 34 42 69 43 35 44
REMARK SMILES IDX 74 45 68 46 70 47 36 48 73 49 67 50 66 51 37 53 59 54 44 55
REMARK SMILES IDX 58 56 45 57 48 58 57 59 71 60 46 61 47 62 56 64 72 65 49 66
REMARK SMILES IDX 38 67 39 68 43 69 40 70 42 71 41 72 60 73 61 74 65 75 62 76
REMARK SMILES IDX 64 77 63 78 50 79 51 80 55 81 52 82 54 83 53 84
REMARK H PARENT 1 26 1 27 70 52 48 63
REMARK Flexibility Score: inf
ROOT
ATOM      1  C   UNL A   1      36.215  32.418  29.922  1.00  0.00     0.275 C 
ENDROOT
BRANCH   1   2
ATOM      2  O   UNL A   1      35.751  31.976  28.639  1.00  0.00    -0.458 OA
BRANCH   2   3
ATOM      3  C   UNL A   1      35.846  30.643  28.404  1.00  0.00     0.338 C 
ATOM      4  O   UNL A   1      36.697  29.888  28.850  1.00  0.00    -0.246 OA
BRANCH   3   5
ATOM      5  C   UNL A   1      34.698  30.183  27.587  1.00  0.00     0.060 A 
ATOM      6  C   UNL A   1      32.615  29.296  25.936  1.00  0.00     0.000 A 
ATOM      7  C   UNL A   1      33.818  28.580  26.001  1.00  0.00     0.011 A 
ATOM      8  C   UNL A   1      32.449  30.439  26.725  1.00  0.00     0.011 A 
ATOM      9  C   UNL A   1      34.856  29.021  26.821  1.00  0.00     0.016 A 
ATOM     10  C   UNL A   1      33.482  30.878  27.556  1.00  0.00     0.016 A 
BRANCH   6  11
ATOM     11  C   UNL A   1      31.572  28.892  24.998  1.00  0.00     0.075 A 
ATOM     12  N   UNL A   1      31.352  27.604  24.527  1.00  0.00    -0.233 N 
ATOM     13  N   UNL A   1      30.561  27.604  23.423  1.00  0.00    -0.166 NA
ATOM     14  C   UNL A   1      30.089  28.861  23.335  1.00  0.00     0.129 A 
ATOM     15  C   UNL A   1      30.711  29.701  24.285  1.00  0.00     0.060 A 
BRANCH  12  16
ATOM     16  C   UNL A   1      31.834  26.381  25.068  1.00  0.00     0.065 A 
ATOM     17  C   UNL A   1      32.732  23.945  26.084  1.00  0.00     0.082 A 
ATOM     18  C   UNL A   1      33.412  24.540  25.020  1.00  0.00     0.024 A 
ATOM     19  C   UNL A   1      31.616  24.569  26.657  1.00  0.00     0.024 A 
ATOM     20  C   UNL A   1      32.955  25.752  24.503  1.00  0.00     0.030 A 
ATOM     21  C   UNL A   1      31.185  25.806  26.168  1.00  0.00     0.030 A 
BRANCH  17  22
ATOM     22  S   UNL A   1      33.272  22.383  26.713  1.00  0.00     0.238 S 
ATOM     23  O   UNL A   1      34.693  22.455  26.975  1.00  0.00    -0.207 OA
ATOM     24  O   UNL A   1      32.671  21.341  25.920  1.00  0.00    -0.207 OA
BRANCH  22  25
ATOM     25  N   UNL A   1      32.555  22.292  28.234  1.00  0.00    -0.225 NA
ATOM     26  H   UNL A   1      32.121  23.186  28.461  1.00  0.00     0.137 HD
ATOM     27  H   UNL A   1      33.265  22.071  28.932  1.00  0.00     0.137 HD
ENDBRANCH  22  25
ENDBRANCH  17  22
ENDBRANCH  12  16
BRANCH  14  28
ATOM     28  C   UNL A   1      29.064  29.282  22.324  1.00  0.00     0.393 C 
ATOM     29  F   UNL A   1      27.848  29.527  22.880  1.00  0.00    -0.203 F 
ATOM     30  F   UNL A   1      29.438  30.421  21.678  1.00  0.00    -0.203 F 
ENDBRANCH  14  28
ENDBRANCH   6  11
ENDBRANCH   3   5
ENDBRANCH   2   3
ENDBRANCH   1   2
BRANCH   1  31
ATOM     31  C   UNL A   1      37.235  33.536  29.774  1.00  0.00     0.275 C 
BRANCH  31  32
ATOM     32  O   UNL A   1      38.203  33.503  30.822  1.00  0.00    -0.458 OA
BRANCH  32  33
ATOM     33  C   UNL A   1      39.494  33.588  30.432  1.00  0.00     0.338 C 
ATOM     34  O   UNL A   1      40.012  34.468  29.764  1.00  0.00    -0.246 OA
BRANCH  33  35
ATOM     35  C   UNL A   1      40.146  32.298  30.702  1.00  0.00     0.060 A 
ATOM     36  C   UNL A   1      41.413  32.095  30.151  1.00  0.00     0.016 A 
ATOM     37  C   UNL A   1      39.400  31.235  31.238  1.00  0.00     0.016 A 
ATOM     38  C   UNL A   1      41.854  30.798  29.981  1.00  0.00     0.010 A 
ATOM     39  C   UNL A   1      39.837  29.942  31.059  1.00  0.00     0.010 A 
ATOM     40  C   UNL A   1      41.024  29.735  30.366  1.00  0.00    -0.014 A 
BRANCH  40  41
ATOM     41  C   UNL A   1      41.498  28.388  30.117  1.00  0.00     0.031 A 
ATOM     42  C   UNL A   1      42.322  27.846  31.219  1.00  0.00     0.074 A 
ATOM     43  C   UNL A   1      41.159  27.659  29.039  1.00  0.00     0.049 A 
ATOM     44  N   UNL A   1      43.579  27.553  31.187  1.00  0.00    -0.248 NA
ATOM     45  C   UNL A   1      41.708  27.761  32.552  1.00  0.00     0.031 C 
ATOM     46  C   UNL A   1      40.148  27.947  28.018  1.00  0.00     0.029 A 
ATOM     47  N   UNL A   1      41.605  26.423  28.691  1.00  0.00    -0.354 N 
ATOM     48  C   UNL A   1      43.884  27.077  32.455  1.00  0.00     0.074 A 
ATOM     49  C   UNL A   1      42.745  27.367  33.290  1.00  0.00     0.031 C 
ATOM     50  C   UNL A   1      39.900  26.820  27.311  1.00  0.00     0.029 A 
ATOM     51  C   UNL A   1      40.832  25.787  27.732  1.00  0.00     0.049 A 
ATOM     52  H   UNL A   1      42.408  26.014  29.087  1.00  0.00     0.167 HD
ATOM     53  C   UNL A   1      44.956  26.269  32.672  1.00  0.00     0.031 A 
ATOM     54  C   UNL A   1      40.922  24.485  27.365  1.00  0.00     0.031 A 
ATOM     55  C   UNL A   1      45.910  26.342  31.598  1.00  0.00     0.049 A 
ATOM     56  C   UNL A   1      42.257  23.992  27.779  1.00  0.00     0.074 A 
ATOM     57  C   UNL A   1      46.681  27.347  31.049  1.00  0.00     0.029 A 
ATOM     58  N   UNL A   1      45.894  25.330  30.669  1.00  0.00    -0.354 N 
ATOM     59  N   UNL A   1      43.369  24.389  27.233  1.00  0.00    -0.248 NA
ATOM     60  C   UNL A   1      42.391  23.380  29.092  1.00  0.00     0.031 C 
ATOM     61  C   UNL A   1      46.681  27.088  29.647  1.00  0.00     0.029 A 
ATOM     62  C   UNL A   1      45.961  25.912  29.428  1.00  0.00     0.049 A 
ATOM     63  H   UNL A   1      45.844  24.365  30.857  1.00  0.00     0.167 HD
ATOM     64  C   UNL A   1      44.263  24.492  28.288  1.00  0.00     0.074 A 
ATOM     65  C   UNL A   1      43.641  23.754  29.384  1.00  0.00     0.031 C 
ATOM     66  C   UNL A   1      45.285  25.398  28.257  1.00  0.00     0.031 A 
BRANCH  53  67
ATOM     67  C   UNL A   1      44.917  25.122  33.647  1.00  0.00    -0.014 A 
ATOM     68  C   UNL A   1      44.470  23.867  33.201  1.00  0.00     0.009 A 
ATOM     69  C   UNL A   1      45.028  25.296  35.042  1.00  0.00     0.009 A 
ATOM     70  C   UNL A   1      44.090  22.868  34.106  1.00  0.00     0.001 A 
ATOM     71  C   UNL A   1      44.690  24.288  35.946  1.00  0.00     0.001 A 
ATOM     72  C   UNL A   1      44.193  23.082  35.478  1.00  0.00     0.000 A 
ENDBRANCH  53  67
BRANCH  54  73
ATOM     73  C   UNL A   1      39.845  23.565  26.945  1.00  0.00    -0.014 A 
ATOM     74  C   UNL A   1      38.603  24.060  26.520  1.00  0.00     0.009 A 
ATOM     75  C   UNL A   1      40.135  22.212  26.690  1.00  0.00     0.009 A 
ATOM     76  C   UNL A   1      37.701  23.241  25.826  1.00  0.00     0.001 A 
ATOM     77  C   UNL A   1      39.235  21.394  25.999  1.00  0.00     0.001 A 
ATOM     78  C   UNL A   1      38.024  21.913  25.553  1.00  0.00     0.000 A 
ENDBRANCH  54  73
BRANCH  66  79
ATOM     79  C   UNL A   1      45.554  26.113  26.954  1.00  0.00    -0.014 A 
ATOM     80  C   UNL A   1      44.899  27.301  26.579  1.00  0.00     0.009 A 
ATOM     81  C   UNL A   1      46.600  25.650  26.143  1.00  0.00     0.009 A 
ATOM     82  C   UNL A   1      45.259  27.982  25.410  1.00  0.00     0.001 A 
ATOM     83  C   UNL A   1      46.975  26.341  24.989  1.00  0.00     0.001 A 
ATOM     84  C   UNL A   1      46.300  27.503  24.618  1.00  0.00     0.000 A 
ENDBRANCH  66  79
ENDBRANCH  40  41
ENDBRANCH  33  35
ENDBRANCH  32  33
ENDBRANCH  31  32
ENDBRANCH   1  31
TORSDOF 16
ENDMDL
