MODEL 1
REMARK VINA RESULT:     -10.6      0.000      0.000
REMARK SMILES C[C@]1(C(=O)NCc2ccc(C(=O)OCCOC(=O)c3ccc(-c4c5nc(c(-c6ccccc6)c6ccc([nH]6)c(-c6ccccc6)c6nc(c(-c7ccccc7)c7ccc4[nH]7)C=C6)C=C5)cc3)o2)CCC[NH2+]C1
REMARK SMILES IDX 14 1 13 2 11 3 12 4 10 5 7 6 8 7 67 8 9 9 6 10 5 11 3 12
REMARK SMILES IDX 4 13 2 15 1 16 68 17 72 18 69 19 71 20 70 21 15 24 16 25
REMARK SMILES IDX 17 26 18 27 19 28 20 29 66 30 21 31 65 32 22 33 23 34 24 35
REMARK SMILES IDX 59 36 25 37 64 38 58 39 60 40 26 41 63 42 57 43 56 44 27 46
REMARK SMILES IDX 49 47 34 48 48 49 35 50 38 51 47 52 61 53 36 54 37 55 46 57
REMARK SMILES IDX 62 58 39 59 28 60 29 61 33 62 30 63 32 64 31 65 50 66 51 67
REMARK SMILES IDX 55 68 52 69 54 70 53 71 40 72 41 73 45 74 42 75 44 76 43 77
REMARK H PARENT 5 14 71 22 71 23 60 45 38 56
REMARK Flexibility Score: inf
ROOT
ATOM      1  C   UNL A   1      33.660  35.560  28.800  1.00  0.00     0.275 C 
ENDROOT
BRANCH   1   2
ATOM      2  O   UNL A   1      33.668  34.155  29.113  1.00  0.00    -0.456 OA
BRANCH   2   3
ATOM      3  C   UNL A   1      33.155  33.329  28.152  1.00  0.00     0.374 C 
ATOM      4  O   UNL A   1      32.182  33.598  27.459  1.00  0.00    -0.242 OA
BRANCH   3   5
ATOM      5  C   UNL A   1      34.002  32.170  27.996  1.00  0.00     0.211 A 
ATOM      6  C   UNL A   1      34.384  30.109  27.297  1.00  0.00     0.124 A 
ATOM      7  C   UNL A   1      35.611  30.636  27.642  1.00  0.00     0.048 A 
ATOM      8  O   UNL A   1      33.403  31.006  27.592  1.00  0.00    -0.452 OA
ATOM      9  C   UNL A   1      35.367  31.965  28.079  1.00  0.00     0.058 A 
BRANCH   6  10
ATOM     10  C   UNL A   1      33.934  28.885  26.591  1.00  0.00     0.191 C 
BRANCH  10  11
ATOM     11  N   UNL A   1      34.232  28.964  25.185  1.00  0.00    -0.348 N 
ATOM     12  C   UNL A   1      33.859  28.276  24.086  1.00  0.00     0.232 C 
ATOM     13  O   UNL A   1      34.315  28.748  23.033  1.00  0.00    -0.274 OA
ATOM     14  H   UNL A   1      34.857  29.696  24.974  1.00  0.00     0.163 HD
BRANCH  12  15
ATOM     15  C   UNL A   1      33.105  26.923  24.062  1.00  0.00     0.095 C 
ATOM     16  C   UNL A   1      34.030  25.932  24.797  1.00  0.00     0.028 C 
ATOM     17  C   UNL A   1      31.699  26.802  24.672  1.00  0.00     0.028 C 
ATOM     18  C   UNL A   1      32.976  26.494  22.571  1.00  0.00     0.277 C 
ATOM     19  C   UNL A   1      30.664  27.612  23.894  1.00  0.00     0.063 C 
ATOM     20  N   UNL A   1      31.983  27.296  21.838  1.00  0.00    -0.345 N 
ATOM     21  C   UNL A   1      30.651  27.197  22.425  1.00  0.00     0.260 C 
ATOM     22  H   UNL A   1      32.276  28.273  21.852  1.00  0.00     0.346 HD
ATOM     23  H   UNL A   1      31.932  26.936  20.885  1.00  0.00     0.346 HD
ENDBRANCH  12  15
ENDBRANCH  10  11
ENDBRANCH   6  10
ENDBRANCH   3   5
ENDBRANCH   2   3
ENDBRANCH   1   2
BRANCH   1  24
ATOM     24  C   UNL A   1      32.864  36.365  29.836  1.00  0.00     0.275 C 
BRANCH  24  25
ATOM     25  O   UNL A   1      32.339  35.530  30.889  1.00  0.00    -0.458 OA
BRANCH  25  26
ATOM     26  C   UNL A   1      32.687  35.890  32.147  1.00  0.00     0.338 C 
ATOM     27  O   UNL A   1      32.096  36.670  32.876  1.00  0.00    -0.246 OA
BRANCH  26  28
ATOM     28  C   UNL A   1      33.855  35.108  32.592  1.00  0.00     0.060 A 
ATOM     29  C   UNL A   1      35.120  35.689  32.463  1.00  0.00     0.016 A 
ATOM     30  C   UNL A   1      33.729  33.799  33.062  1.00  0.00     0.016 A 
ATOM     31  C   UNL A   1      36.264  34.971  32.796  1.00  0.00     0.010 A 
ATOM     32  C   UNL A   1      34.880  33.073  33.393  1.00  0.00     0.010 A 
ATOM     33  C   UNL A   1      36.154  33.651  33.250  1.00  0.00    -0.014 A 
BRANCH  33  34
ATOM     34  C   UNL A   1      37.380  32.867  33.524  1.00  0.00     0.031 A 
ATOM     35  C   UNL A   1      38.130  33.077  34.808  1.00  0.00     0.074 A 
ATOM     36  C   UNL A   1      37.804  31.946  32.641  1.00  0.00     0.049 A 
ATOM     37  N   UNL A   1      39.241  32.515  35.217  1.00  0.00    -0.248 NA
ATOM     38  C   UNL A   1      37.555  34.040  35.758  1.00  0.00     0.031 C 
ATOM     39  C   UNL A   1      37.138  31.612  31.382  1.00  0.00     0.029 A 
ATOM     40  N   UNL A   1      38.899  31.119  32.673  1.00  0.00    -0.354 N 
ATOM     41  C   UNL A   1      39.503  33.066  36.464  1.00  0.00     0.074 A 
ATOM     42  C   UNL A   1      38.445  34.016  36.739  1.00  0.00     0.031 C 
ATOM     43  C   UNL A   1      37.838  30.647  30.762  1.00  0.00     0.029 A 
ATOM     44  C   UNL A   1      39.016  30.322  31.561  1.00  0.00     0.049 A 
ATOM     45  H   UNL A   1      39.538  31.100  33.420  1.00  0.00     0.167 HD
ATOM     46  C   UNL A   1      40.533  32.806  37.304  1.00  0.00     0.031 A 
ATOM     47  C   UNL A   1      39.976  29.443  31.217  1.00  0.00     0.031 A 
ATOM     48  C   UNL A   1      41.589  31.869  37.035  1.00  0.00     0.049 A 
ATOM     49  C   UNL A   1      41.143  29.221  32.137  1.00  0.00     0.074 A 
ATOM     50  C   UNL A   1      42.673  31.538  37.830  1.00  0.00     0.029 A 
ATOM     51  N   UNL A   1      41.694  31.112  35.879  1.00  0.00    -0.354 N 
ATOM     52  N   UNL A   1      41.380  29.752  33.312  1.00  0.00    -0.248 NA
ATOM     53  C   UNL A   1      42.176  28.279  31.680  1.00  0.00     0.031 C 
ATOM     54  C   UNL A   1      43.456  30.607  37.138  1.00  0.00     0.029 A 
ATOM     55  C   UNL A   1      42.836  30.330  35.930  1.00  0.00     0.049 A 
ATOM     56  H   UNL A   1      41.054  31.129  35.133  1.00  0.00     0.167 HD
ATOM     57  C   UNL A   1      42.578  29.195  33.743  1.00  0.00     0.074 A 
ATOM     58  C   UNL A   1      43.012  28.278  32.709  1.00  0.00     0.031 C 
ATOM     59  C   UNL A   1      43.255  29.424  34.893  1.00  0.00     0.031 A 
BRANCH  46  60
ATOM     60  C   UNL A   1      40.580  33.581  38.589  1.00  0.00    -0.014 A 
ATOM     61  C   UNL A   1      39.978  33.088  39.757  1.00  0.00     0.009 A 
ATOM     62  C   UNL A   1      41.256  34.809  38.634  1.00  0.00     0.009 A 
ATOM     63  C   UNL A   1      40.028  33.828  40.941  1.00  0.00     0.001 A 
ATOM     64  C   UNL A   1      41.321  35.536  39.824  1.00  0.00     0.001 A 
ATOM     65  C   UNL A   1      40.701  35.048  40.974  1.00  0.00     0.000 A 
ENDBRANCH  46  60
BRANCH  47  66
ATOM     66  C   UNL A   1      39.885  28.720  29.924  1.00  0.00    -0.014 A 
ATOM     67  C   UNL A   1      39.339  27.429  29.866  1.00  0.00     0.009 A 
ATOM     68  C   UNL A   1      40.350  29.318  28.744  1.00  0.00     0.009 A 
ATOM     69  C   UNL A   1      39.275  26.745  28.650  1.00  0.00     0.001 A 
ATOM     70  C   UNL A   1      40.264  28.641  27.527  1.00  0.00     0.001 A 
ATOM     71  C   UNL A   1      39.734  27.352  27.482  1.00  0.00     0.000 A 
ENDBRANCH  47  66
BRANCH  59  72
ATOM     72  C   UNL A   1      44.522  28.650  35.107  1.00  0.00    -0.014 A 
ATOM     73  C   UNL A   1      44.503  27.381  35.706  1.00  0.00     0.009 A 
ATOM     74  C   UNL A   1      45.745  29.180  34.667  1.00  0.00     0.009 A 
ATOM     75  C   UNL A   1      45.692  26.669  35.884  1.00  0.00     0.001 A 
ATOM     76  C   UNL A   1      46.927  28.458  34.828  1.00  0.00     0.001 A 
ATOM     77  C   UNL A   1      46.901  27.206  35.442  1.00  0.00     0.000 A 
ENDBRANCH  59  72
ENDBRANCH  33  34
ENDBRANCH  26  28
ENDBRANCH  25  26
ENDBRANCH  24  25
ENDBRANCH   1  24
TORSDOF 14
ENDMDL
MODEL 2
REMARK VINA RESULT:     -10.6      5.033      9.854
REMARK SMILES C[C@]1(C(=O)NCc2ccc(C(=O)OCCOC(=O)c3ccc(-c4c5nc(c(-c6ccccc6)c6ccc([nH]6)c(-c6ccccc6)c6nc(c(-c7ccccc7)c7ccc4[nH]7)C=C6)C=C5)cc3)o2)CCC[NH2+]C1
REMARK SMILES IDX 14 1 13 2 11 3 12 4 10 5 7 6 8 7 67 8 9 9 6 10 5 11 3 12
REMARK SMILES IDX 4 13 2 15 1 16 68 17 72 18 69 19 71 20 70 21 15 24 16 25
REMARK SMILES IDX 17 26 18 27 19 28 20 29 66 30 21 31 65 32 22 33 23 34 24 35
REMARK SMILES IDX 59 36 25 37 64 38 58 39 60 40 26 41 63 42 57 43 56 44 27 46
REMARK SMILES IDX 49 47 34 48 48 49 35 50 38 51 47 52 61 53 36 54 37 55 46 57
REMARK SMILES IDX 62 58 39 59 28 60 29 61 33 62 30 63 32 64 31 65 50 66 51 67
REMARK SMILES IDX 55 68 52 69 54 70 53 71 40 72 41 73 45 74 42 75 44 76 43 77
REMARK H PARENT 5 14 71 22 71 23 60 45 38 56
REMARK Flexibility Score: inf
ROOT
ATOM      1  C   UNL A   1      42.772  20.626  26.083  1.00  0.00     0.275 C 
ENDROOT
BRANCH   1   2
ATOM      2  O   UNL A   1      41.415  20.863  25.667  1.00  0.00    -0.456 OA
BRANCH   2   3
ATOM      3  C   UNL A   1      40.496  20.982  26.672  1.00  0.00     0.374 C 
ATOM      4  O   UNL A   1      40.675  20.594  27.820  1.00  0.00    -0.242 OA
BRANCH   3   5
ATOM      5  C   UNL A   1      39.356  21.739  26.210  1.00  0.00     0.211 A 
ATOM      6  C   UNL A   1      37.361  21.891  25.275  1.00  0.00     0.124 A 
ATOM      7  C   UNL A   1      37.614  23.118  25.849  1.00  0.00     0.048 A 
ATOM      8  O   UNL A   1      38.449  21.085  25.419  1.00  0.00    -0.452 OA
ATOM      9  C   UNL A   1      38.891  23.017  26.462  1.00  0.00     0.058 A 
BRANCH   6  10
ATOM     10  C   UNL A   1      36.169  21.246  24.673  1.00  0.00     0.191 C 
BRANCH  10  11
ATOM     11  N   UNL A   1      35.138  21.050  25.657  1.00  0.00    -0.348 N 
ATOM     12  C   UNL A   1      34.084  20.217  25.791  1.00  0.00     0.232 C 
ATOM     13  O   UNL A   1      33.484  20.354  26.869  1.00  0.00    -0.274 OA
ATOM     14  H   UNL A   1      35.220  21.674  26.416  1.00  0.00     0.163 HD
BRANCH  12  15
ATOM     15  C   UNL A   1      33.499  19.295  24.694  1.00  0.00     0.095 C 
ATOM     16  C   UNL A   1      32.854  20.247  23.666  1.00  0.00     0.028 C 
ATOM     17  C   UNL A   1      34.406  18.317  23.930  1.00  0.00     0.028 C 
ATOM     18  C   UNL A   1      32.387  18.433  25.361  1.00  0.00     0.277 C 
ATOM     19  C   UNL A   1      34.953  17.215  24.835  1.00  0.00     0.063 C 
ATOM     20  N   UNL A   1      32.936  17.387  26.238  1.00  0.00    -0.345 N 
ATOM     21  C   UNL A   1      33.812  16.467  25.520  1.00  0.00     0.260 C 
ATOM     22  H   UNL A   1      33.469  17.832  26.985  1.00  0.00     0.346 HD
ATOM     23  H   UNL A   1      32.154  16.847  26.609  1.00  0.00     0.346 HD
ENDBRANCH  12  15
ENDBRANCH  10  11
ENDBRANCH   6  10
ENDBRANCH   3   5
ENDBRANCH   2   3
ENDBRANCH   1   2
BRANCH   1  24
ATOM     24  C   UNL A   1      43.762  21.507  25.311  1.00  0.00     0.275 C 
BRANCH  24  25
ATOM     25  O   UNL A   1      43.145  22.709  24.805  1.00  0.00    -0.458 OA
BRANCH  25  26
ATOM     26  C   UNL A   1      43.862  23.846  24.965  1.00  0.00     0.338 C 
ATOM     27  O   UNL A   1      44.831  24.198  24.313  1.00  0.00    -0.246 OA
BRANCH  26  28
ATOM     28  C   UNL A   1      43.238  24.697  25.995  1.00  0.00     0.060 A 
ATOM     29  C   UNL A   1      43.574  26.054  26.015  1.00  0.00     0.016 A 
ATOM     30  C   UNL A   1      42.392  24.169  26.973  1.00  0.00     0.016 A 
ATOM     31  C   UNL A   1      43.075  26.890  27.009  1.00  0.00     0.010 A 
ATOM     32  C   UNL A   1      41.893  25.008  27.976  1.00  0.00     0.010 A 
ATOM     33  C   UNL A   1      42.241  26.370  28.006  1.00  0.00    -0.014 A 
BRANCH  33  34
ATOM     34  C   UNL A   1      41.781  27.249  29.106  1.00  0.00     0.031 A 
ATOM     35  C   UNL A   1      42.552  27.303  30.393  1.00  0.00     0.074 A 
ATOM     36  C   UNL A   1      40.694  28.024  28.940  1.00  0.00     0.049 A 
ATOM     37  N   UNL A   1      42.293  27.982  31.483  1.00  0.00    -0.248 NA
ATOM     38  C   UNL A   1      43.776  26.491  30.463  1.00  0.00     0.031 C 
ATOM     39  C   UNL A   1      39.888  28.101  27.722  1.00  0.00     0.029 A 
ATOM     40  N   UNL A   1      40.083  28.897  29.804  1.00  0.00    -0.354 N 
ATOM     41  C   UNL A   1      43.313  27.669  32.371  1.00  0.00     0.074 A 
ATOM     42  C   UNL A   1      44.187  26.729  31.700  1.00  0.00     0.031 C 
ATOM     43  C   UNL A   1      38.889  28.978  27.916  1.00  0.00     0.029 A 
ATOM     44  C   UNL A   1      38.964  29.495  29.279  1.00  0.00     0.049 A 
ATOM     45  H   UNL A   1      40.415  29.078  30.713  1.00  0.00     0.167 HD
ATOM     46  C   UNL A   1      43.504  28.123  33.633  1.00  0.00     0.031 A 
ATOM     47  C   UNL A   1      38.088  30.348  29.841  1.00  0.00     0.031 A 
ATOM     48  C   UNL A   1      42.638  29.051  34.307  1.00  0.00     0.049 A 
ATOM     49  C   UNL A   1      38.286  30.784  31.266  1.00  0.00     0.074 A 
ATOM     50  C   UNL A   1      42.755  29.568  35.586  1.00  0.00     0.029 A 
ATOM     51  N   UNL A   1      41.492  29.600  33.756  1.00  0.00    -0.354 N 
ATOM     52  N   UNL A   1      39.253  30.478  32.096  1.00  0.00    -0.248 NA
ATOM     53  C   UNL A   1      37.268  31.683  31.830  1.00  0.00     0.031 C 
ATOM     54  C   UNL A   1      41.657  30.403  35.823  1.00  0.00     0.029 A 
ATOM     55  C   UNL A   1      40.881  30.435  34.676  1.00  0.00     0.049 A 
ATOM     56  H   UNL A   1      41.161  29.421  32.847  1.00  0.00     0.167 HD
ATOM     57  C   UNL A   1      38.972  31.160  33.273  1.00  0.00     0.074 A 
ATOM     58  C   UNL A   1      37.750  31.905  33.046  1.00  0.00     0.031 C 
ATOM     59  C   UNL A   1      39.665  31.168  34.436  1.00  0.00     0.031 A 
BRANCH  46  60
ATOM     60  C   UNL A   1      44.690  27.585  34.380  1.00  0.00    -0.014 A 
ATOM     61  C   UNL A   1      44.630  26.351  35.047  1.00  0.00     0.009 A 
ATOM     62  C   UNL A   1      45.890  28.312  34.396  1.00  0.00     0.009 A 
ATOM     63  C   UNL A   1      45.742  25.870  35.741  1.00  0.00     0.001 A 
ATOM     64  C   UNL A   1      47.006  27.819  35.073  1.00  0.00     0.001 A 
ATOM     65  C   UNL A   1      46.929  26.603  35.751  1.00  0.00     0.000 A 
ENDBRANCH  46  60
BRANCH  47  66
ATOM     66  C   UNL A   1      36.922  30.831  29.060  1.00  0.00    -0.014 A 
ATOM     67  C   UNL A   1      36.839  32.173  28.659  1.00  0.00     0.009 A 
ATOM     68  C   UNL A   1      35.886  29.951  28.715  1.00  0.00     0.009 A 
ATOM     69  C   UNL A   1      35.731  32.627  27.941  1.00  0.00     0.001 A 
ATOM     70  C   UNL A   1      34.790  30.403  27.978  1.00  0.00     0.001 A 
ATOM     71  C   UNL A   1      34.710  31.741  27.598  1.00  0.00     0.000 A 
ENDBRANCH  47  66
BRANCH  59  72
ATOM     72  C   UNL A   1      39.134  32.030  35.543  1.00  0.00    -0.014 A 
ATOM     73  C   UNL A   1      39.439  33.399  35.605  1.00  0.00     0.009 A 
ATOM     74  C   UNL A   1      38.287  31.474  36.514  1.00  0.00     0.009 A 
ATOM     75  C   UNL A   1      38.923  34.188  36.635  1.00  0.00     0.001 A 
ATOM     76  C   UNL A   1      37.758  32.269  37.530  1.00  0.00     0.001 A 
ATOM     77  C   UNL A   1      38.082  33.624  37.594  1.00  0.00     0.000 A 
ENDBRANCH  59  72
ENDBRANCH  33  34
ENDBRANCH  26  28
ENDBRANCH  25  26
ENDBRANCH  24  25
ENDBRANCH   1  24
TORSDOF 14
ENDMDL
MODEL 3
REMARK VINA RESULT:     -10.6      3.742      7.506
REMARK SMILES C[C@]1(C(=O)NCc2ccc(C(=O)OCCOC(=O)c3ccc(-c4c5nc(c(-c6ccccc6)c6ccc([nH]6)c(-c6ccccc6)c6nc(c(-c7ccccc7)c7ccc4[nH]7)C=C6)C=C5)cc3)o2)CCC[NH2+]C1
REMARK SMILES IDX 14 1 13 2 11 3 12 4 10 5 7 6 8 7 67 8 9 9 6 10 5 11 3 12
REMARK SMILES IDX 4 13 2 15 1 16 68 17 72 18 69 19 71 20 70 21 15 24 16 25
REMARK SMILES IDX 17 26 18 27 19 28 20 29 66 30 21 31 65 32 22 33 23 34 24 35
REMARK SMILES IDX 59 36 25 37 64 38 58 39 60 40 26 41 63 42 57 43 56 44 27 46
REMARK SMILES IDX 49 47 34 48 48 49 35 50 38 51 47 52 61 53 36 54 37 55 46 57
REMARK SMILES IDX 62 58 39 59 28 60 29 61 33 62 30 63 32 64 31 65 50 66 51 67
REMARK SMILES IDX 55 68 52 69 54 70 53 71 40 72 41 73 45 74 42 75 44 76 43 77
REMARK H PARENT 5 14 71 22 71 23 60 45 38 56
REMARK Flexibility Score: inf
ROOT
ATOM      1  C   UNL A   1      33.610  34.112  28.105  1.00  0.00     0.275 C 
ENDROOT
BRANCH   1   2
ATOM      2  O   UNL A   1      32.656  34.793  28.940  1.00  0.00    -0.456 OA
BRANCH   2   3
ATOM      3  C   UNL A   1      33.062  35.995  29.449  1.00  0.00     0.374 C 
ATOM      4  O   UNL A   1      33.087  37.041  28.815  1.00  0.00    -0.242 OA
BRANCH   3   5
ATOM      5  C   UNL A   1      33.327  35.864  30.863  1.00  0.00     0.211 A 
ATOM      6  C   UNL A   1      33.781  34.667  32.663  1.00  0.00     0.124 A 
ATOM      7  C   UNL A   1      33.988  35.985  33.012  1.00  0.00     0.048 A 
ATOM      8  O   UNL A   1      33.298  34.601  31.392  1.00  0.00    -0.452 OA
ATOM      9  C   UNL A   1      33.710  36.753  31.851  1.00  0.00     0.058 A 
BRANCH   6  10
ATOM     10  C   UNL A   1      34.073  33.360  33.300  1.00  0.00     0.191 C 
BRANCH  10  11
ATOM     11  N   UNL A   1      35.120  33.487  34.279  1.00  0.00    -0.348 N 
ATOM     12  C   UNL A   1      36.459  33.313  34.280  1.00  0.00     0.232 C 
ATOM     13  O   UNL A   1      36.992  33.616  35.359  1.00  0.00    -0.274 OA
ATOM     14  H   UNL A   1      34.779  33.770  35.159  1.00  0.00     0.163 HD
BRANCH  12  15
ATOM     15  C   UNL A   1      37.297  32.635  33.169  1.00  0.00     0.095 C 
ATOM     16  C   UNL A   1      36.703  31.219  33.022  1.00  0.00     0.028 C 
ATOM     17  C   UNL A   1      37.385  33.259  31.766  1.00  0.00     0.028 C 
ATOM     18  C   UNL A   1      38.758  32.526  33.695  1.00  0.00     0.277 C 
ATOM     19  C   UNL A   1      38.127  34.593  31.778  1.00  0.00     0.063 C 
ATOM     20  N   UNL A   1      39.449  33.825  33.709  1.00  0.00    -0.345 N 
ATOM     21  C   UNL A   1      39.519  34.429  32.383  1.00  0.00     0.260 C 
ATOM     22  H   UNL A   1      38.945  34.458  34.332  1.00  0.00     0.346 HD
ATOM     23  H   UNL A   1      40.404  33.668  34.032  1.00  0.00     0.346 HD
ENDBRANCH  12  15
ENDBRANCH  10  11
ENDBRANCH   6  10
ENDBRANCH   3   5
ENDBRANCH   2   3
ENDBRANCH   1   2
BRANCH   1  24
ATOM     24  C   UNL A   1      33.816  32.659  28.552  1.00  0.00     0.275 C 
BRANCH  24  25
ATOM     25  O   UNL A   1      34.530  31.882  27.568  1.00  0.00    -0.458 OA
BRANCH  25  26
ATOM     26  C   UNL A   1      34.585  30.550  27.804  1.00  0.00     0.338 C 
ATOM     27  O   UNL A   1      33.704  29.732  27.595  1.00  0.00    -0.246 OA
BRANCH  26  28
ATOM     28  C   UNL A   1      35.935  30.172  28.260  1.00  0.00     0.060 A 
ATOM     29  C   UNL A   1      36.985  30.259  27.342  1.00  0.00     0.016 A 
ATOM     30  C   UNL A   1      36.166  29.673  29.544  1.00  0.00     0.016 A 
ATOM     31  C   UNL A   1      38.266  29.845  27.693  1.00  0.00     0.010 A 
ATOM     32  C   UNL A   1      37.453  29.251  29.897  1.00  0.00     0.010 A 
ATOM     33  C   UNL A   1      38.508  29.324  28.970  1.00  0.00    -0.014 A 
BRANCH  33  34
ATOM     34  C   UNL A   1      39.855  28.811  29.308  1.00  0.00     0.031 A 
ATOM     35  C   UNL A   1      40.787  29.647  30.137  1.00  0.00     0.074 A 
ATOM     36  C   UNL A   1      40.233  27.586  28.901  1.00  0.00     0.049 A 
ATOM     37  N   UNL A   1      42.016  29.390  30.509  1.00  0.00    -0.248 NA
ATOM     38  C   UNL A   1      40.268  30.938  30.614  1.00  0.00     0.031 C 
ATOM     39  C   UNL A   1      39.403  26.657  28.134  1.00  0.00     0.029 A 
ATOM     40  N   UNL A   1      41.414  26.913  29.082  1.00  0.00    -0.354 N 
ATOM     41  C   UNL A   1      42.422  30.491  31.252  1.00  0.00     0.074 A 
ATOM     42  C   UNL A   1      41.314  31.424  31.266  1.00  0.00     0.031 C 
ATOM     43  C   UNL A   1      40.102  25.531  27.912  1.00  0.00     0.029 A 
ATOM     44  C   UNL A   1      41.435  25.675  28.489  1.00  0.00     0.049 A 
ATOM     45  H   UNL A   1      42.173  27.282  29.588  1.00  0.00     0.167 HD
ATOM     46  C   UNL A   1      43.610  30.707  31.866  1.00  0.00     0.031 A 
ATOM     47  C   UNL A   1      42.426  24.767  28.404  1.00  0.00     0.031 A 
ATOM     48  C   UNL A   1      44.714  29.788  31.852  1.00  0.00     0.049 A 
ATOM     49  C   UNL A   1      43.757  25.059  29.037  1.00  0.00     0.074 A 
ATOM     50  C   UNL A   1      45.957  29.921  32.449  1.00  0.00     0.029 A 
ATOM     51  N   UNL A   1      44.711  28.563  31.204  1.00  0.00    -0.354 N 
ATOM     52  N   UNL A   1      44.127  26.106  29.734  1.00  0.00    -0.248 NA
ATOM     53  C   UNL A   1      44.806  24.043  28.870  1.00  0.00     0.031 C 
ATOM     54  C   UNL A   1      46.719  28.791  32.130  1.00  0.00     0.029 A 
ATOM     55  C   UNL A   1      45.936  27.939  31.370  1.00  0.00     0.049 A 
ATOM     56  H   UNL A   1      43.952  28.193  30.700  1.00  0.00     0.167 HD
ATOM     57  C   UNL A   1      45.445  25.867  30.103  1.00  0.00     0.074 A 
ATOM     58  C   UNL A   1      45.805  24.572  29.564  1.00  0.00     0.031 C 
ATOM     59  C   UNL A   1      46.280  26.651  30.826  1.00  0.00     0.031 A 
BRANCH  46  60
ATOM     60  C   UNL A   1      43.782  32.015  32.581  1.00  0.00    -0.014 A 
ATOM     61  C   UNL A   1      43.363  32.177  33.911  1.00  0.00     0.009 A 
ATOM     62  C   UNL A   1      44.392  33.092  31.921  1.00  0.00     0.009 A 
ATOM     63  C   UNL A   1      43.527  33.405  34.556  1.00  0.00     0.001 A 
ATOM     64  C   UNL A   1      44.573  34.311  32.576  1.00  0.00     0.001 A 
ATOM     65  C   UNL A   1      44.134  34.469  33.889  1.00  0.00     0.000 A 
ENDBRANCH  46  60
BRANCH  47  66
ATOM     66  C   UNL A   1      42.203  23.498  27.667  1.00  0.00    -0.014 A 
ATOM     67  C   UNL A   1      41.634  22.389  28.311  1.00  0.00     0.009 A 
ATOM     68  C   UNL A   1      42.563  23.391  26.315  1.00  0.00     0.009 A 
ATOM     69  C   UNL A   1      41.445  21.191  27.618  1.00  0.00     0.001 A 
ATOM     70  C   UNL A   1      42.352  22.200  25.620  1.00  0.00     0.001 A 
ATOM     71  C   UNL A   1      41.801  21.099  26.273  1.00  0.00     0.000 A 
ENDBRANCH  47  66
BRANCH  59  72
ATOM     72  C   UNL A   1      47.655  26.118  31.098  1.00  0.00    -0.014 A 
ATOM     73  C   UNL A   1      48.671  26.206  30.134  1.00  0.00     0.009 A 
ATOM     74  C   UNL A   1      47.949  25.556  32.351  1.00  0.00     0.009 A 
ATOM     75  C   UNL A   1      49.949  25.717  30.411  1.00  0.00     0.001 A 
ATOM     76  C   UNL A   1      49.232  25.086  32.631  1.00  0.00     0.001 A 
ATOM     77  C   UNL A   1      50.229  25.161  31.659  1.00  0.00     0.000 A 
ENDBRANCH  59  72
ENDBRANCH  33  34
ENDBRANCH  26  28
ENDBRANCH  25  26
ENDBRANCH  24  25
ENDBRANCH   1  24
TORSDOF 14
ENDMDL
