MODEL 1
REMARK VINA RESULT:     -12.3      0.000      0.000
REMARK SMILES CCOc1ccccc1[C@H]1CC(C(=O)OCCOC(=O)c2ccc(-c3c4nc(c(-c5ccccc5)c5ccc([nH]5)c(-c5ccccc5)c5nc(c(-c6ccccc6)c6ccc3[nH]6)C=C5)C=C4)cc2)=Nc2c(C(=O)Nc3ccccc3)cnn21
REMARK SMILES IDX 16 1 15 2 13 3 14 4 12 5 10 6 11 7 83 8 70 9 82 10 69 11
REMARK SMILES IDX 71 12 81 13 9 14 4 15 5 16 6 17 8 18 7 19 3 20 2 21 1 22
REMARK SMILES IDX 72 23 73 24 74 25 75 27 76 28 80 29 77 30 79 31 78 32 17 33
REMARK SMILES IDX 18 34 19 35 20 36 21 37 22 38 68 39 23 40 67 41 24 42 25 43
REMARK SMILES IDX 26 44 61 45 27 46 66 47 60 48 62 49 28 50 65 51 59 52 58 53
REMARK SMILES IDX 29 55 51 56 36 57 50 58 37 59 40 60 49 61 63 62 38 63 39 64
REMARK SMILES IDX 48 66 64 67 41 68 30 69 31 70 35 71 32 72 34 73 33 74 52 75
REMARK SMILES IDX 53 76 57 77 54 78 56 79 55 80 42 81 43 82 47 83 44 84 46 85
REMARK SMILES IDX 45 86
REMARK H PARENT 74 26 62 54 40 65
REMARK Flexibility Score: inf
ROOT
ATOM      1  C   UNL A   1      39.046  22.183  26.287  1.00  0.00     0.275 C 
ENDROOT
BRANCH   1   2
ATOM      2  O   UNL A   1      37.601  22.201  26.410  1.00  0.00    -0.458 OA
BRANCH   2   3
ATOM      3  C   UNL A   1      36.946  23.222  25.789  1.00  0.00     0.352 C 
ATOM      4  O   UNL A   1      37.446  24.162  25.202  1.00  0.00    -0.245 OA
BRANCH   3   5
ATOM      5  C   UNL A   1      35.414  23.023  25.922  1.00  0.00     0.130 C 
ATOM      6  C   UNL A   1      33.494  21.199  25.661  1.00  0.00     0.150 C 
ATOM      7  C   UNL A   1      34.941  21.677  25.425  1.00  0.00     0.096 C 
ATOM      8  N   UNL A   1      32.650  22.228  26.229  1.00  0.00    -0.239 N 
ATOM      9  C   UNL A   1      33.342  23.936  26.255  1.00  0.00     0.164 A 
ATOM     10  N   UNL A   1      30.787  22.281  26.300  1.00  0.00    -0.178 NA
ATOM     11  N   UNL A   1      34.696  24.035  26.324  1.00  0.00    -0.225 NA
ATOM     12  C   UNL A   1      31.947  25.062  26.228  1.00  0.00     0.104 A 
ATOM     13  C   UNL A   1      30.339  23.954  26.312  1.00  0.00     0.151 A 
BRANCH   6  14
ATOM     14  C   UNL A   1      32.960  20.708  24.339  1.00  0.00     0.019 A 
ATOM     15  C   UNL A   1      32.755  19.359  24.057  1.00  0.00     0.124 A 
ATOM     16  C   UNL A   1      32.218  18.987  22.818  1.00  0.00     0.047 A 
ATOM     17  C   UNL A   1      31.835  19.949  21.880  1.00  0.00     0.004 A 
ATOM     18  C   UNL A   1      32.594  21.671  23.370  1.00  0.00     0.010 A 
ATOM     19  C   UNL A   1      32.017  21.297  22.161  1.00  0.00     0.001 A 
BRANCH  15  20
ATOM     20  O   UNL A   1      33.107  18.318  24.867  1.00  0.00    -0.494 OA
BRANCH  20  21
ATOM     21  C   UNL A   1      33.167  16.840  24.327  1.00  0.00     0.226 C 
ATOM     22  C   UNL A   1      32.704  14.915  25.439  1.00  0.00     0.049 C 
ENDBRANCH  20  21
ENDBRANCH  15  20
ENDBRANCH   6  14
BRANCH  12  23
ATOM     23  C   UNL A   1      31.813  26.529  26.255  1.00  0.00     0.261 C 
ATOM     24  O   UNL A   1      31.434  27.083  27.286  1.00  0.00    -0.269 OA
ATOM     25  N   UNL A   1      32.162  27.324  25.188  1.00  0.00    -0.322 N 
ATOM     26  H   UNL A   1      32.300  28.279  25.388  1.00  0.00     0.170 HD
BRANCH  25  27
ATOM     27  C   UNL A   1      32.345  26.946  23.867  1.00  0.00     0.041 A 
ATOM     28  C   UNL A   1      33.574  26.400  23.492  1.00  0.00     0.026 A 
ATOM     29  C   UNL A   1      31.298  27.031  22.965  1.00  0.00     0.026 A 
ATOM     30  C   UNL A   1      33.697  25.776  22.261  1.00  0.00     0.002 A 
ATOM     31  C   UNL A   1      31.398  26.335  21.779  1.00  0.00     0.002 A 
ATOM     32  C   UNL A   1      32.598  25.725  21.425  1.00  0.00     0.000 A 
ENDBRANCH  25  27
ENDBRANCH  12  23
ENDBRANCH   3   5
ENDBRANCH   2   3
ENDBRANCH   1   2
BRANCH   1  33
ATOM     33  C   UNL A   1      39.564  20.865  25.675  1.00  0.00     0.275 C 
BRANCH  33  34
ATOM     34  O   UNL A   1      40.526  20.184  26.500  1.00  0.00    -0.458 OA
BRANCH  34  35
ATOM     35  C   UNL A   1      41.801  20.263  26.056  1.00  0.00     0.338 C 
ATOM     36  O   UNL A   1      42.303  19.593  25.167  1.00  0.00    -0.246 OA
BRANCH  35  37
ATOM     37  C   UNL A   1      42.571  21.297  26.764  1.00  0.00     0.060 A 
ATOM     38  C   UNL A   1      42.550  21.251  28.167  1.00  0.00     0.016 A 
ATOM     39  C   UNL A   1      43.079  22.400  26.079  1.00  0.00     0.016 A 
ATOM     40  C   UNL A   1      42.746  22.399  28.878  1.00  0.00     0.010 A 
ATOM     41  C   UNL A   1      43.340  23.540  26.803  1.00  0.00     0.010 A 
ATOM     42  C   UNL A   1      42.982  23.553  28.149  1.00  0.00    -0.014 A 
BRANCH  42  43
ATOM     43  C   UNL A   1      42.863  24.806  28.853  1.00  0.00     0.031 A 
ATOM     44  C   UNL A   1      41.715  25.583  28.333  1.00  0.00     0.074 A 
ATOM     45  C   UNL A   1      43.733  25.093  29.845  1.00  0.00     0.049 A 
ATOM     46  N   UNL A   1      41.756  26.686  27.664  1.00  0.00    -0.248 NA
ATOM     47  C   UNL A   1      40.398  24.916  28.300  1.00  0.00     0.031 C 
ATOM     48  C   UNL A   1      44.797  24.258  30.425  1.00  0.00     0.029 A 
ATOM     49  N   UNL A   1      43.764  26.183  30.651  1.00  0.00    -0.354 N 
ATOM     50  C   UNL A   1      40.430  26.978  27.363  1.00  0.00     0.074 A 
ATOM     51  C   UNL A   1      39.694  25.758  27.545  1.00  0.00     0.031 C 
ATOM     52  C   UNL A   1      45.142  24.742  31.643  1.00  0.00     0.029 A 
ATOM     53  C   UNL A   1      44.436  25.989  31.861  1.00  0.00     0.049 A 
ATOM     54  H   UNL A   1      43.348  27.040  30.405  1.00  0.00     0.167 HD
ATOM     55  C   UNL A   1      39.995  28.267  27.365  1.00  0.00     0.031 A 
ATOM     56  C   UNL A   1      44.263  26.762  32.968  1.00  0.00     0.031 A 
ATOM     57  C   UNL A   1      41.097  29.181  27.207  1.00  0.00     0.049 A 
ATOM     58  C   UNL A   1      43.675  28.049  32.486  1.00  0.00     0.074 A 
ATOM     59  C   UNL A   1      42.032  29.394  26.214  1.00  0.00     0.029 A 
ATOM     60  N   UNL A   1      41.633  29.702  28.362  1.00  0.00    -0.354 N 
ATOM     61  N   UNL A   1      44.340  28.861  31.706  1.00  0.00    -0.248 NA
ATOM     62  C   UNL A   1      42.221  28.105  32.362  1.00  0.00     0.031 C 
ATOM     63  C   UNL A   1      43.262  29.577  26.909  1.00  0.00     0.029 A 
ATOM     64  C   UNL A   1      42.999  29.602  28.280  1.00  0.00     0.049 A 
ATOM     65  H   UNL A   1      41.125  30.078  29.117  1.00  0.00     0.167 HD
ATOM     66  C   UNL A   1      43.442  29.198  30.701  1.00  0.00     0.074 A 
ATOM     67  C   UNL A   1      42.139  28.718  31.174  1.00  0.00     0.031 C 
ATOM     68  C   UNL A   1      43.861  29.517  29.439  1.00  0.00     0.031 A 
BRANCH  55  69
ATOM     69  C   UNL A   1      38.703  28.671  28.037  1.00  0.00    -0.014 A 
ATOM     70  C   UNL A   1      37.880  29.604  27.388  1.00  0.00     0.009 A 
ATOM     71  C   UNL A   1      38.415  28.410  29.393  1.00  0.00     0.009 A 
ATOM     72  C   UNL A   1      36.881  30.298  28.082  1.00  0.00     0.001 A 
ATOM     73  C   UNL A   1      37.398  29.075  30.080  1.00  0.00     0.001 A 
ATOM     74  C   UNL A   1      36.648  30.041  29.430  1.00  0.00     0.000 A 
ENDBRANCH  55  69
BRANCH  56  75
ATOM     75  C   UNL A   1      44.110  26.277  34.368  1.00  0.00    -0.014 A 
ATOM     76  C   UNL A   1      42.888  25.790  34.864  1.00  0.00     0.009 A 
ATOM     77  C   UNL A   1      45.255  26.054  35.158  1.00  0.00     0.009 A 
ATOM     78  C   UNL A   1      42.826  25.101  36.090  1.00  0.00     0.001 A 
ATOM     79  C   UNL A   1      45.195  25.365  36.375  1.00  0.00     0.001 A 
ATOM     80  C   UNL A   1      43.980  24.879  36.838  1.00  0.00     0.000 A 
ENDBRANCH  56  75
BRANCH  68  81
ATOM     81  C   UNL A   1      45.345  29.631  29.172  1.00  0.00    -0.014 A 
ATOM     82  C   UNL A   1      46.176  28.556  28.800  1.00  0.00     0.009 A 
ATOM     83  C   UNL A   1      45.878  30.925  29.114  1.00  0.00     0.009 A 
ATOM     84  C   UNL A   1      47.507  28.778  28.415  1.00  0.00     0.001 A 
ATOM     85  C   UNL A   1      47.195  31.148  28.712  1.00  0.00     0.001 A 
ATOM     86  C   UNL A   1      48.014  30.075  28.372  1.00  0.00     0.000 A 
ENDBRANCH  68  81
ENDBRANCH  42  43
ENDBRANCH  35  37
ENDBRANCH  34  35
ENDBRANCH  33  34
ENDBRANCH   1  33
TORSDOF 16
ENDMDL
MODEL 2
REMARK VINA RESULT:     -12.3      3.715      8.902
REMARK SMILES CCOc1ccccc1[C@H]1CC(C(=O)OCCOC(=O)c2ccc(-c3c4nc(c(-c5ccccc5)c5ccc([nH]5)c(-c5ccccc5)c5nc(c(-c6ccccc6)c6ccc3[nH]6)C=C5)C=C4)cc2)=Nc2c(C(=O)Nc3ccccc3)cnn21
REMARK SMILES IDX 16 1 15 2 13 3 14 4 12 5 10 6 11 7 83 8 70 9 82 10 69 11
REMARK SMILES IDX 71 12 81 13 9 14 4 15 5 16 6 17 8 18 7 19 3 20 2 21 1 22
REMARK SMILES IDX 72 23 73 24 74 25 75 27 76 28 80 29 77 30 79 31 78 32 17 33
REMARK SMILES IDX 18 34 19 35 20 36 21 37 22 38 68 39 23 40 67 41 24 42 25 43
REMARK SMILES IDX 26 44 61 45 27 46 66 47 60 48 62 49 28 50 65 51 59 52 58 53
REMARK SMILES IDX 29 55 51 56 36 57 50 58 37 59 40 60 49 61 63 62 38 63 39 64
REMARK SMILES IDX 48 66 64 67 41 68 30 69 31 70 35 71 32 72 34 73 33 74 52 75
REMARK SMILES IDX 53 76 57 77 54 78 56 79 55 80 42 81 43 82 47 83 44 84 46 85
REMARK SMILES IDX 45 86
REMARK H PARENT 74 26 62 54 40 65
REMARK Flexibility Score: inf
ROOT
ATOM      1  C   UNL A   1      31.699  31.473  26.386  1.00  0.00     0.275 C 
ENDROOT
BRANCH   1   2
ATOM      2  O   UNL A   1      32.156  30.302  27.109  1.00  0.00    -0.458 OA
BRANCH   2   3
ATOM      3  C   UNL A   1      33.193  29.608  26.559  1.00  0.00     0.352 C 
ATOM      4  O   UNL A   1      34.380  29.820  26.719  1.00  0.00    -0.245 OA
BRANCH   3   5
ATOM      5  C   UNL A   1      32.648  28.460  25.673  1.00  0.00     0.130 C 
ATOM      6  C   UNL A   1      31.172  27.985  23.509  1.00  0.00     0.150 C 
ATOM      7  C   UNL A   1      31.668  28.930  24.623  1.00  0.00     0.096 C 
ATOM      8  N   UNL A   1      31.605  26.618  23.701  1.00  0.00    -0.239 N 
ATOM      9  C   UNL A   1      32.353  26.215  25.336  1.00  0.00     0.164 A 
ATOM     10  N   UNL A   1      30.939  25.074  22.894  1.00  0.00    -0.178 NA
ATOM     11  N   UNL A   1      32.980  27.236  25.978  1.00  0.00    -0.225 NA
ATOM     12  C   UNL A   1      32.069  24.468  25.621  1.00  0.00     0.104 A 
ATOM     13  C   UNL A   1      31.210  23.775  24.008  1.00  0.00     0.151 A 
BRANCH   6  14
ATOM     14  C   UNL A   1      29.669  28.092  23.464  1.00  0.00     0.019 A 
ATOM     15  C   UNL A   1      29.001  29.162  22.873  1.00  0.00     0.124 A 
ATOM     16  C   UNL A   1      27.601  29.167  22.837  1.00  0.00     0.047 A 
ATOM     17  C   UNL A   1      26.863  28.091  23.336  1.00  0.00     0.004 A 
ATOM     18  C   UNL A   1      28.910  27.021  23.991  1.00  0.00     0.010 A 
ATOM     19  C   UNL A   1      27.521  27.011  23.908  1.00  0.00     0.001 A 
BRANCH  15  20
ATOM     20  O   UNL A   1      29.593  30.286  22.373  1.00  0.00    -0.494 OA
BRANCH  20  21
ATOM     21  C   UNL A   1      28.781  31.618  22.156  1.00  0.00     0.226 C 
ATOM     22  C   UNL A   1      29.063  33.623  23.183  1.00  0.00     0.049 C 
ENDBRANCH  20  21
ENDBRANCH  15  20
ENDBRANCH   6  14
BRANCH  12  23
ATOM     23  C   UNL A   1      32.426  23.535  26.704  1.00  0.00     0.261 C 
ATOM     24  O   UNL A   1      31.671  23.409  27.668  1.00  0.00    -0.269 OA
ATOM     25  N   UNL A   1      33.545  22.736  26.655  1.00  0.00    -0.322 N 
ATOM     26  H   UNL A   1      33.554  21.967  27.270  1.00  0.00     0.170 HD
BRANCH  25  27
ATOM     27  C   UNL A   1      34.660  22.881  25.844  1.00  0.00     0.041 A 
ATOM     28  C   UNL A   1      35.705  23.695  26.284  1.00  0.00     0.026 A 
ATOM     29  C   UNL A   1      34.764  22.162  24.665  1.00  0.00     0.026 A 
ATOM     30  C   UNL A   1      36.928  23.651  25.632  1.00  0.00     0.002 A 
ATOM     31  C   UNL A   1      36.004  22.055  24.071  1.00  0.00     0.002 A 
ATOM     32  C   UNL A   1      37.074  22.810  24.546  1.00  0.00     0.000 A 
ENDBRANCH  25  27
ENDBRANCH  12  23
ENDBRANCH   3   5
ENDBRANCH   2   3
ENDBRANCH   1   2
BRANCH   1  33
ATOM     33  C   UNL A   1      31.966  32.780  27.161  1.00  0.00     0.275 C 
BRANCH  33  34
ATOM     34  O   UNL A   1      33.233  32.797  27.842  1.00  0.00    -0.458 OA
BRANCH  34  35
ATOM     35  C   UNL A   1      33.369  33.792  28.747  1.00  0.00     0.338 C 
ATOM     36  O   UNL A   1      32.511  34.596  29.079  1.00  0.00    -0.246 OA
BRANCH  35  37
ATOM     37  C   UNL A   1      34.712  33.816  29.348  1.00  0.00     0.060 A 
ATOM     38  C   UNL A   1      35.749  34.331  28.555  1.00  0.00     0.016 A 
ATOM     39  C   UNL A   1      34.973  33.133  30.535  1.00  0.00     0.016 A 
ATOM     40  C   UNL A   1      37.030  33.914  28.773  1.00  0.00     0.010 A 
ATOM     41  C   UNL A   1      36.274  32.768  30.792  1.00  0.00     0.010 A 
ATOM     42  C   UNL A   1      37.226  33.009  29.804  1.00  0.00    -0.014 A 
BRANCH  42  43
ATOM     43  C   UNL A   1      38.491  32.318  29.835  1.00  0.00     0.031 A 
ATOM     44  C   UNL A   1      38.313  30.897  29.462  1.00  0.00     0.074 A 
ATOM     45  C   UNL A   1      39.610  33.003  30.155  1.00  0.00     0.049 A 
ATOM     46  N   UNL A   1      38.447  29.865  30.226  1.00  0.00    -0.248 NA
ATOM     47  C   UNL A   1      37.631  30.606  28.184  1.00  0.00     0.031 C 
ATOM     48  C   UNL A   1      39.785  34.441  30.411  1.00  0.00     0.029 A 
ATOM     49  N   UNL A   1      40.890  32.555  30.197  1.00  0.00    -0.354 N 
ATOM     50  C   UNL A   1      38.119  28.776  29.425  1.00  0.00     0.074 A 
ATOM     51  C   UNL A   1      37.396  29.301  28.301  1.00  0.00     0.031 C 
ATOM     52  C   UNL A   1      41.093  34.771  30.280  1.00  0.00     0.029 A 
ATOM     53  C   UNL A   1      41.857  33.557  30.076  1.00  0.00     0.049 A 
ATOM     54  H   UNL A   1      41.119  31.604  30.303  1.00  0.00     0.167 HD
ATOM     55  C   UNL A   1      38.793  27.601  29.557  1.00  0.00     0.031 A 
ATOM     56  C   UNL A   1      43.145  33.338  29.693  1.00  0.00     0.031 A 
ATOM     57  C   UNL A   1      39.427  27.516  30.848  1.00  0.00     0.049 A 
ATOM     58  C   UNL A   1      43.408  31.888  29.936  1.00  0.00     0.074 A 
ATOM     59  C   UNL A   1      38.961  27.508  32.147  1.00  0.00     0.029 A 
ATOM     60  N   UNL A   1      40.746  27.904  30.911  1.00  0.00    -0.354 N 
ATOM     61  N   UNL A   1      43.408  31.379  31.140  1.00  0.00    -0.248 NA
ATOM     62  C   UNL A   1      43.055  30.964  28.862  1.00  0.00     0.031 C 
ATOM     63  C   UNL A   1      39.859  28.357  32.858  1.00  0.00     0.029 A 
ATOM     64  C   UNL A   1      40.895  28.727  31.999  1.00  0.00     0.049 A 
ATOM     65  H   UNL A   1      41.457  27.640  30.284  1.00  0.00     0.167 HD
ATOM     66  C   UNL A   1      42.641  30.225  31.036  1.00  0.00     0.074 A 
ATOM     67  C   UNL A   1      42.469  30.009  29.595  1.00  0.00     0.031 C 
ATOM     68  C   UNL A   1      41.924  29.740  32.094  1.00  0.00     0.031 A 
BRANCH  55  69
ATOM     69  C   UNL A   1      39.300  26.835  28.358  1.00  0.00    -0.014 A 
ATOM     70  C   UNL A   1      39.210  25.434  28.379  1.00  0.00     0.009 A 
ATOM     71  C   UNL A   1      40.123  27.400  27.362  1.00  0.00     0.009 A 
ATOM     72  C   UNL A   1      39.969  24.646  27.504  1.00  0.00     0.001 A 
ATOM     73  C   UNL A   1      40.855  26.618  26.467  1.00  0.00     0.001 A 
ATOM     74  C   UNL A   1      40.799  25.238  26.558  1.00  0.00     0.000 A 
ENDBRANCH  55  69
BRANCH  56  75
ATOM     75  C   UNL A   1      43.925  34.150  28.718  1.00  0.00    -0.014 A 
ATOM     76  C   UNL A   1      45.284  33.901  28.451  1.00  0.00     0.009 A 
ATOM     77  C   UNL A   1      43.253  35.028  27.845  1.00  0.00     0.009 A 
ATOM     78  C   UNL A   1      45.928  34.499  27.351  1.00  0.00     0.001 A 
ATOM     79  C   UNL A   1      43.892  35.619  26.750  1.00  0.00     0.001 A 
ATOM     80  C   UNL A   1      45.230  35.348  26.496  1.00  0.00     0.000 A 
ENDBRANCH  56  75
BRANCH  68  81
ATOM     81  C   UNL A   1      42.077  30.404  33.444  1.00  0.00    -0.014 A 
ATOM     82  C   UNL A   1      41.322  31.511  33.881  1.00  0.00     0.009 A 
ATOM     83  C   UNL A   1      42.895  29.756  34.377  1.00  0.00     0.009 A 
ATOM     84  C   UNL A   1      41.416  31.964  35.206  1.00  0.00     0.001 A 
ATOM     85  C   UNL A   1      42.974  30.194  35.699  1.00  0.00     0.001 A 
ATOM     86  C   UNL A   1      42.242  31.303  36.113  1.00  0.00     0.000 A 
ENDBRANCH  68  81
ENDBRANCH  42  43
ENDBRANCH  35  37
ENDBRANCH  34  35
ENDBRANCH  33  34
ENDBRANCH   1  33
TORSDOF 16
ENDMDL
MODEL 3
REMARK VINA RESULT:     -11.6      2.747      7.798
REMARK SMILES CCOc1ccccc1[C@H]1CC(C(=O)OCCOC(=O)c2ccc(-c3c4nc(c(-c5ccccc5)c5ccc([nH]5)c(-c5ccccc5)c5nc(c(-c6ccccc6)c6ccc3[nH]6)C=C5)C=C4)cc2)=Nc2c(C(=O)Nc3ccccc3)cnn21
REMARK SMILES IDX 16 1 15 2 13 3 14 4 12 5 10 6 11 7 83 8 70 9 82 10 69 11
REMARK SMILES IDX 71 12 81 13 9 14 4 15 5 16 6 17 8 18 7 19 3 20 2 21 1 22
REMARK SMILES IDX 72 23 73 24 74 25 75 27 76 28 80 29 77 30 79 31 78 32 17 33
REMARK SMILES IDX 18 34 19 35 20 36 21 37 22 38 68 39 23 40 67 41 24 42 25 43
REMARK SMILES IDX 26 44 61 45 27 46 66 47 60 48 62 49 28 50 65 51 59 52 58 53
REMARK SMILES IDX 29 55 51 56 36 57 50 58 37 59 40 60 49 61 63 62 38 63 39 64
REMARK SMILES IDX 48 66 64 67 41 68 30 69 31 70 35 71 32 72 34 73 33 74 52 75
REMARK SMILES IDX 53 76 57 77 54 78 56 79 55 80 42 81 43 82 47 83 44 84 46 85
REMARK SMILES IDX 45 86
REMARK H PARENT 74 26 62 54 40 65
REMARK Flexibility Score: inf
ROOT
ATOM      1  C   UNL A   1      32.926  30.921  27.316  1.00  0.00     0.275 C 
ENDROOT
BRANCH   1   2
ATOM      2  O   UNL A   1      32.872  29.472  27.324  1.00  0.00    -0.458 OA
BRANCH   2   3
ATOM      3  C   UNL A   1      33.884  28.817  26.687  1.00  0.00     0.352 C 
ATOM      4  O   UNL A   1      35.071  29.070  26.749  1.00  0.00    -0.245 OA
BRANCH   3   5
ATOM      5  C   UNL A   1      33.307  27.654  25.840  1.00  0.00     0.130 C 
ATOM      6  C   UNL A   1      31.802  27.143  23.705  1.00  0.00     0.150 C 
ATOM      7  C   UNL A   1      32.327  28.112  24.785  1.00  0.00     0.096 C 
ATOM      8  N   UNL A   1      32.210  25.774  23.935  1.00  0.00    -0.239 N 
ATOM      9  C   UNL A   1      32.965  25.406  25.575  1.00  0.00     0.164 A 
ATOM     10  N   UNL A   1      31.506  24.220  23.181  1.00  0.00    -0.178 NA
ATOM     11  N   UNL A   1      33.618  26.434  26.180  1.00  0.00    -0.225 NA
ATOM     12  C   UNL A   1      32.650  23.674  25.916  1.00  0.00     0.104 A 
ATOM     13  C   UNL A   1      31.762  22.951  24.332  1.00  0.00     0.151 A 
BRANCH   6  14
ATOM     14  C   UNL A   1      30.301  27.278  23.670  1.00  0.00     0.019 A 
ATOM     15  C   UNL A   1      29.641  28.208  22.869  1.00  0.00     0.124 A 
ATOM     16  C   UNL A   1      28.241  28.244  22.864  1.00  0.00     0.047 A 
ATOM     17  C   UNL A   1      27.494  27.327  23.606  1.00  0.00     0.004 A 
ATOM     18  C   UNL A   1      29.533  26.374  24.439  1.00  0.00     0.010 A 
ATOM     19  C   UNL A   1      28.143  26.384  24.392  1.00  0.00     0.001 A 
BRANCH  15  20
ATOM     20  O   UNL A   1      30.244  29.176  22.118  1.00  0.00    -0.494 OA
BRANCH  20  21
ATOM     21  C   UNL A   1      29.464  30.463  21.654  1.00  0.00     0.226 C 
ATOM     22  C   UNL A   1      28.226  31.891  22.912  1.00  0.00     0.049 C 
ENDBRANCH  20  21
ENDBRANCH  15  20
ENDBRANCH   6  14
BRANCH  12  23
ATOM     23  C   UNL A   1      32.998  22.768  27.023  1.00  0.00     0.261 C 
ATOM     24  O   UNL A   1      32.218  22.636  27.966  1.00  0.00    -0.269 OA
ATOM     25  N   UNL A   1      34.139  21.999  27.021  1.00  0.00    -0.322 N 
ATOM     26  H   UNL A   1      34.151  21.241  27.648  1.00  0.00     0.170 HD
BRANCH  25  27
ATOM     27  C   UNL A   1      35.275  22.163  26.242  1.00  0.00     0.041 A 
ATOM     28  C   UNL A   1      35.680  21.107  25.423  1.00  0.00     0.026 A 
ATOM     29  C   UNL A   1      35.936  23.379  26.218  1.00  0.00     0.026 A 
ATOM     30  C   UNL A   1      36.641  21.329  24.448  1.00  0.00     0.002 A 
ATOM     31  C   UNL A   1      36.827  23.619  25.193  1.00  0.00     0.002 A 
ATOM     32  C   UNL A   1      37.187  22.592  24.324  1.00  0.00     0.000 A 
ENDBRANCH  25  27
ENDBRANCH  12  23
ENDBRANCH   3   5
ENDBRANCH   2   3
ENDBRANCH   1   2
BRANCH   1  33
ATOM     33  C   UNL A   1      34.369  31.453  27.435  1.00  0.00     0.275 C 
BRANCH  33  34
ATOM     34  O   UNL A   1      34.830  31.571  28.792  1.00  0.00    -0.458 OA
BRANCH  34  35
ATOM     35  C   UNL A   1      36.061  32.116  28.920  1.00  0.00     0.338 C 
ATOM     36  O   UNL A   1      36.436  33.182  28.457  1.00  0.00    -0.246 OA
BRANCH  35  37
ATOM     37  C   UNL A   1      36.958  31.274  29.728  1.00  0.00     0.060 A 
ATOM     38  C   UNL A   1      38.169  31.854  30.137  1.00  0.00     0.016 A 
ATOM     39  C   UNL A   1      36.724  29.906  29.860  1.00  0.00     0.016 A 
ATOM     40  C   UNL A   1      39.245  31.052  30.388  1.00  0.00     0.010 A 
ATOM     41  C   UNL A   1      37.792  29.101  30.177  1.00  0.00     0.010 A 
ATOM     42  C   UNL A   1      39.054  29.687  30.243  1.00  0.00    -0.014 A 
BRANCH  42  43
ATOM     43  C   UNL A   1      40.236  28.865  30.181  1.00  0.00     0.031 A 
ATOM     44  C   UNL A   1      40.857  28.751  31.520  1.00  0.00     0.074 A 
ATOM     45  C   UNL A   1      40.600  28.318  29.001  1.00  0.00     0.049 A 
ATOM     46  N   UNL A   1      41.986  29.244  31.904  1.00  0.00    -0.248 NA
ATOM     47  C   UNL A   1      40.001  28.289  32.632  1.00  0.00     0.031 C 
ATOM     48  C   UNL A   1      39.908  28.349  27.703  1.00  0.00     0.029 A 
ATOM     49  N   UNL A   1      41.641  27.487  28.741  1.00  0.00    -0.354 N 
ATOM     50  C   UNL A   1      42.089  28.910  33.250  1.00  0.00     0.074 A 
ATOM     51  C   UNL A   1      40.764  28.568  33.687  1.00  0.00     0.031 C 
ATOM     52  C   UNL A   1      40.376  27.352  26.913  1.00  0.00     0.029 A 
ATOM     53  C   UNL A   1      41.489  26.714  27.587  1.00  0.00     0.049 A 
ATOM     54  H   UNL A   1      42.437  27.433  29.317  1.00  0.00     0.167 HD
ATOM     55  C   UNL A   1      43.296  28.578  33.783  1.00  0.00     0.031 A 
ATOM     56  C   UNL A   1      42.170  25.561  27.341  1.00  0.00     0.031 A 
ATOM     57  C   UNL A   1      44.373  29.091  32.975  1.00  0.00     0.049 A 
ATOM     58  C   UNL A   1      43.376  25.597  28.222  1.00  0.00     0.074 A 
ATOM     59  C   UNL A   1      44.775  30.359  32.606  1.00  0.00     0.029 A 
ATOM     60  N   UNL A   1      44.909  28.228  32.048  1.00  0.00    -0.354 N 
ATOM     61  N   UNL A   1      44.318  26.490  28.067  1.00  0.00    -0.248 NA
ATOM     62  C   UNL A   1      43.218  25.076  29.577  1.00  0.00     0.031 C 
ATOM     63  C   UNL A   1      45.105  30.244  31.224  1.00  0.00     0.029 A 
ATOM     64  C   UNL A   1      45.021  28.900  30.857  1.00  0.00     0.049 A 
ATOM     65  H   UNL A   1      45.165  27.291  32.209  1.00  0.00     0.167 HD
ATOM     66  C   UNL A   1      44.566  26.967  29.348  1.00  0.00     0.074 A 
ATOM     67  C   UNL A   1      43.871  26.037  30.245  1.00  0.00     0.031 C 
ATOM     68  C   UNL A   1      45.008  28.242  29.568  1.00  0.00     0.031 A 
BRANCH  55  69
ATOM     69  C   UNL A   1      43.465  27.376  34.682  1.00  0.00    -0.014 A 
ATOM     70  C   UNL A   1      44.104  27.555  35.919  1.00  0.00     0.009 A 
ATOM     71  C   UNL A   1      43.302  26.045  34.244  1.00  0.00     0.009 A 
ATOM     72  C   UNL A   1      44.623  26.468  36.633  1.00  0.00     0.001 A 
ATOM     73  C   UNL A   1      43.788  24.956  34.969  1.00  0.00     0.001 A 
ATOM     74  C   UNL A   1      44.475  25.170  36.151  1.00  0.00     0.000 A 
ENDBRANCH  55  69
BRANCH  56  75
ATOM     75  C   UNL A   1      41.597  24.296  26.804  1.00  0.00    -0.014 A 
ATOM     76  C   UNL A   1      42.374  23.360  26.097  1.00  0.00     0.009 A 
ATOM     77  C   UNL A   1      40.315  23.880  27.214  1.00  0.00     0.009 A 
ATOM     78  C   UNL A   1      41.886  22.067  25.828  1.00  0.00     0.001 A 
ATOM     79  C   UNL A   1      39.831  22.594  26.951  1.00  0.00     0.001 A 
ATOM     80  C   UNL A   1      40.621  21.682  26.265  1.00  0.00     0.000 A 
ENDBRANCH  56  75
BRANCH  68  81
ATOM     81  C   UNL A   1      45.359  29.106  28.378  1.00  0.00    -0.014 A 
ATOM     82  C   UNL A   1      44.467  29.995  27.744  1.00  0.00     0.009 A 
ATOM     83  C   UNL A   1      46.708  29.154  28.008  1.00  0.00     0.009 A 
ATOM     84  C   UNL A   1      44.919  30.876  26.750  1.00  0.00     0.001 A 
ATOM     85  C   UNL A   1      47.162  30.044  27.034  1.00  0.00     0.001 A 
ATOM     86  C   UNL A   1      46.267  30.898  26.397  1.00  0.00     0.000 A 
ENDBRANCH  68  81
ENDBRANCH  42  43
ENDBRANCH  35  37
ENDBRANCH  34  35
ENDBRANCH  33  34
ENDBRANCH   1  33
TORSDOF 16
ENDMDL
