MODEL 1
REMARK VINA RESULT:     -11.3      0.000      0.000
REMARK SMILES O=C(Cn1c(=O)n(Cc2cccnc2)c(=O)c2sccc21)OCCOC(=O)c1ccc(-c2c3nc(c(-c4ccccc4)c4ccc([nH]4)c(-c4ccccc4)c4nc(c(-c5ccccc5)c5ccc2[nH]5)C=C4)C=C3)cc1
REMARK SMILES IDX 23 1 22 2 2 3 1 4 3 5 4 6 5 7 21 8 6 9 7 10 17 11 20 12
REMARK SMILES IDX 15 13 18 14 19 15 16 16 8 17 9 18 10 19 14 20 11 21 13 22
REMARK SMILES IDX 12 23 24 24 25 25 26 26 27 27 28 28 29 29 75 30 30 31 74 32
REMARK SMILES IDX 31 33 32 34 33 35 68 36 34 37 73 38 67 39 69 40 35 41 72 42
REMARK SMILES IDX 66 43 65 44 36 46 58 47 43 48 57 49 44 50 47 51 56 52 70 53
REMARK SMILES IDX 45 54 46 55 55 57 71 58 48 59 37 60 38 61 42 62 39 63 41 64
REMARK SMILES IDX 40 65 59 66 60 67 64 68 61 69 63 70 62 71 49 72 50 73 54 74
REMARK SMILES IDX 51 75 53 76 52 77
REMARK H PARENT 69 45 47 56
REMARK Flexibility Score: inf
ROOT
ATOM      1  C   UNL A   1      38.541  33.736  34.376  1.00  0.00     0.274 C 
ENDROOT
BRANCH   1   2
ATOM      2  O   UNL A   1      37.368  33.154  33.764  1.00  0.00    -0.461 OA
BRANCH   2   3
ATOM      3  C   UNL A   1      36.196  33.769  33.477  1.00  0.00     0.326 C 
ATOM      4  O   UNL A   1      35.991  34.909  33.899  1.00  0.00    -0.250 OA
BRANCH   3   5
ATOM      5  C   UNL A   1      35.117  33.065  32.661  1.00  0.00     0.250 C 
BRANCH   5   6
ATOM      6  N   UNL A   1      34.878  33.392  31.255  1.00  0.00    -0.281 N 
ATOM      7  C   UNL A   1      35.400  32.494  30.303  1.00  0.00     0.332 A 
ATOM      8  C   UNL A   1      34.100  34.474  30.837  1.00  0.00     0.070 A 
ATOM      9  O   UNL A   1      36.033  31.492  30.650  1.00  0.00    -0.247 OA
ATOM     10  N   UNL A   1      35.202  32.801  28.954  1.00  0.00    -0.254 N 
ATOM     11  C   UNL A   1      34.069  34.800  29.508  1.00  0.00     0.116 A 
ATOM     12  C   UNL A   1      33.307  35.380  31.602  1.00  0.00     0.039 A 
ATOM     13  C   UNL A   1      34.714  34.025  28.490  1.00  0.00     0.274 A 
ATOM     14  S   UNL A   1      33.205  36.222  29.183  1.00  0.00    -0.136 S 
ATOM     15  C   UNL A   1      32.796  36.403  30.832  1.00  0.00     0.068 A 
ATOM     16  O   UNL A   1      34.838  34.389  27.322  1.00  0.00    -0.268 OA
BRANCH  10  17
ATOM     17  C   UNL A   1      35.632  31.833  27.945  1.00  0.00     0.168 C 
BRANCH  17  18
ATOM     18  C   UNL A   1      34.563  30.810  27.629  1.00  0.00    -0.010 A 
ATOM     19  C   UNL A   1      34.849  29.443  27.554  1.00  0.00     0.009 A 
ATOM     20  C   UNL A   1      33.245  31.190  27.376  1.00  0.00     0.116 A 
ATOM     21  C   UNL A   1      33.835  28.535  27.253  1.00  0.00     0.020 A 
ATOM     22  N   UNL A   1      32.239  30.329  27.097  1.00  0.00    -0.264 NA
ATOM     23  C   UNL A   1      32.556  29.021  27.043  1.00  0.00     0.111 A 
ENDBRANCH  17  18
ENDBRANCH  10  17
ENDBRANCH   5   6
ENDBRANCH   3   5
ENDBRANCH   2   3
ENDBRANCH   1   2
BRANCH   1  24
ATOM     24  C   UNL A   1      39.430  34.381  33.334  1.00  0.00     0.275 C 
BRANCH  24  25
ATOM     25  O   UNL A   1      39.659  33.421  32.312  1.00  0.00    -0.458 OA
BRANCH  25  26
ATOM     26  C   UNL A   1      40.820  33.529  31.629  1.00  0.00     0.338 C 
ATOM     27  O   UNL A   1      41.610  34.448  31.642  1.00  0.00    -0.246 OA
BRANCH  26  28
ATOM     28  C   UNL A   1      40.921  32.340  30.778  1.00  0.00     0.060 A 
ATOM     29  C   UNL A   1      39.909  31.381  30.853  1.00  0.00     0.016 A 
ATOM     30  C   UNL A   1      42.135  32.099  30.117  1.00  0.00     0.016 A 
ATOM     31  C   UNL A   1      40.209  30.096  30.460  1.00  0.00     0.010 A 
ATOM     32  C   UNL A   1      42.442  30.821  29.756  1.00  0.00     0.010 A 
ATOM     33  C   UNL A   1      41.510  29.827  30.028  1.00  0.00    -0.014 A 
BRANCH  33  34
ATOM     34  C   UNL A   1      41.937  28.464  29.845  1.00  0.00     0.031 A 
ATOM     35  C   UNL A   1      42.666  27.927  31.007  1.00  0.00     0.074 A 
ATOM     36  C   UNL A   1      41.534  27.748  28.779  1.00  0.00     0.049 A 
ATOM     37  N   UNL A   1      43.929  27.681  31.081  1.00  0.00    -0.248 NA
ATOM     38  C   UNL A   1      41.953  27.830  32.293  1.00  0.00     0.031 C 
ATOM     39  C   UNL A   1      40.559  28.111  27.745  1.00  0.00     0.029 A 
ATOM     40  N   UNL A   1      41.846  26.469  28.461  1.00  0.00    -0.354 N 
ATOM     41  C   UNL A   1      44.133  27.194  32.363  1.00  0.00     0.074 A 
ATOM     42  C   UNL A   1      42.952  27.522  33.118  1.00  0.00     0.031 C 
ATOM     43  C   UNL A   1      40.192  26.996  27.068  1.00  0.00     0.029 A 
ATOM     44  C   UNL A   1      41.007  25.883  27.524  1.00  0.00     0.049 A 
ATOM     45  H   UNL A   1      42.608  25.992  28.863  1.00  0.00     0.167 HD
ATOM     46  C   UNL A   1      45.124  26.301  32.623  1.00  0.00     0.031 A 
ATOM     47  C   UNL A   1      40.965  24.561  27.215  1.00  0.00     0.031 A 
ATOM     48  C   UNL A   1      46.067  26.227  31.536  1.00  0.00     0.049 A 
ATOM     49  C   UNL A   1      42.241  23.964  27.683  1.00  0.00     0.074 A 
ATOM     50  C   UNL A   1      46.923  27.125  30.933  1.00  0.00     0.029 A 
ATOM     51  N   UNL A   1      45.897  25.195  30.641  1.00  0.00    -0.354 N 
ATOM     52  N   UNL A   1      43.399  24.253  27.161  1.00  0.00    -0.248 NA
ATOM     53  C   UNL A   1      42.282  23.419  29.031  1.00  0.00     0.031 C 
ATOM     54  C   UNL A   1      46.859  26.817  29.542  1.00  0.00     0.029 A 
ATOM     55  C   UNL A   1      46.032  25.705  29.375  1.00  0.00     0.049 A 
ATOM     56  H   UNL A   1      45.711  24.256  30.869  1.00  0.00     0.167 HD
ATOM     57  C   UNL A   1      44.258  24.355  28.247  1.00  0.00     0.074 A 
ATOM     58  C   UNL A   1      43.539  23.734  29.359  1.00  0.00     0.031 C 
ATOM     59  C   UNL A   1      45.336  25.193  28.213  1.00  0.00     0.031 A 
BRANCH  46  60
ATOM     60  C   UNL A   1      44.986  25.204  33.642  1.00  0.00    -0.014 A 
ATOM     61  C   UNL A   1      44.203  24.084  33.319  1.00  0.00     0.009 A 
ATOM     62  C   UNL A   1      45.369  25.344  34.991  1.00  0.00     0.009 A 
ATOM     63  C   UNL A   1      43.783  23.186  34.307  1.00  0.00     0.001 A 
ATOM     64  C   UNL A   1      44.987  24.428  35.971  1.00  0.00     0.001 A 
ATOM     65  C   UNL A   1      44.172  23.361  35.632  1.00  0.00     0.000 A 
ENDBRANCH  46  60
BRANCH  47  66
ATOM     66  C   UNL A   1      39.796  23.719  26.868  1.00  0.00    -0.014 A 
ATOM     67  C   UNL A   1      38.560  24.311  26.561  1.00  0.00     0.009 A 
ATOM     68  C   UNL A   1      39.968  22.362  26.541  1.00  0.00     0.009 A 
ATOM     69  C   UNL A   1      37.555  23.588  25.900  1.00  0.00     0.001 A 
ATOM     70  C   UNL A   1      38.965  21.639  25.884  1.00  0.00     0.001 A 
ATOM     71  C   UNL A   1      37.766  22.257  25.547  1.00  0.00     0.000 A 
ENDBRANCH  47  66
BRANCH  59  72
ATOM     72  C   UNL A   1      45.690  25.834  26.890  1.00  0.00    -0.014 A 
ATOM     73  C   UNL A   1      45.103  27.025  26.424  1.00  0.00     0.009 A 
ATOM     74  C   UNL A   1      46.777  25.308  26.176  1.00  0.00     0.009 A 
ATOM     75  C   UNL A   1      45.581  27.658  25.271  1.00  0.00     0.001 A 
ATOM     76  C   UNL A   1      47.268  25.952  25.038  1.00  0.00     0.001 A 
ATOM     77  C   UNL A   1      46.669  27.125  24.584  1.00  0.00     0.000 A 
ENDBRANCH  59  72
ENDBRANCH  33  34
ENDBRANCH  26  28
ENDBRANCH  25  26
ENDBRANCH  24  25
ENDBRANCH   1  24
TORSDOF 14
ENDMDL
MODEL 2
REMARK VINA RESULT:     -11.2      5.140     10.139
REMARK SMILES O=C(Cn1c(=O)n(Cc2cccnc2)c(=O)c2sccc21)OCCOC(=O)c1ccc(-c2c3nc(c(-c4ccccc4)c4ccc([nH]4)c(-c4ccccc4)c4nc(c(-c5ccccc5)c5ccc2[nH]5)C=C4)C=C3)cc1
REMARK SMILES IDX 23 1 22 2 2 3 1 4 3 5 4 6 5 7 21 8 6 9 7 10 17 11 20 12
REMARK SMILES IDX 15 13 18 14 19 15 16 16 8 17 9 18 10 19 14 20 11 21 13 22
REMARK SMILES IDX 12 23 24 24 25 25 26 26 27 27 28 28 29 29 75 30 30 31 74 32
REMARK SMILES IDX 31 33 32 34 33 35 68 36 34 37 73 38 67 39 69 40 35 41 72 42
REMARK SMILES IDX 66 43 65 44 36 46 58 47 43 48 57 49 44 50 47 51 56 52 70 53
REMARK SMILES IDX 45 54 46 55 55 57 71 58 48 59 37 60 38 61 42 62 39 63 41 64
REMARK SMILES IDX 40 65 59 66 60 67 64 68 61 69 63 70 62 71 49 72 50 73 54 74
REMARK SMILES IDX 51 75 53 76 52 77
REMARK H PARENT 69 45 47 56
REMARK Flexibility Score: inf
ROOT
ATOM      1  C   UNL A   1      37.447  20.909  24.768  1.00  0.00     0.274 C 
ENDROOT
BRANCH   1   2
ATOM      2  O   UNL A   1      37.333  21.822  25.883  1.00  0.00    -0.461 OA
BRANCH   2   3
ATOM      3  C   UNL A   1      36.974  23.127  25.846  1.00  0.00     0.326 C 
ATOM      4  O   UNL A   1      37.835  23.987  25.649  1.00  0.00    -0.250 OA
BRANCH   3   5
ATOM      5  C   UNL A   1      35.526  23.552  26.068  1.00  0.00     0.250 C 
BRANCH   5   6
ATOM      6  N   UNL A   1      34.456  23.152  25.153  1.00  0.00    -0.281 N 
ATOM      7  C   UNL A   1      33.873  21.890  25.381  1.00  0.00     0.332 A 
ATOM      8  C   UNL A   1      33.946  23.984  24.154  1.00  0.00     0.070 A 
ATOM      9  O   UNL A   1      34.260  21.165  26.302  1.00  0.00    -0.247 OA
ATOM     10  N   UNL A   1      32.865  21.480  24.504  1.00  0.00    -0.254 N 
ATOM     11  C   UNL A   1      33.066  23.469  23.241  1.00  0.00     0.116 A 
ATOM     12  C   UNL A   1      34.223  25.355  23.876  1.00  0.00     0.039 A 
ATOM     13  C   UNL A   1      32.548  22.134  23.311  1.00  0.00     0.274 A 
ATOM     14  S   UNL A   1      32.659  24.559  22.008  1.00  0.00    -0.136 S 
ATOM     15  C   UNL A   1      33.619  25.784  22.713  1.00  0.00     0.068 A 
ATOM     16  O   UNL A   1      31.893  21.604  22.416  1.00  0.00    -0.268 OA
BRANCH  10  17
ATOM     17  C   UNL A   1      32.163  20.228  24.780  1.00  0.00     0.168 C 
BRANCH  17  18
ATOM     18  C   UNL A   1      32.847  19.030  24.157  1.00  0.00    -0.010 A 
ATOM     19  C   UNL A   1      34.007  18.476  24.706  1.00  0.00     0.009 A 
ATOM     20  C   UNL A   1      32.359  18.438  22.992  1.00  0.00     0.116 A 
ATOM     21  C   UNL A   1      34.609  17.376  24.096  1.00  0.00     0.020 A 
ATOM     22  N   UNL A   1      32.913  17.361  22.388  1.00  0.00    -0.264 NA
ATOM     23  C   UNL A   1      34.026  16.853  22.955  1.00  0.00     0.111 A 
ENDBRANCH  17  18
ENDBRANCH  10  17
ENDBRANCH   5   6
ENDBRANCH   3   5
ENDBRANCH   2   3
ENDBRANCH   1   2
BRANCH   1  24
ATOM     24  C   UNL A   1      38.547  19.895  25.012  1.00  0.00     0.275 C 
BRANCH  24  25
ATOM     25  O   UNL A   1      39.446  20.457  25.956  1.00  0.00    -0.458 OA
BRANCH  25  26
ATOM     26  C   UNL A   1      40.711  19.981  25.945  1.00  0.00     0.338 C 
ATOM     27  O   UNL A   1      41.089  18.880  25.610  1.00  0.00    -0.246 OA
BRANCH  26  28
ATOM     28  C   UNL A   1      41.563  21.032  26.507  1.00  0.00     0.060 A 
ATOM     29  C   UNL A   1      41.964  20.920  27.840  1.00  0.00     0.016 A 
ATOM     30  C   UNL A   1      41.732  22.214  25.769  1.00  0.00     0.016 A 
ATOM     31  C   UNL A   1      42.328  22.073  28.502  1.00  0.00     0.010 A 
ATOM     32  C   UNL A   1      42.063  23.358  26.432  1.00  0.00     0.010 A 
ATOM     33  C   UNL A   1      42.257  23.282  27.805  1.00  0.00    -0.014 A 
BRANCH  33  34
ATOM     34  C   UNL A   1      42.385  24.527  28.517  1.00  0.00     0.031 A 
ATOM     35  C   UNL A   1      41.287  25.468  28.237  1.00  0.00     0.074 A 
ATOM     36  C   UNL A   1      43.333  24.693  29.458  1.00  0.00     0.049 A 
ATOM     37  N   UNL A   1      41.356  26.551  27.540  1.00  0.00    -0.248 NA
ATOM     38  C   UNL A   1      39.917  25.070  28.608  1.00  0.00     0.031 C 
ATOM     39  C   UNL A   1      44.260  23.700  30.013  1.00  0.00     0.029 A 
ATOM     40  N   UNL A   1      43.587  25.792  30.208  1.00  0.00    -0.354 N 
ATOM     41  C   UNL A   1      40.075  27.083  27.565  1.00  0.00     0.074 A 
ATOM     42  C   UNL A   1      39.204  26.035  28.028  1.00  0.00     0.031 C 
ATOM     43  C   UNL A   1      44.796  24.183  31.160  1.00  0.00     0.029 A 
ATOM     44  C   UNL A   1      44.362  25.559  31.335  1.00  0.00     0.049 A 
ATOM     45  H   UNL A   1      43.249  26.686  29.971  1.00  0.00     0.167 HD
ATOM     46  C   UNL A   1      39.875  28.426  27.492  1.00  0.00     0.031 A 
ATOM     47  C   UNL A   1      44.560  26.433  32.356  1.00  0.00     0.031 A 
ATOM     48  C   UNL A   1      41.064  29.114  27.058  1.00  0.00     0.049 A 
ATOM     49  C   UNL A   1      44.212  27.783  31.845  1.00  0.00     0.074 A 
ATOM     50  C   UNL A   1      41.839  29.085  25.917  1.00  0.00     0.029 A 
ATOM     51  N   UNL A   1      41.847  29.673  28.042  1.00  0.00    -0.354 N 
ATOM     52  N   UNL A   1      44.898  28.397  30.923  1.00  0.00    -0.248 NA
ATOM     53  C   UNL A   1      42.842  28.241  32.014  1.00  0.00     0.031 C 
ATOM     54  C   UNL A   1      43.182  29.200  26.381  1.00  0.00     0.029 A 
ATOM     55  C   UNL A   1      43.155  29.369  27.767  1.00  0.00     0.049 A 
ATOM     56  H   UNL A   1      41.525  30.199  28.808  1.00  0.00     0.167 HD
ATOM     57  C   UNL A   1      43.941  28.985  30.107  1.00  0.00     0.074 A 
ATOM     58  C   UNL A   1      42.702  28.941  30.883  1.00  0.00     0.031 C 
ATOM     59  C   UNL A   1      44.177  29.179  28.775  1.00  0.00     0.031 A 
BRANCH  46  60
ATOM     60  C   UNL A   1      38.765  29.126  28.225  1.00  0.00    -0.014 A 
ATOM     61  C   UNL A   1      38.733  29.046  29.626  1.00  0.00     0.009 A 
ATOM     62  C   UNL A   1      37.612  29.629  27.590  1.00  0.00     0.009 A 
ATOM     63  C   UNL A   1      37.586  29.402  30.345  1.00  0.00     0.001 A 
ATOM     64  C   UNL A   1      36.482  30.025  28.307  1.00  0.00     0.001 A 
ATOM     65  C   UNL A   1      36.460  29.886  29.685  1.00  0.00     0.000 A 
ENDBRANCH  46  60
BRANCH  47  66
ATOM     66  C   UNL A   1      44.688  26.162  33.807  1.00  0.00    -0.014 A 
ATOM     67  C   UNL A   1      45.589  26.901  34.591  1.00  0.00     0.009 A 
ATOM     68  C   UNL A   1      43.717  25.397  34.477  1.00  0.00     0.009 A 
ATOM     69  C   UNL A   1      45.486  26.919  35.990  1.00  0.00     0.001 A 
ATOM     70  C   UNL A   1      43.615  25.412  35.873  1.00  0.00     0.001 A 
ATOM     71  C   UNL A   1      44.487  26.188  36.629  1.00  0.00     0.000 A 
ENDBRANCH  47  66
BRANCH  59  72
ATOM     72  C   UNL A   1      45.580  28.939  28.266  1.00  0.00    -0.014 A 
ATOM     73  C   UNL A   1      46.075  27.665  27.930  1.00  0.00     0.009 A 
ATOM     74  C   UNL A   1      46.363  30.059  27.950  1.00  0.00     0.009 A 
ATOM     75  C   UNL A   1      47.323  27.521  27.313  1.00  0.00     0.001 A 
ATOM     76  C   UNL A   1      47.599  29.915  27.315  1.00  0.00     0.001 A 
ATOM     77  C   UNL A   1      48.079  28.647  26.999  1.00  0.00     0.000 A 
ENDBRANCH  59  72
ENDBRANCH  33  34
ENDBRANCH  26  28
ENDBRANCH  25  26
ENDBRANCH  24  25
ENDBRANCH   1  24
TORSDOF 14
ENDMDL
MODEL 3
REMARK VINA RESULT:     -11.1      4.580      9.395
REMARK SMILES O=C(Cn1c(=O)n(Cc2cccnc2)c(=O)c2sccc21)OCCOC(=O)c1ccc(-c2c3nc(c(-c4ccccc4)c4ccc([nH]4)c(-c4ccccc4)c4nc(c(-c5ccccc5)c5ccc2[nH]5)C=C4)C=C3)cc1
REMARK SMILES IDX 23 1 22 2 2 3 1 4 3 5 4 6 5 7 21 8 6 9 7 10 17 11 20 12
REMARK SMILES IDX 15 13 18 14 19 15 16 16 8 17 9 18 10 19 14 20 11 21 13 22
REMARK SMILES IDX 12 23 24 24 25 25 26 26 27 27 28 28 29 29 75 30 30 31 74 32
REMARK SMILES IDX 31 33 32 34 33 35 68 36 34 37 73 38 67 39 69 40 35 41 72 42
REMARK SMILES IDX 66 43 65 44 36 46 58 47 43 48 57 49 44 50 47 51 56 52 70 53
REMARK SMILES IDX 45 54 46 55 55 57 71 58 48 59 37 60 38 61 42 62 39 63 41 64
REMARK SMILES IDX 40 65 59 66 60 67 64 68 61 69 63 70 62 71 49 72 50 73 54 74
REMARK SMILES IDX 51 75 53 76 52 77
REMARK H PARENT 69 45 47 56
REMARK Flexibility Score: inf
ROOT
ATOM      1  C   UNL A   1      36.731  20.914  25.011  1.00  0.00     0.274 C 
ENDROOT
BRANCH   1   2
ATOM      2  O   UNL A   1      36.977  22.162  24.324  1.00  0.00    -0.461 OA
BRANCH   2   3
ATOM      3  C   UNL A   1      36.661  23.411  24.744  1.00  0.00     0.326 C 
ATOM      4  O   UNL A   1      37.340  23.943  25.623  1.00  0.00    -0.250 OA
BRANCH   3   5
ATOM      5  C   UNL A   1      35.466  24.158  24.162  1.00  0.00     0.250 C 
BRANCH   5   6
ATOM      6  N   UNL A   1      34.154  24.137  24.809  1.00  0.00    -0.281 N 
ATOM      7  C   UNL A   1      33.721  25.343  25.392  1.00  0.00     0.332 A 
ATOM      8  C   UNL A   1      33.304  23.029  24.790  1.00  0.00     0.070 A 
ATOM      9  O   UNL A   1      34.426  26.357  25.361  1.00  0.00    -0.247 OA
ATOM     10  N   UNL A   1      32.480  25.337  26.035  1.00  0.00    -0.254 N 
ATOM     11  C   UNL A   1      32.173  23.042  25.560  1.00  0.00     0.116 A 
ATOM     12  C   UNL A   1      33.430  21.791  24.092  1.00  0.00     0.039 A 
ATOM     13  C   UNL A   1      31.747  24.182  26.318  1.00  0.00     0.274 A 
ATOM     14  S   UNL A   1      31.330  21.571  25.546  1.00  0.00    -0.136 S 
ATOM     15  C   UNL A   1      32.445  20.893  24.443  1.00  0.00     0.068 A 
ATOM     16  O   UNL A   1      30.834  24.159  27.140  1.00  0.00    -0.268 OA
BRANCH  10  17
ATOM     17  C   UNL A   1      31.953  26.600  26.552  1.00  0.00     0.168 C 
BRANCH  17  18
ATOM     18  C   UNL A   1      31.296  27.438  25.476  1.00  0.00    -0.010 A 
ATOM     19  C   UNL A   1      30.425  26.879  24.535  1.00  0.00     0.009 A 
ATOM     20  C   UNL A   1      31.549  28.805  25.363  1.00  0.00     0.116 A 
ATOM     21  C   UNL A   1      29.847  27.686  23.556  1.00  0.00     0.020 A 
ATOM     22  N   UNL A   1      30.990  29.614  24.433  1.00  0.00    -0.264 NA
ATOM     23  C   UNL A   1      30.150  29.037  23.552  1.00  0.00     0.111 A 
ENDBRANCH  17  18
ENDBRANCH  10  17
ENDBRANCH   5   6
ENDBRANCH   3   5
ENDBRANCH   2   3
ENDBRANCH   1   2
BRANCH   1  24
ATOM     24  C   UNL A   1      37.950  20.017  24.954  1.00  0.00     0.275 C 
BRANCH  24  25
ATOM     25  O   UNL A   1      39.036  20.732  25.526  1.00  0.00    -0.458 OA
BRANCH  25  26
ATOM     26  C   UNL A   1      40.152  20.021  25.797  1.00  0.00     0.338 C 
ATOM     27  O   UNL A   1      40.355  18.844  25.591  1.00  0.00    -0.246 OA
BRANCH  26  28
ATOM     28  C   UNL A   1      41.075  20.930  26.484  1.00  0.00     0.060 A 
ATOM     29  C   UNL A   1      41.164  20.858  27.876  1.00  0.00     0.016 A 
ATOM     30  C   UNL A   1      41.636  21.985  25.749  1.00  0.00     0.016 A 
ATOM     31  C   UNL A   1      41.621  21.970  28.549  1.00  0.00     0.010 A 
ATOM     32  C   UNL A   1      42.059  23.095  26.416  1.00  0.00     0.010 A 
ATOM     33  C   UNL A   1      41.949  23.104  27.801  1.00  0.00    -0.014 A 
BRANCH  33  34
ATOM     34  C   UNL A   1      42.190  24.356  28.468  1.00  0.00     0.031 A 
ATOM     35  C   UNL A   1      41.164  25.373  28.176  1.00  0.00     0.074 A 
ATOM     36  C   UNL A   1      43.167  24.477  29.387  1.00  0.00     0.049 A 
ATOM     37  N   UNL A   1      41.305  26.424  27.442  1.00  0.00    -0.248 NA
ATOM     38  C   UNL A   1      39.776  25.098  28.583  1.00  0.00     0.031 C 
ATOM     39  C   UNL A   1      44.023  23.431  29.958  1.00  0.00     0.029 A 
ATOM     40  N   UNL A   1      43.523  25.575  30.095  1.00  0.00    -0.354 N 
ATOM     41  C   UNL A   1      40.071  27.057  27.471  1.00  0.00     0.074 A 
ATOM     42  C   UNL A   1      39.130  26.097  27.984  1.00  0.00     0.031 C 
ATOM     43  C   UNL A   1      44.619  23.907  31.079  1.00  0.00     0.029 A 
ATOM     44  C   UNL A   1      44.299  25.318  31.215  1.00  0.00     0.049 A 
ATOM     45  H   UNL A   1      43.251  26.485  29.834  1.00  0.00     0.167 HD
ATOM     46  C   UNL A   1      39.976  28.408  27.356  1.00  0.00     0.031 A 
ATOM     47  C   UNL A   1      44.585  26.206  32.202  1.00  0.00     0.031 A 
ATOM     48  C   UNL A   1      41.207  28.986  26.879  1.00  0.00     0.049 A 
ATOM     49  C   UNL A   1      44.336  27.562  31.652  1.00  0.00     0.074 A 
ATOM     50  C   UNL A   1      41.954  28.858  25.726  1.00  0.00     0.029 A 
ATOM     51  N   UNL A   1      42.052  29.512  27.830  1.00  0.00    -0.354 N 
ATOM     52  N   UNL A   1      45.049  28.089  30.698  1.00  0.00    -0.248 NA
ATOM     53  C   UNL A   1      43.009  28.134  31.830  1.00  0.00     0.031 C 
ATOM     54  C   UNL A   1      43.311  28.880  26.162  1.00  0.00     0.029 A 
ATOM     55  C   UNL A   1      43.326  29.096  27.542  1.00  0.00     0.049 A 
ATOM     56  H   UNL A   1      41.787  30.086  28.584  1.00  0.00     0.167 HD
ATOM     57  C   UNL A   1      44.126  28.725  29.880  1.00  0.00     0.074 A 
ATOM     58  C   UNL A   1      42.903  28.805  30.678  1.00  0.00     0.031 C 
ATOM     59  C   UNL A   1      44.349  28.857  28.539  1.00  0.00     0.031 A 
BRANCH  46  60
ATOM     60  C   UNL A   1      38.940  29.218  28.085  1.00  0.00    -0.014 A 
ATOM     61  C   UNL A   1      38.983  29.255  29.488  1.00  0.00     0.009 A 
ATOM     62  C   UNL A   1      37.776  29.722  27.471  1.00  0.00     0.009 A 
ATOM     63  C   UNL A   1      37.895  29.722  30.233  1.00  0.00     0.001 A 
ATOM     64  C   UNL A   1      36.706  30.228  28.211  1.00  0.00     0.001 A 
ATOM     65  C   UNL A   1      36.755  30.204  29.594  1.00  0.00     0.000 A 
ENDBRANCH  46  60
BRANCH  47  66
ATOM     66  C   UNL A   1      44.721  25.972  33.659  1.00  0.00    -0.014 A 
ATOM     67  C   UNL A   1      43.665  25.404  34.390  1.00  0.00     0.009 A 
ATOM     68  C   UNL A   1      45.986  26.021  34.272  1.00  0.00     0.009 A 
ATOM     69  C   UNL A   1      43.878  24.854  35.662  1.00  0.00     0.001 A 
ATOM     70  C   UNL A   1      46.199  25.474  35.544  1.00  0.00     0.001 A 
ATOM     71  C   UNL A   1      45.149  24.874  36.231  1.00  0.00     0.000 A 
ENDBRANCH  47  66
BRANCH  59  72
ATOM     72  C   UNL A   1      45.718  28.490  28.013  1.00  0.00    -0.014 A 
ATOM     73  C   UNL A   1      46.079  27.182  27.636  1.00  0.00     0.009 A 
ATOM     74  C   UNL A   1      46.612  29.532  27.726  1.00  0.00     0.009 A 
ATOM     75  C   UNL A   1      47.303  26.929  27.007  1.00  0.00     0.001 A 
ATOM     76  C   UNL A   1      47.824  29.282  27.078  1.00  0.00     0.001 A 
ATOM     77  C   UNL A   1      48.170  27.980  26.721  1.00  0.00     0.000 A 
ENDBRANCH  59  72
ENDBRANCH  33  34
ENDBRANCH  26  28
ENDBRANCH  25  26
ENDBRANCH  24  25
ENDBRANCH   1  24
TORSDOF 14
ENDMDL
