MODEL 1
REMARK VINA RESULT:      -9.8      0.000      0.000
REMARK SMILES COCC[C@H]([NH3+])C(=O)N1CC(n2cc(C(=O)OCCOC(=O)c3ccc(-c4c5nc(c(-c6ccccc6)c6ccc([nH]6)c(-c6ccccc6)c6nc(c(-c7ccccc7)c7ccc4[nH]7)C=C6)C=C5)cc3)nn2)C1
REMARK SMILES IDX 17 1 15 2 16 3 14 4 12 5 13 6 72 7 71 8 11 9 7 10 8 11 9 12
REMARK SMILES IDX 10 13 73 14 5 15 4 16 3 17 2 18 1 19 6 20 18 24 19 25 20 26
REMARK SMILES IDX 21 27 22 28 23 29 24 30 70 31 25 32 69 33 26 34 27 35 28 36
REMARK SMILES IDX 63 37 29 38 68 39 62 40 64 41 30 42 67 43 61 44 60 45 31 47
REMARK SMILES IDX 53 48 38 49 52 50 39 51 42 52 51 53 65 54 40 55 41 56 50 58
REMARK SMILES IDX 66 59 43 60 32 61 33 62 37 63 34 64 36 65 35 66 54 67 55 68
REMARK SMILES IDX 59 69 56 70 58 71 57 72 44 73 45 74 49 75 46 76 48 77 47 78
REMARK H PARENT 6 21 6 22 6 23 64 46 42 57
REMARK Flexibility Score: inf
ROOT
ATOM      1  O   UNL A   1      32.960  35.113  28.490  1.00  0.00    -0.457 OA
ENDROOT
BRANCH   1   2
ATOM      2  C   UNL A   1      33.810  34.042  28.590  1.00  0.00     0.360 C 
ATOM      3  O   UNL A   1      34.865  34.065  29.219  1.00  0.00    -0.244 OA
BRANCH   2   4
ATOM      4  C   UNL A   1      33.306  32.856  27.917  1.00  0.00     0.190 A 
ATOM      5  N   UNL A   1      32.985  30.875  27.097  1.00  0.00    -0.245 N 
ATOM      6  C   UNL A   1      33.928  31.637  27.730  1.00  0.00     0.147 A 
ATOM      7  N   UNL A   1      31.879  31.589  26.837  1.00  0.00    -0.066 NA
ATOM      8  N   UNL A   1      32.064  32.808  27.325  1.00  0.00    -0.123 NA
BRANCH   5   9
ATOM      9  C   UNL A   1      33.092  29.456  26.930  1.00  0.00     0.148 C 
ATOM     10  C   UNL A   1      32.169  26.847  25.319  1.00  0.00     0.280 C 
ATOM     11  O   UNL A   1      32.798  26.089  26.062  1.00  0.00    -0.268 OA
ATOM     12  N   UNL A   1      32.249  28.215  25.451  1.00  0.00    -0.333 N 
ATOM     13  C   UNL A   1      33.532  28.952  25.563  1.00  0.00     0.149 C 
ATOM     14  C   UNL A   1      31.715  28.874  26.655  1.00  0.00     0.149 C 
BRANCH  10  15
ATOM     15  C   UNL A   1      31.193  26.298  24.240  1.00  0.00     0.273 C 
BRANCH  15  16
ATOM     16  C   UNL A   1      31.788  25.786  22.921  1.00  0.00     0.104 C 
BRANCH  16  17
ATOM     17  C   UNL A   1      33.247  26.106  22.572  1.00  0.00     0.166 C 
BRANCH  17  18
ATOM     18  O   UNL A   1      34.056  24.970  22.315  1.00  0.00    -0.384 OA
ATOM     19  C   UNL A   1      34.430  24.237  23.474  1.00  0.00     0.194 C 
ENDBRANCH  17  18
ENDBRANCH  16  17
ENDBRANCH  15  16
BRANCH  15  20
ATOM     20  N   UNL A   1      30.024  27.188  24.072  1.00  0.00    -0.347 N 
ATOM     21  H   UNL A   1      30.344  28.133  23.862  1.00  0.00     0.345 HD
ATOM     22  H   UNL A   1      29.477  27.197  24.933  1.00  0.00     0.345 HD
ATOM     23  H   UNL A   1      29.445  26.847  23.305  1.00  0.00     0.345 HD
ENDBRANCH  15  20
ENDBRANCH  10  15
ENDBRANCH   5   9
ENDBRANCH   2   4
ENDBRANCH   1   2
BRANCH   1  24
ATOM     24  C   UNL A   1      33.377  36.301  29.182  1.00  0.00     0.275 C 
BRANCH  24  25
ATOM     25  C   UNL A   1      32.555  36.515  30.446  1.00  0.00     0.275 C 
BRANCH  25  26
ATOM     26  O   UNL A   1      33.342  36.340  31.624  1.00  0.00    -0.458 OA
BRANCH  26  27
ATOM     27  C   UNL A   1      33.035  35.250  32.365  1.00  0.00     0.338 C 
ATOM     28  O   UNL A   1      31.968  35.008  32.907  1.00  0.00    -0.246 OA
BRANCH  27  29
ATOM     29  C   UNL A   1      34.264  34.502  32.650  1.00  0.00     0.060 A 
ATOM     30  C   UNL A   1      35.461  35.223  32.702  1.00  0.00     0.016 A 
ATOM     31  C   UNL A   1      34.250  33.103  32.569  1.00  0.00     0.016 A 
ATOM     32  C   UNL A   1      36.647  34.544  32.504  1.00  0.00     0.010 A 
ATOM     33  C   UNL A   1      35.431  32.430  32.354  1.00  0.00     0.010 A 
ATOM     34  C   UNL A   1      36.607  33.165  32.253  1.00  0.00    -0.014 A 
BRANCH  34  35
ATOM     35  C   UNL A   1      37.856  32.472  32.014  1.00  0.00     0.031 A 
ATOM     36  C   UNL A   1      38.685  32.352  33.232  1.00  0.00     0.074 A 
ATOM     37  C   UNL A   1      38.180  31.899  30.840  1.00  0.00     0.049 A 
ATOM     38  N   UNL A   1      39.791  32.966  33.481  1.00  0.00    -0.248 NA
ATOM     39  C   UNL A   1      38.138  31.597  34.371  1.00  0.00     0.031 C 
ATOM     40  C   UNL A   1      37.341  31.706  29.655  1.00  0.00     0.029 A 
ATOM     41  N   UNL A   1      39.338  31.271  30.501  1.00  0.00    -0.354 N 
ATOM     42  C   UNL A   1      40.184  32.535  34.741  1.00  0.00     0.074 A 
ATOM     43  C   UNL A   1      39.058  31.836  35.306  1.00  0.00     0.031 C 
ATOM     44  C   UNL A   1      37.939  30.816  28.826  1.00  0.00     0.029 A 
ATOM     45  C   UNL A   1      39.257  30.499  29.350  1.00  0.00     0.049 A 
ATOM     46  H   UNL A   1      40.165  31.356  31.029  1.00  0.00     0.167 HD
ATOM     47  C   UNL A   1      41.491  32.564  35.115  1.00  0.00     0.031 A 
ATOM     48  C   UNL A   1      40.197  29.633  28.896  1.00  0.00     0.031 A 
ATOM     49  C   UNL A   1      42.279  33.381  34.229  1.00  0.00     0.049 A 
ATOM     50  C   UNL A   1      41.482  29.997  29.534  1.00  0.00     0.074 A 
ATOM     51  C   UNL A   1      42.320  34.719  33.901  1.00  0.00     0.029 A 
ATOM     52  N   UNL A   1      42.946  32.714  33.230  1.00  0.00    -0.354 N 
ATOM     53  N   UNL A   1      42.125  31.096  29.268  1.00  0.00    -0.248 NA
ATOM     54  C   UNL A   1      41.846  29.350  30.784  1.00  0.00     0.031 C 
ATOM     55  C   UNL A   1      42.636  34.751  32.511  1.00  0.00     0.029 A 
ATOM     56  C   UNL A   1      42.831  33.438  32.074  1.00  0.00     0.049 A 
ATOM     57  H   UNL A   1      43.425  31.860  33.329  1.00  0.00     0.167 HD
ATOM     58  C   UNL A   1      42.621  31.516  30.492  1.00  0.00     0.074 A 
ATOM     59  C   UNL A   1      42.530  30.343  31.358  1.00  0.00     0.031 C 
ATOM     60  C   UNL A   1      42.789  32.846  30.754  1.00  0.00     0.031 A 
BRANCH  47  61
ATOM     61  C   UNL A   1      42.121  31.501  35.976  1.00  0.00    -0.014 A 
ATOM     62  C   UNL A   1      42.892  31.904  37.080  1.00  0.00     0.009 A 
ATOM     63  C   UNL A   1      42.239  30.155  35.576  1.00  0.00     0.009 A 
ATOM     64  C   UNL A   1      43.789  31.026  37.699  1.00  0.00     0.001 A 
ATOM     65  C   UNL A   1      43.103  29.266  36.216  1.00  0.00     0.001 A 
ATOM     66  C   UNL A   1      43.900  29.710  37.260  1.00  0.00     0.000 A 
ENDBRANCH  47  61
BRANCH  48  67
ATOM     67  C   UNL A   1      40.034  28.359  28.166  1.00  0.00    -0.014 A 
ATOM     68  C   UNL A   1      40.687  28.140  26.943  1.00  0.00     0.009 A 
ATOM     69  C   UNL A   1      39.475  27.246  28.819  1.00  0.00     0.009 A 
ATOM     70  C   UNL A   1      40.814  26.848  26.413  1.00  0.00     0.001 A 
ATOM     71  C   UNL A   1      39.603  25.955  28.292  1.00  0.00     0.001 A 
ATOM     72  C   UNL A   1      40.287  25.755  27.097  1.00  0.00     0.000 A 
ENDBRANCH  48  67
BRANCH  60  73
ATOM     73  C   UNL A   1      42.692  33.802  29.590  1.00  0.00    -0.014 A 
ATOM     74  C   UNL A   1      41.569  34.611  29.342  1.00  0.00     0.009 A 
ATOM     75  C   UNL A   1      43.829  33.981  28.790  1.00  0.00     0.009 A 
ATOM     76  C   UNL A   1      41.577  35.548  28.302  1.00  0.00     0.001 A 
ATOM     77  C   UNL A   1      43.846  34.930  27.768  1.00  0.00     0.001 A 
ATOM     78  C   UNL A   1      42.719  35.709  27.519  1.00  0.00     0.000 A 
ENDBRANCH  60  73
ENDBRANCH  34  35
ENDBRANCH  27  29
ENDBRANCH  26  27
ENDBRANCH  25  26
ENDBRANCH  24  25
ENDBRANCH   1  24
TORSDOF 17
ENDMDL
MODEL 2
REMARK VINA RESULT:      -9.7      3.668      5.565
REMARK SMILES COCC[C@H]([NH3+])C(=O)N1CC(n2cc(C(=O)OCCOC(=O)c3ccc(-c4c5nc(c(-c6ccccc6)c6ccc([nH]6)c(-c6ccccc6)c6nc(c(-c7ccccc7)c7ccc4[nH]7)C=C6)C=C5)cc3)nn2)C1
REMARK SMILES IDX 17 1 15 2 16 3 14 4 12 5 13 6 72 7 71 8 11 9 7 10 8 11 9 12
REMARK SMILES IDX 10 13 73 14 5 15 4 16 3 17 2 18 1 19 6 20 18 24 19 25 20 26
REMARK SMILES IDX 21 27 22 28 23 29 24 30 70 31 25 32 69 33 26 34 27 35 28 36
REMARK SMILES IDX 63 37 29 38 68 39 62 40 64 41 30 42 67 43 61 44 60 45 31 47
REMARK SMILES IDX 53 48 38 49 52 50 39 51 42 52 51 53 65 54 40 55 41 56 50 58
REMARK SMILES IDX 66 59 43 60 32 61 33 62 37 63 34 64 36 65 35 66 54 67 55 68
REMARK SMILES IDX 59 69 56 70 58 71 57 72 44 73 45 74 49 75 46 76 48 77 47 78
REMARK H PARENT 6 21 6 22 6 23 64 46 42 57
REMARK Flexibility Score: inf
ROOT
ATOM      1  O   UNL A   1      31.939  29.860  25.965  1.00  0.00    -0.457 OA
ENDROOT
BRANCH   1   2
ATOM      2  C   UNL A   1      32.338  28.919  25.051  1.00  0.00     0.360 C 
ATOM      3  O   UNL A   1      32.913  29.191  24.000  1.00  0.00    -0.244 OA
BRANCH   2   4
ATOM      4  C   UNL A   1      32.057  27.559  25.482  1.00  0.00     0.190 A 
ATOM      5  N   UNL A   1      32.151  25.484  26.102  1.00  0.00    -0.245 N 
ATOM      6  C   UNL A   1      32.928  26.493  25.602  1.00  0.00     0.147 A 
ATOM      7  N   UNL A   1      30.870  25.867  26.213  1.00  0.00    -0.066 NA
ATOM      8  N   UNL A   1      30.795  27.134  25.828  1.00  0.00    -0.123 NA
BRANCH   5   9
ATOM      9  C   UNL A   1      32.681  24.261  26.629  1.00  0.00     0.148 C 
ATOM     10  C   UNL A   1      33.686  21.278  26.042  1.00  0.00     0.280 C 
ATOM     11  O   UNL A   1      33.845  21.029  27.240  1.00  0.00    -0.268 OA
ATOM     12  N   UNL A   1      33.327  22.534  25.609  1.00  0.00    -0.333 N 
ATOM     13  C   UNL A   1      34.005  23.777  26.054  1.00  0.00     0.149 C 
ATOM     14  C   UNL A   1      32.003  23.082  25.948  1.00  0.00     0.149 C 
BRANCH  10  15
ATOM     15  C   UNL A   1      33.810  20.168  24.961  1.00  0.00     0.273 C 
BRANCH  15  16
ATOM     16  C   UNL A   1      32.651  19.173  24.810  1.00  0.00     0.104 C 
BRANCH  16  17
ATOM     17  C   UNL A   1      32.654  17.874  25.625  1.00  0.00     0.166 C 
BRANCH  17  18
ATOM     18  O   UNL A   1      33.615  16.917  25.210  1.00  0.00    -0.384 OA
ATOM     19  C   UNL A   1      33.205  15.566  25.362  1.00  0.00     0.194 C 
ENDBRANCH  17  18
ENDBRANCH  16  17
ENDBRANCH  15  16
BRANCH  15  20
ATOM     20  N   UNL A   1      35.148  19.538  24.989  1.00  0.00    -0.347 N 
ATOM     21  H   UNL A   1      35.291  19.006  24.130  1.00  0.00     0.345 HD
ATOM     22  H   UNL A   1      35.213  18.912  25.792  1.00  0.00     0.345 HD
ATOM     23  H   UNL A   1      35.863  20.262  25.063  1.00  0.00     0.345 HD
ENDBRANCH  15  20
ENDBRANCH  10  15
ENDBRANCH   5   9
ENDBRANCH   2   4
ENDBRANCH   1   2
BRANCH   1  24
ATOM     24  C   UNL A   1      32.773  29.985  27.129  1.00  0.00     0.275 C 
BRANCH  24  25
ATOM     25  C   UNL A   1      33.524  31.310  27.123  1.00  0.00     0.275 C 
BRANCH  25  26
ATOM     26  O   UNL A   1      34.224  31.526  28.349  1.00  0.00    -0.458 OA
BRANCH  26  27
ATOM     27  C   UNL A   1      35.432  32.122  28.224  1.00  0.00     0.338 C 
ATOM     28  O   UNL A   1      35.704  33.090  27.533  1.00  0.00    -0.246 OA
BRANCH  27  29
ATOM     29  C   UNL A   1      36.452  31.272  28.848  1.00  0.00     0.060 A 
ATOM     30  C   UNL A   1      37.604  31.897  29.334  1.00  0.00     0.016 A 
ATOM     31  C   UNL A   1      36.385  29.882  28.679  1.00  0.00     0.016 A 
ATOM     32  C   UNL A   1      38.747  31.139  29.492  1.00  0.00     0.010 A 
ATOM     33  C   UNL A   1      37.528  29.131  28.820  1.00  0.00     0.010 A 
ATOM     34  C   UNL A   1      38.712  29.779  29.155  1.00  0.00    -0.014 A 
BRANCH  34  35
ATOM     35  C   UNL A   1      39.927  29.003  29.295  1.00  0.00     0.031 A 
ATOM     36  C   UNL A   1      40.235  28.673  30.702  1.00  0.00     0.074 A 
ATOM     37  C   UNL A   1      40.640  28.536  28.253  1.00  0.00     0.049 A 
ATOM     38  N   UNL A   1      41.195  29.149  31.419  1.00  0.00    -0.248 NA
ATOM     39  C   UNL A   1      39.270  27.849  31.448  1.00  0.00     0.031 C 
ATOM     40  C   UNL A   1      40.296  28.555  26.829  1.00  0.00     0.029 A 
ATOM     41  N   UNL A   1      41.811  27.845  28.276  1.00  0.00    -0.354 N 
ATOM     42  C   UNL A   1      41.071  28.546  32.663  1.00  0.00     0.074 A 
ATOM     43  C   UNL A   1      39.785  27.897  32.677  1.00  0.00     0.031 C 
ATOM     44  C   UNL A   1      41.119  27.711  26.160  1.00  0.00     0.029 A 
ATOM     45  C   UNL A   1      42.130  27.217  27.080  1.00  0.00     0.049 A 
ATOM     46  H   UNL A   1      42.384  27.793  29.075  1.00  0.00     0.167 HD
ATOM     47  C   UNL A   1      42.143  28.412  33.487  1.00  0.00     0.031 A 
ATOM     48  C   UNL A   1      43.132  26.322  26.885  1.00  0.00     0.031 A 
ATOM     49  C   UNL A   1      43.241  29.245  33.071  1.00  0.00     0.049 A 
ATOM     50  C   UNL A   1      44.101  26.492  27.990  1.00  0.00     0.074 A 
ATOM     51  C   UNL A   1      43.461  30.601  32.968  1.00  0.00     0.029 A 
ATOM     52  N   UNL A   1      44.202  28.634  32.302  1.00  0.00    -0.354 N 
ATOM     53  N   UNL A   1      44.846  27.549  28.130  1.00  0.00    -0.248 NA
ATOM     54  C   UNL A   1      43.943  25.679  29.185  1.00  0.00     0.031 C 
ATOM     55  C   UNL A   1      44.275  30.758  31.807  1.00  0.00     0.029 A 
ATOM     56  C   UNL A   1      44.559  29.490  31.295  1.00  0.00     0.049 A 
ATOM     57  H   UNL A   1      44.570  27.734  32.450  1.00  0.00     0.167 HD
ATOM     58  C   UNL A   1      44.868  27.783  29.497  1.00  0.00     0.074 A 
ATOM     59  C   UNL A   1      44.407  26.535  30.100  1.00  0.00     0.031 C 
ATOM     60  C   UNL A   1      44.986  29.054  29.982  1.00  0.00     0.031 A 
BRANCH  47  61
ATOM     61  C   UNL A   1      42.357  27.206  34.364  1.00  0.00    -0.014 A 
ATOM     62  C   UNL A   1      43.377  26.301  34.020  1.00  0.00     0.009 A 
ATOM     63  C   UNL A   1      41.418  26.770  35.319  1.00  0.00     0.009 A 
ATOM     64  C   UNL A   1      43.406  25.005  34.547  1.00  0.00     0.001 A 
ATOM     65  C   UNL A   1      41.467  25.492  35.877  1.00  0.00     0.001 A 
ATOM     66  C   UNL A   1      42.446  24.599  35.469  1.00  0.00     0.000 A 
ENDBRANCH  47  61
BRANCH  48  67
ATOM     67  C   UNL A   1      43.195  25.158  25.977  1.00  0.00    -0.014 A 
ATOM     68  C   UNL A   1      44.293  24.970  25.122  1.00  0.00     0.009 A 
ATOM     69  C   UNL A   1      42.320  24.075  26.169  1.00  0.00     0.009 A 
ATOM     70  C   UNL A   1      44.529  23.729  24.513  1.00  0.00     0.001 A 
ATOM     71  C   UNL A   1      42.556  22.835  25.563  1.00  0.00     0.001 A 
ATOM     72  C   UNL A   1      43.669  22.658  24.748  1.00  0.00     0.000 A 
ENDBRANCH  48  67
BRANCH  60  73
ATOM     73  C   UNL A   1      45.374  30.139  29.006  1.00  0.00    -0.014 A 
ATOM     74  C   UNL A   1      46.705  30.524  28.764  1.00  0.00     0.009 A 
ATOM     75  C   UNL A   1      44.365  30.701  28.213  1.00  0.00     0.009 A 
ATOM     76  C   UNL A   1      47.008  31.469  27.777  1.00  0.00     0.001 A 
ATOM     77  C   UNL A   1      44.668  31.626  27.213  1.00  0.00     0.001 A 
ATOM     78  C   UNL A   1      45.988  32.015  27.000  1.00  0.00     0.000 A 
ENDBRANCH  60  73
ENDBRANCH  34  35
ENDBRANCH  27  29
ENDBRANCH  26  27
ENDBRANCH  25  26
ENDBRANCH  24  25
ENDBRANCH   1  24
TORSDOF 17
ENDMDL
MODEL 3
REMARK VINA RESULT:      -9.6      6.541     11.644
REMARK SMILES COCC[C@H]([NH3+])C(=O)N1CC(n2cc(C(=O)OCCOC(=O)c3ccc(-c4c5nc(c(-c6ccccc6)c6ccc([nH]6)c(-c6ccccc6)c6nc(c(-c7ccccc7)c7ccc4[nH]7)C=C6)C=C5)cc3)nn2)C1
REMARK SMILES IDX 17 1 15 2 16 3 14 4 12 5 13 6 72 7 71 8 11 9 7 10 8 11 9 12
REMARK SMILES IDX 10 13 73 14 5 15 4 16 3 17 2 18 1 19 6 20 18 24 19 25 20 26
REMARK SMILES IDX 21 27 22 28 23 29 24 30 70 31 25 32 69 33 26 34 27 35 28 36
REMARK SMILES IDX 63 37 29 38 68 39 62 40 64 41 30 42 67 43 61 44 60 45 31 47
REMARK SMILES IDX 53 48 38 49 52 50 39 51 42 52 51 53 65 54 40 55 41 56 50 58
REMARK SMILES IDX 66 59 43 60 32 61 33 62 37 63 34 64 36 65 35 66 54 67 55 68
REMARK SMILES IDX 59 69 56 70 58 71 57 72 44 73 45 74 49 75 46 76 48 77 47 78
REMARK H PARENT 6 21 6 22 6 23 64 46 42 57
REMARK Flexibility Score: inf
ROOT
ATOM      1  O   UNL A   1      41.186  19.661  25.817  1.00  0.00    -0.457 OA
ENDROOT
BRANCH   1   2
ATOM      2  C   UNL A   1      40.772  20.421  26.880  1.00  0.00     0.360 C 
ATOM      3  O   UNL A   1      41.225  20.309  28.017  1.00  0.00    -0.244 OA
BRANCH   2   4
ATOM      4  C   UNL A   1      39.777  21.414  26.510  1.00  0.00     0.190 A 
ATOM      5  N   UNL A   1      38.086  22.502  25.698  1.00  0.00    -0.245 N 
ATOM      6  C   UNL A   1      38.738  21.303  25.605  1.00  0.00     0.147 A 
ATOM      7  N   UNL A   1      38.716  23.333  26.543  1.00  0.00    -0.066 NA
ATOM      8  N   UNL A   1      39.759  22.684  27.041  1.00  0.00    -0.123 NA
BRANCH   5   9
ATOM      9  C   UNL A   1      36.794  22.748  25.129  1.00  0.00     0.148 C 
ATOM     10  C   UNL A   1      33.913  21.581  24.362  1.00  0.00     0.280 C 
ATOM     11  O   UNL A   1      33.569  22.626  23.803  1.00  0.00    -0.268 OA
ATOM     12  N   UNL A   1      35.113  21.482  25.028  1.00  0.00    -0.333 N 
ATOM     13  C   UNL A   1      35.586  22.483  26.016  1.00  0.00     0.149 C 
ATOM     14  C   UNL A   1      36.380  21.556  24.280  1.00  0.00     0.149 C 
BRANCH  10  15
ATOM     15  C   UNL A   1      33.042  20.296  24.283  1.00  0.00     0.273 C 
BRANCH  15  16
ATOM     16  C   UNL A   1      33.713  18.948  24.580  1.00  0.00     0.104 C 
BRANCH  16  17
ATOM     17  C   UNL A   1      33.530  17.778  23.605  1.00  0.00     0.166 C 
BRANCH  17  18
ATOM     18  O   UNL A   1      34.237  16.600  23.955  1.00  0.00    -0.384 OA
ATOM     19  C   UNL A   1      33.653  15.854  25.013  1.00  0.00     0.194 C 
ENDBRANCH  17  18
ENDBRANCH  16  17
ENDBRANCH  15  16
BRANCH  15  20
ATOM     20  N   UNL A   1      32.194  20.296  23.071  1.00  0.00    -0.347 N 
ATOM     21  H   UNL A   1      31.755  19.382  22.964  1.00  0.00     0.345 HD
ATOM     22  H   UNL A   1      32.770  20.495  22.253  1.00  0.00     0.345 HD
ATOM     23  H   UNL A   1      31.472  21.011  23.161  1.00  0.00     0.345 HD
ENDBRANCH  15  20
ENDBRANCH  10  15
ENDBRANCH   5   9
ENDBRANCH   2   4
ENDBRANCH   1   2
BRANCH   1  24
ATOM     24  C   UNL A   1      42.105  18.602  26.134  1.00  0.00     0.275 C 
BRANCH  24  25
ATOM     25  C   UNL A   1      43.523  18.965  25.715  1.00  0.00     0.275 C 
BRANCH  25  26
ATOM     26  O   UNL A   1      43.567  19.474  24.382  1.00  0.00    -0.458 OA
BRANCH  26  27
ATOM     27  C   UNL A   1      44.802  19.780  23.923  1.00  0.00     0.338 C 
ATOM     28  O   UNL A   1      45.618  19.010  23.442  1.00  0.00    -0.246 OA
BRANCH  27  29
ATOM     29  C   UNL A   1      45.137  21.151  24.326  1.00  0.00     0.060 A 
ATOM     30  C   UNL A   1      46.021  21.312  25.396  1.00  0.00     0.016 A 
ATOM     31  C   UNL A   1      44.363  22.215  23.843  1.00  0.00     0.016 A 
ATOM     32  C   UNL A   1      46.003  22.505  26.091  1.00  0.00     0.010 A 
ATOM     33  C   UNL A   1      44.333  23.398  24.546  1.00  0.00     0.010 A 
ATOM     34  C   UNL A   1      45.099  23.504  25.702  1.00  0.00    -0.014 A 
BRANCH  34  35
ATOM     35  C   UNL A   1      45.068  24.738  26.459  1.00  0.00     0.031 A 
ATOM     36  C   UNL A   1      46.318  25.517  26.333  1.00  0.00     0.074 A 
ATOM     37  C   UNL A   1      43.982  25.185  27.116  1.00  0.00     0.049 A 
ATOM     38  N   UNL A   1      47.209  25.705  27.245  1.00  0.00    -0.248 NA
ATOM     39  C   UNL A   1      46.703  25.998  24.997  1.00  0.00     0.031 C 
ATOM     40  C   UNL A   1      42.616  24.656  27.090  1.00  0.00     0.029 A 
ATOM     41  N   UNL A   1      43.864  26.297  27.890  1.00  0.00    -0.354 N 
ATOM     42  C   UNL A   1      48.191  26.490  26.655  1.00  0.00     0.074 A 
ATOM     43  C   UNL A   1      47.916  26.495  25.240  1.00  0.00     0.031 C 
ATOM     44  C   UNL A   1      41.772  25.571  27.625  1.00  0.00     0.029 A 
ATOM     45  C   UNL A   1      42.555  26.673  28.160  1.00  0.00     0.049 A 
ATOM     46  H   UNL A   1      44.643  26.795  28.230  1.00  0.00     0.167 HD
ATOM     47  C   UNL A   1      49.001  27.283  27.404  1.00  0.00     0.031 A 
ATOM     48  C   UNL A   1      42.156  27.831  28.743  1.00  0.00     0.031 A 
ATOM     49  C   UNL A   1      48.940  26.935  28.800  1.00  0.00     0.049 A 
ATOM     50  C   UNL A   1      43.320  28.389  29.467  1.00  0.00     0.074 A 
ATOM     51  C   UNL A   1      49.282  25.834  29.555  1.00  0.00     0.029 A 
ATOM     52  N   UNL A   1      48.083  27.684  29.571  1.00  0.00    -0.354 N 
ATOM     53  N   UNL A   1      43.834  27.836  30.526  1.00  0.00    -0.248 NA
ATOM     54  C   UNL A   1      44.187  29.327  28.772  1.00  0.00     0.031 C 
ATOM     55  C   UNL A   1      48.285  25.756  30.571  1.00  0.00     0.029 A 
ATOM     56  C   UNL A   1      47.421  26.843  30.424  1.00  0.00     0.049 A 
ATOM     57  H   UNL A   1      47.965  28.659  29.517  1.00  0.00     0.167 HD
ATOM     58  C   UNL A   1      45.203  27.992  30.375  1.00  0.00     0.074 A 
ATOM     59  C   UNL A   1      45.352  29.024  29.351  1.00  0.00     0.031 C 
ATOM     60  C   UNL A   1      46.069  27.070  30.889  1.00  0.00     0.031 A 
BRANCH  47  61
ATOM     61  C   UNL A   1      49.467  28.641  26.951  1.00  0.00    -0.014 A 
ATOM     62  C   UNL A   1      50.770  28.766  26.440  1.00  0.00     0.009 A 
ATOM     63  C   UNL A   1      48.799  29.836  27.285  1.00  0.00     0.009 A 
ATOM     64  C   UNL A   1      51.397  30.013  26.342  1.00  0.00     0.001 A 
ATOM     65  C   UNL A   1      49.406  31.086  27.151  1.00  0.00     0.001 A 
ATOM     66  C   UNL A   1      50.717  31.172  26.706  1.00  0.00     0.000 A 
ENDBRANCH  47  61
BRANCH  48  67
ATOM     67  C   UNL A   1      40.936  28.632  28.515  1.00  0.00    -0.014 A 
ATOM     68  C   UNL A   1      40.381  28.750  27.231  1.00  0.00     0.009 A 
ATOM     69  C   UNL A   1      40.148  29.032  29.609  1.00  0.00     0.009 A 
ATOM     70  C   UNL A   1      39.070  29.213  27.051  1.00  0.00     0.001 A 
ATOM     71  C   UNL A   1      38.838  29.492  29.430  1.00  0.00     0.001 A 
ATOM     72  C   UNL A   1      38.294  29.567  28.152  1.00  0.00     0.000 A 
ENDBRANCH  48  67
BRANCH  60  73
ATOM     73  C   UNL A   1      45.510  26.053  31.855  1.00  0.00    -0.014 A 
ATOM     74  C   UNL A   1      44.875  24.865  31.449  1.00  0.00     0.009 A 
ATOM     75  C   UNL A   1      45.747  26.246  33.223  1.00  0.00     0.009 A 
ATOM     76  C   UNL A   1      44.463  23.916  32.392  1.00  0.00     0.001 A 
ATOM     77  C   UNL A   1      45.358  25.290  34.161  1.00  0.00     0.001 A 
ATOM     78  C   UNL A   1      44.710  24.129  33.748  1.00  0.00     0.000 A 
ENDBRANCH  60  73
ENDBRANCH  34  35
ENDBRANCH  27  29
ENDBRANCH  26  27
ENDBRANCH  25  26
ENDBRANCH  24  25
ENDBRANCH   1  24
TORSDOF 17
ENDMDL
