MODEL 1
REMARK VINA RESULT:     -11.8      0.000      0.000
REMARK SMILES NC(=O)c1ccc(NC(=O)Cc2ccccc2C(=O)OCCOC(=O)c2ccc(-c3c4nc(c(-c5ccccc5)c5ccc([nH]5)c(-c5ccccc5)c5nc(c(-c6ccccc6)c6ccc3[nH]6)C=C5)C=C4)cc2)cc1
REMARK SMILES IDX 21 1 20 2 18 3 19 4 17 5 12 6 13 7 14 8 16 9 15 10 11 11
REMARK SMILES IDX 9 12 8 13 10 15 7 16 4 17 5 18 75 19 6 20 74 21 2 22 1 23
REMARK SMILES IDX 3 26 22 27 23 28 24 29 25 30 26 31 27 32 73 33 28 34 72 35
REMARK SMILES IDX 29 36 30 37 31 38 66 39 32 40 71 41 65 42 67 43 33 44 70 45
REMARK SMILES IDX 64 46 63 47 34 49 56 50 41 51 55 52 42 53 45 54 54 55 68 56
REMARK SMILES IDX 43 57 44 58 53 60 69 61 46 62 35 63 36 64 40 65 37 66 39 67
REMARK SMILES IDX 38 68 57 69 58 70 62 71 59 72 61 73 60 74 47 75 48 76 52 77
REMARK SMILES IDX 49 78 51 79 50 80
REMARK H PARENT 8 14 1 24 1 25 67 48 45 59
REMARK Flexibility Score: inf
ROOT
ATOM      1  C   UNL A   1      35.261  21.167  25.982  1.00  0.00     0.275 C 
ENDROOT
BRANCH   1   2
ATOM      2  O   UNL A   1      34.109  21.750  25.333  1.00  0.00    -0.458 OA
BRANCH   2   3
ATOM      3  C   UNL A   1      33.941  23.080  25.547  1.00  0.00     0.338 C 
ATOM      4  O   UNL A   1      34.220  23.665  26.576  1.00  0.00    -0.246 OA
BRANCH   3   5
ATOM      5  C   UNL A   1      33.354  23.784  24.373  1.00  0.00     0.063 A 
ATOM      6  C   UNL A   1      31.975  23.867  24.104  1.00  0.00    -0.024 A 
ATOM      7  C   UNL A   1      31.562  24.593  22.964  1.00  0.00     0.005 A 
ATOM      8  C   UNL A   1      32.477  25.275  22.160  1.00  0.00     0.000 A 
ATOM      9  C   UNL A   1      34.257  24.511  23.573  1.00  0.00     0.016 A 
ATOM     10  C   UNL A   1      33.826  25.245  22.472  1.00  0.00     0.001 A 
BRANCH   6  11
ATOM     11  C   UNL A   1      30.909  23.248  24.985  1.00  0.00     0.136 C 
BRANCH  11  12
ATOM     12  C   UNL A   1      30.683  23.974  26.303  1.00  0.00     0.228 C 
ATOM     13  N   UNL A   1      30.392  25.307  26.388  1.00  0.00    -0.326 N 
ATOM     14  H   UNL A   1      30.179  25.602  27.303  1.00  0.00     0.169 HD
ATOM     15  O   UNL A   1      30.707  23.335  27.363  1.00  0.00    -0.274 OA
BRANCH  13  16
ATOM     16  C   UNL A   1      30.334  26.343  25.442  1.00  0.00     0.041 A 
ATOM     17  C   UNL A   1      30.164  28.228  23.365  1.00  0.00     0.039 A 
ATOM     18  C   UNL A   1      31.240  28.249  24.245  1.00  0.00     0.016 A 
ATOM     19  C   UNL A   1      29.125  27.317  23.560  1.00  0.00     0.016 A 
ATOM     20  C   UNL A   1      31.301  27.333  25.301  1.00  0.00     0.027 A 
ATOM     21  C   UNL A   1      29.213  26.382  24.600  1.00  0.00     0.027 A 
BRANCH  17  22
ATOM     22  C   UNL A   1      30.166  29.169  22.229  1.00  0.00     0.248 C 
ATOM     23  N   UNL A   1      31.375  29.711  21.904  1.00  0.00    -0.366 N 
ATOM     24  H   UNL A   1      31.445  30.346  21.157  1.00  0.00     0.159 HD
ATOM     25  H   UNL A   1      32.178  29.466  22.419  1.00  0.00     0.159 HD
ATOM     26  O   UNL A   1      29.151  29.415  21.594  1.00  0.00    -0.270 OA
ENDBRANCH  17  22
ENDBRANCH  13  16
ENDBRANCH  11  12
ENDBRANCH   6  11
ENDBRANCH   3   5
ENDBRANCH   2   3
ENDBRANCH   1   2
BRANCH   1  27
ATOM     27  C   UNL A   1      36.351  20.776  24.987  1.00  0.00     0.275 C 
BRANCH  27  28
ATOM     28  O   UNL A   1      37.425  21.732  25.009  1.00  0.00    -0.458 OA
BRANCH  28  29
ATOM     29  C   UNL A   1      38.519  21.338  25.696  1.00  0.00     0.338 C 
ATOM     30  O   UNL A   1      39.011  20.221  25.741  1.00  0.00    -0.246 OA
BRANCH  29  31
ATOM     31  C   UNL A   1      39.125  22.486  26.379  1.00  0.00     0.060 A 
ATOM     32  C   UNL A   1      38.597  23.750  26.146  1.00  0.00     0.016 A 
ATOM     33  C   UNL A   1      40.317  22.346  27.082  1.00  0.00     0.016 A 
ATOM     34  C   UNL A   1      39.312  24.888  26.490  1.00  0.00     0.010 A 
ATOM     35  C   UNL A   1      40.972  23.491  27.547  1.00  0.00     0.010 A 
ATOM     36  C   UNL A   1      40.501  24.777  27.215  1.00  0.00    -0.014 A 
BRANCH  36  37
ATOM     37  C   UNL A   1      41.265  25.997  27.588  1.00  0.00     0.031 A 
ATOM     38  C   UNL A   1      40.665  27.000  28.536  1.00  0.00     0.074 A 
ATOM     39  C   UNL A   1      42.503  26.203  27.094  1.00  0.00     0.049 A 
ATOM     40  N   UNL A   1      41.064  28.213  28.820  1.00  0.00    -0.248 NA
ATOM     41  C   UNL A   1      39.441  26.589  29.244  1.00  0.00     0.031 C 
ATOM     42  C   UNL A   1      43.243  25.281  26.230  1.00  0.00     0.029 A 
ATOM     43  N   UNL A   1      43.364  27.260  27.258  1.00  0.00    -0.354 N 
ATOM     44  C   UNL A   1      40.105  28.734  29.682  1.00  0.00     0.074 A 
ATOM     45  C   UNL A   1      39.104  27.707  29.871  1.00  0.00     0.031 C 
ATOM     46  C   UNL A   1      44.458  25.787  25.979  1.00  0.00     0.029 A 
ATOM     47  C   UNL A   1      44.541  27.118  26.566  1.00  0.00     0.049 A 
ATOM     48  H   UNL A   1      43.158  28.043  27.818  1.00  0.00     0.167 HD
ATOM     49  C   UNL A   1      40.062  29.962  30.253  1.00  0.00     0.031 A 
ATOM     50  C   UNL A   1      45.556  27.980  26.370  1.00  0.00     0.031 A 
ATOM     51  C   UNL A   1      41.085  30.961  30.086  1.00  0.00     0.049 A 
ATOM     52  C   UNL A   1      45.456  29.357  26.957  1.00  0.00     0.074 A 
ATOM     53  C   UNL A   1      41.145  32.234  30.627  1.00  0.00     0.029 A 
ATOM     54  N   UNL A   1      42.234  30.793  29.329  1.00  0.00    -0.354 N 
ATOM     55  N   UNL A   1      44.513  29.866  27.712  1.00  0.00    -0.248 NA
ATOM     56  C   UNL A   1      46.551  30.285  26.645  1.00  0.00     0.031 C 
ATOM     57  C   UNL A   1      42.308  32.853  30.155  1.00  0.00     0.029 A 
ATOM     58  C   UNL A   1      43.001  31.946  29.369  1.00  0.00     0.049 A 
ATOM     59  H   UNL A   1      42.471  29.974  28.836  1.00  0.00     0.167 HD
ATOM     60  C   UNL A   1      44.907  31.170  27.979  1.00  0.00     0.074 A 
ATOM     61  C   UNL A   1      46.184  31.364  27.322  1.00  0.00     0.031 C 
ATOM     62  C   UNL A   1      44.266  32.121  28.702  1.00  0.00     0.031 A 
BRANCH  49  63
ATOM     63  C   UNL A   1      38.839  30.309  31.057  1.00  0.00    -0.014 A 
ATOM     64  C   UNL A   1      37.661  30.779  30.456  1.00  0.00     0.009 A 
ATOM     65  C   UNL A   1      38.868  30.152  32.453  1.00  0.00     0.009 A 
ATOM     66  C   UNL A   1      36.556  31.128  31.240  1.00  0.00     0.001 A 
ATOM     67  C   UNL A   1      37.754  30.471  33.231  1.00  0.00     0.001 A 
ATOM     68  C   UNL A   1      36.603  30.971  32.624  1.00  0.00     0.000 A 
ENDBRANCH  49  63
BRANCH  50  69
ATOM     69  C   UNL A   1      46.716  27.580  25.532  1.00  0.00    -0.014 A 
ATOM     70  C   UNL A   1      47.776  26.847  26.086  1.00  0.00     0.009 A 
ATOM     71  C   UNL A   1      46.757  27.905  24.166  1.00  0.00     0.009 A 
ATOM     72  C   UNL A   1      48.856  26.457  25.289  1.00  0.00     0.001 A 
ATOM     73  C   UNL A   1      47.821  27.484  23.366  1.00  0.00     0.001 A 
ATOM     74  C   UNL A   1      48.873  26.766  23.929  1.00  0.00     0.000 A 
ENDBRANCH  50  69
BRANCH  62  75
ATOM     75  C   UNL A   1      44.960  33.445  28.846  1.00  0.00    -0.014 A 
ATOM     76  C   UNL A   1      45.878  33.678  29.882  1.00  0.00     0.009 A 
ATOM     77  C   UNL A   1      44.708  34.462  27.914  1.00  0.00     0.009 A 
ATOM     78  C   UNL A   1      46.504  34.921  30.000  1.00  0.00     0.001 A 
ATOM     79  C   UNL A   1      45.359  35.692  28.017  1.00  0.00     0.001 A 
ATOM     80  C   UNL A   1      46.248  35.924  29.065  1.00  0.00     0.000 A 
ENDBRANCH  62  75
ENDBRANCH  36  37
ENDBRANCH  29  31
ENDBRANCH  28  29
ENDBRANCH  27  28
ENDBRANCH   1  27
TORSDOF 15
ENDMDL
MODEL 2
REMARK VINA RESULT:     -11.4      2.307      4.350
REMARK SMILES NC(=O)c1ccc(NC(=O)Cc2ccccc2C(=O)OCCOC(=O)c2ccc(-c3c4nc(c(-c5ccccc5)c5ccc([nH]5)c(-c5ccccc5)c5nc(c(-c6ccccc6)c6ccc3[nH]6)C=C5)C=C4)cc2)cc1
REMARK SMILES IDX 21 1 20 2 18 3 19 4 17 5 12 6 13 7 14 8 16 9 15 10 11 11
REMARK SMILES IDX 9 12 8 13 10 15 7 16 4 17 5 18 75 19 6 20 74 21 2 22 1 23
REMARK SMILES IDX 3 26 22 27 23 28 24 29 25 30 26 31 27 32 73 33 28 34 72 35
REMARK SMILES IDX 29 36 30 37 31 38 66 39 32 40 71 41 65 42 67 43 33 44 70 45
REMARK SMILES IDX 64 46 63 47 34 49 56 50 41 51 55 52 42 53 45 54 54 55 68 56
REMARK SMILES IDX 43 57 44 58 53 60 69 61 46 62 35 63 36 64 40 65 37 66 39 67
REMARK SMILES IDX 38 68 57 69 58 70 62 71 59 72 61 73 60 74 47 75 48 76 52 77
REMARK SMILES IDX 49 78 51 79 50 80
REMARK H PARENT 8 14 1 24 1 25 67 48 45 59
REMARK Flexibility Score: inf
ROOT
ATOM      1  C   UNL A   1      35.416  21.563  26.037  1.00  0.00     0.275 C 
ENDROOT
BRANCH   1   2
ATOM      2  O   UNL A   1      35.536  22.995  25.880  1.00  0.00    -0.458 OA
BRANCH   2   3
ATOM      3  C   UNL A   1      34.831  23.520  24.845  1.00  0.00     0.338 C 
ATOM      4  O   UNL A   1      35.129  23.417  23.670  1.00  0.00    -0.246 OA
BRANCH   3   5
ATOM      5  C   UNL A   1      33.623  24.267  25.291  1.00  0.00     0.063 A 
ATOM      6  C   UNL A   1      32.336  23.706  25.395  1.00  0.00    -0.024 A 
ATOM      7  C   UNL A   1      31.286  24.530  25.860  1.00  0.00     0.005 A 
ATOM      8  C   UNL A   1      31.516  25.842  26.278  1.00  0.00     0.000 A 
ATOM      9  C   UNL A   1      33.842  25.579  25.755  1.00  0.00     0.016 A 
ATOM     10  C   UNL A   1      32.799  26.364  26.238  1.00  0.00     0.001 A 
BRANCH   6  11
ATOM     11  C   UNL A   1      32.021  22.261  25.065  1.00  0.00     0.136 C 
BRANCH  11  12
ATOM     12  C   UNL A   1      31.980  21.950  23.577  1.00  0.00     0.228 C 
ATOM     13  N   UNL A   1      32.151  20.694  23.065  1.00  0.00    -0.326 N 
ATOM     14  H   UNL A   1      32.000  20.644  22.094  1.00  0.00     0.169 HD
ATOM     15  O   UNL A   1      31.729  22.855  22.771  1.00  0.00    -0.274 OA
BRANCH  13  16
ATOM     16  C   UNL A   1      32.498  19.459  23.637  1.00  0.00     0.041 A 
ATOM     17  C   UNL A   1      32.984  16.881  24.645  1.00  0.00     0.039 A 
ATOM     18  C   UNL A   1      32.946  17.975  25.503  1.00  0.00     0.016 A 
ATOM     19  C   UNL A   1      32.858  17.074  23.269  1.00  0.00     0.016 A 
ATOM     20  C   UNL A   1      32.742  19.261  24.991  1.00  0.00     0.027 A 
ATOM     21  C   UNL A   1      32.619  18.362  22.771  1.00  0.00     0.027 A 
BRANCH  17  22
ATOM     22  C   UNL A   1      33.140  15.534  25.227  1.00  0.00     0.248 C 
ATOM     23  N   UNL A   1      31.985  14.842  25.449  1.00  0.00    -0.366 N 
ATOM     24  H   UNL A   1      32.020  13.939  25.837  1.00  0.00     0.159 HD
ATOM     25  H   UNL A   1      31.118  15.248  25.222  1.00  0.00     0.159 HD
ATOM     26  O   UNL A   1      34.240  15.057  25.459  1.00  0.00    -0.270 OA
ENDBRANCH  17  22
ENDBRANCH  13  16
ENDBRANCH  11  12
ENDBRANCH   6  11
ENDBRANCH   3   5
ENDBRANCH   2   3
ENDBRANCH   1   2
BRANCH   1  27
ATOM     27  C   UNL A   1      36.492  20.802  25.266  1.00  0.00     0.275 C 
BRANCH  27  28
ATOM     28  O   UNL A   1      37.654  21.625  25.070  1.00  0.00    -0.458 OA
BRANCH  28  29
ATOM     29  C   UNL A   1      38.729  21.271  25.806  1.00  0.00     0.338 C 
ATOM     30  O   UNL A   1      39.237  20.164  25.902  1.00  0.00    -0.246 OA
BRANCH  29  31
ATOM     31  C   UNL A   1      39.291  22.448  26.476  1.00  0.00     0.060 A 
ATOM     32  C   UNL A   1      38.783  23.701  26.152  1.00  0.00     0.016 A 
ATOM     33  C   UNL A   1      40.432  22.340  27.265  1.00  0.00     0.016 A 
ATOM     34  C   UNL A   1      39.478  24.852  26.492  1.00  0.00     0.010 A 
ATOM     35  C   UNL A   1      41.058  23.505  27.721  1.00  0.00     0.010 A 
ATOM     36  C   UNL A   1      40.614  24.774  27.300  1.00  0.00    -0.014 A 
BRANCH  36  37
ATOM     37  C   UNL A   1      41.355  26.010  27.669  1.00  0.00     0.031 A 
ATOM     38  C   UNL A   1      40.726  27.015  28.595  1.00  0.00     0.074 A 
ATOM     39  C   UNL A   1      42.597  26.228  27.190  1.00  0.00     0.049 A 
ATOM     40  N   UNL A   1      41.104  28.238  28.870  1.00  0.00    -0.248 NA
ATOM     41  C   UNL A   1      39.498  26.595  29.291  1.00  0.00     0.031 C 
ATOM     42  C   UNL A   1      43.363  25.306  26.348  1.00  0.00     0.029 A 
ATOM     43  N   UNL A   1      43.440  27.300  27.353  1.00  0.00    -0.354 N 
ATOM     44  C   UNL A   1      40.125  28.756  29.712  1.00  0.00     0.074 A 
ATOM     45  C   UNL A   1      39.136  27.716  29.899  1.00  0.00     0.031 C 
ATOM     46  C   UNL A   1      44.574  25.827  26.108  1.00  0.00     0.029 A 
ATOM     47  C   UNL A   1      44.629  27.166  26.680  1.00  0.00     0.049 A 
ATOM     48  H   UNL A   1      43.214  28.087  27.900  1.00  0.00     0.167 HD
ATOM     49  C   UNL A   1      40.055  29.989  30.266  1.00  0.00     0.031 A 
ATOM     50  C   UNL A   1      45.633  28.041  26.488  1.00  0.00     0.031 A 
ATOM     51  C   UNL A   1      41.066  31.001  30.102  1.00  0.00     0.049 A 
ATOM     52  C   UNL A   1      45.505  29.423  27.056  1.00  0.00     0.074 A 
ATOM     53  C   UNL A   1      41.101  32.282  30.627  1.00  0.00     0.029 A 
ATOM     54  N   UNL A   1      42.229  30.841  29.364  1.00  0.00    -0.354 N 
ATOM     55  N   UNL A   1      44.545  29.928  27.791  1.00  0.00    -0.248 NA
ATOM     56  C   UNL A   1      46.591  30.363  26.749  1.00  0.00     0.031 C 
ATOM     57  C   UNL A   1      42.261  32.911  30.165  1.00  0.00     0.029 A 
ATOM     58  C   UNL A   1      42.978  32.005  29.401  1.00  0.00     0.049 A 
ATOM     59  H   UNL A   1      42.485  30.019  28.884  1.00  0.00     0.167 HD
ATOM     60  C   UNL A   1      44.915  31.240  28.047  1.00  0.00     0.074 A 
ATOM     61  C   UNL A   1      46.198  31.445  27.407  1.00  0.00     0.031 C 
ATOM     62  C   UNL A   1      44.250  32.190  28.749  1.00  0.00     0.031 A 
BRANCH  49  63
ATOM     63  C   UNL A   1      38.816  30.328  31.049  1.00  0.00    -0.014 A 
ATOM     64  C   UNL A   1      38.773  30.240  32.449  1.00  0.00     0.009 A 
ATOM     65  C   UNL A   1      37.666  30.752  30.363  1.00  0.00     0.009 A 
ATOM     66  C   UNL A   1      37.591  30.527  33.141  1.00  0.00     0.001 A 
ATOM     67  C   UNL A   1      36.497  31.068  31.058  1.00  0.00     0.001 A 
ATOM     68  C   UNL A   1      36.457  30.942  32.445  1.00  0.00     0.000 A 
ENDBRANCH  49  63
BRANCH  50  69
ATOM     69  C   UNL A   1      46.811  27.648  25.672  1.00  0.00    -0.014 A 
ATOM     70  C   UNL A   1      47.911  27.011  26.267  1.00  0.00     0.009 A 
ATOM     71  C   UNL A   1      46.831  27.881  24.287  1.00  0.00     0.009 A 
ATOM     72  C   UNL A   1      49.008  26.626  25.492  1.00  0.00     0.001 A 
ATOM     73  C   UNL A   1      47.914  27.465  23.510  1.00  0.00     0.001 A 
ATOM     74  C   UNL A   1      49.005  26.844  24.114  1.00  0.00     0.000 A 
ENDBRANCH  50  69
BRANCH  62  75
ATOM     75  C   UNL A   1      44.923  33.526  28.886  1.00  0.00    -0.014 A 
ATOM     76  C   UNL A   1      45.818  33.787  29.936  1.00  0.00     0.009 A 
ATOM     77  C   UNL A   1      44.673  34.527  27.936  1.00  0.00     0.009 A 
ATOM     78  C   UNL A   1      46.425  35.040  30.047  1.00  0.00     0.001 A 
ATOM     79  C   UNL A   1      45.305  35.767  28.033  1.00  0.00     0.001 A 
ATOM     80  C   UNL A   1      46.172  36.026  29.093  1.00  0.00     0.000 A 
ENDBRANCH  62  75
ENDBRANCH  36  37
ENDBRANCH  29  31
ENDBRANCH  28  29
ENDBRANCH  27  28
ENDBRANCH   1  27
TORSDOF 15
ENDMDL
MODEL 3
REMARK VINA RESULT:     -11.4      3.814      8.915
REMARK SMILES NC(=O)c1ccc(NC(=O)Cc2ccccc2C(=O)OCCOC(=O)c2ccc(-c3c4nc(c(-c5ccccc5)c5ccc([nH]5)c(-c5ccccc5)c5nc(c(-c6ccccc6)c6ccc3[nH]6)C=C5)C=C4)cc2)cc1
REMARK SMILES IDX 21 1 20 2 18 3 19 4 17 5 12 6 13 7 14 8 16 9 15 10 11 11
REMARK SMILES IDX 9 12 8 13 10 15 7 16 4 17 5 18 75 19 6 20 74 21 2 22 1 23
REMARK SMILES IDX 3 26 22 27 23 28 24 29 25 30 26 31 27 32 73 33 28 34 72 35
REMARK SMILES IDX 29 36 30 37 31 38 66 39 32 40 71 41 65 42 67 43 33 44 70 45
REMARK SMILES IDX 64 46 63 47 34 49 56 50 41 51 55 52 42 53 45 54 54 55 68 56
REMARK SMILES IDX 43 57 44 58 53 60 69 61 46 62 35 63 36 64 40 65 37 66 39 67
REMARK SMILES IDX 38 68 57 69 58 70 62 71 59 72 61 73 60 74 47 75 48 76 52 77
REMARK SMILES IDX 49 78 51 79 50 80
REMARK H PARENT 8 14 1 24 1 25 67 48 45 59
REMARK Flexibility Score: inf
ROOT
ATOM      1  C   UNL A   1      31.997  29.094  25.015  1.00  0.00     0.275 C 
ENDROOT
BRANCH   1   2
ATOM      2  O   UNL A   1      31.329  27.977  25.641  1.00  0.00    -0.458 OA
BRANCH   2   3
ATOM      3  C   UNL A   1      31.025  26.949  24.808  1.00  0.00     0.338 C 
ATOM      4  O   UNL A   1      30.729  27.062  23.634  1.00  0.00    -0.246 OA
BRANCH   3   5
ATOM      5  C   UNL A   1      31.080  25.623  25.484  1.00  0.00     0.063 A 
ATOM      6  C   UNL A   1      32.256  24.873  25.665  1.00  0.00    -0.024 A 
ATOM      7  C   UNL A   1      32.161  23.641  26.351  1.00  0.00     0.005 A 
ATOM      8  C   UNL A   1      30.956  23.202  26.904  1.00  0.00     0.000 A 
ATOM      9  C   UNL A   1      29.883  25.183  26.082  1.00  0.00     0.016 A 
ATOM     10  C   UNL A   1      29.816  23.981  26.780  1.00  0.00     0.001 A 
BRANCH   6  11
ATOM     11  C   UNL A   1      33.623  25.326  25.194  1.00  0.00     0.136 C 
BRANCH  11  12
ATOM     12  C   UNL A   1      33.860  25.161  23.700  1.00  0.00     0.228 C 
ATOM     13  N   UNL A   1      33.881  23.947  23.071  1.00  0.00    -0.326 N 
ATOM     14  H   UNL A   1      33.948  24.017  22.091  1.00  0.00     0.169 HD
ATOM     15  O   UNL A   1      33.989  26.165  22.988  1.00  0.00    -0.274 OA
BRANCH  13  16
ATOM     16  C   UNL A   1      33.828  22.622  23.531  1.00  0.00     0.041 A 
ATOM     17  C   UNL A   1      33.478  20.028  24.554  1.00  0.00     0.039 A 
ATOM     18  C   UNL A   1      34.666  20.717  24.777  1.00  0.00     0.016 A 
ATOM     19  C   UNL A   1      32.487  20.595  23.753  1.00  0.00     0.016 A 
ATOM     20  C   UNL A   1      34.850  21.992  24.233  1.00  0.00     0.027 A 
ATOM     21  C   UNL A   1      32.668  21.888  23.242  1.00  0.00     0.027 A 
BRANCH  17  22
ATOM     22  C   UNL A   1      33.298  18.711  25.194  1.00  0.00     0.248 C 
ATOM     23  N   UNL A   1      32.807  18.728  26.467  1.00  0.00    -0.366 N 
ATOM     24  H   UNL A   1      32.664  17.883  26.951  1.00  0.00     0.159 HD
ATOM     25  H   UNL A   1      32.597  19.586  26.901  1.00  0.00     0.159 HD
ATOM     26  O   UNL A   1      33.538  17.669  24.603  1.00  0.00    -0.270 OA
ENDBRANCH  17  22
ENDBRANCH  13  16
ENDBRANCH  11  12
ENDBRANCH   6  11
ENDBRANCH   3   5
ENDBRANCH   2   3
ENDBRANCH   1   2
BRANCH   1  27
ATOM     27  C   UNL A   1      31.694  30.418  25.714  1.00  0.00     0.275 C 
BRANCH  27  28
ATOM     28  O   UNL A   1      32.342  30.474  26.996  1.00  0.00    -0.458 OA
BRANCH  28  29
ATOM     29  C   UNL A   1      33.025  31.614  27.236  1.00  0.00     0.338 C 
ATOM     30  O   UNL A   1      32.611  32.761  27.167  1.00  0.00    -0.246 OA
BRANCH  29  31
ATOM     31  C   UNL A   1      34.390  31.302  27.673  1.00  0.00     0.060 A 
ATOM     32  C   UNL A   1      34.697  29.986  27.997  1.00  0.00     0.016 A 
ATOM     33  C   UNL A   1      35.297  32.319  27.949  1.00  0.00     0.016 A 
ATOM     34  C   UNL A   1      35.845  29.686  28.716  1.00  0.00     0.010 A 
ATOM     35  C   UNL A   1      36.517  31.999  28.555  1.00  0.00     0.010 A 
ATOM     36  C   UNL A   1      36.784  30.685  28.988  1.00  0.00    -0.014 A 
BRANCH  36  37
ATOM     37  C   UNL A   1      38.016  30.362  29.754  1.00  0.00     0.031 A 
ATOM     38  C   UNL A   1      39.105  29.541  29.118  1.00  0.00     0.074 A 
ATOM     39  C   UNL A   1      38.173  30.815  31.015  1.00  0.00     0.049 A 
ATOM     40  N   UNL A   1      40.147  28.975  29.671  1.00  0.00    -0.248 NA
ATOM     41  C   UNL A   1      38.995  29.311  27.667  1.00  0.00     0.031 C 
ATOM     42  C   UNL A   1      37.239  31.686  31.732  1.00  0.00     0.029 A 
ATOM     43  N   UNL A   1      39.187  30.609  31.917  1.00  0.00    -0.354 N 
ATOM     44  C   UNL A   1      40.776  28.266  28.653  1.00  0.00     0.074 A 
ATOM     45  C   UNL A   1      39.997  28.470  27.451  1.00  0.00     0.031 C 
ATOM     46  C   UNL A   1      37.743  31.977  32.940  1.00  0.00     0.029 A 
ATOM     47  C   UNL A   1      38.975  31.222  33.127  1.00  0.00     0.049 A 
ATOM     48  H   UNL A   1      39.989  30.074  31.716  1.00  0.00     0.167 HD
ATOM     49  C   UNL A   1      41.895  27.506  28.722  1.00  0.00     0.031 A 
ATOM     50  C   UNL A   1      39.659  31.145  34.284  1.00  0.00     0.031 A 
ATOM     51  C   UNL A   1      42.682  27.342  29.916  1.00  0.00     0.049 A 
ATOM     52  C   UNL A   1      40.857  30.247  34.355  1.00  0.00     0.074 A 
ATOM     53  C   UNL A   1      43.839  26.603  30.095  1.00  0.00     0.029 A 
ATOM     54  N   UNL A   1      42.398  27.939  31.135  1.00  0.00    -0.354 N 
ATOM     55  N   UNL A   1      41.404  29.524  33.409  1.00  0.00    -0.248 NA
ATOM     56  C   UNL A   1      41.518  30.136  35.662  1.00  0.00     0.031 C 
ATOM     57  C   UNL A   1      44.225  26.713  31.435  1.00  0.00     0.029 A 
ATOM     58  C   UNL A   1      43.343  27.568  32.077  1.00  0.00     0.049 A 
ATOM     59  H   UNL A   1      41.635  28.539  31.307  1.00  0.00     0.167 HD
ATOM     60  C   UNL A   1      42.484  28.883  34.000  1.00  0.00     0.074 A 
ATOM     61  C   UNL A   1      42.524  29.320  35.381  1.00  0.00     0.031 C 
ATOM     62  C   UNL A   1      43.361  28.009  33.448  1.00  0.00     0.031 A 
BRANCH  49  63
ATOM     63  C   UNL A   1      42.294  26.748  27.486  1.00  0.00    -0.014 A 
ATOM     64  C   UNL A   1      43.156  27.295  26.522  1.00  0.00     0.009 A 
ATOM     65  C   UNL A   1      41.799  25.448  27.287  1.00  0.00     0.009 A 
ATOM     66  C   UNL A   1      43.474  26.575  25.366  1.00  0.00     0.001 A 
ATOM     67  C   UNL A   1      42.143  24.719  26.148  1.00  0.00     0.001 A 
ATOM     68  C   UNL A   1      42.970  25.288  25.182  1.00  0.00     0.000 A 
ENDBRANCH  49  63
BRANCH  50  69
ATOM     69  C   UNL A   1      39.184  31.895  35.475  1.00  0.00    -0.014 A 
ATOM     70  C   UNL A   1      38.256  31.321  36.357  1.00  0.00     0.009 A 
ATOM     71  C   UNL A   1      39.677  33.181  35.754  1.00  0.00     0.009 A 
ATOM     72  C   UNL A   1      37.827  32.023  37.487  1.00  0.00     0.001 A 
ATOM     73  C   UNL A   1      39.272  33.866  36.902  1.00  0.00     0.001 A 
ATOM     74  C   UNL A   1      38.342  33.289  37.764  1.00  0.00     0.000 A 
ENDBRANCH  50  69
BRANCH  62  75
ATOM     75  C   UNL A   1      44.459  27.499  34.338  1.00  0.00    -0.014 A 
ATOM     76  C   UNL A   1      45.674  28.190  34.465  1.00  0.00     0.009 A 
ATOM     77  C   UNL A   1      44.261  26.322  35.075  1.00  0.00     0.009 A 
ATOM     78  C   UNL A   1      46.683  27.691  35.292  1.00  0.00     0.001 A 
ATOM     79  C   UNL A   1      45.260  25.843  35.923  1.00  0.00     0.001 A 
ATOM     80  C   UNL A   1      46.473  26.522  36.023  1.00  0.00     0.000 A 
ENDBRANCH  62  75
ENDBRANCH  36  37
ENDBRANCH  29  31
ENDBRANCH  28  29
ENDBRANCH  27  28
ENDBRANCH   1  27
TORSDOF 15
ENDMDL
