MODEL 1
REMARK VINA RESULT:     -11.2      0.000      0.000
REMARK SMILES COc1ccccc1OC1CCN(c2cccc(C(=O)OCCOC(=O)c3ccc(-c4c5nc(c(-c6ccccc6)c6ccc([nH]6)c(-c6ccccc6)c6nc(c(-c7ccccc7)c7ccc4[nH]7)C=C6)C=C5)cc3)n2)CC1
REMARK SMILES IDX 22 1 21 2 19 3 20 4 18 5 14 6 15 7 75 8 16 9 17 10 13 11
REMARK SMILES IDX 10 12 11 13 77 14 12 15 76 16 9 17 8 18 3 19 4 20 5 21 7 22
REMARK SMILES IDX 6 23 2 24 1 25 23 26 24 27 25 28 26 29 27 30 28 31 74 32
REMARK SMILES IDX 29 33 73 34 30 35 31 36 32 37 67 38 33 39 72 40 66 41 68 42
REMARK SMILES IDX 34 43 71 44 65 45 64 46 35 48 57 49 42 50 56 51 43 52 46 53
REMARK SMILES IDX 55 54 69 55 44 56 45 57 54 59 70 60 47 61 36 62 37 63 41 64
REMARK SMILES IDX 38 65 40 66 39 67 58 68 59 69 63 70 60 71 62 72 61 73 48 74
REMARK SMILES IDX 49 75 53 76 50 77 52 78 51 79
REMARK H PARENT 68 47 46 58
REMARK Flexibility Score: inf
ROOT
ATOM      1  C   UNL A   1      44.374  20.874  25.127  1.00  0.00     0.275 C 
ENDROOT
BRANCH   1   2
ATOM      2  O   UNL A   1      43.587  19.772  24.631  1.00  0.00    -0.457 OA
BRANCH   2   3
ATOM      3  C   UNL A   1      42.779  19.177  25.550  1.00  0.00     0.357 C 
ATOM      4  O   UNL A   1      42.710  17.974  25.761  1.00  0.00    -0.244 OA
BRANCH   3   5
ATOM      5  C   UNL A   1      42.058  20.204  26.361  1.00  0.00     0.150 A 
ATOM      6  C   UNL A   1      40.206  21.610  26.420  1.00  0.00     0.129 A 
ATOM      7  C   UNL A   1      40.547  22.019  27.707  1.00  0.00     0.047 A 
ATOM      8  N   UNL A   1      40.970  20.735  25.747  1.00  0.00    -0.224 NA
ATOM      9  C   UNL A   1      41.686  21.493  28.321  1.00  0.00     0.006 A 
ATOM     10  C   UNL A   1      42.455  20.554  27.643  1.00  0.00     0.036 A 
BRANCH   6  11
ATOM     11  N   UNL A   1      39.033  21.999  25.801  1.00  0.00    -0.356 N 
ATOM     12  C   UNL A   1      36.366  22.569  24.822  1.00  0.00     0.177 C 
ATOM     13  C   UNL A   1      37.237  21.433  24.285  1.00  0.00     0.066 C 
ATOM     14  C   UNL A   1      37.293  23.696  25.320  1.00  0.00     0.066 C 
ATOM     15  C   UNL A   1      38.183  20.908  25.352  1.00  0.00     0.122 C 
ATOM     16  C   UNL A   1      38.411  23.229  26.265  1.00  0.00     0.122 C 
BRANCH  12  17
ATOM     17  O   UNL A   1      35.491  22.193  25.898  1.00  0.00    -0.486 OA
BRANCH  17  18
ATOM     18  C   UNL A   1      34.148  22.155  25.624  1.00  0.00     0.161 A 
ATOM     19  C   UNL A   1      33.387  23.323  25.799  1.00  0.00     0.160 A 
ATOM     20  C   UNL A   1      31.993  23.249  25.684  1.00  0.00     0.050 A 
ATOM     21  C   UNL A   1      31.359  22.050  25.357  1.00  0.00     0.004 A 
ATOM     22  C   UNL A   1      33.510  20.971  25.221  1.00  0.00     0.050 A 
ATOM     23  C   UNL A   1      32.119  20.914  25.109  1.00  0.00     0.004 A 
BRANCH  19  24
ATOM     24  O   UNL A   1      33.822  24.579  26.136  1.00  0.00    -0.493 OA
ATOM     25  C   UNL A   1      33.424  25.666  25.317  1.00  0.00     0.278 C 
ENDBRANCH  19  24
ENDBRANCH  17  18
ENDBRANCH  12  17
ENDBRANCH   6  11
ENDBRANCH   3   5
ENDBRANCH   2   3
ENDBRANCH   1   2
BRANCH   1  26
ATOM     26  C   UNL A   1      44.702  21.851  23.999  1.00  0.00     0.275 C 
BRANCH  26  27
ATOM     27  O   UNL A   1      43.982  23.084  24.185  1.00  0.00    -0.458 OA
BRANCH  27  28
ATOM     28  C   UNL A   1      44.678  24.092  24.759  1.00  0.00     0.338 C 
ATOM     29  O   UNL A   1      45.859  24.358  24.618  1.00  0.00    -0.246 OA
BRANCH  28  30
ATOM     30  C   UNL A   1      43.781  24.897  25.604  1.00  0.00     0.060 A 
ATOM     31  C   UNL A   1      43.881  26.279  25.554  1.00  0.00     0.016 A 
ATOM     32  C   UNL A   1      42.959  24.295  26.556  1.00  0.00     0.016 A 
ATOM     33  C   UNL A   1      43.244  27.054  26.520  1.00  0.00     0.010 A 
ATOM     34  C   UNL A   1      42.271  25.091  27.490  1.00  0.00     0.010 A 
ATOM     35  C   UNL A   1      42.462  26.484  27.535  1.00  0.00    -0.014 A 
BRANCH  35  36
ATOM     36  C   UNL A   1      41.958  27.312  28.688  1.00  0.00     0.031 A 
ATOM     37  C   UNL A   1      42.745  27.374  29.985  1.00  0.00     0.074 A 
ATOM     38  C   UNL A   1      40.858  28.090  28.593  1.00  0.00     0.049 A 
ATOM     39  N   UNL A   1      42.404  27.892  31.143  1.00  0.00    -0.248 NA
ATOM     40  C   UNL A   1      44.090  26.778  29.979  1.00  0.00     0.031 C 
ATOM     41  C   UNL A   1      40.023  28.255  27.403  1.00  0.00     0.029 A 
ATOM     42  N   UNL A   1      40.268  28.921  29.522  1.00  0.00    -0.354 N 
ATOM     43  C   UNL A   1      43.459  27.621  32.012  1.00  0.00     0.074 A 
ATOM     44  C   UNL A   1      44.453  26.897  31.248  1.00  0.00     0.031 C 
ATOM     45  C   UNL A   1      39.076  29.174  27.650  1.00  0.00     0.029 A 
ATOM     46  C   UNL A   1      39.161  29.586  29.048  1.00  0.00     0.049 A 
ATOM     47  H   UNL A   1      40.608  29.028  30.440  1.00  0.00     0.167 HD
ATOM     48  C   UNL A   1      43.599  27.940  33.322  1.00  0.00     0.031 A 
ATOM     49  C   UNL A   1      38.279  30.398  29.666  1.00  0.00     0.031 A 
ATOM     50  C   UNL A   1      42.656  28.706  34.093  1.00  0.00     0.049 A 
ATOM     51  C   UNL A   1      38.409  30.670  31.139  1.00  0.00     0.074 A 
ATOM     52  C   UNL A   1      42.706  29.037  35.438  1.00  0.00     0.029 A 
ATOM     53  N   UNL A   1      41.507  29.287  33.584  1.00  0.00    -0.354 N 
ATOM     54  N   UNL A   1      39.356  30.311  31.969  1.00  0.00    -0.248 NA
ATOM     55  C   UNL A   1      37.327  31.449  31.763  1.00  0.00     0.031 C 
ATOM     56  C   UNL A   1      41.573  29.797  35.749  1.00  0.00     0.029 A 
ATOM     57  C   UNL A   1      40.845  29.977  34.586  1.00  0.00     0.049 A 
ATOM     58  H   UNL A   1      41.206  29.219  32.650  1.00  0.00     0.167 HD
ATOM     59  C   UNL A   1      38.992  30.836  33.205  1.00  0.00     0.074 A 
ATOM     60  C   UNL A   1      37.755  31.560  33.013  1.00  0.00     0.031 C 
ATOM     61  C   UNL A   1      39.628  30.717  34.394  1.00  0.00     0.031 A 
BRANCH  48  62
ATOM     62  C   UNL A   1      44.819  27.426  34.036  1.00  0.00    -0.014 A 
ATOM     63  C   UNL A   1      45.988  28.193  34.140  1.00  0.00     0.009 A 
ATOM     64  C   UNL A   1      44.772  26.170  34.664  1.00  0.00     0.009 A 
ATOM     65  C   UNL A   1      47.095  27.702  34.836  1.00  0.00     0.001 A 
ATOM     66  C   UNL A   1      45.869  25.693  35.382  1.00  0.00     0.001 A 
ATOM     67  C   UNL A   1      47.032  26.456  35.462  1.00  0.00     0.000 A 
ENDBRANCH  48  62
BRANCH  49  68
ATOM     68  C   UNL A   1      37.130  30.973  28.914  1.00  0.00    -0.014 A 
ATOM     69  C   UNL A   1      37.029  32.359  28.715  1.00  0.00     0.009 A 
ATOM     70  C   UNL A   1      36.098  30.145  28.447  1.00  0.00     0.009 A 
ATOM     71  C   UNL A   1      35.903  32.904  28.091  1.00  0.00     0.001 A 
ATOM     72  C   UNL A   1      34.992  30.688  27.791  1.00  0.00     0.001 A 
ATOM     73  C   UNL A   1      34.889  32.068  27.626  1.00  0.00     0.000 A 
ENDBRANCH  49  68
BRANCH  61  74
ATOM     74  C   UNL A   1      39.036  31.440  35.571  1.00  0.00    -0.014 A 
ATOM     75  C   UNL A   1      39.330  32.789  35.828  1.00  0.00     0.009 A 
ATOM     76  C   UNL A   1      38.153  30.763  36.428  1.00  0.00     0.009 A 
ATOM     77  C   UNL A   1      38.779  33.433  36.939  1.00  0.00     0.001 A 
ATOM     78  C   UNL A   1      37.583  31.417  37.522  1.00  0.00     0.001 A 
ATOM     79  C   UNL A   1      37.905  32.748  37.782  1.00  0.00     0.000 A 
ENDBRANCH  61  74
ENDBRANCH  35  36
ENDBRANCH  28  30
ENDBRANCH  27  28
ENDBRANCH  26  27
ENDBRANCH   1  26
TORSDOF 15
ENDMDL
MODEL 2
REMARK VINA RESULT:     -11.2      4.094      9.788
REMARK SMILES COc1ccccc1OC1CCN(c2cccc(C(=O)OCCOC(=O)c3ccc(-c4c5nc(c(-c6ccccc6)c6ccc([nH]6)c(-c6ccccc6)c6nc(c(-c7ccccc7)c7ccc4[nH]7)C=C6)C=C5)cc3)n2)CC1
REMARK SMILES IDX 22 1 21 2 19 3 20 4 18 5 14 6 15 7 75 8 16 9 17 10 13 11
REMARK SMILES IDX 10 12 11 13 77 14 12 15 76 16 9 17 8 18 3 19 4 20 5 21 7 22
REMARK SMILES IDX 6 23 2 24 1 25 23 26 24 27 25 28 26 29 27 30 28 31 74 32
REMARK SMILES IDX 29 33 73 34 30 35 31 36 32 37 67 38 33 39 72 40 66 41 68 42
REMARK SMILES IDX 34 43 71 44 65 45 64 46 35 48 57 49 42 50 56 51 43 52 46 53
REMARK SMILES IDX 55 54 69 55 44 56 45 57 54 59 70 60 47 61 36 62 37 63 41 64
REMARK SMILES IDX 38 65 40 66 39 67 58 68 59 69 63 70 60 71 62 72 61 73 48 74
REMARK SMILES IDX 49 75 53 76 50 77 52 78 51 79
REMARK H PARENT 68 47 46 58
REMARK Flexibility Score: inf
ROOT
ATOM      1  C   UNL A   1      33.803  34.689  29.596  1.00  0.00     0.275 C 
ENDROOT
BRANCH   1   2
ATOM      2  O   UNL A   1      34.015  34.314  28.220  1.00  0.00    -0.457 OA
BRANCH   2   3
ATOM      3  C   UNL A   1      33.252  33.278  27.779  1.00  0.00     0.357 C 
ATOM      4  O   UNL A   1      32.092  33.362  27.400  1.00  0.00    -0.244 OA
BRANCH   3   5
ATOM      5  C   UNL A   1      34.059  32.022  27.707  1.00  0.00     0.150 A 
ATOM      6  C   UNL A   1      34.006  29.769  27.132  1.00  0.00     0.129 A 
ATOM      7  C   UNL A   1      35.365  29.656  27.414  1.00  0.00     0.047 A 
ATOM      8  N   UNL A   1      33.357  30.931  27.305  1.00  0.00    -0.224 NA
ATOM      9  C   UNL A   1      36.075  30.774  27.858  1.00  0.00     0.006 A 
ATOM     10  C   UNL A   1      35.415  31.990  27.996  1.00  0.00     0.036 A 
BRANCH   6  11
ATOM     11  N   UNL A   1      33.271  28.736  26.580  1.00  0.00    -0.356 N 
ATOM     12  C   UNL A   1      32.052  26.300  25.594  1.00  0.00     0.177 C 
ATOM     13  C   UNL A   1      33.002  27.163  24.764  1.00  0.00     0.066 C 
ATOM     14  C   UNL A   1      31.317  27.213  26.596  1.00  0.00     0.066 C 
ATOM     15  C   UNL A   1      34.001  27.893  25.646  1.00  0.00     0.122 C 
ATOM     16  C   UNL A   1      32.238  28.136  27.409  1.00  0.00     0.122 C 
BRANCH  12  17
ATOM     17  O   UNL A   1      32.693  25.244  26.330  1.00  0.00    -0.486 OA
BRANCH  17  18
ATOM     18  C   UNL A   1      32.873  24.051  25.678  1.00  0.00     0.161 A 
ATOM     19  C   UNL A   1      34.130  23.767  25.119  1.00  0.00     0.160 A 
ATOM     20  C   UNL A   1      34.272  22.632  24.309  1.00  0.00     0.050 A 
ATOM     21  C   UNL A   1      33.203  21.764  24.090  1.00  0.00     0.004 A 
ATOM     22  C   UNL A   1      31.822  23.134  25.515  1.00  0.00     0.050 A 
ATOM     23  C   UNL A   1      31.981  22.005  24.707  1.00  0.00     0.004 A 
BRANCH  19  24
ATOM     24  O   UNL A   1      35.285  24.501  25.205  1.00  0.00    -0.493 OA
ATOM     25  C   UNL A   1      36.481  23.824  25.556  1.00  0.00     0.278 C 
ENDBRANCH  19  24
ENDBRANCH  17  18
ENDBRANCH  12  17
ENDBRANCH   6  11
ENDBRANCH   3   5
ENDBRANCH   2   3
ENDBRANCH   1   2
BRANCH   1  26
ATOM     26  C   UNL A   1      32.863  35.891  29.687  1.00  0.00     0.275 C 
BRANCH  26  27
ATOM     27  O   UNL A   1      33.090  36.607  30.915  1.00  0.00    -0.458 OA
BRANCH  27  28
ATOM     28  C   UNL A   1      32.611  36.023  32.036  1.00  0.00     0.338 C 
ATOM     29  O   UNL A   1      31.464  36.028  32.449  1.00  0.00    -0.246 OA
BRANCH  28  30
ATOM     30  C   UNL A   1      33.698  35.311  32.729  1.00  0.00     0.060 A 
ATOM     31  C   UNL A   1      34.936  35.927  32.834  1.00  0.00     0.016 A 
ATOM     32  C   UNL A   1      33.546  33.984  33.130  1.00  0.00     0.016 A 
ATOM     33  C   UNL A   1      36.044  35.188  33.240  1.00  0.00     0.010 A 
ATOM     34  C   UNL A   1      34.660  33.264  33.597  1.00  0.00     0.010 A 
ATOM     35  C   UNL A   1      35.947  33.833  33.589  1.00  0.00    -0.014 A 
BRANCH  35  36
ATOM     36  C   UNL A   1      37.179  32.998  33.819  1.00  0.00     0.031 A 
ATOM     37  C   UNL A   1      37.932  33.093  35.134  1.00  0.00     0.074 A 
ATOM     38  C   UNL A   1      37.609  32.082  32.925  1.00  0.00     0.049 A 
ATOM     39  N   UNL A   1      39.098  32.586  35.466  1.00  0.00    -0.248 NA
ATOM     40  C   UNL A   1      37.292  33.856  36.217  1.00  0.00     0.031 C 
ATOM     41  C   UNL A   1      36.967  31.759  31.650  1.00  0.00     0.029 A 
ATOM     42  N   UNL A   1      38.687  31.223  32.972  1.00  0.00    -0.354 N 
ATOM     43  C   UNL A   1      39.355  33.027  36.762  1.00  0.00     0.074 A 
ATOM     44  C   UNL A   1      38.224  33.839  37.158  1.00  0.00     0.031 C 
ATOM     45  C   UNL A   1      37.619  30.738  31.072  1.00  0.00     0.029 A 
ATOM     46  C   UNL A   1      38.791  30.402  31.873  1.00  0.00     0.049 A 
ATOM     47  H   UNL A   1      39.324  31.200  33.723  1.00  0.00     0.167 HD
ATOM     48  C   UNL A   1      40.426  32.786  37.558  1.00  0.00     0.031 A 
ATOM     49  C   UNL A   1      39.738  29.511  31.515  1.00  0.00     0.031 A 
ATOM     50  C   UNL A   1      41.538  31.940  37.214  1.00  0.00     0.049 A 
ATOM     51  C   UNL A   1      40.957  29.321  32.374  1.00  0.00     0.074 A 
ATOM     52  C   UNL A   1      42.683  31.676  37.950  1.00  0.00     0.029 A 
ATOM     53  N   UNL A   1      41.634  31.195  36.052  1.00  0.00    -0.354 N 
ATOM     54  N   UNL A   1      41.236  29.834  33.547  1.00  0.00    -0.248 NA
ATOM     55  C   UNL A   1      42.008  28.437  31.842  1.00  0.00     0.031 C 
ATOM     56  C   UNL A   1      43.484  30.791  37.220  1.00  0.00     0.029 A 
ATOM     57  C   UNL A   1      42.814  30.469  36.053  1.00  0.00     0.049 A 
ATOM     58  H   UNL A   1      40.964  31.183  35.331  1.00  0.00     0.167 HD
ATOM     59  C   UNL A   1      42.480  29.321  33.897  1.00  0.00     0.074 A 
ATOM     60  C   UNL A   1      42.892  28.437  32.830  1.00  0.00     0.031 C 
ATOM     61  C   UNL A   1      43.216  29.571  35.005  1.00  0.00     0.031 A 
BRANCH  48  62
ATOM     62  C   UNL A   1      40.474  33.483  38.890  1.00  0.00    -0.014 A 
ATOM     63  C   UNL A   1      41.054  34.752  39.034  1.00  0.00     0.009 A 
ATOM     64  C   UNL A   1      39.875  32.878  40.007  1.00  0.00     0.009 A 
ATOM     65  C   UNL A   1      41.055  35.389  40.277  1.00  0.00     0.001 A 
ATOM     66  C   UNL A   1      39.854  33.528  41.241  1.00  0.00     0.001 A 
ATOM     67  C   UNL A   1      40.450  34.780  41.377  1.00  0.00     0.000 A 
ENDBRANCH  48  62
BRANCH  49  68
ATOM     68  C   UNL A   1      39.621  28.761  30.234  1.00  0.00    -0.014 A 
ATOM     69  C   UNL A   1      39.146  27.440  30.221  1.00  0.00     0.009 A 
ATOM     70  C   UNL A   1      40.043  29.341  29.029  1.00  0.00     0.009 A 
ATOM     71  C   UNL A   1      39.126  26.707  29.031  1.00  0.00     0.001 A 
ATOM     72  C   UNL A   1      39.987  28.620  27.835  1.00  0.00     0.001 A 
ATOM     73  C   UNL A   1      39.542  27.299  27.840  1.00  0.00     0.000 A 
ENDBRANCH  49  68
BRANCH  61  74
ATOM     74  C   UNL A   1      44.515  28.830  35.156  1.00  0.00    -0.014 A 
ATOM     75  C   UNL A   1      45.724  29.365  34.686  1.00  0.00     0.009 A 
ATOM     76  C   UNL A   1      44.530  27.582  35.799  1.00  0.00     0.009 A 
ATOM     77  C   UNL A   1      46.916  28.648  34.824  1.00  0.00     0.001 A 
ATOM     78  C   UNL A   1      45.725  26.879  35.959  1.00  0.00     0.001 A 
ATOM     79  C   UNL A   1      46.915  27.408  35.462  1.00  0.00     0.000 A 
ENDBRANCH  61  74
ENDBRANCH  35  36
ENDBRANCH  28  30
ENDBRANCH  27  28
ENDBRANCH  26  27
ENDBRANCH   1  26
TORSDOF 15
ENDMDL
MODEL 3
REMARK VINA RESULT:     -11.1      5.296     10.577
REMARK SMILES COc1ccccc1OC1CCN(c2cccc(C(=O)OCCOC(=O)c3ccc(-c4c5nc(c(-c6ccccc6)c6ccc([nH]6)c(-c6ccccc6)c6nc(c(-c7ccccc7)c7ccc4[nH]7)C=C6)C=C5)cc3)n2)CC1
REMARK SMILES IDX 22 1 21 2 19 3 20 4 18 5 14 6 15 7 75 8 16 9 17 10 13 11
REMARK SMILES IDX 10 12 11 13 77 14 12 15 76 16 9 17 8 18 3 19 4 20 5 21 7 22
REMARK SMILES IDX 6 23 2 24 1 25 23 26 24 27 25 28 26 29 27 30 28 31 74 32
REMARK SMILES IDX 29 33 73 34 30 35 31 36 32 37 67 38 33 39 72 40 66 41 68 42
REMARK SMILES IDX 34 43 71 44 65 45 64 46 35 48 57 49 42 50 56 51 43 52 46 53
REMARK SMILES IDX 55 54 69 55 44 56 45 57 54 59 70 60 47 61 36 62 37 63 41 64
REMARK SMILES IDX 38 65 40 66 39 67 58 68 59 69 63 70 60 71 62 72 61 73 48 74
REMARK SMILES IDX 49 75 53 76 50 77 52 78 51 79
REMARK H PARENT 68 47 46 58
REMARK Flexibility Score: inf
ROOT
ATOM      1  C   UNL A   1      33.746  35.579  28.602  1.00  0.00     0.275 C 
ENDROOT
BRANCH   1   2
ATOM      2  O   UNL A   1      34.104  34.207  28.860  1.00  0.00    -0.457 OA
BRANCH   2   3
ATOM      3  C   UNL A   1      33.477  33.288  28.078  1.00  0.00     0.357 C 
ATOM      4  O   UNL A   1      32.417  33.459  27.492  1.00  0.00    -0.244 OA
BRANCH   3   5
ATOM      5  C   UNL A   1      34.316  32.060  27.929  1.00  0.00     0.150 A 
ATOM      6  C   UNL A   1      34.286  29.803  27.369  1.00  0.00     0.129 A 
ATOM      7  C   UNL A   1      35.669  29.739  27.515  1.00  0.00     0.047 A 
ATOM      8  N   UNL A   1      33.617  30.943  27.603  1.00  0.00    -0.224 NA
ATOM      9  C   UNL A   1      36.379  30.883  27.883  1.00  0.00     0.006 A 
ATOM     10  C   UNL A   1      35.695  32.077  28.082  1.00  0.00     0.036 A 
BRANCH   6  11
ATOM     11  N   UNL A   1      33.536  28.742  26.896  1.00  0.00    -0.356 N 
ATOM     12  C   UNL A   1      31.805  26.815  25.598  1.00  0.00     0.177 C 
ATOM     13  C   UNL A   1      31.396  27.620  26.831  1.00  0.00     0.066 C 
ATOM     14  C   UNL A   1      33.335  26.621  25.631  1.00  0.00     0.066 C 
ATOM     15  C   UNL A   1      32.099  28.966  26.873  1.00  0.00     0.122 C 
ATOM     16  C   UNL A   1      34.134  27.913  25.861  1.00  0.00     0.122 C 
BRANCH  12  17
ATOM     17  O   UNL A   1      31.453  27.423  24.344  1.00  0.00    -0.486 OA
BRANCH  17  18
ATOM     18  C   UNL A   1      30.125  27.415  23.999  1.00  0.00     0.161 A 
ATOM     19  C   UNL A   1      29.564  28.571  23.433  1.00  0.00     0.160 A 
ATOM     20  C   UNL A   1      28.178  28.628  23.236  1.00  0.00     0.050 A 
ATOM     21  C   UNL A   1      27.360  27.542  23.550  1.00  0.00     0.004 A 
ATOM     22  C   UNL A   1      29.308  26.299  24.242  1.00  0.00     0.050 A 
ATOM     23  C   UNL A   1      27.927  26.370  24.038  1.00  0.00     0.004 A 
BRANCH  19  24
ATOM     24  O   UNL A   1      30.194  29.736  23.077  1.00  0.00    -0.493 OA
ATOM     25  C   UNL A   1      30.261  30.064  21.699  1.00  0.00     0.278 C 
ENDBRANCH  19  24
ENDBRANCH  17  18
ENDBRANCH  12  17
ENDBRANCH   6  11
ENDBRANCH   3   5
ENDBRANCH   2   3
ENDBRANCH   1   2
BRANCH   1  26
ATOM     26  C   UNL A   1      32.949  36.155  29.772  1.00  0.00     0.275 C 
BRANCH  26  27
ATOM     27  O   UNL A   1      32.678  35.127  30.743  1.00  0.00    -0.458 OA
BRANCH  27  28
ATOM     28  C   UNL A   1      32.661  35.525  32.035  1.00  0.00     0.338 C 
ATOM     29  O   UNL A   1      31.832  36.226  32.588  1.00  0.00    -0.246 OA
BRANCH  28  30
ATOM     30  C   UNL A   1      33.816  34.954  32.746  1.00  0.00     0.060 A 
ATOM     31  C   UNL A   1      34.990  35.690  32.808  1.00  0.00     0.016 A 
ATOM     32  C   UNL A   1      33.797  33.639  33.210  1.00  0.00     0.016 A 
ATOM     33  C   UNL A   1      36.168  35.080  33.234  1.00  0.00     0.010 A 
ATOM     34  C   UNL A   1      34.978  33.052  33.696  1.00  0.00     0.010 A 
ATOM     35  C   UNL A   1      36.205  33.740  33.647  1.00  0.00    -0.014 A 
BRANCH  35  36
ATOM     36  C   UNL A   1      37.513  33.039  33.900  1.00  0.00     0.031 A 
ATOM     37  C   UNL A   1      38.103  32.118  32.847  1.00  0.00     0.074 A 
ATOM     38  C   UNL A   1      38.249  33.262  35.010  1.00  0.00     0.049 A 
ATOM     39  N   UNL A   1      39.127  31.300  32.934  1.00  0.00    -0.248 NA
ATOM     40  C   UNL A   1      37.459  32.118  31.524  1.00  0.00     0.031 C 
ATOM     41  C   UNL A   1      37.914  34.189  36.092  1.00  0.00     0.029 A 
ATOM     42  N   UNL A   1      39.464  32.737  35.398  1.00  0.00    -0.354 N 
ATOM     43  C   UNL A   1      39.202  30.644  31.707  1.00  0.00     0.074 A 
ATOM     44  C   UNL A   1      38.123  31.160  30.892  1.00  0.00     0.031 C 
ATOM     45  C   UNL A   1      38.920  34.216  36.980  1.00  0.00     0.029 A 
ATOM     46  C   UNL A   1      39.925  33.230  36.597  1.00  0.00     0.049 A 
ATOM     47  H   UNL A   1      39.956  32.070  34.865  1.00  0.00     0.167 HD
ATOM     48  C   UNL A   1      40.080  29.700  31.287  1.00  0.00     0.031 A 
ATOM     49  C   UNL A   1      41.004  32.903  37.337  1.00  0.00     0.031 A 
ATOM     50  C   UNL A   1      41.194  29.207  32.053  1.00  0.00     0.049 A 
ATOM     51  C   UNL A   1      41.917  31.795  36.890  1.00  0.00     0.074 A 
ATOM     52  C   UNL A   1      42.106  28.221  31.714  1.00  0.00     0.029 A 
ATOM     53  N   UNL A   1      41.568  29.681  33.298  1.00  0.00    -0.354 N 
ATOM     54  N   UNL A   1      41.905  31.108  35.776  1.00  0.00    -0.248 NA
ATOM     55  C   UNL A   1      42.987  31.406  37.824  1.00  0.00     0.031 C 
ATOM     56  C   UNL A   1      43.018  28.080  32.765  1.00  0.00     0.029 A 
ATOM     57  C   UNL A   1      42.699  29.013  33.736  1.00  0.00     0.049 A 
ATOM     58  H   UNL A   1      41.100  30.388  33.797  1.00  0.00     0.167 HD
ATOM     59  C   UNL A   1      42.974  30.222  35.868  1.00  0.00     0.074 A 
ATOM     60  C   UNL A   1      43.628  30.474  37.132  1.00  0.00     0.031 C 
ATOM     61  C   UNL A   1      43.367  29.277  34.982  1.00  0.00     0.031 A 
BRANCH  48  62
ATOM     62  C   UNL A   1      39.853  29.095  29.929  1.00  0.00    -0.014 A 
ATOM     63  C   UNL A   1      40.472  29.612  28.782  1.00  0.00     0.009 A 
ATOM     64  C   UNL A   1      39.048  27.950  29.809  1.00  0.00     0.009 A 
ATOM     65  C   UNL A   1      40.268  29.010  27.538  1.00  0.00     0.001 A 
ATOM     66  C   UNL A   1      38.867  27.335  28.571  1.00  0.00     0.001 A 
ATOM     67  C   UNL A   1      39.471  27.869  27.435  1.00  0.00     0.000 A 
ENDBRANCH  48  62
BRANCH  49  68
ATOM     68  C   UNL A   1      41.260  33.583  38.637  1.00  0.00    -0.014 A 
ATOM     69  C   UNL A   1      42.099  34.707  38.701  1.00  0.00     0.009 A 
ATOM     70  C   UNL A   1      40.717  33.075  39.826  1.00  0.00     0.009 A 
ATOM     71  C   UNL A   1      42.413  35.286  39.933  1.00  0.00     0.001 A 
ATOM     72  C   UNL A   1      41.001  33.678  41.052  1.00  0.00     0.001 A 
ATOM     73  C   UNL A   1      41.860  34.774  41.106  1.00  0.00     0.000 A 
ENDBRANCH  49  68
BRANCH  61  74
ATOM     74  C   UNL A   1      44.602  28.487  35.314  1.00  0.00    -0.014 A 
ATOM     75  C   UNL A   1      44.530  27.271  36.011  1.00  0.00     0.009 A 
ATOM     76  C   UNL A   1      45.858  28.961  34.904  1.00  0.00     0.009 A 
ATOM     77  C   UNL A   1      45.695  26.565  36.322  1.00  0.00     0.001 A 
ATOM     78  C   UNL A   1      47.018  28.240  35.192  1.00  0.00     0.001 A 
ATOM     79  C   UNL A   1      46.937  27.048  35.910  1.00  0.00     0.000 A 
ENDBRANCH  61  74
ENDBRANCH  35  36
ENDBRANCH  28  30
ENDBRANCH  27  28
ENDBRANCH  26  27
ENDBRANCH   1  26
TORSDOF 15
ENDMDL
