MODEL 1
REMARK VINA RESULT:     -13.0      0.000      0.000
REMARK SMILES COc1ccc2c(c1)c(Cc1nc(-c3ccc(C(=O)OCCOC(=O)c4ccc(-c5c6nc(c(-c7ccccc7)c7ccc([nH]7)c(-c7ccccc7)c7nc(c(-c8ccccc8)c8ccc5[nH]8)C=C7)C=C6)cc4)cc3)cs1)c(C)n2C(=O)c1ccc(Cl)cc1
REMARK SMILES IDX 20 1 18 2 19 3 17 4 14 5 15 6 75 7 16 8 74 9 13 10 11 11
REMARK SMILES IDX 12 12 77 13 76 14 10 15 9 16 3 17 4 18 8 19 5 20 7 21 6 22
REMARK SMILES IDX 80 23 78 24 79 25 2 26 1 27 81 28 82 29 83 30 84 31 89 32
REMARK SMILES IDX 85 33 88 34 86 35 87 36 21 37 22 38 23 39 24 40 25 41 26 42
REMARK SMILES IDX 27 43 73 44 28 45 72 46 29 47 30 48 31 49 66 50 32 51 71 52
REMARK SMILES IDX 65 53 67 54 33 55 70 56 64 57 63 58 34 60 56 61 41 62 55 63
REMARK SMILES IDX 42 64 45 65 54 66 68 67 43 68 44 69 53 71 69 72 46 73 35 74
REMARK SMILES IDX 36 75 40 76 37 77 39 78 38 79 57 80 58 81 62 82 59 83 61 84
REMARK SMILES IDX 60 85 47 86 48 87 52 88 49 89 51 90 50 91
REMARK H PARENT 67 59 45 70
REMARK Flexibility Score: inf
ROOT
ATOM      1  O   UNL A   1      32.906  34.377  28.424  1.00  0.00    -0.458 OA
ENDROOT
BRANCH   1   2
ATOM      2  C   UNL A   1      33.853  33.510  27.994  1.00  0.00     0.338 C 
ATOM      3  O   UNL A   1      35.057  33.689  28.084  1.00  0.00    -0.246 OA
BRANCH   2   4
ATOM      4  C   UNL A   1      33.268  32.228  27.503  1.00  0.00     0.060 A 
ATOM      5  C   UNL A   1      32.054  30.011  26.252  1.00  0.00     0.001 A 
ATOM      6  C   UNL A   1      31.384  31.224  26.320  1.00  0.00     0.011 A 
ATOM      7  C   UNL A   1      33.284  29.874  26.910  1.00  0.00     0.011 A 
ATOM      8  C   UNL A   1      31.994  32.300  26.945  1.00  0.00     0.016 A 
ATOM      9  C   UNL A   1      33.899  30.987  27.528  1.00  0.00     0.016 A 
BRANCH   5  10
ATOM     10  C   UNL A   1      31.441  28.961  25.465  1.00  0.00     0.081 A 
ATOM     11  C   UNL A   1      30.463  27.002  25.185  1.00  0.00     0.098 A 
ATOM     12  N   UNL A   1      31.306  27.679  25.942  1.00  0.00    -0.241 NA
ATOM     13  S   UNL A   1      29.915  27.832  23.779  1.00  0.00    -0.126 S 
ATOM     14  C   UNL A   1      30.797  29.216  24.270  1.00  0.00     0.095 A 
BRANCH  11  15
ATOM     15  C   UNL A   1      30.033  25.589  25.449  1.00  0.00     0.105 C 
BRANCH  15  16
ATOM     16  C   UNL A   1      31.120  24.546  25.299  1.00  0.00    -0.012 A 
ATOM     17  C   UNL A   1      33.387  25.038  22.260  1.00  0.00     0.119 A 
ATOM     18  C   UNL A   1      33.773  23.709  22.174  1.00  0.00     0.048 A 
ATOM     19  C   UNL A   1      32.510  25.423  23.272  1.00  0.00     0.057 A 
ATOM     20  C   UNL A   1      33.442  22.793  23.190  1.00  0.00     0.031 A 
ATOM     21  C   UNL A   1      32.113  24.514  24.277  1.00  0.00     0.008 A 
ATOM     22  C   UNL A   1      32.681  23.237  24.291  1.00  0.00     0.057 A 
ATOM     23  N   UNL A   1      32.319  22.626  25.500  1.00  0.00    -0.280 N 
ATOM     24  C   UNL A   1      31.237  23.357  26.018  1.00  0.00     0.028 A 
ATOM     25  C   UNL A   1      30.361  22.921  27.150  1.00  0.00     0.065 C 
BRANCH  17  26
ATOM     26  O   UNL A   1      33.753  26.042  21.407  1.00  0.00    -0.497 OA
ATOM     27  C   UNL A   1      33.641  27.372  21.898  1.00  0.00     0.278 C 
ENDBRANCH  17  26
BRANCH  23  28
ATOM     28  C   UNL A   1      32.943  21.481  26.075  1.00  0.00     0.262 C 
ATOM     29  O   UNL A   1      33.330  21.526  27.240  1.00  0.00    -0.268 OA
BRANCH  28  30
ATOM     30  C   UNL A   1      33.235  20.217  25.372  1.00  0.00     0.040 A 
ATOM     31  C   UNL A   1      32.206  19.510  24.741  1.00  0.00     0.015 A 
ATOM     32  C   UNL A   1      34.566  19.809  25.229  1.00  0.00     0.015 A 
ATOM     33  C   UNL A   1      32.508  18.355  24.011  1.00  0.00     0.021 A 
ATOM     34  C   UNL A   1      34.862  18.650  24.505  1.00  0.00     0.021 A 
ATOM     35  C   UNL A   1      33.831  17.924  23.906  1.00  0.00     0.041 A 
ATOM     36  Cl  UNL A   1      34.197  16.490  23.029  1.00  0.00    -0.084 Cl
ENDBRANCH  28  30
ENDBRANCH  23  28
ENDBRANCH  15  16
ENDBRANCH  11  15
ENDBRANCH   5  10
ENDBRANCH   2   4
ENDBRANCH   1   2
BRANCH   1  37
ATOM     37  C   UNL A   1      33.411  35.598  29.022  1.00  0.00     0.275 C 
BRANCH  37  38
ATOM     38  C   UNL A   1      32.580  35.985  30.251  1.00  0.00     0.275 C 
BRANCH  38  39
ATOM     39  O   UNL A   1      33.452  36.068  31.388  1.00  0.00    -0.458 OA
BRANCH  39  40
ATOM     40  C   UNL A   1      33.123  35.316  32.469  1.00  0.00     0.338 C 
ATOM     41  O   UNL A   1      32.014  35.075  32.890  1.00  0.00    -0.246 OA
BRANCH  40  42
ATOM     42  C   UNL A   1      34.347  34.555  32.815  1.00  0.00     0.060 A 
ATOM     43  C   UNL A   1      35.589  35.183  32.969  1.00  0.00     0.016 A 
ATOM     44  C   UNL A   1      34.267  33.170  32.694  1.00  0.00     0.016 A 
ATOM     45  C   UNL A   1      36.761  34.449  32.793  1.00  0.00     0.010 A 
ATOM     46  C   UNL A   1      35.440  32.443  32.541  1.00  0.00     0.010 A 
ATOM     47  C   UNL A   1      36.685  33.091  32.483  1.00  0.00    -0.014 A 
BRANCH  47  48
ATOM     48  C   UNL A   1      37.901  32.343  32.136  1.00  0.00     0.031 A 
ATOM     49  C   UNL A   1      38.816  32.053  33.263  1.00  0.00     0.074 A 
ATOM     50  C   UNL A   1      38.233  31.819  30.932  1.00  0.00     0.049 A 
ATOM     51  N   UNL A   1      39.983  32.578  33.436  1.00  0.00    -0.248 NA
ATOM     52  C   UNL A   1      38.388  31.154  34.338  1.00  0.00     0.031 C 
ATOM     53  C   UNL A   1      37.464  31.746  29.691  1.00  0.00     0.029 A 
ATOM     54  N   UNL A   1      39.364  31.119  30.605  1.00  0.00    -0.354 N 
ATOM     55  C   UNL A   1      40.489  32.021  34.602  1.00  0.00     0.074 A 
ATOM     56  C   UNL A   1      39.415  31.254  35.181  1.00  0.00     0.031 C 
ATOM     57  C   UNL A   1      37.997  30.816  28.863  1.00  0.00     0.029 A 
ATOM     58  C   UNL A   1      39.287  30.436  29.400  1.00  0.00     0.049 A 
ATOM     59  H   UNL A   1      40.165  31.103  31.177  1.00  0.00     0.167 HD
ATOM     60  C   UNL A   1      41.804  32.117  34.935  1.00  0.00     0.031 A 
ATOM     61  C   UNL A   1      40.239  29.673  28.821  1.00  0.00     0.031 A 
ATOM     62  C   UNL A   1      42.509  33.050  34.092  1.00  0.00     0.049 A 
ATOM     63  C   UNL A   1      41.544  30.016  29.398  1.00  0.00     0.074 A 
ATOM     64  C   UNL A   1      42.429  34.409  33.861  1.00  0.00     0.029 A 
ATOM     65  N   UNL A   1      43.245  32.534  33.053  1.00  0.00    -0.354 N 
ATOM     66  N   UNL A   1      42.167  31.114  29.104  1.00  0.00    -0.248 NA
ATOM     67  C   UNL A   1      42.019  29.316  30.581  1.00  0.00     0.031 C 
ATOM     68  C   UNL A   1      42.741  34.579  32.480  1.00  0.00     0.029 A 
ATOM     69  C   UNL A   1      43.007  33.317  31.951  1.00  0.00     0.049 A 
ATOM     70  H   UNL A   1      43.835  31.748  33.092  1.00  0.00     0.167 HD
ATOM     71  C   UNL A   1      42.765  31.486  30.292  1.00  0.00     0.074 A 
ATOM     72  C   UNL A   1      42.788  30.274  31.105  1.00  0.00     0.031 C 
ATOM     73  C   UNL A   1      42.891  32.806  30.606  1.00  0.00     0.031 A 
BRANCH  60  74
ATOM     74  C   UNL A   1      42.517  31.181  35.870  1.00  0.00    -0.014 A 
ATOM     75  C   UNL A   1      42.879  29.863  35.535  1.00  0.00     0.009 A 
ATOM     76  C   UNL A   1      43.024  31.685  37.079  1.00  0.00     0.009 A 
ATOM     77  C   UNL A   1      43.669  29.073  36.375  1.00  0.00     0.001 A 
ATOM     78  C   UNL A   1      43.858  30.916  37.899  1.00  0.00     0.001 A 
ATOM     79  C   UNL A   1      44.174  29.608  37.551  1.00  0.00     0.000 A 
ENDBRANCH  60  74
BRANCH  61  80
ATOM     80  C   UNL A   1      40.080  28.381  28.152  1.00  0.00    -0.014 A 
ATOM     81  C   UNL A   1      39.445  27.386  28.901  1.00  0.00     0.009 A 
ATOM     82  C   UNL A   1      40.880  28.009  27.062  1.00  0.00     0.009 A 
ATOM     83  C   UNL A   1      39.708  26.051  28.638  1.00  0.00     0.001 A 
ATOM     84  C   UNL A   1      41.075  26.657  26.758  1.00  0.00     0.001 A 
ATOM     85  C   UNL A   1      40.511  25.675  27.565  1.00  0.00     0.000 A 
ENDBRANCH  61  80
BRANCH  73  86
ATOM     86  C   UNL A   1      42.536  33.797  29.520  1.00  0.00    -0.014 A 
ATOM     87  C   UNL A   1      43.509  34.173  28.586  1.00  0.00     0.009 A 
ATOM     88  C   UNL A   1      41.292  34.458  29.486  1.00  0.00     0.009 A 
ATOM     89  C   UNL A   1      43.244  35.177  27.649  1.00  0.00     0.001 A 
ATOM     90  C   UNL A   1      41.018  35.443  28.534  1.00  0.00     0.001 A 
ATOM     91  C   UNL A   1      42.000  35.808  27.620  1.00  0.00     0.000 A 
ENDBRANCH  73  86
ENDBRANCH  47  48
ENDBRANCH  40  42
ENDBRANCH  39  40
ENDBRANCH  38  39
ENDBRANCH  37  38
ENDBRANCH   1  37
TORSDOF 17
ENDMDL
MODEL 2
REMARK VINA RESULT:     -12.0      3.048      4.523
REMARK SMILES COc1ccc2c(c1)c(Cc1nc(-c3ccc(C(=O)OCCOC(=O)c4ccc(-c5c6nc(c(-c7ccccc7)c7ccc([nH]7)c(-c7ccccc7)c7nc(c(-c8ccccc8)c8ccc5[nH]8)C=C7)C=C6)cc4)cc3)cs1)c(C)n2C(=O)c1ccc(Cl)cc1
REMARK SMILES IDX 20 1 18 2 19 3 17 4 14 5 15 6 75 7 16 8 74 9 13 10 11 11
REMARK SMILES IDX 12 12 77 13 76 14 10 15 9 16 3 17 4 18 8 19 5 20 7 21 6 22
REMARK SMILES IDX 80 23 78 24 79 25 2 26 1 27 81 28 82 29 83 30 84 31 89 32
REMARK SMILES IDX 85 33 88 34 86 35 87 36 21 37 22 38 23 39 24 40 25 41 26 42
REMARK SMILES IDX 27 43 73 44 28 45 72 46 29 47 30 48 31 49 66 50 32 51 71 52
REMARK SMILES IDX 65 53 67 54 33 55 70 56 64 57 63 58 34 60 56 61 41 62 55 63
REMARK SMILES IDX 42 64 45 65 54 66 68 67 43 68 44 69 53 71 69 72 46 73 35 74
REMARK SMILES IDX 36 75 40 76 37 77 39 78 38 79 57 80 58 81 62 82 59 83 61 84
REMARK SMILES IDX 60 85 47 86 48 87 52 88 49 89 51 90 50 91
REMARK H PARENT 67 59 45 70
REMARK Flexibility Score: inf
ROOT
ATOM      1  O   UNL A   1      35.019  33.878  29.239  1.00  0.00    -0.458 OA
ENDROOT
BRANCH   1   2
ATOM      2  C   UNL A   1      34.130  33.620  28.250  1.00  0.00     0.338 C 
ATOM      3  O   UNL A   1      33.484  34.466  27.652  1.00  0.00    -0.246 OA
BRANCH   2   4
ATOM      4  C   UNL A   1      34.110  32.178  27.868  1.00  0.00     0.060 A 
ATOM      5  C   UNL A   1      33.830  29.562  26.849  1.00  0.00     0.001 A 
ATOM      6  C   UNL A   1      32.708  30.355  27.046  1.00  0.00     0.011 A 
ATOM      7  C   UNL A   1      35.081  30.035  27.269  1.00  0.00     0.011 A 
ATOM      8  C   UNL A   1      32.865  31.636  27.555  1.00  0.00     0.016 A 
ATOM      9  C   UNL A   1      35.225  31.349  27.769  1.00  0.00     0.016 A 
BRANCH   5  10
ATOM     10  C   UNL A   1      33.631  28.292  26.183  1.00  0.00     0.081 A 
ATOM     11  C   UNL A   1      32.947  26.198  26.064  1.00  0.00     0.098 A 
ATOM     12  N   UNL A   1      33.387  27.135  26.882  1.00  0.00    -0.241 NA
ATOM     13  S   UNL A   1      32.953  26.622  24.395  1.00  0.00    -0.126 S 
ATOM     14  C   UNL A   1      33.496  28.192  24.812  1.00  0.00     0.095 A 
BRANCH  11  15
ATOM     15  C   UNL A   1      32.522  24.825  26.496  1.00  0.00     0.105 C 
BRANCH  15  16
ATOM     16  C   UNL A   1      32.990  23.695  25.604  1.00  0.00    -0.012 A 
ATOM     17  C   UNL A   1      36.751  23.667  24.914  1.00  0.00     0.119 A 
ATOM     18  C   UNL A   1      36.656  22.955  23.729  1.00  0.00     0.048 A 
ATOM     19  C   UNL A   1      35.586  23.959  25.622  1.00  0.00     0.057 A 
ATOM     20  C   UNL A   1      35.438  22.373  23.329  1.00  0.00     0.031 A 
ATOM     21  C   UNL A   1      34.337  23.437  25.218  1.00  0.00     0.008 A 
ATOM     22  C   UNL A   1      34.297  22.549  24.140  1.00  0.00     0.057 A 
ATOM     23  N   UNL A   1      33.010  21.995  24.095  1.00  0.00    -0.280 N 
ATOM     24  C   UNL A   1      32.184  22.823  24.873  1.00  0.00     0.028 A 
ATOM     25  C   UNL A   1      30.689  22.772  24.901  1.00  0.00     0.065 C 
BRANCH  17  26
ATOM     26  O   UNL A   1      37.897  24.166  25.468  1.00  0.00    -0.497 OA
ATOM     27  C   UNL A   1      37.893  24.369  26.875  1.00  0.00     0.278 C 
ENDBRANCH  17  26
BRANCH  23  28
ATOM     28  C   UNL A   1      32.633  20.817  23.388  1.00  0.00     0.262 C 
ATOM     29  O   UNL A   1      32.095  20.918  22.289  1.00  0.00    -0.268 OA
BRANCH  28  30
ATOM     30  C   UNL A   1      32.776  19.434  23.884  1.00  0.00     0.040 A 
ATOM     31  C   UNL A   1      32.850  19.183  25.258  1.00  0.00     0.015 A 
ATOM     32  C   UNL A   1      32.701  18.373  22.974  1.00  0.00     0.015 A 
ATOM     33  C   UNL A   1      32.906  17.863  25.718  1.00  0.00     0.021 A 
ATOM     34  C   UNL A   1      32.765  17.056  23.438  1.00  0.00     0.021 A 
ATOM     35  C   UNL A   1      32.875  16.807  24.807  1.00  0.00     0.041 A 
ATOM     36  Cl  UNL A   1      32.970  15.186  25.374  1.00  0.00    -0.084 Cl
ENDBRANCH  28  30
ENDBRANCH  23  28
ENDBRANCH  15  16
ENDBRANCH  11  15
ENDBRANCH   5  10
ENDBRANCH   2   4
ENDBRANCH   1   2
BRANCH   1  37
ATOM     37  C   UNL A   1      34.460  34.489  30.429  1.00  0.00     0.275 C 
BRANCH  37  38
ATOM     38  C   UNL A   1      34.781  33.650  31.672  1.00  0.00     0.275 C 
BRANCH  38  39
ATOM     39  O   UNL A   1      35.799  32.696  31.332  1.00  0.00    -0.458 OA
BRANCH  39  40
ATOM     40  C   UNL A   1      37.087  33.108  31.449  1.00  0.00     0.338 C 
ATOM     41  O   UNL A   1      37.530  33.939  32.208  1.00  0.00    -0.246 OA
BRANCH  40  42
ATOM     42  C   UNL A   1      37.898  32.095  30.731  1.00  0.00     0.060 A 
ATOM     43  C   UNL A   1      37.389  30.828  30.418  1.00  0.00     0.016 A 
ATOM     44  C   UNL A   1      39.264  32.348  30.643  1.00  0.00     0.016 A 
ATOM     45  C   UNL A   1      38.264  29.762  30.219  1.00  0.00     0.010 A 
ATOM     46  C   UNL A   1      40.129  31.284  30.422  1.00  0.00     0.010 A 
ATOM     47  C   UNL A   1      39.641  29.971  30.316  1.00  0.00    -0.014 A 
BRANCH  47  48
ATOM     48  C   UNL A   1      40.567  28.831  30.270  1.00  0.00     0.031 A 
ATOM     49  C   UNL A   1      41.120  28.405  31.576  1.00  0.00     0.074 A 
ATOM     50  C   UNL A   1      40.898  28.079  29.194  1.00  0.00     0.049 A 
ATOM     51  N   UNL A   1      42.348  28.539  31.950  1.00  0.00    -0.248 NA
ATOM     52  C   UNL A   1      40.233  27.837  32.595  1.00  0.00     0.031 C 
ATOM     53  C   UNL A   1      40.374  28.104  27.829  1.00  0.00     0.029 A 
ATOM     54  N   UNL A   1      41.758  27.014  29.146  1.00  0.00    -0.354 N 
ATOM     55  C   UNL A   1      42.426  28.001  33.225  1.00  0.00     0.074 A 
ATOM     56  C   UNL A   1      41.072  27.704  33.621  1.00  0.00     0.031 C 
ATOM     57  C   UNL A   1      40.688  26.954  27.186  1.00  0.00     0.029 A 
ATOM     58  C   UNL A   1      41.657  26.247  27.996  1.00  0.00     0.049 A 
ATOM     59  H   UNL A   1      42.395  26.811  29.870  1.00  0.00     0.167 HD
ATOM     60  C   UNL A   1      43.617  27.705  33.812  1.00  0.00     0.031 A 
ATOM     61  C   UNL A   1      42.373  25.149  27.670  1.00  0.00     0.031 A 
ATOM     62  C   UNL A   1      44.731  28.243  33.075  1.00  0.00     0.049 A 
ATOM     63  C   UNL A   1      43.598  25.119  28.478  1.00  0.00     0.074 A 
ATOM     64  C   UNL A   1      45.164  29.514  32.748  1.00  0.00     0.029 A 
ATOM     65  N   UNL A   1      45.412  27.389  32.240  1.00  0.00    -0.354 N 
ATOM     66  N   UNL A   1      44.601  25.908  28.250  1.00  0.00    -0.248 NA
ATOM     67  C   UNL A   1      43.595  24.459  29.774  1.00  0.00     0.031 C 
ATOM     68  C   UNL A   1      45.745  29.397  31.452  1.00  0.00     0.029 A 
ATOM     69  C   UNL A   1      45.648  28.060  31.067  1.00  0.00     0.049 A 
ATOM     70  H   UNL A   1      45.680  26.465  32.447  1.00  0.00     0.167 HD
ATOM     71  C   UNL A   1      45.079  26.213  29.509  1.00  0.00     0.074 A 
ATOM     72  C   UNL A   1      44.545  25.173  30.383  1.00  0.00     0.031 C 
ATOM     73  C   UNL A   1      45.595  27.449  29.761  1.00  0.00     0.031 A 
BRANCH  60  74
ATOM     74  C   UNL A   1      43.795  26.714  34.928  1.00  0.00    -0.014 A 
ATOM     75  C   UNL A   1      43.973  27.076  36.276  1.00  0.00     0.009 A 
ATOM     76  C   UNL A   1      43.590  25.350  34.663  1.00  0.00     0.009 A 
ATOM     77  C   UNL A   1      43.988  26.127  37.303  1.00  0.00     0.001 A 
ATOM     78  C   UNL A   1      43.552  24.403  35.694  1.00  0.00     0.001 A 
ATOM     79  C   UNL A   1      43.759  24.791  37.012  1.00  0.00     0.000 A 
ENDBRANCH  60  74
BRANCH  61  80
ATOM     80  C   UNL A   1      41.897  23.905  27.063  1.00  0.00    -0.014 A 
ATOM     81  C   UNL A   1      40.919  23.216  27.786  1.00  0.00     0.009 A 
ATOM     82  C   UNL A   1      42.651  23.214  26.104  1.00  0.00     0.009 A 
ATOM     83  C   UNL A   1      40.788  21.844  27.636  1.00  0.00     0.001 A 
ATOM     84  C   UNL A   1      42.455  21.842  25.907  1.00  0.00     0.001 A 
ATOM     85  C   UNL A   1      41.541  21.150  26.694  1.00  0.00     0.000 A 
ENDBRANCH  61  80
BRANCH  73  86
ATOM     86  C   UNL A   1      45.792  28.356  28.566  1.00  0.00    -0.014 A 
ATOM     87  C   UNL A   1      44.698  29.052  28.041  1.00  0.00     0.009 A 
ATOM     88  C   UNL A   1      47.020  28.431  27.878  1.00  0.00     0.009 A 
ATOM     89  C   UNL A   1      44.828  29.800  26.866  1.00  0.00     0.001 A 
ATOM     90  C   UNL A   1      47.157  29.197  26.718  1.00  0.00     0.001 A 
ATOM     91  C   UNL A   1      46.056  29.875  26.207  1.00  0.00     0.000 A 
ENDBRANCH  73  86
ENDBRANCH  47  48
ENDBRANCH  40  42
ENDBRANCH  39  40
ENDBRANCH  38  39
ENDBRANCH  37  38
ENDBRANCH   1  37
TORSDOF 17
ENDMDL
MODEL 3
REMARK VINA RESULT:     -11.9      3.828      6.728
REMARK SMILES COc1ccc2c(c1)c(Cc1nc(-c3ccc(C(=O)OCCOC(=O)c4ccc(-c5c6nc(c(-c7ccccc7)c7ccc([nH]7)c(-c7ccccc7)c7nc(c(-c8ccccc8)c8ccc5[nH]8)C=C7)C=C6)cc4)cc3)cs1)c(C)n2C(=O)c1ccc(Cl)cc1
REMARK SMILES IDX 20 1 18 2 19 3 17 4 14 5 15 6 75 7 16 8 74 9 13 10 11 11
REMARK SMILES IDX 12 12 77 13 76 14 10 15 9 16 3 17 4 18 8 19 5 20 7 21 6 22
REMARK SMILES IDX 80 23 78 24 79 25 2 26 1 27 81 28 82 29 83 30 84 31 89 32
REMARK SMILES IDX 85 33 88 34 86 35 87 36 21 37 22 38 23 39 24 40 25 41 26 42
REMARK SMILES IDX 27 43 73 44 28 45 72 46 29 47 30 48 31 49 66 50 32 51 71 52
REMARK SMILES IDX 65 53 67 54 33 55 70 56 64 57 63 58 34 60 56 61 41 62 55 63
REMARK SMILES IDX 42 64 45 65 54 66 68 67 43 68 44 69 53 71 69 72 46 73 35 74
REMARK SMILES IDX 36 75 40 76 37 77 39 78 38 79 57 80 58 81 62 82 59 83 61 84
REMARK SMILES IDX 60 85 47 86 48 87 52 88 49 89 51 90 50 91
REMARK H PARENT 67 59 45 70
REMARK Flexibility Score: inf
ROOT
ATOM      1  O   UNL A   1      34.132  33.466  29.422  1.00  0.00    -0.458 OA
ENDROOT
BRANCH   1   2
ATOM      2  C   UNL A   1      34.967  33.411  28.356  1.00  0.00     0.338 C 
ATOM      3  O   UNL A   1      34.951  34.188  27.415  1.00  0.00    -0.246 OA
BRANCH   2   4
ATOM      4  C   UNL A   1      36.014  32.360  28.510  1.00  0.00     0.060 A 
ATOM      5  C   UNL A   1      37.851  30.219  28.463  1.00  0.00     0.001 A 
ATOM      6  C   UNL A   1      36.501  29.981  28.255  1.00  0.00     0.011 A 
ATOM      7  C   UNL A   1      38.269  31.512  28.808  1.00  0.00     0.011 A 
ATOM      8  C   UNL A   1      35.612  31.045  28.289  1.00  0.00     0.016 A 
ATOM      9  C   UNL A   1      37.353  32.587  28.821  1.00  0.00     0.016 A 
BRANCH   5  10
ATOM     10  C   UNL A   1      38.756  29.104  28.274  1.00  0.00     0.081 A 
ATOM     11  C   UNL A   1      39.359  26.988  28.434  1.00  0.00     0.098 A 
ATOM     12  N   UNL A   1      38.631  27.938  28.989  1.00  0.00    -0.241 NA
ATOM     13  S   UNL A   1      40.345  27.497  27.117  1.00  0.00    -0.126 S 
ATOM     14  C   UNL A   1      39.681  29.071  27.249  1.00  0.00     0.095 A 
BRANCH  11  15
ATOM     15  C   UNL A   1      39.412  25.568  28.917  1.00  0.00     0.105 C 
BRANCH  15  16
ATOM     16  C   UNL A   1      39.947  24.566  27.915  1.00  0.00    -0.012 A 
ATOM     17  C   UNL A   1      37.270  22.882  25.767  1.00  0.00     0.119 A 
ATOM     18  C   UNL A   1      38.027  21.757  25.481  1.00  0.00     0.048 A 
ATOM     19  C   UNL A   1      37.821  23.883  26.565  1.00  0.00     0.057 A 
ATOM     20  C   UNL A   1      39.390  21.694  25.828  1.00  0.00     0.031 A 
ATOM     21  C   UNL A   1      39.171  23.825  26.977  1.00  0.00     0.008 A 
ATOM     22  C   UNL A   1      39.975  22.787  26.502  1.00  0.00     0.057 A 
ATOM     23  N   UNL A   1      41.300  23.086  26.848  1.00  0.00    -0.280 N 
ATOM     24  C   UNL A   1      41.248  24.070  27.849  1.00  0.00     0.028 A 
ATOM     25  C   UNL A   1      42.401  24.502  28.699  1.00  0.00     0.065 C 
BRANCH  17  26
ATOM     26  O   UNL A   1      35.981  23.110  25.371  1.00  0.00    -0.497 OA
ATOM     27  C   UNL A   1      35.554  24.466  25.332  1.00  0.00     0.278 C 
ENDBRANCH  17  26
BRANCH  23  28
ATOM     28  C   UNL A   1      42.465  22.491  26.281  1.00  0.00     0.262 C 
ATOM     29  O   UNL A   1      42.482  21.281  26.067  1.00  0.00    -0.268 OA
BRANCH  28  30
ATOM     30  C   UNL A   1      43.722  23.195  25.964  1.00  0.00     0.040 A 
ATOM     31  C   UNL A   1      44.954  22.585  26.221  1.00  0.00     0.015 A 
ATOM     32  C   UNL A   1      43.666  24.416  25.282  1.00  0.00     0.015 A 
ATOM     33  C   UNL A   1      46.138  23.229  25.844  1.00  0.00     0.021 A 
ATOM     34  C   UNL A   1      44.851  25.060  24.914  1.00  0.00     0.021 A 
ATOM     35  C   UNL A   1      46.081  24.467  25.204  1.00  0.00     0.041 A 
ATOM     36  Cl  UNL A   1      47.538  25.269  24.764  1.00  0.00    -0.084 Cl
ENDBRANCH  28  30
ENDBRANCH  23  28
ENDBRANCH  15  16
ENDBRANCH  11  15
ENDBRANCH   5  10
ENDBRANCH   2   4
ENDBRANCH   1   2
BRANCH   1  37
ATOM     37  C   UNL A   1      33.597  34.780  29.721  1.00  0.00     0.275 C 
BRANCH  37  38
ATOM     38  C   UNL A   1      33.641  35.054  31.228  1.00  0.00     0.275 C 
BRANCH  38  39
ATOM     39  O   UNL A   1      34.733  34.317  31.798  1.00  0.00    -0.458 OA
BRANCH  39  40
ATOM     40  C   UNL A   1      34.420  33.384  32.734  1.00  0.00     0.338 C 
ATOM     41  O   UNL A   1      33.318  33.010  33.063  1.00  0.00    -0.246 OA
BRANCH  40  42
ATOM     42  C   UNL A   1      35.682  32.657  33.012  1.00  0.00     0.060 A 
ATOM     43  C   UNL A   1      36.677  33.193  33.840  1.00  0.00     0.016 A 
ATOM     44  C   UNL A   1      35.958  31.565  32.193  1.00  0.00     0.016 A 
ATOM     45  C   UNL A   1      37.997  32.771  33.695  1.00  0.00     0.010 A 
ATOM     46  C   UNL A   1      37.273  31.137  32.071  1.00  0.00     0.010 A 
ATOM     47  C   UNL A   1      38.312  31.806  32.738  1.00  0.00    -0.014 A 
BRANCH  47  48
ATOM     48  C   UNL A   1      39.716  31.470  32.461  1.00  0.00     0.031 A 
ATOM     49  C   UNL A   1      40.154  30.132  32.919  1.00  0.00     0.074 A 
ATOM     50  C   UNL A   1      40.618  32.201  31.765  1.00  0.00     0.049 A 
ATOM     51  N   UNL A   1      40.979  29.902  33.885  1.00  0.00    -0.248 NA
ATOM     52  C   UNL A   1      39.588  28.928  32.305  1.00  0.00     0.031 C 
ATOM     53  C   UNL A   1      40.447  33.444  31.016  1.00  0.00     0.029 A 
ATOM     54  N   UNL A   1      41.926  31.891  31.502  1.00  0.00    -0.354 N 
ATOM     55  C   UNL A   1      41.111  28.524  33.963  1.00  0.00     0.074 A 
ATOM     56  C   UNL A   1      40.136  27.974  33.056  1.00  0.00     0.031 C 
ATOM     57  C   UNL A   1      41.484  33.625  30.164  1.00  0.00     0.029 A 
ATOM     58  C   UNL A   1      42.510  32.662  30.508  1.00  0.00     0.049 A 
ATOM     59  H   UNL A   1      42.412  31.180  31.981  1.00  0.00     0.167 HD
ATOM     60  C   UNL A   1      42.115  27.934  34.667  1.00  0.00     0.031 A 
ATOM     61  C   UNL A   1      43.776  32.590  30.043  1.00  0.00     0.031 A 
ATOM     62  C   UNL A   1      42.826  28.879  35.491  1.00  0.00     0.049 A 
ATOM     63  C   UNL A   1      44.610  31.897  31.032  1.00  0.00     0.074 A 
ATOM     64  C   UNL A   1      42.493  29.682  36.565  1.00  0.00     0.029 A 
ATOM     65  N   UNL A   1      44.018  29.367  35.012  1.00  0.00    -0.354 N 
ATOM     66  N   UNL A   1      44.990  32.459  32.137  1.00  0.00    -0.248 NA
ATOM     67  C   UNL A   1      44.746  30.451  30.979  1.00  0.00     0.031 C 
ATOM     68  C   UNL A   1      43.267  30.869  36.407  1.00  0.00     0.029 A 
ATOM     69  C   UNL A   1      44.038  30.718  35.255  1.00  0.00     0.049 A 
ATOM     70  H   UNL A   1      44.728  28.843  34.575  1.00  0.00     0.167 HD
ATOM     71  C   UNL A   1      44.953  31.434  33.062  1.00  0.00     0.074 A 
ATOM     72  C   UNL A   1      44.969  30.207  32.273  1.00  0.00     0.031 C 
ATOM     73  C   UNL A   1      44.597  31.694  34.351  1.00  0.00     0.031 A 
BRANCH  60  74
ATOM     74  C   UNL A   1      42.620  26.540  34.426  1.00  0.00    -0.014 A 
ATOM     75  C   UNL A   1      43.704  26.232  33.583  1.00  0.00     0.009 A 
ATOM     76  C   UNL A   1      42.119  25.491  35.215  1.00  0.00     0.009 A 
ATOM     77  C   UNL A   1      44.236  24.943  33.498  1.00  0.00     0.001 A 
ATOM     78  C   UNL A   1      42.682  24.210  35.172  1.00  0.00     0.001 A 
ATOM     79  C   UNL A   1      43.736  23.935  34.308  1.00  0.00     0.000 A 
ENDBRANCH  60  74
BRANCH  61  80
ATOM     80  C   UNL A   1      44.235  32.658  28.655  1.00  0.00    -0.014 A 
ATOM     81  C   UNL A   1      44.429  33.945  28.146  1.00  0.00     0.009 A 
ATOM     82  C   UNL A   1      44.056  31.590  27.764  1.00  0.00     0.009 A 
ATOM     83  C   UNL A   1      44.324  34.171  26.782  1.00  0.00     0.001 A 
ATOM     84  C   UNL A   1      44.029  31.821  26.383  1.00  0.00     0.001 A 
ATOM     85  C   UNL A   1      44.134  33.117  25.893  1.00  0.00     0.000 A 
ENDBRANCH  61  80
BRANCH  73  86
ATOM     86  C   UNL A   1      44.454  33.150  34.734  1.00  0.00    -0.014 A 
ATOM     87  C   UNL A   1      43.267  33.827  34.435  1.00  0.00     0.009 A 
ATOM     88  C   UNL A   1      45.525  33.892  35.271  1.00  0.00     0.009 A 
ATOM     89  C   UNL A   1      43.154  35.202  34.667  1.00  0.00     0.001 A 
ATOM     90  C   UNL A   1      45.406  35.260  35.526  1.00  0.00     0.001 A 
ATOM     91  C   UNL A   1      44.220  35.917  35.215  1.00  0.00     0.000 A 
ENDBRANCH  73  86
ENDBRANCH  47  48
ENDBRANCH  40  42
ENDBRANCH  39  40
ENDBRANCH  38  39
ENDBRANCH  37  38
ENDBRANCH   1  37
TORSDOF 17
ENDMDL
