MODEL 1
REMARK VINA RESULT:     -11.9      0.000      0.000
REMARK SMILES CC(C)c1cc(N2CCC(C(=O)OCCOC(=O)c3ccc(-c4c5nc(c(-c6ccccc6)c6ccc([nH]6)c(-c6ccccc6)c6nc(c(-c7ccccc7)c7ccc4[nH]7)C=C6)C=C5)cc3)CC2)nc(-c2ccc(F)cc2)n1
REMARK SMILES IDX 14 1 13 2 11 3 12 4 10 5 7 6 8 7 68 8 9 9 67 10 6 11 4 12
REMARK SMILES IDX 5 13 78 14 70 15 69 16 2 17 1 18 3 19 71 20 72 21 77 22
REMARK SMILES IDX 73 23 76 24 74 25 75 26 15 27 16 28 17 29 18 30 19 31 20 32
REMARK SMILES IDX 66 33 21 34 65 35 22 36 23 37 24 38 59 39 25 40 64 41 58 42
REMARK SMILES IDX 60 43 26 44 63 45 57 46 56 47 27 49 49 50 34 51 48 52 35 53
REMARK SMILES IDX 38 54 47 55 61 56 36 57 37 58 46 60 62 61 39 62 28 63 29 64
REMARK SMILES IDX 33 65 30 66 32 67 31 68 50 69 51 70 55 71 52 72 54 73 53 74
REMARK SMILES IDX 40 75 41 76 45 77 42 78 44 79 43 80
REMARK H PARENT 60 48 38 59
REMARK Flexibility Score: inf
ROOT
ATOM      1  C   UNL A   1      31.784  29.044  25.907  1.00  0.00     0.274 C 
ENDROOT
BRANCH   1   2
ATOM      2  O   UNL A   1      31.956  27.693  25.441  1.00  0.00    -0.462 OA
BRANCH   2   3
ATOM      3  C   UNL A   1      31.185  27.303  24.396  1.00  0.00     0.309 C 
ATOM      4  O   UNL A   1      30.333  27.995  23.851  1.00  0.00    -0.252 OA
BRANCH   3   5
ATOM      5  C   UNL A   1      31.509  25.902  23.924  1.00  0.00     0.103 C 
ATOM      6  N   UNL A   1      32.773  23.388  23.744  1.00  0.00    -0.356 N 
ATOM      7  C   UNL A   1      33.059  24.362  22.705  1.00  0.00     0.119 C 
ATOM      8  C   UNL A   1      31.541  23.467  24.508  1.00  0.00     0.119 C 
ATOM      9  C   UNL A   1      32.876  25.771  23.244  1.00  0.00     0.037 C 
ATOM     10  C   UNL A   1      31.370  24.885  25.057  1.00  0.00     0.037 C 
BRANCH   6  11
ATOM     11  C   UNL A   1      33.748  22.473  24.061  1.00  0.00     0.132 A 
ATOM     12  C   UNL A   1      35.977  21.950  24.649  1.00  0.00     0.049 A 
ATOM     13  C   UNL A   1      35.061  22.880  24.199  1.00  0.00     0.071 A 
ATOM     14  N   UNL A   1      35.627  20.668  24.875  1.00  0.00    -0.233 NA
ATOM     15  C   UNL A   1      34.341  20.346  24.651  1.00  0.00     0.161 A 
ATOM     16  N   UNL A   1      33.379  21.205  24.277  1.00  0.00    -0.211 NA
BRANCH  12  17
ATOM     17  C   UNL A   1      37.429  22.306  24.893  1.00  0.00     0.032 C 
ATOM     18  C   UNL A   1      37.526  23.508  25.833  1.00  0.00     0.014 C 
ATOM     19  C   UNL A   1      38.269  21.136  25.417  1.00  0.00     0.014 C 
ENDBRANCH  12  17
BRANCH  15  20
ATOM     20  C   UNL A   1      33.963  18.935  24.770  1.00  0.00     0.019 A 
ATOM     21  C   UNL A   1      32.779  18.547  25.421  1.00  0.00     0.015 A 
ATOM     22  C   UNL A   1      34.792  17.925  24.238  1.00  0.00     0.015 A 
ATOM     23  C   UNL A   1      32.430  17.198  25.531  1.00  0.00     0.040 A 
ATOM     24  C   UNL A   1      34.454  16.576  24.365  1.00  0.00     0.040 A 
ATOM     25  C   UNL A   1      33.274  16.226  25.006  1.00  0.00     0.123 A 
ATOM     26  F   UNL A   1      32.945  14.933  25.122  1.00  0.00    -0.207 F 
ENDBRANCH  15  20
ENDBRANCH   6  11
ENDBRANCH   3   5
ENDBRANCH   2   3
ENDBRANCH   1   2
BRANCH   1  27
ATOM     27  C   UNL A   1      33.141  29.740  26.012  1.00  0.00     0.275 C 
BRANCH  27  28
ATOM     28  O   UNL A   1      33.747  29.481  27.294  1.00  0.00    -0.458 OA
BRANCH  28  29
ATOM     29  C   UNL A   1      34.399  30.522  27.861  1.00  0.00     0.338 C 
ATOM     30  O   UNL A   1      33.967  31.631  28.118  1.00  0.00    -0.246 OA
BRANCH  29  31
ATOM     31  C   UNL A   1      35.753  30.088  28.229  1.00  0.00     0.060 A 
ATOM     32  C   UNL A   1      36.744  30.091  27.245  1.00  0.00     0.016 A 
ATOM     33  C   UNL A   1      36.030  29.620  29.513  1.00  0.00     0.016 A 
ATOM     34  C   UNL A   1      38.025  29.635  27.541  1.00  0.00     0.010 A 
ATOM     35  C   UNL A   1      37.324  29.179  29.814  1.00  0.00     0.010 A 
ATOM     36  C   UNL A   1      38.330  29.185  28.832  1.00  0.00    -0.014 A 
BRANCH  36  37
ATOM     37  C   UNL A   1      39.704  28.735  29.155  1.00  0.00     0.031 A 
ATOM     38  C   UNL A   1      40.656  29.650  29.869  1.00  0.00     0.074 A 
ATOM     39  C   UNL A   1      40.096  27.497  28.800  1.00  0.00     0.049 A 
ATOM     40  N   UNL A   1      41.924  29.471  30.140  1.00  0.00    -0.248 NA
ATOM     41  C   UNL A   1      40.112  30.933  30.342  1.00  0.00     0.031 C 
ATOM     42  C   UNL A   1      39.253  26.496  28.145  1.00  0.00     0.029 A 
ATOM     43  N   UNL A   1      41.310  26.871  28.940  1.00  0.00    -0.354 N 
ATOM     44  C   UNL A   1      42.338  30.625  30.792  1.00  0.00     0.074 A 
ATOM     45  C   UNL A   1      41.187  31.501  30.873  1.00  0.00     0.031 C 
ATOM     46  C   UNL A   1      39.974  25.381  27.942  1.00  0.00     0.029 A 
ATOM     47  C   UNL A   1      41.340  25.608  28.401  1.00  0.00     0.049 A 
ATOM     48  H   UNL A   1      42.084  27.288  29.383  1.00  0.00     0.167 HD
ATOM     49  C   UNL A   1      43.566  30.927  31.274  1.00  0.00     0.031 A 
ATOM     50  C   UNL A   1      42.362  24.744  28.258  1.00  0.00     0.031 A 
ATOM     51  C   UNL A   1      44.708  30.055  31.200  1.00  0.00     0.049 A 
ATOM     52  C   UNL A   1      43.731  25.138  28.732  1.00  0.00     0.074 A 
ATOM     53  C   UNL A   1      45.987  30.268  31.683  1.00  0.00     0.029 A 
ATOM     54  N   UNL A   1      44.708  28.806  30.602  1.00  0.00    -0.354 N 
ATOM     55  N   UNL A   1      44.108  26.235  29.343  1.00  0.00    -0.248 NA
ATOM     56  C   UNL A   1      44.818  24.180  28.482  1.00  0.00     0.031 C 
ATOM     57  C   UNL A   1      46.776  29.165  31.336  1.00  0.00     0.029 A 
ATOM     58  C   UNL A   1      45.974  28.248  30.677  1.00  0.00     0.049 A 
ATOM     59  H   UNL A   1      43.925  28.377  30.187  1.00  0.00     0.167 HD
ATOM     60  C   UNL A   1      45.472  26.094  29.561  1.00  0.00     0.074 A 
ATOM     61  C   UNL A   1      45.852  24.799  29.035  1.00  0.00     0.031 C 
ATOM     62  C   UNL A   1      46.335  26.963  30.141  1.00  0.00     0.031 A 
BRANCH  49  63
ATOM     63  C   UNL A   1      43.753  32.280  31.897  1.00  0.00    -0.014 A 
ATOM     64  C   UNL A   1      43.982  33.420  31.114  1.00  0.00     0.009 A 
ATOM     65  C   UNL A   1      43.641  32.420  33.290  1.00  0.00     0.009 A 
ATOM     66  C   UNL A   1      44.114  34.673  31.715  1.00  0.00     0.001 A 
ATOM     67  C   UNL A   1      43.754  33.677  33.886  1.00  0.00     0.001 A 
ATOM     68  C   UNL A   1      43.996  34.801  33.099  1.00  0.00     0.000 A 
ENDBRANCH  49  63
BRANCH  50  69
ATOM     69  C   UNL A   1      42.144  23.437  27.587  1.00  0.00    -0.014 A 
ATOM     70  C   UNL A   1      41.656  22.338  28.306  1.00  0.00     0.009 A 
ATOM     71  C   UNL A   1      42.442  23.282  26.224  1.00  0.00     0.009 A 
ATOM     72  C   UNL A   1      41.490  21.101  27.677  1.00  0.00     0.001 A 
ATOM     73  C   UNL A   1      42.251  22.052  25.592  1.00  0.00     0.001 A 
ATOM     74  C   UNL A   1      41.784  20.960  26.321  1.00  0.00     0.000 A 
ENDBRANCH  50  69
BRANCH  62  75
ATOM     75  C   UNL A   1      47.768  26.530  30.247  1.00  0.00    -0.014 A 
ATOM     76  C   UNL A   1      48.676  26.786  29.209  1.00  0.00     0.009 A 
ATOM     77  C   UNL A   1      48.218  25.883  31.406  1.00  0.00     0.009 A 
ATOM     78  C   UNL A   1      50.006  26.375  29.322  1.00  0.00     0.001 A 
ATOM     79  C   UNL A   1      49.552  25.494  31.525  1.00  0.00     0.001 A 
ATOM     80  C   UNL A   1      50.443  25.733  30.479  1.00  0.00     0.000 A 
ENDBRANCH  62  75
ENDBRANCH  36  37
ENDBRANCH  29  31
ENDBRANCH  28  29
ENDBRANCH  27  28
ENDBRANCH   1  27
TORSDOF 14
ENDMDL
MODEL 2
REMARK VINA RESULT:     -11.8      4.256      8.803
REMARK SMILES CC(C)c1cc(N2CCC(C(=O)OCCOC(=O)c3ccc(-c4c5nc(c(-c6ccccc6)c6ccc([nH]6)c(-c6ccccc6)c6nc(c(-c7ccccc7)c7ccc4[nH]7)C=C6)C=C5)cc3)CC2)nc(-c2ccc(F)cc2)n1
REMARK SMILES IDX 14 1 13 2 11 3 12 4 10 5 7 6 8 7 68 8 9 9 67 10 6 11 4 12
REMARK SMILES IDX 5 13 78 14 70 15 69 16 2 17 1 18 3 19 71 20 72 21 77 22
REMARK SMILES IDX 73 23 76 24 74 25 75 26 15 27 16 28 17 29 18 30 19 31 20 32
REMARK SMILES IDX 66 33 21 34 65 35 22 36 23 37 24 38 59 39 25 40 64 41 58 42
REMARK SMILES IDX 60 43 26 44 63 45 57 46 56 47 27 49 49 50 34 51 48 52 35 53
REMARK SMILES IDX 38 54 47 55 61 56 36 57 37 58 46 60 62 61 39 62 28 63 29 64
REMARK SMILES IDX 33 65 30 66 32 67 31 68 50 69 51 70 55 71 52 72 54 73 53 74
REMARK SMILES IDX 40 75 41 76 45 77 42 78 44 79 43 80
REMARK H PARENT 60 48 38 59
REMARK Flexibility Score: inf
ROOT
ATOM      1  C   UNL A   1      42.668  20.721  26.442  1.00  0.00     0.274 C 
ENDROOT
BRANCH   1   2
ATOM      2  O   UNL A   1      41.282  20.577  26.084  1.00  0.00    -0.462 OA
BRANCH   2   3
ATOM      3  C   UNL A   1      40.386  21.303  26.798  1.00  0.00     0.309 C 
ATOM      4  O   UNL A   1      40.403  21.444  28.016  1.00  0.00    -0.252 OA
BRANCH   3   5
ATOM      5  C   UNL A   1      39.352  21.978  25.923  1.00  0.00     0.103 C 
ATOM      6  N   UNL A   1      36.859  22.934  25.017  1.00  0.00    -0.356 N 
ATOM      7  C   UNL A   1      37.416  21.768  24.352  1.00  0.00     0.119 C 
ATOM      8  C   UNL A   1      37.724  23.870  25.711  1.00  0.00     0.119 C 
ATOM      9  C   UNL A   1      38.336  21.016  25.299  1.00  0.00     0.037 C 
ATOM     10  C   UNL A   1      38.639  23.106  26.670  1.00  0.00     0.037 C 
BRANCH   6  11
ATOM     11  C   UNL A   1      35.491  23.056  25.073  1.00  0.00     0.132 A 
ATOM     12  C   UNL A   1      33.327  22.114  24.947  1.00  0.00     0.049 A 
ATOM     13  C   UNL A   1      34.687  21.981  24.746  1.00  0.00     0.071 A 
ATOM     14  N   UNL A   1      32.787  23.272  25.374  1.00  0.00    -0.233 NA
ATOM     15  C   UNL A   1      33.640  24.286  25.605  1.00  0.00     0.161 A 
ATOM     16  N   UNL A   1      34.976  24.216  25.495  1.00  0.00    -0.211 NA
BRANCH  12  17
ATOM     17  C   UNL A   1      32.361  20.977  24.680  1.00  0.00     0.032 C 
ATOM     18  C   UNL A   1      32.182  20.780  23.175  1.00  0.00     0.014 C 
ATOM     19  C   UNL A   1      32.759  19.662  25.359  1.00  0.00     0.014 C 
ENDBRANCH  12  17
BRANCH  15  20
ATOM     20  C   UNL A   1      33.068  25.590  25.951  1.00  0.00     0.019 A 
ATOM     21  C   UNL A   1      33.873  26.740  26.046  1.00  0.00     0.015 A 
ATOM     22  C   UNL A   1      31.688  25.720  26.207  1.00  0.00     0.015 A 
ATOM     23  C   UNL A   1      33.316  27.978  26.378  1.00  0.00     0.040 A 
ATOM     24  C   UNL A   1      31.134  26.954  26.558  1.00  0.00     0.040 A 
ATOM     25  C   UNL A   1      31.954  28.072  26.636  1.00  0.00     0.123 A 
ATOM     26  F   UNL A   1      31.424  29.256  26.967  1.00  0.00    -0.207 F 
ENDBRANCH  15  20
ENDBRANCH   6  11
ENDBRANCH   3   5
ENDBRANCH   2   3
ENDBRANCH   1   2
BRANCH   1  27
ATOM     27  C   UNL A   1      43.412  21.499  25.357  1.00  0.00     0.275 C 
BRANCH  27  28
ATOM     28  O   UNL A   1      42.758  22.756  25.094  1.00  0.00    -0.458 OA
BRANCH  28  29
ATOM     29  C   UNL A   1      43.552  23.851  25.113  1.00  0.00     0.338 C 
ATOM     30  O   UNL A   1      44.457  24.139  24.351  1.00  0.00    -0.246 OA
BRANCH  29  31
ATOM     31  C   UNL A   1      43.097  24.746  26.186  1.00  0.00     0.060 A 
ATOM     32  C   UNL A   1      43.635  26.032  26.253  1.00  0.00     0.016 A 
ATOM     33  C   UNL A   1      42.198  24.302  27.154  1.00  0.00     0.016 A 
ATOM     34  C   UNL A   1      43.269  26.891  27.286  1.00  0.00     0.010 A 
ATOM     35  C   UNL A   1      41.817  25.172  28.182  1.00  0.00     0.010 A 
ATOM     36  C   UNL A   1      42.348  26.472  28.254  1.00  0.00    -0.014 A 
BRANCH  36  37
ATOM     37  C   UNL A   1      41.933  27.400  29.332  1.00  0.00     0.031 A 
ATOM     38  C   UNL A   1      42.690  27.446  30.628  1.00  0.00     0.074 A 
ATOM     39  C   UNL A   1      40.868  28.202  29.143  1.00  0.00     0.049 A 
ATOM     40  N   UNL A   1      42.411  28.113  31.720  1.00  0.00    -0.248 NA
ATOM     41  C   UNL A   1      43.918  26.641  30.707  1.00  0.00     0.031 C 
ATOM     42  C   UNL A   1      40.079  28.286  27.913  1.00  0.00     0.029 A 
ATOM     43  N   UNL A   1      40.265  29.099  29.990  1.00  0.00    -0.354 N 
ATOM     44  C   UNL A   1      43.414  27.790  32.625  1.00  0.00     0.074 A 
ATOM     45  C   UNL A   1      44.305  26.864  31.957  1.00  0.00     0.031 C 
ATOM     46  C   UNL A   1      39.097  29.186  28.084  1.00  0.00     0.029 A 
ATOM     47  C   UNL A   1      39.155  29.700  29.448  1.00  0.00     0.049 A 
ATOM     48  H   UNL A   1      40.596  29.291  30.896  1.00  0.00     0.167 HD
ATOM     49  C   UNL A   1      43.573  28.223  33.898  1.00  0.00     0.031 A 
ATOM     50  C   UNL A   1      38.261  30.541  30.001  1.00  0.00     0.031 A 
ATOM     51  C   UNL A   1      42.692  29.147  34.561  1.00  0.00     0.049 A 
ATOM     52  C   UNL A   1      38.420  30.943  31.439  1.00  0.00     0.074 A 
ATOM     53  C   UNL A   1      42.788  29.660  35.842  1.00  0.00     0.029 A 
ATOM     54  N   UNL A   1      41.553  29.693  33.994  1.00  0.00    -0.354 N 
ATOM     55  N   UNL A   1      39.371  30.626  32.284  1.00  0.00    -0.248 NA
ATOM     56  C   UNL A   1      37.372  31.806  32.004  1.00  0.00     0.031 C 
ATOM     57  C   UNL A   1      41.679  30.483  36.069  1.00  0.00     0.029 A 
ATOM     58  C   UNL A   1      40.919  30.515  34.911  1.00  0.00     0.049 A 
ATOM     59  H   UNL A   1      41.240  29.524  33.076  1.00  0.00     0.167 HD
ATOM     60  C   UNL A   1      39.043  31.259  33.475  1.00  0.00     0.074 A 
ATOM     61  C   UNL A   1      37.817  31.994  33.238  1.00  0.00     0.031 C 
ATOM     62  C   UNL A   1      39.696  31.231  34.662  1.00  0.00     0.031 A 
BRANCH  49  63
ATOM     63  C   UNL A   1      44.730  27.671  34.679  1.00  0.00    -0.014 A 
ATOM     64  C   UNL A   1      44.610  26.490  35.426  1.00  0.00     0.009 A 
ATOM     65  C   UNL A   1      45.976  28.315  34.617  1.00  0.00     0.009 A 
ATOM     66  C   UNL A   1      45.712  25.976  36.112  1.00  0.00     0.001 A 
ATOM     67  C   UNL A   1      47.080  27.788  35.288  1.00  0.00     0.001 A 
ATOM     68  C   UNL A   1      46.946  26.623  36.040  1.00  0.00     0.000 A 
ENDBRANCH  49  63
BRANCH  50  69
ATOM     69  C   UNL A   1      37.101  31.021  29.208  1.00  0.00    -0.014 A 
ATOM     70  C   UNL A   1      36.039  30.159  28.902  1.00  0.00     0.009 A 
ATOM     71  C   UNL A   1      37.063  32.343  28.736  1.00  0.00     0.009 A 
ATOM     72  C   UNL A   1      34.970  30.606  28.122  1.00  0.00     0.001 A 
ATOM     73  C   UNL A   1      35.981  32.795  27.979  1.00  0.00     0.001 A 
ATOM     74  C   UNL A   1      34.940  31.923  27.665  1.00  0.00     0.000 A 
ENDBRANCH  50  69
BRANCH  62  75
ATOM     75  C   UNL A   1      39.102  32.029  35.784  1.00  0.00    -0.014 A 
ATOM     76  C   UNL A   1      38.211  31.440  36.695  1.00  0.00     0.009 A 
ATOM     77  C   UNL A   1      39.456  33.376  35.947  1.00  0.00     0.009 A 
ATOM     78  C   UNL A   1      37.666  32.197  37.734  1.00  0.00     0.001 A 
ATOM     79  C   UNL A   1      38.926  34.123  36.999  1.00  0.00     0.001 A 
ATOM     80  C   UNL A   1      38.025  33.535  37.887  1.00  0.00     0.000 A 
ENDBRANCH  62  75
ENDBRANCH  36  37
ENDBRANCH  29  31
ENDBRANCH  28  29
ENDBRANCH  27  28
ENDBRANCH   1  27
TORSDOF 14
ENDMDL
MODEL 3
REMARK VINA RESULT:     -11.7      3.710      8.841
REMARK SMILES CC(C)c1cc(N2CCC(C(=O)OCCOC(=O)c3ccc(-c4c5nc(c(-c6ccccc6)c6ccc([nH]6)c(-c6ccccc6)c6nc(c(-c7ccccc7)c7ccc4[nH]7)C=C6)C=C5)cc3)CC2)nc(-c2ccc(F)cc2)n1
REMARK SMILES IDX 14 1 13 2 11 3 12 4 10 5 7 6 8 7 68 8 9 9 67 10 6 11 4 12
REMARK SMILES IDX 5 13 78 14 70 15 69 16 2 17 1 18 3 19 71 20 72 21 77 22
REMARK SMILES IDX 73 23 76 24 74 25 75 26 15 27 16 28 17 29 18 30 19 31 20 32
REMARK SMILES IDX 66 33 21 34 65 35 22 36 23 37 24 38 59 39 25 40 64 41 58 42
REMARK SMILES IDX 60 43 26 44 63 45 57 46 56 47 27 49 49 50 34 51 48 52 35 53
REMARK SMILES IDX 38 54 47 55 61 56 36 57 37 58 46 60 62 61 39 62 28 63 29 64
REMARK SMILES IDX 33 65 30 66 32 67 31 68 50 69 51 70 55 71 52 72 54 73 53 74
REMARK SMILES IDX 40 75 41 76 45 77 42 78 44 79 43 80
REMARK H PARENT 60 48 38 59
REMARK Flexibility Score: inf
ROOT
ATOM      1  C   UNL A   1      36.133  21.526  25.132  1.00  0.00     0.274 C 
ENDROOT
BRANCH   1   2
ATOM      2  O   UNL A   1      34.843  21.843  24.577  1.00  0.00    -0.462 OA
BRANCH   2   3
ATOM      3  C   UNL A   1      34.806  22.812  23.629  1.00  0.00     0.309 C 
ATOM      4  O   UNL A   1      35.649  22.977  22.755  1.00  0.00    -0.252 OA
BRANCH   3   5
ATOM      5  C   UNL A   1      33.567  23.677  23.727  1.00  0.00     0.103 C 
ATOM      6  N   UNL A   1      31.936  25.936  24.155  1.00  0.00    -0.356 N 
ATOM      7  C   UNL A   1      31.916  24.890  25.164  1.00  0.00     0.119 C 
ATOM      8  C   UNL A   1      32.319  25.634  22.788  1.00  0.00     0.119 C 
ATOM      9  C   UNL A   1      33.231  24.129  25.152  1.00  0.00     0.037 C 
ATOM     10  C   UNL A   1      33.649  24.879  22.785  1.00  0.00     0.037 C 
BRANCH   6  11
ATOM     11  C   UNL A   1      31.701  27.229  24.558  1.00  0.00     0.132 A 
ATOM     12  C   UNL A   1      32.104  29.042  26.020  1.00  0.00     0.049 A 
ATOM     13  C   UNL A   1      32.260  27.700  25.730  1.00  0.00     0.071 A 
ATOM     14  N   UNL A   1      31.370  29.853  25.233  1.00  0.00    -0.233 NA
ATOM     15  C   UNL A   1      30.809  29.292  24.147  1.00  0.00     0.161 A 
ATOM     16  N   UNL A   1      30.966  28.016  23.763  1.00  0.00    -0.211 NA
BRANCH  12  17
ATOM     17  C   UNL A   1      32.728  29.676  27.247  1.00  0.00     0.032 C 
ATOM     18  C   UNL A   1      34.184  29.231  27.388  1.00  0.00     0.014 C 
ATOM     19  C   UNL A   1      32.620  31.204  27.271  1.00  0.00     0.014 C 
ENDBRANCH  12  17
BRANCH  15  20
ATOM     20  C   UNL A   1      29.906  30.122  23.344  1.00  0.00     0.019 A 
ATOM     21  C   UNL A   1      29.674  29.846  21.985  1.00  0.00     0.015 A 
ATOM     22  C   UNL A   1      29.253  31.232  23.919  1.00  0.00     0.015 A 
ATOM     23  C   UNL A   1      28.813  30.646  21.228  1.00  0.00     0.040 A 
ATOM     24  C   UNL A   1      28.408  32.043  23.158  1.00  0.00     0.040 A 
ATOM     25  C   UNL A   1      28.193  31.739  21.821  1.00  0.00     0.123 A 
ATOM     26  F   UNL A   1      27.379  32.512  21.092  1.00  0.00    -0.207 F 
ENDBRANCH  15  20
ENDBRANCH   6  11
ENDBRANCH   3   5
ENDBRANCH   2   3
ENDBRANCH   1   2
BRANCH   1  27
ATOM     27  C   UNL A   1      36.640  22.693  25.979  1.00  0.00     0.275 C 
BRANCH  27  28
ATOM     28  O   UNL A   1      37.873  23.212  25.443  1.00  0.00    -0.458 OA
BRANCH  28  29
ATOM     29  C   UNL A   1      38.983  22.982  26.182  1.00  0.00     0.338 C 
ATOM     30  O   UNL A   1      39.617  21.948  26.285  1.00  0.00    -0.246 OA
BRANCH  29  31
ATOM     31  C   UNL A   1      39.398  24.241  26.815  1.00  0.00     0.060 A 
ATOM     32  C   UNL A   1      39.006  24.485  28.132  1.00  0.00     0.016 A 
ATOM     33  C   UNL A   1      40.112  25.200  26.098  1.00  0.00     0.016 A 
ATOM     34  C   UNL A   1      39.333  25.690  28.748  1.00  0.00     0.010 A 
ATOM     35  C   UNL A   1      40.457  26.403  26.724  1.00  0.00     0.010 A 
ATOM     36  C   UNL A   1      40.072  26.656  28.053  1.00  0.00    -0.014 A 
BRANCH  36  37
ATOM     37  C   UNL A   1      40.451  27.922  28.722  1.00  0.00     0.031 A 
ATOM     38  C   UNL A   1      41.818  28.085  29.322  1.00  0.00     0.074 A 
ATOM     39  C   UNL A   1      39.560  28.929  28.790  1.00  0.00     0.049 A 
ATOM     40  N   UNL A   1      42.290  29.074  30.037  1.00  0.00    -0.248 NA
ATOM     41  C   UNL A   1      42.778  26.995  29.088  1.00  0.00     0.031 C 
ATOM     42  C   UNL A   1      38.218  28.913  28.206  1.00  0.00     0.029 A 
ATOM     43  N   UNL A   1      39.650  30.161  29.388  1.00  0.00    -0.354 N 
ATOM     44  C   UNL A   1      43.593  28.718  30.360  1.00  0.00     0.074 A 
ATOM     45  C   UNL A   1      43.836  27.419  29.767  1.00  0.00     0.031 C 
ATOM     46  C   UNL A   1      37.612  30.081  28.471  1.00  0.00     0.029 A 
ATOM     47  C   UNL A   1      38.498  30.903  29.289  1.00  0.00     0.049 A 
ATOM     48  H   UNL A   1      40.462  30.482  29.844  1.00  0.00     0.167 HD
ATOM     49  C   UNL A   1      44.501  29.410  31.089  1.00  0.00     0.031 A 
ATOM     50  C   UNL A   1      38.178  32.094  29.828  1.00  0.00     0.031 A 
ATOM     51  C   UNL A   1      44.263  30.703  31.672  1.00  0.00     0.049 A 
ATOM     52  C   UNL A   1      39.178  32.802  30.695  1.00  0.00     0.074 A 
ATOM     53  C   UNL A   1      45.132  31.489  32.407  1.00  0.00     0.029 A 
ATOM     54  N   UNL A   1      43.067  31.396  31.590  1.00  0.00    -0.354 N 
ATOM     55  N   UNL A   1      40.405  32.451  30.995  1.00  0.00    -0.248 NA
ATOM     56  C   UNL A   1      38.742  34.064  31.312  1.00  0.00     0.031 C 
ATOM     57  C   UNL A   1      44.448  32.642  32.810  1.00  0.00     0.029 A 
ATOM     58  C   UNL A   1      43.166  32.589  32.287  1.00  0.00     0.049 A 
ATOM     59  H   UNL A   1      42.266  31.089  31.107  1.00  0.00     0.167 HD
ATOM     60  C   UNL A   1      40.890  33.453  31.825  1.00  0.00     0.074 A 
ATOM     61  C   UNL A   1      39.834  34.434  31.965  1.00  0.00     0.031 C 
ATOM     62  C   UNL A   1      42.103  33.549  32.423  1.00  0.00     0.031 A 
BRANCH  49  63
ATOM     63  C   UNL A   1      45.834  28.763  31.329  1.00  0.00    -0.014 A 
ATOM     64  C   UNL A   1      46.908  28.955  30.448  1.00  0.00     0.009 A 
ATOM     65  C   UNL A   1      46.031  27.996  32.489  1.00  0.00     0.009 A 
ATOM     66  C   UNL A   1      48.150  28.374  30.715  1.00  0.00     0.001 A 
ATOM     67  C   UNL A   1      47.279  27.434  32.762  1.00  0.00     0.001 A 
ATOM     68  C   UNL A   1      48.335  27.618  31.872  1.00  0.00     0.000 A 
ENDBRANCH  49  63
BRANCH  50  69
ATOM     69  C   UNL A   1      36.828  32.672  29.607  1.00  0.00    -0.014 A 
ATOM     70  C   UNL A   1      35.804  32.473  30.543  1.00  0.00     0.009 A 
ATOM     71  C   UNL A   1      36.554  33.411  28.445  1.00  0.00     0.009 A 
ATOM     72  C   UNL A   1      34.526  32.986  30.310  1.00  0.00     0.001 A 
ATOM     73  C   UNL A   1      35.283  33.945  28.227  1.00  0.00     0.001 A 
ATOM     74  C   UNL A   1      34.267  33.724  29.155  1.00  0.00     0.000 A 
ENDBRANCH  50  69
BRANCH  62  75
ATOM     75  C   UNL A   1      42.351  34.764  33.267  1.00  0.00    -0.014 A 
ATOM     76  C   UNL A   1      42.994  35.892  32.735  1.00  0.00     0.009 A 
ATOM     77  C   UNL A   1      41.915  34.790  34.599  1.00  0.00     0.009 A 
ATOM     78  C   UNL A   1      43.219  37.015  33.533  1.00  0.00     0.001 A 
ATOM     79  C   UNL A   1      42.122  35.922  35.388  1.00  0.00     0.001 A 
ATOM     80  C   UNL A   1      42.781  37.030  34.857  1.00  0.00     0.000 A 
ENDBRANCH  62  75
ENDBRANCH  36  37
ENDBRANCH  29  31
ENDBRANCH  28  29
ENDBRANCH  27  28
ENDBRANCH   1  27
TORSDOF 14
ENDMDL
