MODEL 1
REMARK VINA RESULT:     -10.3      0.000      0.000
REMARK SMILES O=C(Nc1ccc(O)c(C(=O)OCCOC(=O)c2ccc(-c3c4nc(c(-c5ccccc5)c5ccc([nH]5)c(-c5ccccc5)c5nc(c(-c6ccccc6)c6ccc3[nH]6)C=C5)C=C4)cc2)c1)c1cncc(Br)c1
REMARK SMILES IDX 13 1 12 2 10 3 11 4 9 5 4 6 5 7 66 8 6 9 7 10 3 11 1 12 2 13
REMARK SMILES IDX 67 15 68 16 73 17 69 18 71 19 70 20 72 21 8 22 14 24 15 25
REMARK SMILES IDX 16 26 17 27 18 28 19 29 65 30 20 31 64 32 21 33 22 34 23 35
REMARK SMILES IDX 58 36 24 37 63 38 57 39 59 40 25 41 62 42 56 43 55 44 26 46
REMARK SMILES IDX 48 47 33 48 47 49 34 50 37 51 46 52 60 53 35 54 36 55 45 57
REMARK SMILES IDX 61 58 38 59 27 60 28 61 32 62 29 63 31 64 30 65 49 66 50 67
REMARK SMILES IDX 54 68 51 69 53 70 52 71 39 72 40 73 44 74 41 75 43 76 42 77
REMARK H PARENT 3 14 8 23 59 45 37 56
REMARK Flexibility Score: inf
ROOT
ATOM      1  C   UNL A   1      33.521  34.080  28.106  1.00  0.00     0.275 C 
ENDROOT
BRANCH   1   2
ATOM      2  O   UNL A   1      34.044  35.299  28.667  1.00  0.00    -0.458 OA
BRANCH   2   3
ATOM      3  C   UNL A   1      33.238  35.925  29.554  1.00  0.00     0.342 C 
ATOM      4  O   UNL A   1      32.159  36.449  29.316  1.00  0.00    -0.246 OA
BRANCH   3   5
ATOM      5  C   UNL A   1      33.741  35.801  30.936  1.00  0.00     0.103 A 
ATOM      6  C   UNL A   1      34.477  34.263  32.664  1.00  0.00     0.042 A 
ATOM      7  C   UNL A   1      34.409  35.292  33.602  1.00  0.00     0.030 A 
ATOM      8  C   UNL A   1      34.172  34.529  31.335  1.00  0.00     0.045 A 
ATOM      9  C   UNL A   1      34.020  36.578  33.206  1.00  0.00     0.049 A 
ATOM     10  C   UNL A   1      33.669  36.829  31.876  1.00  0.00     0.130 A 
BRANCH   6  11
ATOM     11  N   UNL A   1      34.801  32.940  32.999  1.00  0.00    -0.322 N 
ATOM     12  O   UNL A   1      36.081  31.066  32.882  1.00  0.00    -0.269 OA
ATOM     13  C   UNL A   1      35.997  32.288  32.801  1.00  0.00     0.257 C 
ATOM     14  H   UNL A   1      34.086  32.415  33.427  1.00  0.00     0.170 HD
BRANCH  13  15
ATOM     15  C   UNL A   1      37.225  33.082  32.612  1.00  0.00     0.059 A 
ATOM     16  C   UNL A   1      37.955  33.537  33.707  1.00  0.00     0.124 A 
ATOM     17  C   UNL A   1      37.693  33.357  31.332  1.00  0.00     0.032 A 
ATOM     18  N   UNL A   1      39.070  34.296  33.602  1.00  0.00    -0.263 NA
ATOM     19  C   UNL A   1      38.839  34.133  31.199  1.00  0.00     0.037 A 
ATOM     20  C   UNL A   1      39.483  34.584  32.345  1.00  0.00     0.126 A 
ATOM     21  Br  UNL A   1      39.498  34.580  29.491  1.00  0.00    -0.049 Br
ENDBRANCH  13  15
ENDBRANCH   6  11
BRANCH  10  22
ATOM     22  O   UNL A   1      33.206  38.062  31.522  1.00  0.00    -0.507 OA
ATOM     23  H   UNL A   1      32.803  38.189  30.686  1.00  0.00     0.293 HD
ENDBRANCH  10  22
ENDBRANCH   3   5
ENDBRANCH   2   3
ENDBRANCH   1   2
BRANCH   1  24
ATOM     24  C   UNL A   1      34.617  33.024  27.993  1.00  0.00     0.275 C 
BRANCH  24  25
ATOM     25  O   UNL A   1      34.181  31.792  28.596  1.00  0.00    -0.458 OA
BRANCH  25  26
ATOM     26  C   UNL A   1      34.642  30.661  28.018  1.00  0.00     0.338 C 
ATOM     27  O   UNL A   1      34.070  29.942  27.216  1.00  0.00    -0.246 OA
BRANCH  26  28
ATOM     28  C   UNL A   1      36.015  30.388  28.473  1.00  0.00     0.060 A 
ATOM     29  C   UNL A   1      37.082  30.670  27.627  1.00  0.00     0.016 A 
ATOM     30  C   UNL A   1      36.234  29.703  29.665  1.00  0.00     0.016 A 
ATOM     31  C   UNL A   1      38.345  30.146  27.895  1.00  0.00     0.010 A 
ATOM     32  C   UNL A   1      37.531  29.295  29.999  1.00  0.00     0.010 A 
ATOM     33  C   UNL A   1      38.596  29.463  29.095  1.00  0.00    -0.014 A 
BRANCH  33  34
ATOM     34  C   UNL A   1      39.949  28.900  29.392  1.00  0.00     0.031 A 
ATOM     35  C   UNL A   1      40.954  29.700  30.188  1.00  0.00     0.074 A 
ATOM     36  C   UNL A   1      40.295  27.669  28.960  1.00  0.00     0.049 A 
ATOM     37  N   UNL A   1      42.231  29.475  30.375  1.00  0.00    -0.248 NA
ATOM     38  C   UNL A   1      40.462  30.921  30.847  1.00  0.00     0.031 C 
ATOM     39  C   UNL A   1      39.430  26.748  28.218  1.00  0.00     0.029 A 
ATOM     40  N   UNL A   1      41.473  26.974  29.094  1.00  0.00    -0.354 N 
ATOM     41  C   UNL A   1      42.706  30.559  31.106  1.00  0.00     0.074 A 
ATOM     42  C   UNL A   1      41.580  31.440  31.333  1.00  0.00     0.031 C 
ATOM     43  C   UNL A   1      40.083  25.595  28.016  1.00  0.00     0.029 A 
ATOM     44  C   UNL A   1      41.446  25.727  28.516  1.00  0.00     0.049 A 
ATOM     45  H   UNL A   1      42.262  27.334  29.559  1.00  0.00     0.167 HD
ATOM     46  C   UNL A   1      43.966  30.803  31.544  1.00  0.00     0.031 A 
ATOM     47  C   UNL A   1      42.413  24.804  28.357  1.00  0.00     0.031 A 
ATOM     48  C   UNL A   1      45.077  29.905  31.375  1.00  0.00     0.049 A 
ATOM     49  C   UNL A   1      43.805  25.105  28.830  1.00  0.00     0.074 A 
ATOM     50  C   UNL A   1      46.388  30.063  31.795  1.00  0.00     0.029 A 
ATOM     51  N   UNL A   1      45.004  28.669  30.754  1.00  0.00    -0.354 N 
ATOM     52  N   UNL A   1      44.253  26.168  29.450  1.00  0.00    -0.248 NA
ATOM     53  C   UNL A   1      44.828  24.085  28.559  1.00  0.00     0.031 C 
ATOM     54  C   UNL A   1      47.115  28.936  31.398  1.00  0.00     0.029 A 
ATOM     55  C   UNL A   1      46.247  28.058  30.770  1.00  0.00     0.049 A 
ATOM     56  H   UNL A   1      44.189  28.281  30.359  1.00  0.00     0.167 HD
ATOM     57  C   UNL A   1      45.609  25.945  29.648  1.00  0.00     0.074 A 
ATOM     58  C   UNL A   1      45.904  24.635  29.105  1.00  0.00     0.031 C 
ATOM     59  C   UNL A   1      46.528  26.758  30.222  1.00  0.00     0.031 A 
BRANCH  46  60
ATOM     60  C   UNL A   1      44.223  32.124  32.218  1.00  0.00    -0.014 A 
ATOM     61  C   UNL A   1      44.574  33.268  31.487  1.00  0.00     0.009 A 
ATOM     62  C   UNL A   1      44.071  32.227  33.610  1.00  0.00     0.009 A 
ATOM     63  C   UNL A   1      44.799  34.482  32.143  1.00  0.00     0.001 A 
ATOM     64  C   UNL A   1      44.271  33.446  34.259  1.00  0.00     0.001 A 
ATOM     65  C   UNL A   1      44.644  34.571  33.527  1.00  0.00     0.000 A 
ENDBRANCH  46  60
BRANCH  47  66
ATOM     66  C   UNL A   1      42.108  23.526  27.663  1.00  0.00    -0.014 A 
ATOM     67  C   UNL A   1      42.403  23.366  26.301  1.00  0.00     0.009 A 
ATOM     68  C   UNL A   1      41.528  22.456  28.363  1.00  0.00     0.009 A 
ATOM     69  C   UNL A   1      42.115  22.162  25.653  1.00  0.00     0.001 A 
ATOM     70  C   UNL A   1      41.270  21.244  27.721  1.00  0.00     0.001 A 
ATOM     71  C   UNL A   1      41.557  21.100  26.365  1.00  0.00     0.000 A 
ENDBRANCH  47  66
BRANCH  59  72
ATOM     72  C   UNL A   1      47.933  26.239  30.312  1.00  0.00    -0.014 A 
ATOM     73  C   UNL A   1      48.820  26.354  29.230  1.00  0.00     0.009 A 
ATOM     74  C   UNL A   1      48.382  25.648  31.503  1.00  0.00     0.009 A 
ATOM     75  C   UNL A   1      50.121  25.858  29.329  1.00  0.00     0.001 A 
ATOM     76  C   UNL A   1      49.691  25.174  31.607  1.00  0.00     0.001 A 
ATOM     77  C   UNL A   1      50.555  25.272  30.518  1.00  0.00     0.000 A 
ENDBRANCH  59  72
ENDBRANCH  33  34
ENDBRANCH  26  28
ENDBRANCH  25  26
ENDBRANCH  24  25
ENDBRANCH   1  24
TORSDOF 14
ENDMDL
MODEL 2
REMARK VINA RESULT:     -10.2      4.618     10.067
REMARK SMILES O=C(Nc1ccc(O)c(C(=O)OCCOC(=O)c2ccc(-c3c4nc(c(-c5ccccc5)c5ccc([nH]5)c(-c5ccccc5)c5nc(c(-c6ccccc6)c6ccc3[nH]6)C=C5)C=C4)cc2)c1)c1cncc(Br)c1
REMARK SMILES IDX 13 1 12 2 10 3 11 4 9 5 4 6 5 7 66 8 6 9 7 10 3 11 1 12 2 13
REMARK SMILES IDX 67 15 68 16 73 17 69 18 71 19 70 20 72 21 8 22 14 24 15 25
REMARK SMILES IDX 16 26 17 27 18 28 19 29 65 30 20 31 64 32 21 33 22 34 23 35
REMARK SMILES IDX 58 36 24 37 63 38 57 39 59 40 25 41 62 42 56 43 55 44 26 46
REMARK SMILES IDX 48 47 33 48 47 49 34 50 37 51 46 52 60 53 35 54 36 55 45 57
REMARK SMILES IDX 61 58 38 59 27 60 28 61 32 62 29 63 31 64 30 65 49 66 50 67
REMARK SMILES IDX 54 68 51 69 53 70 52 71 39 72 40 73 44 74 41 75 43 76 42 77
REMARK H PARENT 3 14 8 23 59 45 37 56
REMARK Flexibility Score: inf
ROOT
ATOM      1  C   UNL A   1      38.891  21.372  25.796  1.00  0.00     0.275 C 
ENDROOT
BRANCH   1   2
ATOM      2  O   UNL A   1      37.767  21.734  24.972  1.00  0.00    -0.458 OA
BRANCH   2   3
ATOM      3  C   UNL A   1      37.191  22.922  25.263  1.00  0.00     0.342 C 
ATOM      4  O   UNL A   1      37.703  23.852  25.870  1.00  0.00    -0.246 OA
BRANCH   3   5
ATOM      5  C   UNL A   1      35.861  23.056  24.637  1.00  0.00     0.103 A 
ATOM      6  C   UNL A   1      33.464  22.933  24.995  1.00  0.00     0.042 A 
ATOM      7  C   UNL A   1      33.261  22.954  23.616  1.00  0.00     0.030 A 
ATOM      8  C   UNL A   1      34.756  23.013  25.497  1.00  0.00     0.045 A 
ATOM      9  C   UNL A   1      34.356  23.040  22.747  1.00  0.00     0.049 A 
ATOM     10  C   UNL A   1      35.657  23.073  23.257  1.00  0.00     0.130 A 
BRANCH   6  11
ATOM     11  N   UNL A   1      32.420  22.790  25.921  1.00  0.00    -0.322 N 
ATOM     12  O   UNL A   1      31.004  23.554  27.526  1.00  0.00    -0.269 OA
ATOM     13  C   UNL A   1      31.699  23.785  26.542  1.00  0.00     0.257 C 
ATOM     14  H   UNL A   1      32.173  21.866  26.156  1.00  0.00     0.170 HD
BRANCH  13  15
ATOM     15  C   UNL A   1      31.664  25.130  25.936  1.00  0.00     0.059 A 
ATOM     16  C   UNL A   1      30.669  25.476  25.026  1.00  0.00     0.124 A 
ATOM     17  C   UNL A   1      32.607  26.086  26.298  1.00  0.00     0.032 A 
ATOM     18  N   UNL A   1      30.601  26.680  24.412  1.00  0.00    -0.263 NA
ATOM     19  C   UNL A   1      32.555  27.332  25.681  1.00  0.00     0.037 A 
ATOM     20  C   UNL A   1      31.554  27.581  24.750  1.00  0.00     0.126 A 
ATOM     21  Br  UNL A   1      33.832  28.655  26.091  1.00  0.00    -0.049 Br
ENDBRANCH  13  15
ENDBRANCH   6  11
BRANCH  10  22
ATOM     22  O   UNL A   1      36.719  23.065  22.399  1.00  0.00    -0.507 OA
ATOM     23  H   UNL A   1      36.621  23.398  21.530  1.00  0.00     0.293 HD
ENDBRANCH  10  22
ENDBRANCH   3   5
ENDBRANCH   2   3
ENDBRANCH   1   2
BRANCH   1  24
ATOM     24  C   UNL A   1      39.388  19.972  25.447  1.00  0.00     0.275 C 
BRANCH  24  25
ATOM     25  O   UNL A   1      40.352  19.533  26.422  1.00  0.00    -0.458 OA
BRANCH  25  26
ATOM     26  C   UNL A   1      41.648  19.648  26.057  1.00  0.00     0.338 C 
ATOM     27  O   UNL A   1      42.313  18.867  25.397  1.00  0.00    -0.246 OA
BRANCH  26  28
ATOM     28  C   UNL A   1      42.200  20.918  26.556  1.00  0.00     0.060 A 
ATOM     29  C   UNL A   1      42.114  21.211  27.913  1.00  0.00     0.016 A 
ATOM     30  C   UNL A   1      42.652  21.884  25.663  1.00  0.00     0.016 A 
ATOM     31  C   UNL A   1      42.339  22.510  28.364  1.00  0.00     0.010 A 
ATOM     32  C   UNL A   1      43.009  23.152  26.138  1.00  0.00     0.010 A 
ATOM     33  C   UNL A   1      42.807  23.501  27.487  1.00  0.00    -0.014 A 
BRANCH  33  34
ATOM     34  C   UNL A   1      43.054  24.896  27.962  1.00  0.00     0.031 A 
ATOM     35  C   UNL A   1      44.460  25.368  28.256  1.00  0.00     0.074 A 
ATOM     36  C   UNL A   1      42.031  25.760  28.132  1.00  0.00     0.049 A 
ATOM     37  N   UNL A   1      44.857  26.460  28.862  1.00  0.00    -0.248 NA
ATOM     38  C   UNL A   1      45.561  24.489  27.828  1.00  0.00     0.031 C 
ATOM     39  C   UNL A   1      40.621  25.480  27.851  1.00  0.00     0.029 A 
ATOM     40  N   UNL A   1      42.024  27.060  28.576  1.00  0.00    -0.354 N 
ATOM     41  C   UNL A   1      46.242  26.363  28.952  1.00  0.00     0.074 A 
ATOM     42  C   UNL A   1      46.617  25.108  28.335  1.00  0.00     0.031 C 
ATOM     43  C   UNL A   1      39.898  26.587  28.073  1.00  0.00     0.029 A 
ATOM     44  C   UNL A   1      40.771  27.624  28.611  1.00  0.00     0.049 A 
ATOM     45  H   UNL A   1      42.839  27.544  28.844  1.00  0.00     0.167 HD
ATOM     46  C   UNL A   1      47.122  27.235  29.502  1.00  0.00     0.031 A 
ATOM     47  C   UNL A   1      40.350  28.819  29.067  1.00  0.00     0.031 A 
ATOM     48  C   UNL A   1      46.764  28.511  30.063  1.00  0.00     0.049 A 
ATOM     49  C   UNL A   1      41.338  29.759  29.691  1.00  0.00     0.074 A 
ATOM     50  C   UNL A   1      47.589  29.466  30.633  1.00  0.00     0.029 A 
ATOM     51  N   UNL A   1      45.476  29.021  30.103  1.00  0.00    -0.354 N 
ATOM     52  N   UNL A   1      42.632  29.618  29.838  1.00  0.00    -0.248 NA
ATOM     53  C   UNL A   1      40.801  31.015  30.235  1.00  0.00     0.031 C 
ATOM     54  C   UNL A   1      46.795  30.541  31.049  1.00  0.00     0.029 A 
ATOM     55  C   UNL A   1      45.482  30.272  30.698  1.00  0.00     0.049 A 
ATOM     56  H   UNL A   1      44.675  28.562  29.760  1.00  0.00     0.167 HD
ATOM     57  C   UNL A   1      43.065  30.767  30.486  1.00  0.00     0.074 A 
ATOM     58  C   UNL A   1      41.901  31.605  30.681  1.00  0.00     0.031 C 
ATOM     59  C   UNL A   1      44.317  31.093  30.890  1.00  0.00     0.031 A 
BRANCH  46  60
ATOM     60  C   UNL A   1      48.566  26.818  29.565  1.00  0.00    -0.014 A 
ATOM     61  C   UNL A   1      49.481  27.170  28.562  1.00  0.00     0.009 A 
ATOM     62  C   UNL A   1      49.024  26.091  30.676  1.00  0.00     0.009 A 
ATOM     63  C   UNL A   1      50.818  26.774  28.656  1.00  0.00     0.001 A 
ATOM     64  C   UNL A   1      50.365  25.719  30.780  1.00  0.00     0.001 A 
ATOM     65  C   UNL A   1      51.259  26.052  29.765  1.00  0.00     0.000 A 
ENDBRANCH  46  60
BRANCH  47  66
ATOM     66  C   UNL A   1      38.907  29.169  29.001  1.00  0.00    -0.014 A 
ATOM     67  C   UNL A   1      38.076  28.981  30.115  1.00  0.00     0.009 A 
ATOM     68  C   UNL A   1      38.357  29.703  27.825  1.00  0.00     0.009 A 
ATOM     69  C   UNL A   1      36.720  29.312  30.048  1.00  0.00     0.001 A 
ATOM     70  C   UNL A   1      37.010  30.062  27.771  1.00  0.00     0.001 A 
ATOM     71  C   UNL A   1      36.190  29.859  28.880  1.00  0.00     0.000 A 
ENDBRANCH  47  66
BRANCH  59  72
ATOM     72  C   UNL A   1      44.490  32.424  31.560  1.00  0.00    -0.014 A 
ATOM     73  C   UNL A   1      44.747  33.584  30.814  1.00  0.00     0.009 A 
ATOM     74  C   UNL A   1      44.372  32.521  32.955  1.00  0.00     0.009 A 
ATOM     75  C   UNL A   1      44.914  34.813  31.456  1.00  0.00     0.001 A 
ATOM     76  C   UNL A   1      44.515  33.755  33.592  1.00  0.00     0.001 A 
ATOM     77  C   UNL A   1      44.794  34.896  32.843  1.00  0.00     0.000 A 
ENDBRANCH  59  72
ENDBRANCH  33  34
ENDBRANCH  26  28
ENDBRANCH  25  26
ENDBRANCH  24  25
ENDBRANCH   1  24
TORSDOF 14
ENDMDL
MODEL 3
REMARK VINA RESULT:     -10.1      4.187      6.710
REMARK SMILES O=C(Nc1ccc(O)c(C(=O)OCCOC(=O)c2ccc(-c3c4nc(c(-c5ccccc5)c5ccc([nH]5)c(-c5ccccc5)c5nc(c(-c6ccccc6)c6ccc3[nH]6)C=C5)C=C4)cc2)c1)c1cncc(Br)c1
REMARK SMILES IDX 13 1 12 2 10 3 11 4 9 5 4 6 5 7 66 8 6 9 7 10 3 11 1 12 2 13
REMARK SMILES IDX 67 15 68 16 73 17 69 18 71 19 70 20 72 21 8 22 14 24 15 25
REMARK SMILES IDX 16 26 17 27 18 28 19 29 65 30 20 31 64 32 21 33 22 34 23 35
REMARK SMILES IDX 58 36 24 37 63 38 57 39 59 40 25 41 62 42 56 43 55 44 26 46
REMARK SMILES IDX 48 47 33 48 47 49 34 50 37 51 46 52 60 53 35 54 36 55 45 57
REMARK SMILES IDX 61 58 38 59 27 60 28 61 32 62 29 63 31 64 30 65 49 66 50 67
REMARK SMILES IDX 54 68 51 69 53 70 52 71 39 72 40 73 44 74 41 75 43 76 42 77
REMARK H PARENT 3 14 8 23 59 45 37 56
REMARK Flexibility Score: inf
ROOT
ATOM      1  C   UNL A   1      32.942  30.438  26.114  1.00  0.00     0.275 C 
ENDROOT
BRANCH   1   2
ATOM      2  O   UNL A   1      33.298  29.105  25.699  1.00  0.00    -0.458 OA
BRANCH   2   3
ATOM      3  C   UNL A   1      32.966  28.783  24.428  1.00  0.00     0.342 C 
ATOM      4  O   UNL A   1      33.647  28.963  23.428  1.00  0.00    -0.246 OA
BRANCH   3   5
ATOM      5  C   UNL A   1      31.693  28.039  24.364  1.00  0.00     0.103 A 
ATOM      6  C   UNL A   1      30.348  26.293  25.378  1.00  0.00     0.042 A 
ATOM      7  C   UNL A   1      29.507  26.300  24.265  1.00  0.00     0.030 A 
ATOM      8  C   UNL A   1      31.415  27.179  25.434  1.00  0.00     0.045 A 
ATOM      9  C   UNL A   1      29.751  27.186  23.208  1.00  0.00     0.049 A 
ATOM     10  C   UNL A   1      30.855  28.043  23.249  1.00  0.00     0.130 A 
BRANCH   6  11
ATOM     11  N   UNL A   1      30.199  25.394  26.445  1.00  0.00    -0.322 N 
ATOM     12  O   UNL A   1      30.230  23.324  27.381  1.00  0.00    -0.269 OA
ATOM     13  C   UNL A   1      30.649  24.095  26.524  1.00  0.00     0.257 C 
ATOM     14  H   UNL A   1      29.713  25.733  27.232  1.00  0.00     0.170 HD
BRANCH  13  15
ATOM     15  C   UNL A   1      31.747  23.662  25.640  1.00  0.00     0.059 A 
ATOM     16  C   UNL A   1      31.480  23.013  24.437  1.00  0.00     0.124 A 
ATOM     17  C   UNL A   1      33.068  23.930  25.979  1.00  0.00     0.032 A 
ATOM     18  N   UNL A   1      32.442  22.563  23.598  1.00  0.00    -0.263 NA
ATOM     19  C   UNL A   1      34.074  23.479  25.131  1.00  0.00     0.037 A 
ATOM     20  C   UNL A   1      33.721  22.801  23.970  1.00  0.00     0.126 A 
ATOM     21  Br  UNL A   1      35.886  23.769  25.558  1.00  0.00    -0.049 Br
ENDBRANCH  13  15
ENDBRANCH   6  11
BRANCH  10  22
ATOM     22  O   UNL A   1      31.133  28.836  22.174  1.00  0.00    -0.507 OA
ATOM     23  H   UNL A   1      30.622  29.605  22.015  1.00  0.00     0.293 HD
ENDBRANCH  10  22
ENDBRANCH   3   5
ENDBRANCH   2   3
ENDBRANCH   1   2
BRANCH   1  24
ATOM     24  C   UNL A   1      33.261  30.646  27.591  1.00  0.00     0.275 C 
BRANCH  24  25
ATOM     25  O   UNL A   1      34.436  31.467  27.731  1.00  0.00    -0.458 OA
BRANCH  25  26
ATOM     26  C   UNL A   1      35.022  31.448  28.949  1.00  0.00     0.338 C 
ATOM     27  O   UNL A   1      34.640  31.989  29.973  1.00  0.00    -0.246 OA
BRANCH  26  28
ATOM     28  C   UNL A   1      36.242  30.624  28.907  1.00  0.00     0.060 A 
ATOM     29  C   UNL A   1      36.810  30.188  30.100  1.00  0.00     0.016 A 
ATOM     30  C   UNL A   1      36.911  30.425  27.704  1.00  0.00     0.016 A 
ATOM     31  C   UNL A   1      38.108  29.683  30.112  1.00  0.00     0.010 A 
ATOM     32  C   UNL A   1      38.160  29.791  27.704  1.00  0.00     0.010 A 
ATOM     33  C   UNL A   1      38.800  29.459  28.912  1.00  0.00    -0.014 A 
BRANCH  33  34
ATOM     34  C   UNL A   1      40.193  28.915  28.916  1.00  0.00     0.031 A 
ATOM     35  C   UNL A   1      41.361  29.803  29.276  1.00  0.00     0.074 A 
ATOM     36  C   UNL A   1      40.431  27.624  28.604  1.00  0.00     0.049 A 
ATOM     37  N   UNL A   1      42.645  29.578  29.143  1.00  0.00    -0.248 NA
ATOM     38  C   UNL A   1      41.044  31.124  29.844  1.00  0.00     0.031 C 
ATOM     39  C   UNL A   1      39.414  26.622  28.277  1.00  0.00     0.029 A 
ATOM     40  N   UNL A   1      41.614  26.929  28.520  1.00  0.00    -0.354 N 
ATOM     41  C   UNL A   1      43.281  30.750  29.540  1.00  0.00     0.074 A 
ATOM     42  C   UNL A   1      42.243  31.683  29.923  1.00  0.00     0.031 C 
ATOM     43  C   UNL A   1      40.008  25.435  28.087  1.00  0.00     0.029 A 
ATOM     44  C   UNL A   1      41.454  25.609  28.173  1.00  0.00     0.049 A 
ATOM     45  H   UNL A   1      42.493  27.337  28.693  1.00  0.00     0.167 HD
ATOM     46  C   UNL A   1      44.607  31.027  29.577  1.00  0.00     0.031 A 
ATOM     47  C   UNL A   1      42.358  24.648  27.904  1.00  0.00     0.031 A 
ATOM     48  C   UNL A   1      45.647  30.086  29.255  1.00  0.00     0.049 A 
ATOM     49  C   UNL A   1      43.820  24.984  27.930  1.00  0.00     0.074 A 
ATOM     50  C   UNL A   1      47.020  30.275  29.275  1.00  0.00     0.029 A 
ATOM     51  N   UNL A   1      45.431  28.771  28.878  1.00  0.00    -0.354 N 
ATOM     52  N   UNL A   1      44.401  26.118  28.232  1.00  0.00    -0.248 NA
ATOM     53  C   UNL A   1      44.750  23.909  27.554  1.00  0.00     0.031 C 
ATOM     54  C   UNL A   1      47.633  29.082  28.877  1.00  0.00     0.029 A 
ATOM     55  C   UNL A   1      46.643  28.140  28.652  1.00  0.00     0.049 A 
ATOM     56  H   UNL A   1      44.547  28.348  28.784  1.00  0.00     0.167 HD
ATOM     57  C   UNL A   1      45.763  25.895  28.088  1.00  0.00     0.074 A 
ATOM     58  C   UNL A   1      45.923  24.510  27.696  1.00  0.00     0.031 C 
ATOM     59  C   UNL A   1      46.788  26.764  28.258  1.00  0.00     0.031 A 
BRANCH  46  60
ATOM     60  C   UNL A   1      45.014  32.430  29.941  1.00  0.00    -0.014 A 
ATOM     61  C   UNL A   1      45.126  33.440  28.975  1.00  0.00     0.009 A 
ATOM     62  C   UNL A   1      45.250  32.749  31.288  1.00  0.00     0.009 A 
ATOM     63  C   UNL A   1      45.499  34.735  29.349  1.00  0.00     0.001 A 
ATOM     64  C   UNL A   1      45.596  34.049  31.662  1.00  0.00     0.001 A 
ATOM     65  C   UNL A   1      45.730  35.038  30.690  1.00  0.00     0.000 A 
ENDBRANCH  46  60
BRANCH  47  66
ATOM     66  C   UNL A   1      41.899  23.286  27.526  1.00  0.00    -0.014 A 
ATOM     67  C   UNL A   1      41.721  22.941  26.178  1.00  0.00     0.009 A 
ATOM     68  C   UNL A   1      41.646  22.320  28.513  1.00  0.00     0.009 A 
ATOM     69  C   UNL A   1      41.290  21.659  25.828  1.00  0.00     0.001 A 
ATOM     70  C   UNL A   1      41.246  21.031  28.160  1.00  0.00     0.001 A 
ATOM     71  C   UNL A   1      41.061  20.703  26.818  1.00  0.00     0.000 A 
ENDBRANCH  47  66
BRANCH  59  72
ATOM     72  C   UNL A   1      48.174  26.230  28.043  1.00  0.00    -0.014 A 
ATOM     73  C   UNL A   1      48.899  25.649  29.096  1.00  0.00     0.009 A 
ATOM     74  C   UNL A   1      48.753  26.289  26.767  1.00  0.00     0.009 A 
ATOM     75  C   UNL A   1      50.190  25.166  28.880  1.00  0.00     0.001 A 
ATOM     76  C   UNL A   1      50.035  25.784  26.548  1.00  0.00     0.001 A 
ATOM     77  C   UNL A   1      50.755  25.231  27.605  1.00  0.00     0.000 A 
ENDBRANCH  59  72
ENDBRANCH  33  34
ENDBRANCH  26  28
ENDBRANCH  25  26
ENDBRANCH  24  25
ENDBRANCH   1  24
TORSDOF 14
ENDMDL
