MODEL 1
REMARK VINA RESULT:     -10.2      0.000      0.000
REMARK SMILES CC[C@@H](C)[C@@H](NC(N)=O)C(=O)N1CCC[C@H](C(=O)OCCOC(=O)c2ccc(-c3c4nc(c(-c5ccccc5)c5ccc([nH]5)c(-c5ccccc5)c5nc(c(-c6ccccc6)c6ccc3[nH]6)C=C5)C=C4)cc2)C1
REMARK SMILES IDX 20 1 19 2 17 3 18 4 16 5 12 6 13 7 73 8 14 9 15 10 10 11
REMARK SMILES IDX 11 12 5 13 3 14 4 15 2 16 1 17 6 18 7 19 8 21 9 22 21 25
REMARK SMILES IDX 22 26 23 27 24 28 25 29 26 30 72 31 27 32 71 33 28 34 29 35
REMARK SMILES IDX 30 36 65 37 31 38 70 39 64 40 66 41 32 42 69 43 63 44 62 45
REMARK SMILES IDX 33 47 55 48 40 49 54 50 41 51 44 52 53 53 67 54 42 55 43 56
REMARK SMILES IDX 52 58 68 59 45 60 34 61 35 62 39 63 36 64 38 65 37 66 56 67
REMARK SMILES IDX 57 68 61 69 58 70 60 71 59 72 46 73 47 74 51 75 48 76 50 77
REMARK SMILES IDX 49 78
REMARK H PARENT 6 20 8 23 8 24 66 46 44 57
REMARK Flexibility Score: inf
ROOT
ATOM      1  C   UNL A   1      36.371  22.877  23.420  1.00  0.00     0.274 C 
ENDROOT
BRANCH   1   2
ATOM      2  O   UNL A   1      35.460  23.921  23.811  1.00  0.00    -0.462 OA
BRANCH   2   3
ATOM      3  C   UNL A   1      34.313  23.582  24.441  1.00  0.00     0.310 C 
ATOM      4  O   UNL A   1      34.023  23.891  25.593  1.00  0.00    -0.252 OA
BRANCH   3   5
ATOM      5  C   UNL A   1      33.384  22.738  23.574  1.00  0.00     0.119 C 
ATOM      6  N   UNL A   1      32.298  24.631  22.512  1.00  0.00    -0.340 N 
ATOM      7  C   UNL A   1      30.986  24.351  23.082  1.00  0.00     0.119 C 
ATOM      8  C   UNL A   1      33.120  23.464  22.256  1.00  0.00     0.134 C 
ATOM      9  C   UNL A   1      31.055  23.490  24.341  1.00  0.00     0.022 C 
ATOM     10  C   UNL A   1      32.056  22.334  24.230  1.00  0.00     0.019 C 
BRANCH   6  11
ATOM     11  C   UNL A   1      32.798  25.931  22.536  1.00  0.00     0.245 C 
ATOM     12  O   UNL A   1      33.723  26.263  21.789  1.00  0.00    -0.272 OA
BRANCH  11  13
ATOM     13  C   UNL A   1      32.112  26.981  23.477  1.00  0.00     0.176 C 
BRANCH  13  14
ATOM     14  C   UNL A   1      32.729  27.106  24.901  1.00  0.00     0.018 C 
ATOM     15  C   UNL A   1      31.688  26.864  26.001  1.00  0.00     0.010 C 
BRANCH  14  16
ATOM     16  C   UNL A   1      33.396  28.490  25.116  1.00  0.00     0.002 C 
ATOM     17  C   UNL A   1      34.199  28.566  26.411  1.00  0.00     0.004 C 
ENDBRANCH  14  16
ENDBRANCH  13  14
BRANCH  13  18
ATOM     18  N   UNL A   1      32.084  28.277  22.782  1.00  0.00    -0.326 N 
ATOM     19  C   UNL A   1      30.921  28.765  22.266  1.00  0.00     0.312 C 
ATOM     20  H   UNL A   1      32.914  28.798  22.689  1.00  0.00     0.166 HD
ATOM     21  N   UNL A   1      31.060  29.978  21.688  1.00  0.00    -0.352 N 
ATOM     22  O   UNL A   1      29.846  28.185  22.268  1.00  0.00    -0.249 OA
ATOM     23  H   UNL A   1      31.934  30.431  21.696  1.00  0.00     0.161 HD
ATOM     24  H   UNL A   1      30.286  30.409  21.259  1.00  0.00     0.161 HD
ENDBRANCH  13  18
ENDBRANCH  11  13
ENDBRANCH   6  11
ENDBRANCH   3   5
ENDBRANCH   2   3
ENDBRANCH   1   2
BRANCH   1  25
ATOM     25  C   UNL A   1      37.141  22.360  24.635  1.00  0.00     0.275 C 
BRANCH  25  26
ATOM     26  O   UNL A   1      37.780  23.450  25.325  1.00  0.00    -0.458 OA
BRANCH  26  27
ATOM     27  C   UNL A   1      38.829  23.095  26.100  1.00  0.00     0.338 C 
ATOM     28  O   UNL A   1      39.368  22.006  26.184  1.00  0.00    -0.246 OA
BRANCH  27  29
ATOM     29  C   UNL A   1      39.371  24.299  26.742  1.00  0.00     0.060 A 
ATOM     30  C   UNL A   1      39.050  24.518  28.083  1.00  0.00     0.016 A 
ATOM     31  C   UNL A   1      40.117  25.231  26.023  1.00  0.00     0.016 A 
ATOM     32  C   UNL A   1      39.468  25.677  28.720  1.00  0.00     0.010 A 
ATOM     33  C   UNL A   1      40.535  26.400  26.662  1.00  0.00     0.010 A 
ATOM     34  C   UNL A   1      40.201  26.632  28.009  1.00  0.00    -0.014 A 
BRANCH  34  35
ATOM     35  C   UNL A   1      40.540  27.913  28.664  1.00  0.00     0.031 A 
ATOM     36  C   UNL A   1      41.930  28.124  29.187  1.00  0.00     0.074 A 
ATOM     37  C   UNL A   1      39.621  28.891  28.741  1.00  0.00     0.049 A 
ATOM     38  N   UNL A   1      42.413  29.136  29.861  1.00  0.00    -0.248 NA
ATOM     39  C   UNL A   1      42.907  27.058  28.911  1.00  0.00     0.031 C 
ATOM     40  C   UNL A   1      38.264  28.825  28.196  1.00  0.00     0.029 A 
ATOM     41  N   UNL A   1      39.696  30.138  29.305  1.00  0.00    -0.354 N 
ATOM     42  C   UNL A   1      43.741  28.818  30.112  1.00  0.00     0.074 A 
ATOM     43  C   UNL A   1      43.987  27.518  29.526  1.00  0.00     0.031 C 
ATOM     44  C   UNL A   1      37.635  29.983  28.452  1.00  0.00     0.029 A 
ATOM     45  C   UNL A   1      38.525  30.848  29.220  1.00  0.00     0.049 A 
ATOM     46  H   UNL A   1      40.511  30.489  29.732  1.00  0.00     0.167 HD
ATOM     47  C   UNL A   1      44.669  29.546  30.774  1.00  0.00     0.031 A 
ATOM     48  C   UNL A   1      38.200  32.049  29.733  1.00  0.00     0.031 A 
ATOM     49  C   UNL A   1      44.417  30.838  31.356  1.00  0.00     0.049 A 
ATOM     50  C   UNL A   1      39.226  32.801  30.534  1.00  0.00     0.074 A 
ATOM     51  C   UNL A   1      45.284  31.651  32.064  1.00  0.00     0.029 A 
ATOM     52  N   UNL A   1      43.202  31.503  31.291  1.00  0.00    -0.354 N 
ATOM     53  N   UNL A   1      40.470  32.478  30.794  1.00  0.00    -0.248 NA
ATOM     54  C   UNL A   1      38.799  34.079  31.119  1.00  0.00     0.031 C 
ATOM     55  C   UNL A   1      44.580  32.793  32.462  1.00  0.00     0.029 A 
ATOM     56  C   UNL A   1      43.291  32.712  31.961  1.00  0.00     0.049 A 
ATOM     57  H   UNL A   1      42.396  31.166  30.837  1.00  0.00     0.167 HD
ATOM     58  C   UNL A   1      40.980  33.521  31.554  1.00  0.00     0.074 A 
ATOM     59  C   UNL A   1      39.917  34.495  31.699  1.00  0.00     0.031 C 
ATOM     60  C   UNL A   1      42.218  33.661  32.089  1.00  0.00     0.031 A 
BRANCH  47  61
ATOM     61  C   UNL A   1      46.031  28.937  30.941  1.00  0.00    -0.014 A 
ATOM     62  C   UNL A   1      47.059  29.184  30.019  1.00  0.00     0.009 A 
ATOM     63  C   UNL A   1      46.294  28.122  32.053  1.00  0.00     0.009 A 
ATOM     64  C   UNL A   1      48.317  28.602  30.193  1.00  0.00     0.001 A 
ATOM     65  C   UNL A   1      47.558  27.560  32.237  1.00  0.00     0.001 A 
ATOM     66  C   UNL A   1      48.566  27.794  31.303  1.00  0.00     0.000 A 
ENDBRANCH  47  61
BRANCH  48  67
ATOM     67  C   UNL A   1      36.833  32.598  29.543  1.00  0.00    -0.014 A 
ATOM     68  C   UNL A   1      35.845  32.414  30.521  1.00  0.00     0.009 A 
ATOM     69  C   UNL A   1      36.506  33.299  28.371  1.00  0.00     0.009 A 
ATOM     70  C   UNL A   1      34.551  32.899  30.317  1.00  0.00     0.001 A 
ATOM     71  C   UNL A   1      35.220  33.807  28.183  1.00  0.00     0.001 A 
ATOM     72  C   UNL A   1      34.240  33.598  29.152  1.00  0.00     0.000 A 
ENDBRANCH  48  67
BRANCH  60  73
ATOM     73  C   UNL A   1      42.492  34.929  32.845  1.00  0.00    -0.014 A 
ATOM     74  C   UNL A   1      42.049  35.097  34.166  1.00  0.00     0.009 A 
ATOM     75  C   UNL A   1      43.231  35.955  32.236  1.00  0.00     0.009 A 
ATOM     76  C   UNL A   1      42.313  36.284  34.850  1.00  0.00     0.001 A 
ATOM     77  C   UNL A   1      43.514  37.130  32.932  1.00  0.00     0.001 A 
ATOM     78  C   UNL A   1      43.048  37.297  34.236  1.00  0.00     0.000 A 
ENDBRANCH  60  73
ENDBRANCH  34  35
ENDBRANCH  27  29
ENDBRANCH  26  27
ENDBRANCH  25  26
ENDBRANCH   1  25
TORSDOF 16
ENDMDL
MODEL 2
REMARK VINA RESULT:      -9.9      0.622      6.049
REMARK SMILES CC[C@@H](C)[C@@H](NC(N)=O)C(=O)N1CCC[C@H](C(=O)OCCOC(=O)c2ccc(-c3c4nc(c(-c5ccccc5)c5ccc([nH]5)c(-c5ccccc5)c5nc(c(-c6ccccc6)c6ccc3[nH]6)C=C5)C=C4)cc2)C1
REMARK SMILES IDX 20 1 19 2 17 3 18 4 16 5 12 6 13 7 73 8 14 9 15 10 10 11
REMARK SMILES IDX 11 12 5 13 3 14 4 15 2 16 1 17 6 18 7 19 8 21 9 22 21 25
REMARK SMILES IDX 22 26 23 27 24 28 25 29 26 30 72 31 27 32 71 33 28 34 29 35
REMARK SMILES IDX 30 36 65 37 31 38 70 39 64 40 66 41 32 42 69 43 63 44 62 45
REMARK SMILES IDX 33 47 55 48 40 49 54 50 41 51 44 52 53 53 67 54 42 55 43 56
REMARK SMILES IDX 52 58 68 59 45 60 34 61 35 62 39 63 36 64 38 65 37 66 56 67
REMARK SMILES IDX 57 68 61 69 58 70 60 71 59 72 46 73 47 74 51 75 48 76 50 77
REMARK SMILES IDX 49 78
REMARK H PARENT 6 20 8 23 8 24 66 46 44 57
REMARK Flexibility Score: inf
ROOT
ATOM      1  C   UNL A   1      36.456  22.851  23.444  1.00  0.00     0.274 C 
ENDROOT
BRANCH   1   2
ATOM      2  O   UNL A   1      35.667  24.005  23.786  1.00  0.00    -0.462 OA
BRANCH   2   3
ATOM      3  C   UNL A   1      34.461  23.820  24.371  1.00  0.00     0.310 C 
ATOM      4  O   UNL A   1      34.104  24.334  25.426  1.00  0.00    -0.252 OA
BRANCH   3   5
ATOM      5  C   UNL A   1      33.560  22.871  23.588  1.00  0.00     0.119 C 
ATOM      6  N   UNL A   1      32.335  24.627  22.444  1.00  0.00    -0.340 N 
ATOM      7  C   UNL A   1      31.059  24.310  23.072  1.00  0.00     0.119 C 
ATOM      8  C   UNL A   1      33.217  23.494  22.236  1.00  0.00     0.134 C 
ATOM      9  C   UNL A   1      31.213  23.537  24.380  1.00  0.00     0.022 C 
ATOM     10  C   UNL A   1      32.277  22.436  24.310  1.00  0.00     0.019 C 
BRANCH   6  11
ATOM     11  C   UNL A   1      32.758  25.952  22.370  1.00  0.00     0.245 C 
ATOM     12  O   UNL A   1      33.673  26.279  21.608  1.00  0.00    -0.272 OA
BRANCH  11  13
ATOM     13  C   UNL A   1      32.000  27.030  23.220  1.00  0.00     0.176 C 
BRANCH  13  14
ATOM     14  C   UNL A   1      32.610  27.328  24.621  1.00  0.00     0.018 C 
ATOM     15  C   UNL A   1      31.530  27.464  25.701  1.00  0.00     0.010 C 
BRANCH  14  16
ATOM     16  C   UNL A   1      33.487  28.608  24.603  1.00  0.00     0.002 C 
ATOM     17  C   UNL A   1      33.458  29.364  25.928  1.00  0.00     0.004 C 
ENDBRANCH  14  16
ENDBRANCH  13  14
BRANCH  13  18
ATOM     18  N   UNL A   1      31.875  28.252  22.411  1.00  0.00    -0.326 N 
ATOM     19  C   UNL A   1      30.685  28.910  22.325  1.00  0.00     0.312 C 
ATOM     20  H   UNL A   1      32.659  28.599  21.928  1.00  0.00     0.166 HD
ATOM     21  N   UNL A   1      30.746  30.029  21.570  1.00  0.00    -0.352 N 
ATOM     22  O   UNL A   1      29.634  28.545  22.829  1.00  0.00    -0.249 OA
ATOM     23  H   UNL A   1      31.602  30.308  21.171  1.00  0.00     0.161 HD
ATOM     24  H   UNL A   1      29.934  30.565  21.419  1.00  0.00     0.161 HD
ENDBRANCH  13  18
ENDBRANCH  11  13
ENDBRANCH   6  11
ENDBRANCH   3   5
ENDBRANCH   2   3
ENDBRANCH   1   2
BRANCH   1  25
ATOM     25  C   UNL A   1      37.157  22.299  24.685  1.00  0.00     0.275 C 
BRANCH  25  26
ATOM     26  O   UNL A   1      37.762  23.367  25.437  1.00  0.00    -0.458 OA
BRANCH  26  27
ATOM     27  C   UNL A   1      38.774  22.989  26.249  1.00  0.00     0.338 C 
ATOM     28  O   UNL A   1      39.235  21.872  26.407  1.00  0.00    -0.246 OA
BRANCH  27  29
ATOM     29  C   UNL A   1      39.389  24.188  26.829  1.00  0.00     0.060 A 
ATOM     30  C   UNL A   1      39.192  24.424  28.191  1.00  0.00     0.016 A 
ATOM     31  C   UNL A   1      40.082  25.103  26.038  1.00  0.00     0.016 A 
ATOM     32  C   UNL A   1      39.683  25.581  28.778  1.00  0.00     0.010 A 
ATOM     33  C   UNL A   1      40.572  26.271  26.626  1.00  0.00     0.010 A 
ATOM     34  C   UNL A   1      40.363  26.519  27.996  1.00  0.00    -0.014 A 
BRANCH  34  35
ATOM     35  C   UNL A   1      40.779  27.799  28.606  1.00  0.00     0.031 A 
ATOM     36  C   UNL A   1      39.764  28.887  28.794  1.00  0.00     0.074 A 
ATOM     37  C   UNL A   1      42.045  27.960  29.030  1.00  0.00     0.049 A 
ATOM     38  N   UNL A   1      39.934  30.107  29.232  1.00  0.00    -0.248 NA
ATOM     39  C   UNL A   1      38.372  28.556  28.447  1.00  0.00     0.031 C 
ATOM     40  C   UNL A   1      43.095  26.942  28.970  1.00  0.00     0.029 A 
ATOM     41  N   UNL A   1      42.659  29.043  29.603  1.00  0.00    -0.354 N 
ATOM     42  C   UNL A   1      38.678  30.698  29.191  1.00  0.00     0.074 A 
ATOM     43  C   UNL A   1      37.757  29.707  28.677  1.00  0.00     0.031 C 
ATOM     44  C   UNL A   1      44.224  27.450  29.488  1.00  0.00     0.029 A 
ATOM     45  C   UNL A   1      43.990  28.840  29.868  1.00  0.00     0.049 A 
ATOM     46  H   UNL A   1      42.190  29.885  29.803  1.00  0.00     0.167 HD
ATOM     47  C   UNL A   1      38.328  31.955  29.547  1.00  0.00     0.031 A 
ATOM     48  C   UNL A   1      44.921  29.693  30.335  1.00  0.00     0.031 A 
ATOM     49  C   UNL A   1      39.250  32.936  30.055  1.00  0.00     0.049 A 
ATOM     50  C   UNL A   1      44.521  31.109  30.646  1.00  0.00     0.074 A 
ATOM     51  C   UNL A   1      39.000  34.245  30.428  1.00  0.00     0.029 A 
ATOM     52  N   UNL A   1      40.601  32.708  30.263  1.00  0.00    -0.354 N 
ATOM     53  N   UNL A   1      43.337  31.668  30.572  1.00  0.00    -0.248 NA
ATOM     54  C   UNL A   1      45.588  32.011  31.097  1.00  0.00     0.031 C 
ATOM     55  C   UNL A   1      40.212  34.821  30.825  1.00  0.00     0.029 A 
ATOM     56  C   UNL A   1      41.204  33.858  30.745  1.00  0.00     0.049 A 
ATOM     57  H   UNL A   1      41.064  31.856  30.092  1.00  0.00     0.167 HD
ATOM     58  C   UNL A   1      43.514  32.981  30.987  1.00  0.00     0.074 A 
ATOM     59  C   UNL A   1      44.914  33.129  31.327  1.00  0.00     0.031 C 
ATOM     60  C   UNL A   1      42.599  33.978  31.076  1.00  0.00     0.031 A 
BRANCH  47  61
ATOM     61  C   UNL A   1      36.893  32.351  29.354  1.00  0.00    -0.014 A 
ATOM     62  C   UNL A   1      36.426  32.823  28.118  1.00  0.00     0.009 A 
ATOM     63  C   UNL A   1      35.990  32.228  30.422  1.00  0.00     0.009 A 
ATOM     64  C   UNL A   1      35.087  33.191  27.964  1.00  0.00     0.001 A 
ATOM     65  C   UNL A   1      34.648  32.575  30.258  1.00  0.00     0.001 A 
ATOM     66  C   UNL A   1      34.200  33.063  29.032  1.00  0.00     0.000 A 
ENDBRANCH  47  61
BRANCH  48  67
ATOM     67  C   UNL A   1      46.328  29.248  30.497  1.00  0.00    -0.014 A 
ATOM     68  C   UNL A   1      47.239  29.350  29.435  1.00  0.00     0.009 A 
ATOM     69  C   UNL A   1      46.765  28.702  31.715  1.00  0.00     0.009 A 
ATOM     70  C   UNL A   1      48.550  28.893  29.583  1.00  0.00     0.001 A 
ATOM     71  C   UNL A   1      48.083  28.272  31.868  1.00  0.00     0.001 A 
ATOM     72  C   UNL A   1      48.973  28.359  30.799  1.00  0.00     0.000 A 
ENDBRANCH  48  67
BRANCH  60  73
ATOM     73  C   UNL A   1      43.084  35.300  31.595  1.00  0.00    -0.014 A 
ATOM     74  C   UNL A   1      43.613  36.270  30.729  1.00  0.00     0.009 A 
ATOM     75  C   UNL A   1      42.980  35.590  32.964  1.00  0.00     0.009 A 
ATOM     76  C   UNL A   1      44.060  37.493  31.232  1.00  0.00     0.001 A 
ATOM     77  C   UNL A   1      43.404  36.823  33.459  1.00  0.00     0.001 A 
ATOM     78  C   UNL A   1      43.951  37.770  32.594  1.00  0.00     0.000 A 
ENDBRANCH  60  73
ENDBRANCH  34  35
ENDBRANCH  27  29
ENDBRANCH  26  27
ENDBRANCH  25  26
ENDBRANCH   1  25
TORSDOF 16
ENDMDL
MODEL 3
REMARK VINA RESULT:      -9.8      2.765      6.274
REMARK SMILES CC[C@@H](C)[C@@H](NC(N)=O)C(=O)N1CCC[C@H](C(=O)OCCOC(=O)c2ccc(-c3c4nc(c(-c5ccccc5)c5ccc([nH]5)c(-c5ccccc5)c5nc(c(-c6ccccc6)c6ccc3[nH]6)C=C5)C=C4)cc2)C1
REMARK SMILES IDX 20 1 19 2 17 3 18 4 16 5 12 6 13 7 73 8 14 9 15 10 10 11
REMARK SMILES IDX 11 12 5 13 3 14 4 15 2 16 1 17 6 18 7 19 8 21 9 22 21 25
REMARK SMILES IDX 22 26 23 27 24 28 25 29 26 30 72 31 27 32 71 33 28 34 29 35
REMARK SMILES IDX 30 36 65 37 31 38 70 39 64 40 66 41 32 42 69 43 63 44 62 45
REMARK SMILES IDX 33 47 55 48 40 49 54 50 41 51 44 52 53 53 67 54 42 55 43 56
REMARK SMILES IDX 52 58 68 59 45 60 34 61 35 62 39 63 36 64 38 65 37 66 56 67
REMARK SMILES IDX 57 68 61 69 58 70 60 71 59 72 46 73 47 74 51 75 48 76 50 77
REMARK SMILES IDX 49 78
REMARK H PARENT 6 20 8 23 8 24 66 46 44 57
REMARK Flexibility Score: inf
ROOT
ATOM      1  C   UNL A   1      36.433  22.217  23.580  1.00  0.00     0.274 C 
ENDROOT
BRANCH   1   2
ATOM      2  O   UNL A   1      35.777  23.361  24.156  1.00  0.00    -0.462 OA
BRANCH   2   3
ATOM      3  C   UNL A   1      34.512  23.224  24.615  1.00  0.00     0.310 C 
ATOM      4  O   UNL A   1      34.098  23.666  25.683  1.00  0.00    -0.252 OA
BRANCH   3   5
ATOM      5  C   UNL A   1      33.617  22.431  23.668  1.00  0.00     0.119 C 
ATOM      6  N   UNL A   1      32.590  24.381  22.653  1.00  0.00    -0.340 N 
ATOM      7  C   UNL A   1      31.253  24.085  23.151  1.00  0.00     0.119 C 
ATOM      8  C   UNL A   1      33.415  23.222  22.377  1.00  0.00     0.134 C 
ATOM      9  C   UNL A   1      31.261  23.163  24.368  1.00  0.00     0.022 C 
ATOM     10  C   UNL A   1      32.260  22.006  24.245  1.00  0.00     0.019 C 
BRANCH   6  11
ATOM     11  C   UNL A   1      33.096  25.674  22.762  1.00  0.00     0.245 C 
ATOM     12  O   UNL A   1      34.034  26.045  22.050  1.00  0.00    -0.272 OA
BRANCH  11  13
ATOM     13  C   UNL A   1      32.401  26.671  23.754  1.00  0.00     0.176 C 
BRANCH  13  14
ATOM     14  C   UNL A   1      33.013  26.727  25.184  1.00  0.00     0.018 C 
ATOM     15  C   UNL A   1      31.951  26.525  26.272  1.00  0.00     0.010 C 
BRANCH  14  16
ATOM     16  C   UNL A   1      33.762  28.062  25.434  1.00  0.00     0.002 C 
ATOM     17  C   UNL A   1      33.668  28.532  26.883  1.00  0.00     0.004 C 
ENDBRANCH  14  16
ENDBRANCH  13  14
BRANCH  13  18
ATOM     18  N   UNL A   1      32.366  28.000  23.126  1.00  0.00    -0.326 N 
ATOM     19  C   UNL A   1      31.243  28.443  22.495  1.00  0.00     0.312 C 
ATOM     20  H   UNL A   1      33.163  28.577  23.162  1.00  0.00     0.166 HD
ATOM     21  N   UNL A   1      31.365  29.694  22.000  1.00  0.00    -0.352 N 
ATOM     22  O   UNL A   1      30.217  27.798  22.336  1.00  0.00    -0.249 OA
ATOM     23  H   UNL A   1      32.198  30.200  22.138  1.00  0.00     0.161 HD
ATOM     24  H   UNL A   1      30.620  30.100  21.500  1.00  0.00     0.161 HD
ENDBRANCH  13  18
ENDBRANCH  11  13
ENDBRANCH   6  11
ENDBRANCH   3   5
ENDBRANCH   2   3
ENDBRANCH   1   2
BRANCH   1  25
ATOM     25  C   UNL A   1      36.831  21.226  24.673  1.00  0.00     0.275 C 
BRANCH  25  26
ATOM     26  O   UNL A   1      37.383  21.923  25.806  1.00  0.00    -0.458 OA
BRANCH  26  27
ATOM     27  C   UNL A   1      38.662  21.602  26.103  1.00  0.00     0.338 C 
ATOM     28  O   UNL A   1      39.240  20.549  25.900  1.00  0.00    -0.246 OA
BRANCH  27  29
ATOM     29  C   UNL A   1      39.352  22.805  26.582  1.00  0.00     0.060 A 
ATOM     30  C   UNL A   1      38.881  24.042  26.137  1.00  0.00     0.016 A 
ATOM     31  C   UNL A   1      40.483  22.720  27.391  1.00  0.00     0.016 A 
ATOM     32  C   UNL A   1      39.540  25.210  26.493  1.00  0.00     0.010 A 
ATOM     33  C   UNL A   1      41.151  23.894  27.747  1.00  0.00     0.010 A 
ATOM     34  C   UNL A   1      40.688  25.141  27.288  1.00  0.00    -0.014 A 
BRANCH  34  35
ATOM     35  C   UNL A   1      41.447  26.379  27.564  1.00  0.00     0.031 A 
ATOM     36  C   UNL A   1      40.862  27.410  28.482  1.00  0.00     0.074 A 
ATOM     37  C   UNL A   1      42.671  26.547  27.033  1.00  0.00     0.049 A 
ATOM     38  N   UNL A   1      41.323  28.593  28.794  1.00  0.00    -0.248 NA
ATOM     39  C   UNL A   1      39.592  27.061  29.140  1.00  0.00     0.031 C 
ATOM     40  C   UNL A   1      43.371  25.576  26.190  1.00  0.00     0.029 A 
ATOM     41  N   UNL A   1      43.545  27.599  27.131  1.00  0.00    -0.354 N 
ATOM     42  C   UNL A   1      40.389  29.141  29.664  1.00  0.00     0.074 A 
ATOM     43  C   UNL A   1      39.332  28.166  29.825  1.00  0.00     0.031 C 
ATOM     44  C   UNL A   1      44.569  26.078  25.851  1.00  0.00     0.029 A 
ATOM     45  C   UNL A   1      44.697  27.421  26.408  1.00  0.00     0.049 A 
ATOM     46  H   UNL A   1      43.362  28.404  27.667  1.00  0.00     0.167 HD
ATOM     47  C   UNL A   1      40.412  30.350  30.270  1.00  0.00     0.031 A 
ATOM     48  C   UNL A   1      45.725  28.263  26.194  1.00  0.00     0.031 A 
ATOM     49  C   UNL A   1      41.466  31.316  30.104  1.00  0.00     0.049 A 
ATOM     50  C   UNL A   1      45.687  29.632  26.815  1.00  0.00     0.074 A 
ATOM     51  C   UNL A   1      41.576  32.578  30.660  1.00  0.00     0.029 A 
ATOM     52  N   UNL A   1      42.594  31.118  29.323  1.00  0.00    -0.354 N 
ATOM     53  N   UNL A   1      44.783  30.153  27.610  1.00  0.00    -0.248 NA
ATOM     54  C   UNL A   1      46.806  30.529  26.502  1.00  0.00     0.031 C 
ATOM     55  C   UNL A   1      42.755  33.161  30.181  1.00  0.00     0.029 A 
ATOM     56  C   UNL A   1      43.400  32.243  29.368  1.00  0.00     0.049 A 
ATOM     57  H   UNL A   1      42.792  30.301  28.811  1.00  0.00     0.167 HD
ATOM     58  C   UNL A   1      45.236  31.431  27.908  1.00  0.00     0.074 A 
ATOM     59  C   UNL A   1      46.501  31.599  27.223  1.00  0.00     0.031 C 
ATOM     60  C   UNL A   1      44.654  32.384  28.678  1.00  0.00     0.031 A 
BRANCH  47  61
ATOM     61  C   UNL A   1      39.238  30.710  31.134  1.00  0.00    -0.014 A 
ATOM     62  C   UNL A   1      39.221  30.412  32.505  1.00  0.00     0.009 A 
ATOM     63  C   UNL A   1      38.141  31.379  30.568  1.00  0.00     0.009 A 
ATOM     64  C   UNL A   1      38.115  30.752  33.286  1.00  0.00     0.001 A 
ATOM     65  C   UNL A   1      37.047  31.738  31.356  1.00  0.00     0.001 A 
ATOM     66  C   UNL A   1      37.031  31.418  32.713  1.00  0.00     0.000 A 
ENDBRANCH  47  61
BRANCH  48  67
ATOM     67  C   UNL A   1      46.857  27.855  25.323  1.00  0.00    -0.014 A 
ATOM     68  C   UNL A   1      48.025  27.309  25.874  1.00  0.00     0.009 A 
ATOM     69  C   UNL A   1      46.778  28.026  23.931  1.00  0.00     0.009 A 
ATOM     70  C   UNL A   1      49.100  26.964  25.051  1.00  0.00     0.001 A 
ATOM     71  C   UNL A   1      47.843  27.654  23.109  1.00  0.00     0.001 A 
ATOM     72  C   UNL A   1      49.007  27.133  23.670  1.00  0.00     0.000 A 
ENDBRANCH  48  67
BRANCH  60  73
ATOM     73  C   UNL A   1      45.405  33.673  28.844  1.00  0.00    -0.014 A 
ATOM     74  C   UNL A   1      45.293  34.706  27.900  1.00  0.00     0.009 A 
ATOM     75  C   UNL A   1      46.208  33.868  29.978  1.00  0.00     0.009 A 
ATOM     76  C   UNL A   1      46.000  35.896  28.074  1.00  0.00     0.001 A 
ATOM     77  C   UNL A   1      46.893  35.069  30.160  1.00  0.00     0.001 A 
ATOM     78  C   UNL A   1      46.795  36.079  29.204  1.00  0.00     0.000 A 
ENDBRANCH  60  73
ENDBRANCH  34  35
ENDBRANCH  27  29
ENDBRANCH  26  27
ENDBRANCH  25  26
ENDBRANCH   1  25
TORSDOF 16
ENDMDL
