MODEL 1
REMARK VINA RESULT:     -11.3      0.000      0.000
REMARK SMILES O=C(OCCOC(=O)c1cc(Br)ccc1N1CC2(CCCCC2)C1)c1ccc(-c2c3nc(c(-c4ccccc4)c4ccc([nH]4)c(-c4ccccc4)c4nc(c(-c5ccccc5)c5ccc2[nH]5)C=C4)C=C3)cc1
REMARK SMILES IDX 4 1 3 2 2 3 1 4 25 5 26 6 72 7 27 8 71 9 28 10 29 11 30 12
REMARK SMILES IDX 65 13 31 14 70 15 64 16 66 17 32 18 69 19 63 20 62 21 33 23
REMARK SMILES IDX 55 24 40 25 54 26 41 27 44 28 53 29 67 30 42 31 43 32 52 34
REMARK SMILES IDX 68 35 45 36 34 37 35 38 39 39 36 40 38 41 37 42 56 43 57 44
REMARK SMILES IDX 61 45 58 46 60 47 59 48 46 49 47 50 51 51 48 52 50 53 49 54
REMARK SMILES IDX 5 55 6 56 7 57 8 58 9 59 10 60 15 61 11 62 14 63 12 64 13 65
REMARK SMILES IDX 16 66 17 67 24 68 18 69 19 70 23 71 20 72 22 73 21 74
REMARK H PARENT 66 22 44 33
REMARK Flexibility Score: inf
ROOT
ATOM      1  C   UNL A   1      38.617  19.944  25.005  1.00  0.00     0.275 C 
ENDROOT
BRANCH   1   2
ATOM      2  O   UNL A   1      39.397  19.627  26.158  1.00  0.00    -0.458 OA
BRANCH   2   3
ATOM      3  C   UNL A   1      40.736  19.713  25.965  1.00  0.00     0.338 C 
ATOM      4  O   UNL A   1      41.475  18.816  25.591  1.00  0.00    -0.246 OA
BRANCH   3   5
ATOM      5  C   UNL A   1      41.182  21.009  26.522  1.00  0.00     0.060 A 
ATOM      6  C   UNL A   1      41.333  21.152  27.904  1.00  0.00     0.016 A 
ATOM      7  C   UNL A   1      41.589  22.033  25.658  1.00  0.00     0.016 A 
ATOM      8  C   UNL A   1      41.886  22.308  28.416  1.00  0.00     0.010 A 
ATOM      9  C   UNL A   1      42.202  23.174  26.166  1.00  0.00     0.010 A 
ATOM     10  C   UNL A   1      42.318  23.320  27.550  1.00  0.00    -0.014 A 
BRANCH  10  11
ATOM     11  C   UNL A   1      42.721  24.588  28.171  1.00  0.00     0.031 A 
ATOM     12  C   UNL A   1      44.181  24.907  28.201  1.00  0.00     0.074 A 
ATOM     13  C   UNL A   1      41.777  25.492  28.482  1.00  0.00     0.049 A 
ATOM     14  N   UNL A   1      44.761  26.063  28.367  1.00  0.00    -0.248 NA
ATOM     15  C   UNL A   1      45.110  23.789  27.960  1.00  0.00     0.031 C 
ATOM     16  C   UNL A   1      40.335  25.258  28.416  1.00  0.00     0.029 A 
ATOM     17  N   UNL A   1      41.889  26.798  28.868  1.00  0.00    -0.354 N 
ATOM     18  C   UNL A   1      46.113  25.823  28.173  1.00  0.00     0.074 A 
ATOM     19  C   UNL A   1      46.281  24.402  27.975  1.00  0.00     0.031 C 
ATOM     20  C   UNL A   1      39.691  26.387  28.756  1.00  0.00     0.029 A 
ATOM     21  C   UNL A   1      40.676  27.417  29.050  1.00  0.00     0.049 A 
ATOM     22  H   UNL A   1      42.753  27.251  29.002  1.00  0.00     0.167 HD
ATOM     23  C   UNL A   1      47.117  26.724  28.110  1.00  0.00     0.031 A 
ATOM     24  C   UNL A   1      40.405  28.687  29.397  1.00  0.00     0.031 A 
ATOM     25  C   UNL A   1      46.926  28.121  28.365  1.00  0.00     0.049 A 
ATOM     26  C   UNL A   1      41.560  29.645  29.480  1.00  0.00     0.074 A 
ATOM     27  C   UNL A   1      47.860  29.138  28.389  1.00  0.00     0.029 A 
ATOM     28  N   UNL A   1      45.694  28.691  28.661  1.00  0.00    -0.354 N 
ATOM     29  N   UNL A   1      42.832  29.419  29.245  1.00  0.00    -0.248 NA
ATOM     30  C   UNL A   1      41.244  31.033  29.827  1.00  0.00     0.031 C 
ATOM     31  C   UNL A   1      47.196  30.318  28.744  1.00  0.00     0.029 A 
ATOM     32  C   UNL A   1      45.843  30.044  28.893  1.00  0.00     0.049 A 
ATOM     33  H   UNL A   1      44.839  28.203  28.700  1.00  0.00     0.167 HD
ATOM     34  C   UNL A   1      43.466  30.645  29.375  1.00  0.00     0.074 A 
ATOM     35  C   UNL A   1      42.432  31.609  29.708  1.00  0.00     0.031 C 
ATOM     36  C   UNL A   1      44.778  30.956  29.223  1.00  0.00     0.031 A 
BRANCH  23  37
ATOM     37  C   UNL A   1      48.476  26.187  27.769  1.00  0.00    -0.014 A 
ATOM     38  C   UNL A   1      49.333  25.711  28.778  1.00  0.00     0.009 A 
ATOM     39  C   UNL A   1      48.937  26.218  26.446  1.00  0.00     0.009 A 
ATOM     40  C   UNL A   1      50.638  25.320  28.474  1.00  0.00     0.001 A 
ATOM     41  C   UNL A   1      50.236  25.804  26.143  1.00  0.00     0.001 A 
ATOM     42  C   UNL A   1      51.088  25.367  27.155  1.00  0.00     0.000 A 
ENDBRANCH  23  37
BRANCH  24  43
ATOM     43  C   UNL A   1      39.005  29.106  29.669  1.00  0.00    -0.014 A 
ATOM     44  C   UNL A   1      38.433  28.983  30.942  1.00  0.00     0.009 A 
ATOM     45  C   UNL A   1      38.229  29.648  28.630  1.00  0.00     0.009 A 
ATOM     46  C   UNL A   1      37.106  29.367  31.162  1.00  0.00     0.001 A 
ATOM     47  C   UNL A   1      36.912  30.052  28.857  1.00  0.00     0.001 A 
ATOM     48  C   UNL A   1      36.347  29.902  30.120  1.00  0.00     0.000 A 
ENDBRANCH  24  43
BRANCH  36  49
ATOM     49  C   UNL A   1      45.141  32.401  29.384  1.00  0.00    -0.014 A 
ATOM     50  C   UNL A   1      45.501  32.923  30.635  1.00  0.00     0.009 A 
ATOM     51  C   UNL A   1      45.160  33.236  28.256  1.00  0.00     0.009 A 
ATOM     52  C   UNL A   1      45.845  34.268  30.759  1.00  0.00     0.001 A 
ATOM     53  C   UNL A   1      45.531  34.573  28.379  1.00  0.00     0.001 A 
ATOM     54  C   UNL A   1      45.864  35.090  29.630  1.00  0.00     0.000 A 
ENDBRANCH  36  49
ENDBRANCH  10  11
ENDBRANCH   3   5
ENDBRANCH   2   3
ENDBRANCH   1   2
BRANCH   1  55
ATOM     55  C   UNL A   1      37.856  21.263  25.218  1.00  0.00     0.275 C 
BRANCH  55  56
ATOM     56  O   UNL A   1      36.559  21.269  24.577  1.00  0.00    -0.458 OA
BRANCH  56  57
ATOM     57  C   UNL A   1      35.469  21.122  25.370  1.00  0.00     0.340 C 
ATOM     58  O   UNL A   1      35.359  21.484  26.529  1.00  0.00    -0.246 OA
BRANCH  57  59
ATOM     59  C   UNL A   1      34.460  20.292  24.671  1.00  0.00     0.084 A 
ATOM     60  C   UNL A   1      34.700  18.912  24.606  1.00  0.00     0.033 A 
ATOM     61  C   UNL A   1      33.230  20.830  24.239  1.00  0.00     0.051 A 
ATOM     62  C   UNL A   1      33.713  18.071  24.096  1.00  0.00     0.018 A 
ATOM     63  C   UNL A   1      32.286  19.969  23.664  1.00  0.00     0.028 A 
ATOM     64  Br  UNL A   1      33.926  16.195  24.190  1.00  0.00    -0.051 Br
ATOM     65  C   UNL A   1      32.526  18.594  23.588  1.00  0.00     0.018 A 
BRANCH  61  66
ATOM     66  N   UNL A   1      32.926  22.177  24.442  1.00  0.00    -0.370 N 
ATOM     67  C   UNL A   1      33.176  23.294  23.592  1.00  0.00     0.125 C 
ATOM     68  C   UNL A   1      31.759  22.797  25.004  1.00  0.00     0.125 C 
ATOM     69  C   UNL A   1      32.470  24.144  24.675  1.00  0.00     0.005 C 
ATOM     70  C   UNL A   1      31.679  25.315  24.102  1.00  0.00     0.011 C 
ATOM     71  C   UNL A   1      33.358  24.598  25.853  1.00  0.00     0.011 C 
ATOM     72  C   UNL A   1      32.656  26.403  23.640  1.00  0.00     0.001 C 
ATOM     73  C   UNL A   1      34.306  25.711  25.426  1.00  0.00     0.001 C 
ATOM     74  C   UNL A   1      33.559  26.872  24.782  1.00  0.00     0.000 C 
ENDBRANCH  61  66
ENDBRANCH  57  59
ENDBRANCH  56  57
ENDBRANCH  55  56
ENDBRANCH   1  55
TORSDOF 12
ENDMDL
MODEL 2
REMARK VINA RESULT:     -11.2      5.300      9.728
REMARK SMILES O=C(OCCOC(=O)c1cc(Br)ccc1N1CC2(CCCCC2)C1)c1ccc(-c2c3nc(c(-c4ccccc4)c4ccc([nH]4)c(-c4ccccc4)c4nc(c(-c5ccccc5)c5ccc2[nH]5)C=C4)C=C3)cc1
REMARK SMILES IDX 4 1 3 2 2 3 1 4 25 5 26 6 72 7 27 8 71 9 28 10 29 11 30 12
REMARK SMILES IDX 65 13 31 14 70 15 64 16 66 17 32 18 69 19 63 20 62 21 33 23
REMARK SMILES IDX 55 24 40 25 54 26 41 27 44 28 53 29 67 30 42 31 43 32 52 34
REMARK SMILES IDX 68 35 45 36 34 37 35 38 39 39 36 40 38 41 37 42 56 43 57 44
REMARK SMILES IDX 61 45 58 46 60 47 59 48 46 49 47 50 51 51 48 52 50 53 49 54
REMARK SMILES IDX 5 55 6 56 7 57 8 58 9 59 10 60 15 61 11 62 14 63 12 64 13 65
REMARK SMILES IDX 16 66 17 67 24 68 18 69 19 70 23 71 20 72 22 73 21 74
REMARK H PARENT 66 22 44 33
REMARK Flexibility Score: inf
ROOT
ATOM      1  C   UNL A   1      32.701  31.776  27.281  1.00  0.00     0.275 C 
ENDROOT
BRANCH   1   2
ATOM      2  O   UNL A   1      32.697  33.194  27.118  1.00  0.00    -0.458 OA
BRANCH   2   3
ATOM      3  C   UNL A   1      33.017  33.884  28.240  1.00  0.00     0.338 C 
ATOM      4  O   UNL A   1      32.438  34.865  28.680  1.00  0.00    -0.246 OA
BRANCH   3   5
ATOM      5  C   UNL A   1      34.334  33.393  28.702  1.00  0.00     0.060 A 
ATOM      6  C   UNL A   1      35.494  33.784  28.027  1.00  0.00     0.016 A 
ATOM      7  C   UNL A   1      34.424  32.662  29.893  1.00  0.00     0.016 A 
ATOM      8  C   UNL A   1      36.730  33.449  28.539  1.00  0.00     0.010 A 
ATOM      9  C   UNL A   1      35.669  32.374  30.444  1.00  0.00     0.010 A 
ATOM     10  C   UNL A   1      36.820  32.742  29.744  1.00  0.00    -0.014 A 
BRANCH  10  11
ATOM     11  C   UNL A   1      38.154  32.263  30.127  1.00  0.00     0.031 A 
ATOM     12  C   UNL A   1      38.805  32.905  31.309  1.00  0.00     0.074 A 
ATOM     13  C   UNL A   1      38.635  31.145  29.556  1.00  0.00     0.049 A 
ATOM     14  N   UNL A   1      39.785  32.460  32.044  1.00  0.00    -0.248 NA
ATOM     15  C   UNL A   1      38.246  34.194  31.755  1.00  0.00     0.031 C 
ATOM     16  C   UNL A   1      38.012  30.438  28.437  1.00  0.00     0.029 A 
ATOM     17  N   UNL A   1      39.728  30.386  29.868  1.00  0.00    -0.354 N 
ATOM     18  C   UNL A   1      39.906  33.373  33.081  1.00  0.00     0.074 A 
ATOM     19  C   UNL A   1      38.972  34.446  32.831  1.00  0.00     0.031 C 
ATOM     20  C   UNL A   1      38.738  29.344  28.151  1.00  0.00     0.029 A 
ATOM     21  C   UNL A   1      39.863  29.274  29.072  1.00  0.00     0.049 A 
ATOM     22  H   UNL A   1      40.355  30.612  30.592  1.00  0.00     0.167 HD
ATOM     23  C   UNL A   1      40.693  33.289  34.175  1.00  0.00     0.031 A 
ATOM     24  C   UNL A   1      40.789  28.301  29.108  1.00  0.00     0.031 A 
ATOM     25  C   UNL A   1      41.649  32.239  34.368  1.00  0.00     0.049 A 
ATOM     26  C   UNL A   1      41.764  28.314  30.252  1.00  0.00     0.074 A 
ATOM     27  C   UNL A   1      42.548  32.059  35.400  1.00  0.00     0.029 A 
ATOM     28  N   UNL A   1      41.835  31.191  33.475  1.00  0.00    -0.354 N 
ATOM     29  N   UNL A   1      41.838  29.155  31.257  1.00  0.00    -0.248 NA
ATOM     30  C   UNL A   1      42.746  27.228  30.295  1.00  0.00     0.031 C 
ATOM     31  C   UNL A   1      43.310  30.920  35.108  1.00  0.00     0.029 A 
ATOM     32  C   UNL A   1      42.851  30.367  33.919  1.00  0.00     0.049 A 
ATOM     33  H   UNL A   1      41.319  31.053  32.648  1.00  0.00     0.167 HD
ATOM     34  C   UNL A   1      42.849  28.678  32.078  1.00  0.00     0.074 A 
ATOM     35  C   UNL A   1      43.354  27.472  31.448  1.00  0.00     0.031 C 
ATOM     36  C   UNL A   1      43.314  29.179  33.250  1.00  0.00     0.031 A 
BRANCH  23  37
ATOM     37  C   UNL A   1      40.531  34.374  35.199  1.00  0.00    -0.014 A 
ATOM     38  C   UNL A   1      41.284  35.560  35.113  1.00  0.00     0.009 A 
ATOM     39  C   UNL A   1      39.678  34.190  36.295  1.00  0.00     0.009 A 
ATOM     40  C   UNL A   1      41.218  36.517  36.127  1.00  0.00     0.001 A 
ATOM     41  C   UNL A   1      39.597  35.161  37.296  1.00  0.00     0.001 A 
ATOM     42  C   UNL A   1      40.373  36.317  37.218  1.00  0.00     0.000 A 
ENDBRANCH  23  37
BRANCH  24  43
ATOM     43  C   UNL A   1      40.817  27.255  28.053  1.00  0.00    -0.014 A 
ATOM     44  C   UNL A   1      41.508  27.442  26.848  1.00  0.00     0.009 A 
ATOM     45  C   UNL A   1      40.143  26.039  28.263  1.00  0.00     0.009 A 
ATOM     46  C   UNL A   1      41.498  26.446  25.865  1.00  0.00     0.001 A 
ATOM     47  C   UNL A   1      40.154  25.038  27.290  1.00  0.00     0.001 A 
ATOM     48  C   UNL A   1      40.823  25.246  26.087  1.00  0.00     0.000 A 
ENDBRANCH  24  43
BRANCH  36  49
ATOM     49  C   UNL A   1      44.396  28.391  33.925  1.00  0.00    -0.014 A 
ATOM     50  C   UNL A   1      44.089  27.375  34.840  1.00  0.00     0.009 A 
ATOM     51  C   UNL A   1      45.738  28.650  33.604  1.00  0.00     0.009 A 
ATOM     52  C   UNL A   1      45.112  26.649  35.448  1.00  0.00     0.001 A 
ATOM     53  C   UNL A   1      46.756  27.904  34.193  1.00  0.00     0.001 A 
ATOM     54  C   UNL A   1      46.443  26.911  35.120  1.00  0.00     0.000 A 
ENDBRANCH  36  49
ENDBRANCH  10  11
ENDBRANCH   3   5
ENDBRANCH   2   3
ENDBRANCH   1   2
BRANCH   1  55
ATOM     55  C   UNL A   1      31.620  31.131  26.398  1.00  0.00     0.275 C 
BRANCH  55  56
ATOM     56  O   UNL A   1      32.141  30.071  25.563  1.00  0.00    -0.458 OA
BRANCH  56  57
ATOM     57  C   UNL A   1      31.773  28.801  25.861  1.00  0.00     0.340 C 
ATOM     58  O   UNL A   1      31.218  28.425  26.880  1.00  0.00    -0.246 OA
BRANCH  57  59
ATOM     59  C   UNL A   1      32.297  27.881  24.825  1.00  0.00     0.084 A 
ATOM     60  C   UNL A   1      33.278  26.961  25.223  1.00  0.00     0.033 A 
ATOM     61  C   UNL A   1      31.721  27.808  23.540  1.00  0.00     0.051 A 
ATOM     62  C   UNL A   1      33.693  25.976  24.329  1.00  0.00     0.018 A 
ATOM     63  C   UNL A   1      32.210  26.853  22.638  1.00  0.00     0.028 A 
ATOM     64  Br  UNL A   1      34.855  24.601  24.907  1.00  0.00    -0.051 Br
ATOM     65  C   UNL A   1      33.194  25.941  23.028  1.00  0.00     0.018 A 
BRANCH  61  66
ATOM     66  N   UNL A   1      30.640  28.619  23.192  1.00  0.00    -0.370 N 
ATOM     67  C   UNL A   1      30.530  29.568  22.134  1.00  0.00     0.125 C 
ATOM     68  C   UNL A   1      29.232  28.335  23.156  1.00  0.00     0.125 C 
ATOM     69  C   UNL A   1      29.080  29.792  22.623  1.00  0.00     0.005 C 
ATOM     70  C   UNL A   1      28.104  30.103  21.494  1.00  0.00     0.011 C 
ATOM     71  C   UNL A   1      28.914  30.788  23.791  1.00  0.00     0.011 C 
ATOM     72  C   UNL A   1      28.342  31.537  21.004  1.00  0.00     0.001 C 
ATOM     73  C   UNL A   1      29.104  32.222  23.316  1.00  0.00     0.001 C 
ATOM     74  C   UNL A   1      28.194  32.552  22.139  1.00  0.00     0.000 C 
ENDBRANCH  61  66
ENDBRANCH  57  59
ENDBRANCH  56  57
ENDBRANCH  55  56
ENDBRANCH   1  55
TORSDOF 12
ENDMDL
MODEL 3
REMARK VINA RESULT:     -11.2      4.915      9.356
REMARK SMILES O=C(OCCOC(=O)c1cc(Br)ccc1N1CC2(CCCCC2)C1)c1ccc(-c2c3nc(c(-c4ccccc4)c4ccc([nH]4)c(-c4ccccc4)c4nc(c(-c5ccccc5)c5ccc2[nH]5)C=C4)C=C3)cc1
REMARK SMILES IDX 4 1 3 2 2 3 1 4 25 5 26 6 72 7 27 8 71 9 28 10 29 11 30 12
REMARK SMILES IDX 65 13 31 14 70 15 64 16 66 17 32 18 69 19 63 20 62 21 33 23
REMARK SMILES IDX 55 24 40 25 54 26 41 27 44 28 53 29 67 30 42 31 43 32 52 34
REMARK SMILES IDX 68 35 45 36 34 37 35 38 39 39 36 40 38 41 37 42 56 43 57 44
REMARK SMILES IDX 61 45 58 46 60 47 59 48 46 49 47 50 51 51 48 52 50 53 49 54
REMARK SMILES IDX 5 55 6 56 7 57 8 58 9 59 10 60 15 61 11 62 14 63 12 64 13 65
REMARK SMILES IDX 16 66 17 67 24 68 18 69 19 70 23 71 20 72 22 73 21 74
REMARK H PARENT 66 22 44 33
REMARK Flexibility Score: inf
ROOT
ATOM      1  C   UNL A   1      32.138  30.321  26.854  1.00  0.00     0.275 C 
ENDROOT
BRANCH   1   2
ATOM      2  O   UNL A   1      33.489  30.769  26.748  1.00  0.00    -0.458 OA
BRANCH   2   3
ATOM      3  C   UNL A   1      33.817  31.761  27.612  1.00  0.00     0.338 C 
ATOM      4  O   UNL A   1      33.246  32.833  27.737  1.00  0.00    -0.246 OA
BRANCH   3   5
ATOM      5  C   UNL A   1      35.130  31.419  28.202  1.00  0.00     0.060 A 
ATOM      6  C   UNL A   1      35.397  30.099  28.575  1.00  0.00     0.016 A 
ATOM      7  C   UNL A   1      36.143  32.384  28.247  1.00  0.00     0.016 A 
ATOM      8  C   UNL A   1      36.665  29.748  28.989  1.00  0.00     0.010 A 
ATOM      9  C   UNL A   1      37.438  32.022  28.605  1.00  0.00     0.010 A 
ATOM     10  C   UNL A   1      37.685  30.707  29.008  1.00  0.00    -0.014 A 
BRANCH  10  11
ATOM     11  C   UNL A   1      38.953  30.306  29.632  1.00  0.00     0.031 A 
ATOM     12  C   UNL A   1      39.168  30.688  31.061  1.00  0.00     0.074 A 
ATOM     13  C   UNL A   1      39.755  29.443  28.986  1.00  0.00     0.049 A 
ATOM     14  N   UNL A   1      40.007  30.185  31.923  1.00  0.00    -0.248 NA
ATOM     15  C   UNL A   1      38.290  31.738  31.607  1.00  0.00     0.031 C 
ATOM     16  C   UNL A   1      39.562  28.987  27.609  1.00  0.00     0.029 A 
ATOM     17  N   UNL A   1      40.861  28.765  29.414  1.00  0.00    -0.354 N 
ATOM     18  C   UNL A   1      39.703  30.801  33.128  1.00  0.00     0.074 A 
ATOM     19  C   UNL A   1      38.676  31.782  32.871  1.00  0.00     0.031 C 
ATOM     20  C   UNL A   1      40.525  28.101  27.302  1.00  0.00     0.029 A 
ATOM     21  C   UNL A   1      41.387  27.926  28.462  1.00  0.00     0.049 A 
ATOM     22  H   UNL A   1      41.242  28.866  30.316  1.00  0.00     0.167 HD
ATOM     23  C   UNL A   1      40.204  30.526  34.352  1.00  0.00     0.031 A 
ATOM     24  C   UNL A   1      42.440  27.095  28.539  1.00  0.00     0.031 A 
ATOM     25  C   UNL A   1      41.262  29.583  34.566  1.00  0.00     0.049 A 
ATOM     26  C   UNL A   1      43.090  26.922  29.882  1.00  0.00     0.074 A 
ATOM     27  C   UNL A   1      41.902  29.246  35.742  1.00  0.00     0.029 A 
ATOM     28  N   UNL A   1      41.849  28.836  33.552  1.00  0.00    -0.354 N 
ATOM     29  N   UNL A   1      42.763  27.472  31.029  1.00  0.00    -0.248 NA
ATOM     30  C   UNL A   1      44.217  25.987  29.957  1.00  0.00     0.031 C 
ATOM     31  C   UNL A   1      42.909  28.323  35.430  1.00  0.00     0.029 A 
ATOM     32  C   UNL A   1      42.861  28.052  34.068  1.00  0.00     0.049 A 
ATOM     33  H   UNL A   1      41.582  28.861  32.604  1.00  0.00     0.167 HD
ATOM     34  C   UNL A   1      43.616  26.919  31.972  1.00  0.00     0.074 A 
ATOM     35  C   UNL A   1      44.472  25.990  31.258  1.00  0.00     0.031 C 
ATOM     36  C   UNL A   1      43.684  27.145  33.309  1.00  0.00     0.031 A 
BRANCH  23  37
ATOM     37  C   UNL A   1      39.602  31.275  35.503  1.00  0.00    -0.014 A 
ATOM     38  C   UNL A   1      38.417  30.823  36.113  1.00  0.00     0.009 A 
ATOM     39  C   UNL A   1      40.173  32.478  35.941  1.00  0.00     0.009 A 
ATOM     40  C   UNL A   1      37.796  31.582  37.106  1.00  0.00     0.001 A 
ATOM     41  C   UNL A   1      39.561  33.222  36.952  1.00  0.00     0.001 A 
ATOM     42  C   UNL A   1      38.369  32.782  37.525  1.00  0.00     0.000 A 
ENDBRANCH  23  37
BRANCH  24  43
ATOM     43  C   UNL A   1      42.915  26.374  27.329  1.00  0.00    -0.014 A 
ATOM     44  C   UNL A   1      42.393  25.127  26.962  1.00  0.00     0.009 A 
ATOM     45  C   UNL A   1      43.909  26.954  26.522  1.00  0.00     0.009 A 
ATOM     46  C   UNL A   1      42.876  24.462  25.829  1.00  0.00     0.001 A 
ATOM     47  C   UNL A   1      44.374  26.299  25.379  1.00  0.00     0.001 A 
ATOM     48  C   UNL A   1      43.865  25.049  25.038  1.00  0.00     0.000 A 
ENDBRANCH  24  43
BRANCH  36  49
ATOM     49  C   UNL A   1      44.696  26.343  34.068  1.00  0.00    -0.014 A 
ATOM     50  C   UNL A   1      44.391  25.063  34.553  1.00  0.00     0.009 A 
ATOM     51  C   UNL A   1      45.985  26.864  34.259  1.00  0.00     0.009 A 
ATOM     52  C   UNL A   1      45.353  24.331  35.247  1.00  0.00     0.001 A 
ATOM     53  C   UNL A   1      46.952  26.119  34.928  1.00  0.00     0.001 A 
ATOM     54  C   UNL A   1      46.633  24.858  35.430  1.00  0.00     0.000 A 
ENDBRANCH  36  49
ENDBRANCH  10  11
ENDBRANCH   3   5
ENDBRANCH   2   3
ENDBRANCH   1   2
BRANCH   1  55
ATOM     55  C   UNL A   1      31.898  29.114  25.931  1.00  0.00     0.275 C 
BRANCH  55  56
ATOM     56  O   UNL A   1      32.548  29.256  24.646  1.00  0.00    -0.458 OA
BRANCH  56  57
ATOM     57  C   UNL A   1      32.185  28.397  23.663  1.00  0.00     0.340 C 
ATOM     58  O   UNL A   1      32.934  27.775  22.928  1.00  0.00    -0.246 OA
BRANCH  57  59
ATOM     59  C   UNL A   1      30.715  28.441  23.488  1.00  0.00     0.084 A 
ATOM     60  C   UNL A   1      30.176  29.590  22.890  1.00  0.00     0.033 A 
ATOM     61  C   UNL A   1      29.904  27.318  23.749  1.00  0.00     0.051 A 
ATOM     62  C   UNL A   1      28.821  29.618  22.565  1.00  0.00     0.018 A 
ATOM     63  C   UNL A   1      28.532  27.403  23.477  1.00  0.00     0.028 A 
ATOM     64  Br  UNL A   1      28.116  31.064  21.572  1.00  0.00    -0.051 Br
ATOM     65  C   UNL A   1      27.990  28.549  22.890  1.00  0.00     0.018 A 
BRANCH  61  66
ATOM     66  N   UNL A   1      30.462  26.121  24.199  1.00  0.00    -0.370 N 
ATOM     67  C   UNL A   1      30.469  25.569  25.514  1.00  0.00     0.125 C 
ATOM     68  C   UNL A   1      30.493  24.817  23.596  1.00  0.00     0.125 C 
ATOM     69  C   UNL A   1      31.224  24.370  24.896  1.00  0.00     0.005 C 
ATOM     70  C   UNL A   1      30.882  23.037  25.555  1.00  0.00     0.011 C 
ATOM     71  C   UNL A   1      32.752  24.542  24.754  1.00  0.00     0.011 C 
ATOM     72  C   UNL A   1      31.553  22.971  26.933  1.00  0.00     0.001 C 
ATOM     73  C   UNL A   1      33.442  24.436  26.107  1.00  0.00     0.001 C 
ATOM     74  C   UNL A   1      33.069  23.147  26.831  1.00  0.00     0.000 C 
ENDBRANCH  61  66
ENDBRANCH  57  59
ENDBRANCH  56  57
ENDBRANCH  55  56
ENDBRANCH   1  55
TORSDOF 12
ENDMDL
