MODEL 1
REMARK VINA RESULT:     -10.6      0.000      0.000
REMARK SMILES CC(C)N1C[C@@H](C(=O)N2CCC(C(=O)OCCOC(=O)c3ccc(-c4c5nc(c(-c6ccccc6)c6ccc([nH]6)c(-c6ccccc6)c6nc(c(-c7ccccc7)c7ccc4[nH]7)C=C6)C=C5)cc3)CC2)CC1=O
REMARK SMILES IDX 16 1 15 2 13 3 14 4 12 5 7 6 8 7 9 8 10 9 70 10 11 11 69 12
REMARK SMILES IDX 6 13 4 14 5 15 72 16 71 17 73 18 2 19 1 20 3 21 17 22 18 23
REMARK SMILES IDX 19 24 20 25 21 26 22 27 68 28 23 29 67 30 24 31 25 32 26 33
REMARK SMILES IDX 61 34 27 35 66 36 60 37 62 38 28 39 65 40 59 41 58 42 29 44
REMARK SMILES IDX 51 45 36 46 50 47 37 48 40 49 49 50 63 51 38 52 39 53 48 55
REMARK SMILES IDX 64 56 41 57 30 58 31 59 35 60 32 61 34 62 33 63 52 64 53 65
REMARK SMILES IDX 57 66 54 67 56 68 55 69 42 70 43 71 47 72 44 73 46 74 45 75
REMARK H PARENT 62 43 40 54
REMARK Flexibility Score: inf
ROOT
ATOM      1  C   UNL A   1      34.001  35.200  28.639  1.00  0.00     0.274 C 
ENDROOT
BRANCH   1   2
ATOM      2  O   UNL A   1      34.020  33.826  29.071  1.00  0.00    -0.462 OA
BRANCH   2   3
ATOM      3  C   UNL A   1      34.820  32.985  28.371  1.00  0.00     0.309 C 
ATOM      4  O   UNL A   1      35.960  33.244  28.004  1.00  0.00    -0.252 OA
BRANCH   3   5
ATOM      5  C   UNL A   1      34.179  31.639  28.101  1.00  0.00     0.103 C 
ATOM      6  C   UNL A   1      33.346  28.805  25.360  1.00  0.00     0.227 C 
ATOM      7  O   UNL A   1      32.865  29.491  24.452  1.00  0.00    -0.274 OA
ATOM      8  N   UNL A   1      33.394  29.289  26.655  1.00  0.00    -0.342 N 
ATOM      9  C   UNL A   1      32.379  30.262  27.056  1.00  0.00     0.120 C 
ATOM     10  C   UNL A   1      34.567  29.235  27.521  1.00  0.00     0.120 C 
ATOM     11  C   UNL A   1      32.967  31.663  27.167  1.00  0.00     0.037 C 
ATOM     12  C   UNL A   1      35.213  30.621  27.615  1.00  0.00     0.037 C 
BRANCH   6  13
ATOM     13  C   UNL A   1      33.656  27.342  25.076  1.00  0.00     0.107 C 
ATOM     14  N   UNL A   1      32.996  25.469  23.838  1.00  0.00    -0.339 N 
ATOM     15  C   UNL A   1      33.020  26.910  23.768  1.00  0.00     0.133 C 
ATOM     16  C   UNL A   1      33.153  25.025  25.146  1.00  0.00     0.223 C 
ATOM     17  C   UNL A   1      33.320  26.229  26.047  1.00  0.00     0.115 C 
ATOM     18  O   UNL A   1      33.119  23.877  25.556  1.00  0.00    -0.275 OA
BRANCH  14  19
ATOM     19  C   UNL A   1      32.751  24.663  22.632  1.00  0.00     0.078 C 
ATOM     20  C   UNL A   1      32.693  25.544  21.381  1.00  0.00     0.031 C 
ATOM     21  C   UNL A   1      33.739  23.520  22.405  1.00  0.00     0.031 C 
ENDBRANCH  14  19
ENDBRANCH   6  13
ENDBRANCH   3   5
ENDBRANCH   2   3
ENDBRANCH   1   2
BRANCH   1  22
ATOM     22  C   UNL A   1      32.923  35.997  29.378  1.00  0.00     0.275 C 
BRANCH  22  23
ATOM     23  O   UNL A   1      32.405  35.273  30.512  1.00  0.00    -0.458 OA
BRANCH  23  24
ATOM     24  C   UNL A   1      32.754  35.773  31.719  1.00  0.00     0.338 C 
ATOM     25  O   UNL A   1      32.192  36.649  32.354  1.00  0.00    -0.246 OA
BRANCH  24  26
ATOM     26  C   UNL A   1      33.887  35.015  32.267  1.00  0.00     0.060 A 
ATOM     27  C   UNL A   1      35.156  35.588  32.184  1.00  0.00     0.016 A 
ATOM     28  C   UNL A   1      33.729  33.714  32.745  1.00  0.00     0.016 A 
ATOM     29  C   UNL A   1      36.282  34.867  32.566  1.00  0.00     0.010 A 
ATOM     30  C   UNL A   1      34.861  32.990  33.138  1.00  0.00     0.010 A 
ATOM     31  C   UNL A   1      36.144  33.557  33.037  1.00  0.00    -0.014 A 
BRANCH  31  32
ATOM     32  C   UNL A   1      37.354  32.770  33.368  1.00  0.00     0.031 A 
ATOM     33  C   UNL A   1      38.054  32.990  34.677  1.00  0.00     0.074 A 
ATOM     34  C   UNL A   1      37.801  31.832  32.512  1.00  0.00     0.049 A 
ATOM     35  N   UNL A   1      39.172  32.468  35.114  1.00  0.00    -0.248 NA
ATOM     36  C   UNL A   1      37.409  33.915  35.622  1.00  0.00     0.031 C 
ATOM     37  C   UNL A   1      37.166  31.472  31.243  1.00  0.00     0.029 A 
ATOM     38  N   UNL A   1      38.893  31.006  32.589  1.00  0.00    -0.354 N 
ATOM     39  C   UNL A   1      39.376  33.016  36.373  1.00  0.00     0.074 A 
ATOM     40  C   UNL A   1      38.275  33.919  36.628  1.00  0.00     0.031 C 
ATOM     41  C   UNL A   1      37.879  30.493  30.661  1.00  0.00     0.029 A 
ATOM     42  C   UNL A   1      39.043  30.196  31.490  1.00  0.00     0.049 A 
ATOM     43  H   UNL A   1      39.508  30.994  33.357  1.00  0.00     0.167 HD
ATOM     44  C   UNL A   1      40.392  32.788  37.240  1.00  0.00     0.031 A 
ATOM     45  C   UNL A   1      40.028  29.336  31.171  1.00  0.00     0.031 A 
ATOM     46  C   UNL A   1      41.489  31.893  36.986  1.00  0.00     0.049 A 
ATOM     47  C   UNL A   1      41.189  29.166  32.110  1.00  0.00     0.074 A 
ATOM     48  C   UNL A   1      42.579  31.611  37.793  1.00  0.00     0.029 A 
ATOM     49  N   UNL A   1      41.634  31.131  35.838  1.00  0.00    -0.354 N 
ATOM     50  N   UNL A   1      41.390  29.718  33.282  1.00  0.00    -0.248 NA
ATOM     51  C   UNL A   1      42.261  28.259  31.678  1.00  0.00     0.031 C 
ATOM     52  C   UNL A   1      43.401  30.705  37.115  1.00  0.00     0.029 A 
ATOM     53  C   UNL A   1      42.802  30.389  35.907  1.00  0.00     0.049 A 
ATOM     54  H   UNL A   1      41.001  31.119  35.084  1.00  0.00     0.167 HD
ATOM     55  C   UNL A   1      42.601  29.213  33.734  1.00  0.00     0.074 A 
ATOM     56  C   UNL A   1      43.081  28.298  32.719  1.00  0.00     0.031 C 
ATOM     57  C   UNL A   1      43.260  29.484  34.887  1.00  0.00     0.031 A 
BRANCH  44  58
ATOM     58  C   UNL A   1      40.380  33.554  38.531  1.00  0.00    -0.014 A 
ATOM     59  C   UNL A   1      41.019  34.798  38.644  1.00  0.00     0.009 A 
ATOM     60  C   UNL A   1      39.696  33.035  39.641  1.00  0.00     0.009 A 
ATOM     61  C   UNL A   1      40.998  35.494  39.856  1.00  0.00     0.001 A 
ATOM     62  C   UNL A   1      39.657  33.743  40.843  1.00  0.00     0.001 A 
ATOM     63  C   UNL A   1      40.314  34.968  40.952  1.00  0.00     0.000 A 
ENDBRANCH  44  58
BRANCH  45  64
ATOM     64  C   UNL A   1      39.984  28.598  29.883  1.00  0.00    -0.014 A 
ATOM     65  C   UNL A   1      40.503  29.171  28.712  1.00  0.00     0.009 A 
ATOM     66  C   UNL A   1      39.407  27.320  29.816  1.00  0.00     0.009 A 
ATOM     67  C   UNL A   1      40.425  28.487  27.498  1.00  0.00     0.001 A 
ATOM     68  C   UNL A   1      39.355  26.627  28.606  1.00  0.00     0.001 A 
ATOM     69  C   UNL A   1      39.856  27.214  27.446  1.00  0.00     0.000 A 
ENDBRANCH  45  64
BRANCH  57  70
ATOM     70  C   UNL A   1      44.550  28.754  35.122  1.00  0.00    -0.014 A 
ATOM     71  C   UNL A   1      45.781  29.319  34.754  1.00  0.00     0.009 A 
ATOM     72  C   UNL A   1      44.534  27.497  35.746  1.00  0.00     0.009 A 
ATOM     73  C   UNL A   1      46.970  28.623  34.980  1.00  0.00     0.001 A 
ATOM     74  C   UNL A   1      45.726  26.815  35.991  1.00  0.00     0.001 A 
ATOM     75  C   UNL A   1      46.941  27.374  35.601  1.00  0.00     0.000 A 
ENDBRANCH  57  70
ENDBRANCH  31  32
ENDBRANCH  24  26
ENDBRANCH  23  24
ENDBRANCH  22  23
ENDBRANCH   1  22
TORSDOF 13
ENDMDL
MODEL 2
REMARK VINA RESULT:     -10.4      3.661      9.172
REMARK SMILES CC(C)N1C[C@@H](C(=O)N2CCC(C(=O)OCCOC(=O)c3ccc(-c4c5nc(c(-c6ccccc6)c6ccc([nH]6)c(-c6ccccc6)c6nc(c(-c7ccccc7)c7ccc4[nH]7)C=C6)C=C5)cc3)CC2)CC1=O
REMARK SMILES IDX 16 1 15 2 13 3 14 4 12 5 7 6 8 7 9 8 10 9 70 10 11 11 69 12
REMARK SMILES IDX 6 13 4 14 5 15 72 16 71 17 73 18 2 19 1 20 3 21 17 22 18 23
REMARK SMILES IDX 19 24 20 25 21 26 22 27 68 28 23 29 67 30 24 31 25 32 26 33
REMARK SMILES IDX 61 34 27 35 66 36 60 37 62 38 28 39 65 40 59 41 58 42 29 44
REMARK SMILES IDX 51 45 36 46 50 47 37 48 40 49 49 50 63 51 38 52 39 53 48 55
REMARK SMILES IDX 64 56 41 57 30 58 31 59 35 60 32 61 34 62 33 63 52 64 53 65
REMARK SMILES IDX 57 66 54 67 56 68 55 69 42 70 43 71 47 72 44 73 46 74 45 75
REMARK H PARENT 62 43 40 54
REMARK Flexibility Score: inf
ROOT
ATOM      1  C   UNL A   1      42.715  20.038  26.118  1.00  0.00     0.274 C 
ENDROOT
BRANCH   1   2
ATOM      2  O   UNL A   1      41.401  20.290  25.587  1.00  0.00    -0.462 OA
BRANCH   2   3
ATOM      3  C   UNL A   1      40.493  20.814  26.445  1.00  0.00     0.309 C 
ATOM      4  O   UNL A   1      40.588  20.794  27.668  1.00  0.00    -0.252 OA
BRANCH   3   5
ATOM      5  C   UNL A   1      39.326  21.480  25.746  1.00  0.00     0.103 C 
ATOM      6  C   UNL A   1      35.430  22.496  25.939  1.00  0.00     0.227 C 
ATOM      7  O   UNL A   1      34.926  21.425  26.290  1.00  0.00    -0.274 OA
ATOM      8  N   UNL A   1      36.682  22.522  25.350  1.00  0.00    -0.342 N 
ATOM      9  C   UNL A   1      37.110  21.338  24.607  1.00  0.00     0.120 C 
ATOM     10  C   UNL A   1      37.759  23.432  25.724  1.00  0.00     0.120 C 
ATOM     11  C   UNL A   1      38.166  20.552  25.374  1.00  0.00     0.037 C 
ATOM     12  C   UNL A   1      38.818  22.684  26.541  1.00  0.00     0.037 C 
BRANCH   6  13
ATOM     13  C   UNL A   1      34.559  23.744  25.941  1.00  0.00     0.107 C 
ATOM     14  N   UNL A   1      32.579  24.676  25.109  1.00  0.00    -0.339 N 
ATOM     15  C   UNL A   1      33.150  23.406  25.488  1.00  0.00     0.133 C 
ATOM     16  C   UNL A   1      33.569  25.630  24.897  1.00  0.00     0.223 C 
ATOM     17  C   UNL A   1      34.916  24.996  25.165  1.00  0.00     0.115 C 
ATOM     18  O   UNL A   1      33.430  26.779  24.510  1.00  0.00    -0.275 OA
BRANCH  14  19
ATOM     19  C   UNL A   1      31.128  24.820  24.919  1.00  0.00     0.078 C 
ATOM     20  C   UNL A   1      30.653  24.047  23.686  1.00  0.00     0.031 C 
ATOM     21  C   UNL A   1      30.275  24.428  26.126  1.00  0.00     0.031 C 
ENDBRANCH  14  19
ENDBRANCH   6  13
ENDBRANCH   3   5
ENDBRANCH   2   3
ENDBRANCH   1   2
BRANCH   1  22
ATOM     22  C   UNL A   1      43.762  20.936  25.454  1.00  0.00     0.275 C 
BRANCH  22  23
ATOM     23  O   UNL A   1      43.979  22.148  26.202  1.00  0.00    -0.458 OA
BRANCH  23  24
ATOM     24  C   UNL A   1      43.676  23.290  25.545  1.00  0.00     0.338 C 
ATOM     25  O   UNL A   1      43.775  23.512  24.350  1.00  0.00    -0.246 OA
BRANCH  24  26
ATOM     26  C   UNL A   1      43.065  24.254  26.471  1.00  0.00     0.060 A 
ATOM     27  C   UNL A   1      43.541  25.566  26.454  1.00  0.00     0.016 A 
ATOM     28  C   UNL A   1      42.128  23.855  27.424  1.00  0.00     0.016 A 
ATOM     29  C   UNL A   1      43.096  26.490  27.392  1.00  0.00     0.010 A 
ATOM     30  C   UNL A   1      41.673  24.787  28.364  1.00  0.00     0.010 A 
ATOM     31  C   UNL A   1      42.165  26.104  28.362  1.00  0.00    -0.014 A 
BRANCH  31  32
ATOM     32  C   UNL A   1      41.755  27.073  29.405  1.00  0.00     0.031 A 
ATOM     33  C   UNL A   1      42.532  27.167  30.685  1.00  0.00     0.074 A 
ATOM     34  C   UNL A   1      40.713  27.896  29.185  1.00  0.00     0.049 A 
ATOM     35  N   UNL A   1      42.285  27.885  31.751  1.00  0.00    -0.248 NA
ATOM     36  C   UNL A   1      43.752  26.350  30.777  1.00  0.00     0.031 C 
ATOM     37  C   UNL A   1      39.923  27.953  27.954  1.00  0.00     0.029 A 
ATOM     38  N   UNL A   1      40.143  28.846  29.994  1.00  0.00    -0.354 N 
ATOM     39  C   UNL A   1      43.303  27.591  32.648  1.00  0.00     0.074 A 
ATOM     40  C   UNL A   1      44.166  26.623  32.008  1.00  0.00     0.031 C 
ATOM     41  C   UNL A   1      38.974  28.894  28.087  1.00  0.00     0.029 A 
ATOM     42  C   UNL A   1      39.056  29.465  29.428  1.00  0.00     0.049 A 
ATOM     43  H   UNL A   1      40.481  29.063  30.893  1.00  0.00     0.167 HD
ATOM     44  C   UNL A   1      43.500  28.084  33.894  1.00  0.00     0.031 A 
ATOM     45  C   UNL A   1      38.202  30.367  29.945  1.00  0.00     0.031 A 
ATOM     46  C   UNL A   1      42.640  29.045  34.532  1.00  0.00     0.049 A 
ATOM     47  C   UNL A   1      38.392  30.833  31.361  1.00  0.00     0.074 A 
ATOM     48  C   UNL A   1      42.743  29.589  35.802  1.00  0.00     0.029 A 
ATOM     49  N   UNL A   1      41.519  29.608  33.946  1.00  0.00    -0.354 N 
ATOM     50  N   UNL A   1      39.337  30.519  32.213  1.00  0.00    -0.248 NA
ATOM     51  C   UNL A   1      37.391  31.772  31.888  1.00  0.00     0.031 C 
ATOM     52  C   UNL A   1      41.663  30.455  35.995  1.00  0.00     0.029 A 
ATOM     53  C   UNL A   1      40.911  30.484  34.832  1.00  0.00     0.049 A 
ATOM     54  H   UNL A   1      41.200  29.415  33.035  1.00  0.00     0.167 HD
ATOM     55  C   UNL A   1      39.056  31.235  33.369  1.00  0.00     0.074 A 
ATOM     56  C   UNL A   1      37.862  32.011  33.104  1.00  0.00     0.031 C 
ATOM     57  C   UNL A   1      39.725  31.246  34.548  1.00  0.00     0.031 A 
BRANCH  44  58
ATOM     58  C   UNL A   1      44.676  27.557  34.665  1.00  0.00    -0.014 A 
ATOM     59  C   UNL A   1      45.929  28.186  34.600  1.00  0.00     0.009 A 
ATOM     60  C   UNL A   1      44.519  26.431  35.487  1.00  0.00     0.009 A 
ATOM     61  C   UNL A   1      47.010  27.678  35.324  1.00  0.00     0.001 A 
ATOM     62  C   UNL A   1      45.597  25.940  36.227  1.00  0.00     0.001 A 
ATOM     63  C   UNL A   1      46.842  26.558  36.139  1.00  0.00     0.000 A 
ENDBRANCH  44  58
BRANCH  45  64
ATOM     64  C   UNL A   1      37.060  30.861  29.134  1.00  0.00    -0.014 A 
ATOM     65  C   UNL A   1      36.996  32.203  28.730  1.00  0.00     0.009 A 
ATOM     66  C   UNL A   1      36.017  29.993  28.775  1.00  0.00     0.009 A 
ATOM     67  C   UNL A   1      35.901  32.669  28.000  1.00  0.00     0.001 A 
ATOM     68  C   UNL A   1      34.936  30.455  28.022  1.00  0.00     0.001 A 
ATOM     69  C   UNL A   1      34.875  31.794  27.643  1.00  0.00     0.000 A 
ENDBRANCH  45  64
BRANCH  57  70
ATOM     70  C   UNL A   1      39.198  32.154  35.621  1.00  0.00    -0.014 A 
ATOM     71  C   UNL A   1      39.676  33.465  35.761  1.00  0.00     0.009 A 
ATOM     72  C   UNL A   1      38.190  31.698  36.484  1.00  0.00     0.009 A 
ATOM     73  C   UNL A   1      39.174  34.293  36.766  1.00  0.00     0.001 A 
ATOM     74  C   UNL A   1      37.675  32.535  37.473  1.00  0.00     0.001 A 
ATOM     75  C   UNL A   1      38.172  33.829  37.619  1.00  0.00     0.000 A 
ENDBRANCH  57  70
ENDBRANCH  31  32
ENDBRANCH  24  26
ENDBRANCH  23  24
ENDBRANCH  22  23
ENDBRANCH   1  22
TORSDOF 13
ENDMDL
MODEL 3
REMARK VINA RESULT:     -10.3      4.324      6.668
REMARK SMILES CC(C)N1C[C@@H](C(=O)N2CCC(C(=O)OCCOC(=O)c3ccc(-c4c5nc(c(-c6ccccc6)c6ccc([nH]6)c(-c6ccccc6)c6nc(c(-c7ccccc7)c7ccc4[nH]7)C=C6)C=C5)cc3)CC2)CC1=O
REMARK SMILES IDX 16 1 15 2 13 3 14 4 12 5 7 6 8 7 9 8 10 9 70 10 11 11 69 12
REMARK SMILES IDX 6 13 4 14 5 15 72 16 71 17 73 18 2 19 1 20 3 21 17 22 18 23
REMARK SMILES IDX 19 24 20 25 21 26 22 27 68 28 23 29 67 30 24 31 25 32 26 33
REMARK SMILES IDX 61 34 27 35 66 36 60 37 62 38 28 39 65 40 59 41 58 42 29 44
REMARK SMILES IDX 51 45 36 46 50 47 37 48 40 49 49 50 63 51 38 52 39 53 48 55
REMARK SMILES IDX 64 56 41 57 30 58 31 59 35 60 32 61 34 62 33 63 52 64 53 65
REMARK SMILES IDX 57 66 54 67 56 68 55 69 42 70 43 71 47 72 44 73 46 74 45 75
REMARK H PARENT 62 43 40 54
REMARK Flexibility Score: inf
ROOT
ATOM      1  C   UNL A   1      34.221  34.557  29.644  1.00  0.00     0.274 C 
ENDROOT
BRANCH   1   2
ATOM      2  O   UNL A   1      33.514  33.509  28.955  1.00  0.00    -0.462 OA
BRANCH   2   3
ATOM      3  C   UNL A   1      34.233  32.775  28.072  1.00  0.00     0.309 C 
ATOM      4  O   UNL A   1      35.220  33.176  27.464  1.00  0.00    -0.252 OA
BRANCH   3   5
ATOM      5  C   UNL A   1      33.720  31.358  27.916  1.00  0.00     0.103 C 
ATOM      6  C   UNL A   1      33.367  28.162  25.486  1.00  0.00     0.227 C 
ATOM      7  O   UNL A   1      32.931  28.694  24.460  1.00  0.00    -0.274 OA
ATOM      8  N   UNL A   1      33.252  28.797  26.710  1.00  0.00    -0.342 N 
ATOM      9  C   UNL A   1      32.135  29.723  26.893  1.00  0.00     0.120 C 
ATOM     10  C   UNL A   1      34.334  28.943  27.677  1.00  0.00     0.120 C 
ATOM     11  C   UNL A   1      32.608  31.172  26.881  1.00  0.00     0.037 C 
ATOM     12  C   UNL A   1      34.867  30.379  27.655  1.00  0.00     0.037 C 
BRANCH   6  13
ATOM     13  C   UNL A   1      33.808  26.707  25.417  1.00  0.00     0.107 C 
ATOM     14  N   UNL A   1      33.791  24.782  24.085  1.00  0.00    -0.339 N 
ATOM     15  C   UNL A   1      33.804  26.221  23.979  1.00  0.00     0.133 C 
ATOM     16  C   UNL A   1      33.385  24.373  25.351  1.00  0.00     0.223 C 
ATOM     17  C   UNL A   1      33.118  25.602  26.192  1.00  0.00     0.115 C 
ATOM     18  O   UNL A   1      33.209  23.234  25.749  1.00  0.00    -0.275 OA
BRANCH  14  19
ATOM     19  C   UNL A   1      34.106  23.940  22.921  1.00  0.00     0.078 C 
ATOM     20  C   UNL A   1      35.368  23.108  23.166  1.00  0.00     0.031 C 
ATOM     21  C   UNL A   1      32.973  23.025  22.458  1.00  0.00     0.031 C 
ENDBRANCH  14  19
ENDBRANCH   6  13
ENDBRANCH   3   5
ENDBRANCH   2   3
ENDBRANCH   1   2
BRANCH   1  22
ATOM     22  C   UNL A   1      34.413  34.215  31.124  1.00  0.00     0.275 C 
BRANCH  22  23
ATOM     23  O   UNL A   1      34.638  32.805  31.322  1.00  0.00    -0.458 OA
BRANCH  23  24
ATOM     24  C   UNL A   1      35.503  32.497  32.314  1.00  0.00     0.338 C 
ATOM     25  O   UNL A   1      35.277  32.439  33.510  1.00  0.00    -0.246 OA
BRANCH  24  26
ATOM     26  C   UNL A   1      36.798  32.099  31.744  1.00  0.00     0.060 A 
ATOM     27  C   UNL A   1      36.962  32.201  30.362  1.00  0.00     0.016 A 
ATOM     28  C   UNL A   1      37.794  31.521  32.532  1.00  0.00     0.016 A 
ATOM     29  C   UNL A   1      38.114  31.720  29.750  1.00  0.00     0.010 A 
ATOM     30  C   UNL A   1      38.957  31.043  31.918  1.00  0.00     0.010 A 
ATOM     31  C   UNL A   1      39.117  31.127  30.524  1.00  0.00    -0.014 A 
BRANCH  31  32
ATOM     32  C   UNL A   1      40.305  30.548  29.855  1.00  0.00     0.031 A 
ATOM     33  C   UNL A   1      41.565  31.355  29.738  1.00  0.00     0.074 A 
ATOM     34  C   UNL A   1      40.266  29.285  29.391  1.00  0.00     0.049 A 
ATOM     35  N   UNL A   1      42.679  31.063  29.115  1.00  0.00    -0.248 NA
ATOM     36  C   UNL A   1      41.576  32.662  30.414  1.00  0.00     0.031 C 
ATOM     37  C   UNL A   1      39.126  28.374  29.510  1.00  0.00     0.029 A 
ATOM     38  N   UNL A   1      41.216  28.551  28.729  1.00  0.00    -0.354 N 
ATOM     39  C   UNL A   1      43.514  32.154  29.305  1.00  0.00     0.074 A 
ATOM     40  C   UNL A   1      42.778  33.121  30.091  1.00  0.00     0.031 C 
ATOM     41  C   UNL A   1      39.447  27.198  28.944  1.00  0.00     0.029 A 
ATOM     42  C   UNL A   1      40.789  27.294  28.378  1.00  0.00     0.049 A 
ATOM     43  H   UNL A   1      42.117  28.891  28.526  1.00  0.00     0.167 HD
ATOM     44  C   UNL A   1      44.782  32.336  28.863  1.00  0.00     0.031 A 
ATOM     45  C   UNL A   1      41.400  26.338  27.653  1.00  0.00     0.031 A 
ATOM     46  C   UNL A   1      45.513  31.377  28.079  1.00  0.00     0.049 A 
ATOM     47  C   UNL A   1      42.772  26.598  27.100  1.00  0.00     0.074 A 
ATOM     48  C   UNL A   1      46.795  31.477  27.565  1.00  0.00     0.029 A 
ATOM     49  N   UNL A   1      45.026  30.137  27.699  1.00  0.00    -0.354 N 
ATOM     50  N   UNL A   1      43.539  27.651  27.255  1.00  0.00    -0.248 NA
ATOM     51  C   UNL A   1      43.360  25.541  26.266  1.00  0.00     0.031 C 
ATOM     52  C   UNL A   1      47.069  30.312  26.842  1.00  0.00     0.029 A 
ATOM     53  C   UNL A   1      45.975  29.467  26.944  1.00  0.00     0.049 A 
ATOM     54  H   UNL A   1      44.137  29.783  27.930  1.00  0.00     0.167 HD
ATOM     55  C   UNL A   1      44.705  27.375  26.554  1.00  0.00     0.074 A 
ATOM     56  C   UNL A   1      44.551  26.051  25.987  1.00  0.00     0.031 C 
ATOM     57  C   UNL A   1      45.804  28.151  26.391  1.00  0.00     0.031 A 
BRANCH  44  58
ATOM     58  C   UNL A   1      45.443  33.644  29.188  1.00  0.00    -0.014 A 
ATOM     59  C   UNL A   1      46.196  33.807  30.361  1.00  0.00     0.009 A 
ATOM     60  C   UNL A   1      45.333  34.719  28.294  1.00  0.00     0.009 A 
ATOM     61  C   UNL A   1      46.802  35.033  30.645  1.00  0.00     0.001 A 
ATOM     62  C   UNL A   1      45.959  35.936  28.569  1.00  0.00     0.001 A 
ATOM     63  C   UNL A   1      46.686  36.095  29.747  1.00  0.00     0.000 A 
ENDBRANCH  44  58
BRANCH  45  64
ATOM     64  C   UNL A   1      40.701  25.059  27.369  1.00  0.00    -0.014 A 
ATOM     65  C   UNL A   1      39.567  25.031  26.544  1.00  0.00     0.009 A 
ATOM     66  C   UNL A   1      41.158  23.859  27.937  1.00  0.00     0.009 A 
ATOM     67  C   UNL A   1      38.893  23.830  26.311  1.00  0.00     0.001 A 
ATOM     68  C   UNL A   1      40.498  22.656  27.681  1.00  0.00     0.001 A 
ATOM     69  C   UNL A   1      39.362  22.643  26.876  1.00  0.00     0.000 A 
ENDBRANCH  45  64
BRANCH  57  70
ATOM     70  C   UNL A   1      46.937  27.568  25.597  1.00  0.00    -0.014 A 
ATOM     71  C   UNL A   1      47.894  26.739  26.202  1.00  0.00     0.009 A 
ATOM     72  C   UNL A   1      47.029  27.829  24.222  1.00  0.00     0.009 A 
ATOM     73  C   UNL A   1      48.941  26.207  25.447  1.00  0.00     0.001 A 
ATOM     74  C   UNL A   1      48.064  27.277  23.466  1.00  0.00     0.001 A 
ATOM     75  C   UNL A   1      49.023  26.474  24.080  1.00  0.00     0.000 A 
ENDBRANCH  57  70
ENDBRANCH  31  32
ENDBRANCH  24  26
ENDBRANCH  23  24
ENDBRANCH  22  23
ENDBRANCH   1  22
TORSDOF 13
ENDMDL
