MODEL 1
REMARK VINA RESULT:     -11.7      0.000      0.000
REMARK SMILES CCOc1ccc(CNC(=O)Cc2c(C(=O)OCCOC(=O)c3ccc(-c4c5nc(c(-c6ccccc6)c6ccc([nH]6)c(-c6ccccc6)c6nc(c(-c7ccccc7)c7ccc4[nH]7)C=C6)C=C5)cc3)c(C)cn2C)cc1
REMARK SMILES IDX 15 1 16 2 14 3 13 4 74 5 71 6 73 7 75 8 72 9 12 10 10 11
REMARK SMILES IDX 9 12 11 14 8 15 7 16 4 17 5 18 77 19 6 20 76 21 3 22 2 23
REMARK SMILES IDX 1 24 17 25 18 26 19 27 20 28 21 29 22 30 23 31 24 32 70 33
REMARK SMILES IDX 25 34 69 35 26 36 27 37 28 38 63 39 29 40 68 41 62 42 64 43
REMARK SMILES IDX 30 44 67 45 61 46 60 47 31 49 53 50 38 51 52 52 39 53 42 54
REMARK SMILES IDX 51 55 65 56 40 57 41 58 50 60 66 61 43 62 32 63 33 64 37 65
REMARK SMILES IDX 34 66 36 67 35 68 54 69 55 70 59 71 56 72 58 73 57 74 44 75
REMARK SMILES IDX 45 76 49 77 46 78 48 79 47 80
REMARK H PARENT 9 13 64 48 42 59
REMARK Flexibility Score: inf
ROOT
ATOM      1  C   UNL A   1      34.721  21.958  26.273  1.00  0.00     0.340 C 
ATOM      2  O   UNL A   1      34.545  21.420  27.364  1.00  0.00    -0.246 OA
ENDROOT
BRANCH   1   3
ATOM      3  C   UNL A   1      33.694  22.003  25.212  1.00  0.00     0.084 A 
ATOM      4  C   UNL A   1      32.841  23.078  24.893  1.00  0.00     0.041 A 
ATOM      5  N   UNL A   1      31.998  22.636  23.886  1.00  0.00    -0.353 N 
ATOM      6  C   UNL A   1      33.308  20.900  24.365  1.00  0.00    -0.019 A 
ATOM      7  C   UNL A   1      32.271  21.337  23.574  1.00  0.00     0.089 A 
ATOM      8  C   UNL A   1      30.943  23.394  23.242  1.00  0.00     0.149 C 
ATOM      9  C   UNL A   1      33.873  19.523  24.355  1.00  0.00     0.047 C 
BRANCH   4  10
ATOM     10  C   UNL A   1      32.741  24.504  25.400  1.00  0.00     0.154 C 
BRANCH  10  11
ATOM     11  C   UNL A   1      31.705  24.764  26.479  1.00  0.00     0.226 C 
ATOM     12  N   UNL A   1      31.175  26.011  26.651  1.00  0.00    -0.352 N 
ATOM     13  H   UNL A   1      30.349  26.056  27.184  1.00  0.00     0.163 HD
ATOM     14  O   UNL A   1      31.393  23.880  27.282  1.00  0.00    -0.275 OA
BRANCH  12  15
ATOM     15  C   UNL A   1      31.670  27.273  26.154  1.00  0.00     0.151 C 
BRANCH  15  16
ATOM     16  C   UNL A   1      30.948  27.785  24.935  1.00  0.00    -0.029 A 
ATOM     17  C   UNL A   1      29.398  28.824  22.823  1.00  0.00     0.119 A 
ATOM     18  C   UNL A   1      30.260  29.656  23.514  1.00  0.00     0.047 A 
ATOM     19  C   UNL A   1      29.350  27.467  23.139  1.00  0.00     0.047 A 
ATOM     20  C   UNL A   1      31.032  29.125  24.546  1.00  0.00     0.009 A 
ATOM     21  C   UNL A   1      30.096  26.955  24.205  1.00  0.00     0.009 A 
BRANCH  17  22
ATOM     22  O   UNL A   1      28.719  29.358  21.767  1.00  0.00    -0.494 OA
BRANCH  22  23
ATOM     23  C   UNL A   1      28.152  30.645  22.037  1.00  0.00     0.226 C 
ATOM     24  C   UNL A   1      28.030  31.478  20.773  1.00  0.00     0.049 C 
ENDBRANCH  22  23
ENDBRANCH  17  22
ENDBRANCH  15  16
ENDBRANCH  12  15
ENDBRANCH  10  11
ENDBRANCH   4  10
ENDBRANCH   1   3
BRANCH   1  25
ATOM     25  O   UNL A   1      35.903  22.550  25.924  1.00  0.00    -0.458 OA
BRANCH  25  26
ATOM     26  C   UNL A   1      36.566  22.045  24.749  1.00  0.00     0.275 C 
BRANCH  26  27
ATOM     27  C   UNL A   1      37.461  20.852  25.066  1.00  0.00     0.275 C 
BRANCH  27  28
ATOM     28  O   UNL A   1      38.649  21.288  25.713  1.00  0.00    -0.458 OA
BRANCH  28  29
ATOM     29  C   UNL A   1      39.641  20.372  25.751  1.00  0.00     0.338 C 
ATOM     30  O   UNL A   1      39.582  19.204  25.406  1.00  0.00    -0.246 OA
BRANCH  29  31
ATOM     31  C   UNL A   1      40.819  20.968  26.376  1.00  0.00     0.060 A 
ATOM     32  C   UNL A   1      40.933  20.824  27.763  1.00  0.00     0.016 A 
ATOM     33  C   UNL A   1      41.528  21.933  25.652  1.00  0.00     0.016 A 
ATOM     34  C   UNL A   1      41.521  21.846  28.463  1.00  0.00     0.010 A 
ATOM     35  C   UNL A   1      42.105  22.954  26.349  1.00  0.00     0.010 A 
ATOM     36  C   UNL A   1      41.967  22.948  27.734  1.00  0.00    -0.014 A 
BRANCH  36  37
ATOM     37  C   UNL A   1      42.224  24.178  28.435  1.00  0.00     0.031 A 
ATOM     38  C   UNL A   1      41.232  25.227  28.138  1.00  0.00     0.074 A 
ATOM     39  C   UNL A   1      43.207  24.227  29.354  1.00  0.00     0.049 A 
ATOM     40  N   UNL A   1      41.430  26.348  27.532  1.00  0.00    -0.248 NA
ATOM     41  C   UNL A   1      39.813  24.906  28.373  1.00  0.00     0.031 C 
ATOM     42  C   UNL A   1      44.045  23.136  29.870  1.00  0.00     0.029 A 
ATOM     43  N   UNL A   1      43.584  25.274  30.124  1.00  0.00    -0.354 N 
ATOM     44  C   UNL A   1      40.185  26.959  27.478  1.00  0.00     0.074 A 
ATOM     45  C   UNL A   1      39.214  25.950  27.805  1.00  0.00     0.031 C 
ATOM     46  C   UNL A   1      44.624  23.530  31.030  1.00  0.00     0.029 A 
ATOM     47  C   UNL A   1      44.297  24.926  31.261  1.00  0.00     0.049 A 
ATOM     48  H   UNL A   1      43.369  26.207  29.895  1.00  0.00     0.167 HD
ATOM     49  C   UNL A   1      40.061  28.312  27.457  1.00  0.00     0.031 A 
ATOM     50  C   UNL A   1      44.503  25.722  32.342  1.00  0.00     0.031 A 
ATOM     51  C   UNL A   1      41.300  28.955  27.104  1.00  0.00     0.049 A 
ATOM     52  C   UNL A   1      44.226  27.119  31.911  1.00  0.00     0.074 A 
ATOM     53  C   UNL A   1      42.102  28.948  25.980  1.00  0.00     0.029 A 
ATOM     54  N   UNL A   1      42.093  29.397  28.138  1.00  0.00    -0.354 N 
ATOM     55  N   UNL A   1      44.962  27.746  31.037  1.00  0.00    -0.248 NA
ATOM     56  C   UNL A   1      42.858  27.611  32.037  1.00  0.00     0.031 C 
ATOM     57  C   UNL A   1      43.435  28.924  26.483  1.00  0.00     0.029 A 
ATOM     58  C   UNL A   1      43.378  28.994  27.877  1.00  0.00     0.049 A 
ATOM     59  H   UNL A   1      41.793  29.909  28.923  1.00  0.00     0.167 HD
ATOM     60  C   UNL A   1      44.059  28.403  30.210  1.00  0.00     0.074 A 
ATOM     61  C   UNL A   1      42.782  28.351  30.925  1.00  0.00     0.031 C 
ATOM     62  C   UNL A   1      44.346  28.648  28.896  1.00  0.00     0.031 A 
BRANCH  49  63
ATOM     63  C   UNL A   1      38.952  29.030  28.174  1.00  0.00    -0.014 A 
ATOM     64  C   UNL A   1      38.878  28.931  29.572  1.00  0.00     0.009 A 
ATOM     65  C   UNL A   1      37.828  29.567  27.513  1.00  0.00     0.009 A 
ATOM     66  C   UNL A   1      37.714  29.292  30.260  1.00  0.00     0.001 A 
ATOM     67  C   UNL A   1      36.682  29.966  28.199  1.00  0.00     0.001 A 
ATOM     68  C   UNL A   1      36.615  29.801  29.573  1.00  0.00     0.000 A 
ENDBRANCH  49  63
BRANCH  50  69
ATOM     69  C   UNL A   1      44.547  25.306  33.765  1.00  0.00    -0.014 A 
ATOM     70  C   UNL A   1      43.377  25.027  34.489  1.00  0.00     0.009 A 
ATOM     71  C   UNL A   1      45.775  24.943  34.353  1.00  0.00     0.009 A 
ATOM     72  C   UNL A   1      43.436  24.395  35.742  1.00  0.00     0.001 A 
ATOM     73  C   UNL A   1      45.835  24.312  35.601  1.00  0.00     0.001 A 
ATOM     74  C   UNL A   1      44.664  24.029  36.292  1.00  0.00     0.000 A 
ENDBRANCH  50  69
BRANCH  62  75
ATOM     75  C   UNL A   1      45.730  28.287  28.403  1.00  0.00    -0.014 A 
ATOM     76  C   UNL A   1      46.088  26.977  28.026  1.00  0.00     0.009 A 
ATOM     77  C   UNL A   1      46.635  29.320  28.133  1.00  0.00     0.009 A 
ATOM     78  C   UNL A   1      47.320  26.711  27.419  1.00  0.00     0.001 A 
ATOM     79  C   UNL A   1      47.858  29.058  27.510  1.00  0.00     0.001 A 
ATOM     80  C   UNL A   1      48.203  27.755  27.157  1.00  0.00     0.000 A 
ENDBRANCH  62  75
ENDBRANCH  36  37
ENDBRANCH  29  31
ENDBRANCH  28  29
ENDBRANCH  27  28
ENDBRANCH  26  27
ENDBRANCH  25  26
ENDBRANCH   1  25
TORSDOF 17
ENDMDL
MODEL 2
REMARK VINA RESULT:     -11.5      3.860      9.209
REMARK SMILES CCOc1ccc(CNC(=O)Cc2c(C(=O)OCCOC(=O)c3ccc(-c4c5nc(c(-c6ccccc6)c6ccc([nH]6)c(-c6ccccc6)c6nc(c(-c7ccccc7)c7ccc4[nH]7)C=C6)C=C5)cc3)c(C)cn2C)cc1
REMARK SMILES IDX 15 1 16 2 14 3 13 4 74 5 71 6 73 7 75 8 72 9 12 10 10 11
REMARK SMILES IDX 9 12 11 14 8 15 7 16 4 17 5 18 77 19 6 20 76 21 3 22 2 23
REMARK SMILES IDX 1 24 17 25 18 26 19 27 20 28 21 29 22 30 23 31 24 32 70 33
REMARK SMILES IDX 25 34 69 35 26 36 27 37 28 38 63 39 29 40 68 41 62 42 64 43
REMARK SMILES IDX 30 44 67 45 61 46 60 47 31 49 53 50 38 51 52 52 39 53 42 54
REMARK SMILES IDX 51 55 65 56 40 57 41 58 50 60 66 61 43 62 32 63 33 64 37 65
REMARK SMILES IDX 34 66 36 67 35 68 54 69 55 70 59 71 56 72 58 73 57 74 44 75
REMARK SMILES IDX 45 76 49 77 46 78 48 79 47 80
REMARK H PARENT 9 13 64 48 42 59
REMARK Flexibility Score: inf
ROOT
ATOM      1  C   UNL A   1      31.751  28.845  23.647  1.00  0.00     0.340 C 
ATOM      2  O   UNL A   1      32.569  29.158  22.786  1.00  0.00    -0.246 OA
ENDROOT
BRANCH   1   3
ATOM      3  C   UNL A   1      31.009  27.568  23.641  1.00  0.00     0.084 A 
ATOM      4  C   UNL A   1      31.539  26.270  23.777  1.00  0.00     0.041 A 
ATOM      5  N   UNL A   1      30.481  25.387  23.632  1.00  0.00    -0.353 N 
ATOM      6  C   UNL A   1      29.596  27.416  23.389  1.00  0.00    -0.019 A 
ATOM      7  C   UNL A   1      29.323  26.067  23.394  1.00  0.00     0.089 A 
ATOM      8  C   UNL A   1      30.545  23.939  23.687  1.00  0.00     0.149 C 
ATOM      9  C   UNL A   1      28.600  28.490  23.123  1.00  0.00     0.047 C 
BRANCH   4  10
ATOM     10  C   UNL A   1      32.934  25.749  24.069  1.00  0.00     0.154 C 
BRANCH  10  11
ATOM     11  C   UNL A   1      33.741  25.280  22.871  1.00  0.00     0.226 C 
ATOM     12  N   UNL A   1      34.626  24.246  22.988  1.00  0.00    -0.352 N 
ATOM     13  H   UNL A   1      34.923  23.838  22.143  1.00  0.00     0.163 HD
ATOM     14  O   UNL A   1      33.685  25.883  21.795  1.00  0.00    -0.275 OA
BRANCH  12  15
ATOM     15  C   UNL A   1      35.185  23.675  24.191  1.00  0.00     0.151 C 
BRANCH  15  16
ATOM     16  C   UNL A   1      34.752  22.258  24.463  1.00  0.00    -0.029 A 
ATOM     17  C   UNL A   1      34.030  19.546  24.723  1.00  0.00     0.119 A 
ATOM     18  C   UNL A   1      35.316  19.947  25.038  1.00  0.00     0.047 A 
ATOM     19  C   UNL A   1      33.088  20.499  24.339  1.00  0.00     0.047 A 
ATOM     20  C   UNL A   1      35.654  21.293  24.920  1.00  0.00     0.009 A 
ATOM     21  C   UNL A   1      33.451  21.840  24.181  1.00  0.00     0.009 A 
BRANCH  17  22
ATOM     22  O   UNL A   1      33.711  18.235  24.928  1.00  0.00    -0.494 OA
BRANCH  22  23
ATOM     23  C   UNL A   1      34.588  17.318  24.266  1.00  0.00     0.226 C 
ATOM     24  C   UNL A   1      34.034  16.889  22.918  1.00  0.00     0.049 C 
ENDBRANCH  22  23
ENDBRANCH  17  22
ENDBRANCH  15  16
ENDBRANCH  12  15
ENDBRANCH  10  11
ENDBRANCH   4  10
ENDBRANCH   1   3
BRANCH   1  25
ATOM     25  O   UNL A   1      31.428  29.668  24.690  1.00  0.00    -0.458 OA
BRANCH  25  26
ATOM     26  C   UNL A   1      32.412  29.824  25.730  1.00  0.00     0.275 C 
BRANCH  26  27
ATOM     27  C   UNL A   1      31.992  30.862  26.765  1.00  0.00     0.275 C 
BRANCH  27  28
ATOM     28  O   UNL A   1      33.138  31.476  27.337  1.00  0.00    -0.458 OA
BRANCH  28  29
ATOM     29  C   UNL A   1      32.959  32.758  27.722  1.00  0.00     0.338 C 
ATOM     30  O   UNL A   1      32.044  33.502  27.413  1.00  0.00    -0.246 OA
BRANCH  29  31
ATOM     31  C   UNL A   1      34.108  33.184  28.518  1.00  0.00     0.060 A 
ATOM     32  C   UNL A   1      35.119  33.874  27.839  1.00  0.00     0.016 A 
ATOM     33  C   UNL A   1      34.309  32.571  29.760  1.00  0.00     0.016 A 
ATOM     34  C   UNL A   1      36.411  33.688  28.260  1.00  0.00     0.010 A 
ATOM     35  C   UNL A   1      35.595  32.378  30.173  1.00  0.00     0.010 A 
ATOM     36  C   UNL A   1      36.615  32.828  29.339  1.00  0.00    -0.014 A 
BRANCH  36  37
ATOM     37  C   UNL A   1      37.937  32.306  29.562  1.00  0.00     0.031 A 
ATOM     38  C   UNL A   1      38.047  30.868  29.253  1.00  0.00     0.074 A 
ATOM     39  C   UNL A   1      38.939  33.146  29.881  1.00  0.00     0.049 A 
ATOM     40  N   UNL A   1      38.289  29.904  30.074  1.00  0.00    -0.248 NA
ATOM     41  C   UNL A   1      37.652  30.432  27.902  1.00  0.00     0.031 C 
ATOM     42  C   UNL A   1      38.930  34.614  29.940  1.00  0.00     0.029 A 
ATOM     43  N   UNL A   1      40.241  32.853  30.105  1.00  0.00    -0.354 N 
ATOM     44  C   UNL A   1      38.261  28.751  29.301  1.00  0.00     0.074 A 
ATOM     45  C   UNL A   1      37.659  29.109  28.045  1.00  0.00     0.031 C 
ATOM     46  C   UNL A   1      40.206  35.069  29.919  1.00  0.00     0.029 A 
ATOM     47  C   UNL A   1      41.105  33.929  29.973  1.00  0.00     0.049 A 
ATOM     48  H   UNL A   1      40.549  31.949  30.344  1.00  0.00     0.167 HD
ATOM     49  C   UNL A   1      38.997  27.659  29.635  1.00  0.00     0.031 A 
ATOM     50  C   UNL A   1      42.453  33.850  29.822  1.00  0.00     0.031 A 
ATOM     51  C   UNL A   1      39.439  27.711  31.004  1.00  0.00     0.049 A 
ATOM     52  C   UNL A   1      42.858  32.486  30.260  1.00  0.00     0.074 A 
ATOM     53  C   UNL A   1      38.794  27.726  32.224  1.00  0.00     0.029 A 
ATOM     54  N   UNL A   1      40.706  28.198  31.234  1.00  0.00    -0.354 N 
ATOM     55  N   UNL A   1      42.754  32.082  31.495  1.00  0.00    -0.248 NA
ATOM     56  C   UNL A   1      42.867  31.424  29.259  1.00  0.00     0.031 C 
ATOM     57  C   UNL A   1      39.530  28.654  33.016  1.00  0.00     0.029 A 
ATOM     58  C   UNL A   1      40.623  29.097  32.267  1.00  0.00     0.049 A 
ATOM     59  H   UNL A   1      41.523  27.946  30.746  1.00  0.00     0.167 HD
ATOM     60  C   UNL A   1      42.255  30.788  31.411  1.00  0.00     0.074 A 
ATOM     61  C   UNL A   1      42.422  30.407  30.007  1.00  0.00     0.031 C 
ATOM     62  C   UNL A   1      41.469  30.264  32.399  1.00  0.00     0.031 A 
BRANCH  49  63
ATOM     63  C   UNL A   1      39.660  26.790  28.602  1.00  0.00    -0.014 A 
ATOM     64  C   UNL A   1      40.611  27.365  27.746  1.00  0.00     0.009 A 
ATOM     65  C   UNL A   1      39.189  25.505  28.259  1.00  0.00     0.009 A 
ATOM     66  C   UNL A   1      41.018  26.713  26.577  1.00  0.00     0.001 A 
ATOM     67  C   UNL A   1      39.624  24.834  27.117  1.00  0.00     0.001 A 
ATOM     68  C   UNL A   1      40.518  25.453  26.260  1.00  0.00     0.000 A 
ENDBRANCH  49  63
BRANCH  50  69
ATOM     69  C   UNL A   1      43.314  34.723  28.988  1.00  0.00    -0.014 A 
ATOM     70  C   UNL A   1      43.308  34.642  27.586  1.00  0.00     0.009 A 
ATOM     71  C   UNL A   1      43.975  35.822  29.571  1.00  0.00     0.009 A 
ATOM     72  C   UNL A   1      43.926  35.633  26.803  1.00  0.00     0.001 A 
ATOM     73  C   UNL A   1      44.589  36.809  28.792  1.00  0.00     0.001 A 
ATOM     74  C   UNL A   1      44.557  36.719  27.407  1.00  0.00     0.000 A 
ENDBRANCH  50  69
BRANCH  62  75
ATOM     75  C   UNL A   1      41.260  31.098  33.644  1.00  0.00    -0.014 A 
ATOM     76  C   UNL A   1      40.256  32.082  33.745  1.00  0.00     0.009 A 
ATOM     77  C   UNL A   1      41.965  30.755  34.805  1.00  0.00     0.009 A 
ATOM     78  C   UNL A   1      39.984  32.715  34.962  1.00  0.00     0.001 A 
ATOM     79  C   UNL A   1      41.681  31.375  36.025  1.00  0.00     0.001 A 
ATOM     80  C   UNL A   1      40.695  32.356  36.104  1.00  0.00     0.000 A 
ENDBRANCH  62  75
ENDBRANCH  36  37
ENDBRANCH  29  31
ENDBRANCH  28  29
ENDBRANCH  27  28
ENDBRANCH  26  27
ENDBRANCH  25  26
ENDBRANCH   1  25
TORSDOF 17
ENDMDL
MODEL 3
REMARK VINA RESULT:     -11.3      4.061      8.198
REMARK SMILES CCOc1ccc(CNC(=O)Cc2c(C(=O)OCCOC(=O)c3ccc(-c4c5nc(c(-c6ccccc6)c6ccc([nH]6)c(-c6ccccc6)c6nc(c(-c7ccccc7)c7ccc4[nH]7)C=C6)C=C5)cc3)c(C)cn2C)cc1
REMARK SMILES IDX 15 1 16 2 14 3 13 4 74 5 71 6 73 7 75 8 72 9 12 10 10 11
REMARK SMILES IDX 9 12 11 14 8 15 7 16 4 17 5 18 77 19 6 20 76 21 3 22 2 23
REMARK SMILES IDX 1 24 17 25 18 26 19 27 20 28 21 29 22 30 23 31 24 32 70 33
REMARK SMILES IDX 25 34 69 35 26 36 27 37 28 38 63 39 29 40 68 41 62 42 64 43
REMARK SMILES IDX 30 44 67 45 61 46 60 47 31 49 53 50 38 51 52 52 39 53 42 54
REMARK SMILES IDX 51 55 65 56 40 57 41 58 50 60 66 61 43 62 32 63 33 64 37 65
REMARK SMILES IDX 34 66 36 67 35 68 54 69 55 70 59 71 56 72 58 73 57 74 44 75
REMARK SMILES IDX 45 76 49 77 46 78 48 79 47 80
REMARK H PARENT 9 13 64 48 42 59
REMARK Flexibility Score: inf
ROOT
ATOM      1  C   UNL A   1      33.342  27.865  25.603  1.00  0.00     0.340 C 
ATOM      2  O   UNL A   1      33.439  27.247  26.661  1.00  0.00    -0.246 OA
ENDROOT
BRANCH   1   3
ATOM      3  C   UNL A   1      33.214  27.211  24.286  1.00  0.00     0.084 A 
ATOM      4  C   UNL A   1      32.708  25.924  24.016  1.00  0.00     0.041 A 
ATOM      5  N   UNL A   1      32.855  25.712  22.655  1.00  0.00    -0.353 N 
ATOM      6  C   UNL A   1      33.684  27.745  23.030  1.00  0.00    -0.019 A 
ATOM      7  C   UNL A   1      33.441  26.793  22.066  1.00  0.00     0.089 A 
ATOM      8  C   UNL A   1      32.482  24.521  21.916  1.00  0.00     0.149 C 
ATOM      9  C   UNL A   1      34.351  29.054  22.793  1.00  0.00     0.047 C 
BRANCH   4  10
ATOM     10  C   UNL A   1      32.060  24.865  24.887  1.00  0.00     0.154 C 
BRANCH  10  11
ATOM     11  C   UNL A   1      30.836  25.299  25.675  1.00  0.00     0.226 C 
ATOM     12  N   UNL A   1      29.692  25.680  25.031  1.00  0.00    -0.352 N 
ATOM     13  H   UNL A   1      28.878  25.707  25.584  1.00  0.00     0.163 HD
ATOM     14  O   UNL A   1      30.879  25.408  26.903  1.00  0.00    -0.275 OA
BRANCH  12  15
ATOM     15  C   UNL A   1      29.523  26.049  23.645  1.00  0.00     0.151 C 
BRANCH  15  16
ATOM     16  C   UNL A   1      29.060  27.467  23.434  1.00  0.00    -0.029 A 
ATOM     17  C   UNL A   1      28.150  30.053  22.778  1.00  0.00     0.119 A 
ATOM     18  C   UNL A   1      27.239  29.076  23.139  1.00  0.00     0.047 A 
ATOM     19  C   UNL A   1      29.513  29.764  22.803  1.00  0.00     0.047 A 
ATOM     20  C   UNL A   1      27.705  27.807  23.475  1.00  0.00     0.009 A 
ATOM     21  C   UNL A   1      29.966  28.474  23.099  1.00  0.00     0.009 A 
BRANCH  17  22
ATOM     22  O   UNL A   1      27.666  31.305  22.535  1.00  0.00    -0.494 OA
BRANCH  22  23
ATOM     23  C   UNL A   1      28.522  32.104  21.710  1.00  0.00     0.226 C 
ATOM     24  C   UNL A   1      28.022  32.162  20.277  1.00  0.00     0.049 C 
ENDBRANCH  22  23
ENDBRANCH  17  22
ENDBRANCH  15  16
ENDBRANCH  12  15
ENDBRANCH  10  11
ENDBRANCH   4  10
ENDBRANCH   1   3
BRANCH   1  25
ATOM     25  O   UNL A   1      33.371  29.231  25.543  1.00  0.00    -0.458 OA
BRANCH  25  26
ATOM     26  C   UNL A   1      32.113  29.919  25.679  1.00  0.00     0.275 C 
BRANCH  26  27
ATOM     27  C   UNL A   1      31.976  30.598  27.037  1.00  0.00     0.275 C 
BRANCH  27  28
ATOM     28  O   UNL A   1      33.162  31.316  27.348  1.00  0.00    -0.458 OA
BRANCH  28  29
ATOM     29  C   UNL A   1      32.965  32.604  27.705  1.00  0.00     0.338 C 
ATOM     30  O   UNL A   1      32.037  33.326  27.385  1.00  0.00    -0.246 OA
BRANCH  29  31
ATOM     31  C   UNL A   1      34.111  33.065  28.485  1.00  0.00     0.060 A 
ATOM     32  C   UNL A   1      35.113  33.744  27.784  1.00  0.00     0.016 A 
ATOM     33  C   UNL A   1      34.320  32.492  29.745  1.00  0.00     0.016 A 
ATOM     34  C   UNL A   1      36.408  33.583  28.207  1.00  0.00     0.010 A 
ATOM     35  C   UNL A   1      35.609  32.325  30.161  1.00  0.00     0.010 A 
ATOM     36  C   UNL A   1      36.623  32.759  29.311  1.00  0.00    -0.014 A 
BRANCH  36  37
ATOM     37  C   UNL A   1      37.950  32.256  29.547  1.00  0.00     0.031 A 
ATOM     38  C   UNL A   1      38.086  30.822  29.236  1.00  0.00     0.074 A 
ATOM     39  C   UNL A   1      38.936  33.112  29.878  1.00  0.00     0.049 A 
ATOM     40  N   UNL A   1      38.334  29.860  30.057  1.00  0.00    -0.248 NA
ATOM     41  C   UNL A   1      37.712  30.383  27.880  1.00  0.00     0.031 C 
ATOM     42  C   UNL A   1      38.903  34.579  29.940  1.00  0.00     0.029 A 
ATOM     43  N   UNL A   1      40.239  32.838  30.116  1.00  0.00    -0.354 N 
ATOM     44  C   UNL A   1      38.332  28.708  29.282  1.00  0.00     0.074 A 
ATOM     45  C   UNL A   1      37.738  29.059  28.020  1.00  0.00     0.031 C 
ATOM     46  C   UNL A   1      40.173  35.053  29.934  1.00  0.00     0.029 A 
ATOM     47  C   UNL A   1      41.088  33.928  29.996  1.00  0.00     0.049 A 
ATOM     48  H   UNL A   1      40.559  31.938  30.356  1.00  0.00     0.167 HD
ATOM     49  C   UNL A   1      39.081  27.626  29.621  1.00  0.00     0.031 A 
ATOM     50  C   UNL A   1      42.439  33.869  29.859  1.00  0.00     0.031 A 
ATOM     51  C   UNL A   1      39.508  27.682  30.994  1.00  0.00     0.049 A 
ATOM     52  C   UNL A   1      42.860  32.511  30.298  1.00  0.00     0.074 A 
ATOM     53  C   UNL A   1      38.849  27.684  32.207  1.00  0.00     0.029 A 
ATOM     54  N   UNL A   1      40.765  28.188  31.239  1.00  0.00    -0.354 N 
ATOM     55  N   UNL A   1      42.750  32.103  31.531  1.00  0.00    -0.248 NA
ATOM     56  C   UNL A   1      42.896  31.452  29.295  1.00  0.00     0.031 C 
ATOM     57  C   UNL A   1      39.563  28.622  33.010  1.00  0.00     0.029 A 
ATOM     58  C   UNL A   1      40.657  29.083  32.274  1.00  0.00     0.049 A 
ATOM     59  H   UNL A   1      41.591  27.950  30.760  1.00  0.00     0.167 HD
ATOM     60  C   UNL A   1      42.271  30.802  31.439  1.00  0.00     0.074 A 
ATOM     61  C   UNL A   1      42.459  30.427  30.036  1.00  0.00     0.031 C 
ATOM     62  C   UNL A   1      41.483  30.263  32.417  1.00  0.00     0.031 A 
BRANCH  49  63
ATOM     63  C   UNL A   1      39.768  26.770  28.593  1.00  0.00    -0.014 A 
ATOM     64  C   UNL A   1      40.726  27.360  27.755  1.00  0.00     0.009 A 
ATOM     65  C   UNL A   1      39.317  25.483  28.237  1.00  0.00     0.009 A 
ATOM     66  C   UNL A   1      41.156  26.719  26.588  1.00  0.00     0.001 A 
ATOM     67  C   UNL A   1      39.775  24.823  27.098  1.00  0.00     0.001 A 
ATOM     68  C   UNL A   1      40.675  25.455  26.256  1.00  0.00     0.000 A 
ENDBRANCH  49  63
BRANCH  50  69
ATOM     69  C   UNL A   1      43.295  34.758  29.036  1.00  0.00    -0.014 A 
ATOM     70  C   UNL A   1      44.447  35.365  29.561  1.00  0.00     0.009 A 
ATOM     71  C   UNL A   1      43.109  34.817  27.640  1.00  0.00     0.009 A 
ATOM     72  C   UNL A   1      45.381  35.990  28.717  1.00  0.00     0.001 A 
ATOM     73  C   UNL A   1      44.040  35.438  26.800  1.00  0.00     0.001 A 
ATOM     74  C   UNL A   1      45.182  36.017  27.338  1.00  0.00     0.000 A 
ENDBRANCH  50  69
BRANCH  62  75
ATOM     75  C   UNL A   1      41.248  31.090  33.662  1.00  0.00    -0.014 A 
ATOM     76  C   UNL A   1      42.080  31.014  34.797  1.00  0.00     0.009 A 
ATOM     77  C   UNL A   1      40.284  32.104  33.619  1.00  0.00     0.009 A 
ATOM     78  C   UNL A   1      41.933  31.910  35.862  1.00  0.00     0.001 A 
ATOM     79  C   UNL A   1      40.149  33.011  34.674  1.00  0.00     0.001 A 
ATOM     80  C   UNL A   1      40.970  32.912  35.797  1.00  0.00     0.000 A 
ENDBRANCH  62  75
ENDBRANCH  36  37
ENDBRANCH  29  31
ENDBRANCH  28  29
ENDBRANCH  27  28
ENDBRANCH  26  27
ENDBRANCH  25  26
ENDBRANCH   1  25
TORSDOF 17
ENDMDL
