MODEL 1
REMARK VINA RESULT:      -9.9      0.000      0.000
REMARK SMILES CC[C@H](C)[C@@H](NC(=O)c1csc(NC(C)=O)n1)C(=O)OCCOC(=O)c1ccc(-c2c3nc(c(-c4ccccc4)c4ccc([nH]4)c(-c4ccccc4)c4nc(c(-c5ccccc5)c5ccc2[nH]5)C=C4)C=C3)cc1
REMARK SMILES IDX 21 1 20 2 18 3 19 4 5 5 3 6 4 7 2 8 1 9 6 10 7 11 8 13 9 14
REMARK SMILES IDX 10 15 17 16 11 17 12 18 13 19 14 20 15 22 16 23 22 24 23 25
REMARK SMILES IDX 24 26 25 27 26 28 27 29 73 30 28 31 72 32 29 33 30 34 31 35
REMARK SMILES IDX 66 36 32 37 71 38 65 39 67 40 33 41 70 42 64 43 63 44 34 46
REMARK SMILES IDX 56 47 41 48 55 49 42 50 45 51 54 52 68 53 43 54 44 55 53 57
REMARK SMILES IDX 69 58 46 59 35 60 36 61 40 62 37 63 39 64 38 65 57 66 58 67
REMARK SMILES IDX 62 68 59 69 61 70 60 71 47 72 48 73 52 74 49 75 51 76 50 77
REMARK H PARENT 6 12 13 21 67 45 45 56
REMARK Flexibility Score: inf
ROOT
ATOM      1  C   UNL A   1      32.291  28.055  25.712  1.00  0.00     0.274 C 
ENDROOT
BRANCH   1   2
ATOM      2  O   UNL A   1      32.218  29.100  24.718  1.00  0.00    -0.461 OA
BRANCH   2   3
ATOM      3  C   UNL A   1      32.668  28.771  23.478  1.00  0.00     0.329 C 
ATOM      4  O   UNL A   1      33.598  29.333  22.910  1.00  0.00    -0.250 OA
BRANCH   3   5
ATOM      5  C   UNL A   1      31.915  27.592  22.833  1.00  0.00     0.195 C 
BRANCH   5   6
ATOM      6  C   UNL A   1      30.448  28.011  22.452  1.00  0.00     0.019 C 
ATOM      7  C   UNL A   1      29.425  27.517  23.493  1.00  0.00     0.010 C 
BRANCH   6   8
ATOM      8  C   UNL A   1      30.255  29.536  22.288  1.00  0.00     0.002 C 
ATOM      9  C   UNL A   1      29.124  30.079  23.153  1.00  0.00     0.004 C 
ENDBRANCH   6   8
ENDBRANCH   5   6
BRANCH   5  10
ATOM     10  N   UNL A   1      32.570  26.961  21.662  1.00  0.00    -0.337 N 
ATOM     11  C   UNL A   1      32.854  25.659  21.325  1.00  0.00     0.271 C 
ATOM     12  H   UNL A   1      32.863  27.612  20.984  1.00  0.00     0.164 HD
ATOM     13  O   UNL A   1      33.022  25.407  20.132  1.00  0.00    -0.267 OA
BRANCH  11  14
ATOM     14  C   UNL A   1      33.156  24.682  22.360  1.00  0.00     0.141 A 
ATOM     15  C   UNL A   1      32.166  23.960  23.005  1.00  0.00     0.102 A 
ATOM     16  N   UNL A   1      34.437  24.384  22.790  1.00  0.00    -0.215 NA
ATOM     17  S   UNL A   1      32.872  22.762  24.003  1.00  0.00    -0.104 S 
ATOM     18  C   UNL A   1      34.412  23.286  23.510  1.00  0.00     0.190 A 
BRANCH  18  19
ATOM     19  N   UNL A   1      35.567  22.583  23.750  1.00  0.00    -0.302 N 
ATOM     20  C   UNL A   1      36.310  22.607  24.907  1.00  0.00     0.223 C 
ATOM     21  H   UNL A   1      35.894  22.004  23.023  1.00  0.00     0.172 HD
ATOM     22  C   UNL A   1      37.407  21.571  24.925  1.00  0.00     0.114 C 
ATOM     23  O   UNL A   1      36.127  23.315  25.892  1.00  0.00    -0.275 OA
ENDBRANCH  18  19
ENDBRANCH  11  14
ENDBRANCH   5  10
ENDBRANCH   3   5
ENDBRANCH   2   3
ENDBRANCH   1   2
BRANCH   1  24
ATOM     24  C   UNL A   1      33.022  28.415  27.016  1.00  0.00     0.275 C 
BRANCH  24  25
ATOM     25  O   UNL A   1      34.314  29.010  26.779  1.00  0.00    -0.458 OA
BRANCH  25  26
ATOM     26  C   UNL A   1      34.621  30.066  27.568  1.00  0.00     0.338 C 
ATOM     27  O   UNL A   1      33.881  30.983  27.897  1.00  0.00    -0.246 OA
BRANCH  26  28
ATOM     28  C   UNL A   1      35.987  29.945  28.106  1.00  0.00     0.060 A 
ATOM     29  C   UNL A   1      37.071  30.118  27.237  1.00  0.00     0.016 A 
ATOM     30  C   UNL A   1      36.198  29.484  29.405  1.00  0.00     0.016 A 
ATOM     31  C   UNL A   1      38.365  29.812  27.643  1.00  0.00     0.010 A 
ATOM     32  C   UNL A   1      37.499  29.166  29.813  1.00  0.00     0.010 A 
ATOM     33  C   UNL A   1      38.580  29.298  28.923  1.00  0.00    -0.014 A 
BRANCH  33  34
ATOM     34  C   UNL A   1      39.911  28.753  29.271  1.00  0.00     0.031 A 
ATOM     35  C   UNL A   1      40.848  29.596  30.088  1.00  0.00     0.074 A 
ATOM     36  C   UNL A   1      40.264  27.509  28.904  1.00  0.00     0.049 A 
ATOM     37  N   UNL A   1      42.100  29.378  30.398  1.00  0.00    -0.248 NA
ATOM     38  C   UNL A   1      40.298  30.847  30.635  1.00  0.00     0.031 C 
ATOM     39  C   UNL A   1      39.406  26.555  28.203  1.00  0.00     0.029 A 
ATOM     40  N   UNL A   1      41.449  26.841  29.072  1.00  0.00    -0.354 N 
ATOM     41  C   UNL A   1      42.497  30.480  31.145  1.00  0.00     0.074 A 
ATOM     42  C   UNL A   1      41.355  31.361  31.248  1.00  0.00     0.031 C 
ATOM     43  C   UNL A   1      40.099  25.424  27.988  1.00  0.00     0.029 A 
ATOM     44  C   UNL A   1      41.461  25.597  28.490  1.00  0.00     0.049 A 
ATOM     45  H   UNL A   1      42.216  27.215  29.562  1.00  0.00     0.167 HD
ATOM     46  C   UNL A   1      43.709  30.737  31.690  1.00  0.00     0.031 A 
ATOM     47  C   UNL A   1      42.469  24.718  28.344  1.00  0.00     0.031 A 
ATOM     48  C   UNL A   1      44.842  29.858  31.589  1.00  0.00     0.049 A 
ATOM     49  C   UNL A   1      43.833  25.068  28.871  1.00  0.00     0.074 A 
ATOM     50  C   UNL A   1      46.120  30.035  32.092  1.00  0.00     0.029 A 
ATOM     51  N   UNL A   1      44.831  28.635  30.940  1.00  0.00    -0.354 N 
ATOM     52  N   UNL A   1      44.215  26.133  29.534  1.00  0.00    -0.248 NA
ATOM     53  C   UNL A   1      44.910  24.099  28.617  1.00  0.00     0.031 C 
ATOM     54  C   UNL A   1      46.893  28.932  31.712  1.00  0.00     0.029 A 
ATOM     55  C   UNL A   1      46.084  28.051  31.010  1.00  0.00     0.049 A 
ATOM     56  H   UNL A   1      44.047  28.238  30.496  1.00  0.00     0.167 HD
ATOM     57  C   UNL A   1      45.568  25.955  29.791  1.00  0.00     0.074 A 
ATOM     58  C   UNL A   1      45.938  24.675  29.224  1.00  0.00     0.031 C 
ATOM     59  C   UNL A   1      46.428  26.777  30.439  1.00  0.00     0.031 A 
BRANCH  46  60
ATOM     60  C   UNL A   1      43.882  32.051  32.391  1.00  0.00    -0.014 A 
ATOM     61  C   UNL A   1      44.286  33.203  31.700  1.00  0.00     0.009 A 
ATOM     62  C   UNL A   1      43.621  32.138  33.767  1.00  0.00     0.009 A 
ATOM     63  C   UNL A   1      44.451  34.412  32.381  1.00  0.00     0.001 A 
ATOM     64  C   UNL A   1      43.766  33.351  34.442  1.00  0.00     0.001 A 
ATOM     65  C   UNL A   1      44.189  34.485  33.749  1.00  0.00     0.000 A 
ENDBRANCH  46  60
BRANCH  47  66
ATOM     66  C   UNL A   1      42.245  23.443  27.619  1.00  0.00    -0.014 A 
ATOM     67  C   UNL A   1      41.738  22.319  28.288  1.00  0.00     0.009 A 
ATOM     68  C   UNL A   1      42.553  23.340  26.252  1.00  0.00     0.009 A 
ATOM     69  C   UNL A   1      41.562  21.112  27.605  1.00  0.00     0.001 A 
ATOM     70  C   UNL A   1      42.353  22.140  25.568  1.00  0.00     0.001 A 
ATOM     71  C   UNL A   1      41.865  21.025  26.247  1.00  0.00     0.000 A 
ENDBRANCH  47  66
BRANCH  59  72
ATOM     72  C   UNL A   1      47.842  26.300  30.595  1.00  0.00    -0.014 A 
ATOM     73  C   UNL A   1      48.786  26.485  29.574  1.00  0.00     0.009 A 
ATOM     74  C   UNL A   1      48.242  25.693  31.795  1.00  0.00     0.009 A 
ATOM     75  C   UNL A   1      50.101  26.047  29.744  1.00  0.00     0.001 A 
ATOM     76  C   UNL A   1      49.562  25.277  31.971  1.00  0.00     0.001 A 
ATOM     77  C   UNL A   1      50.489  25.446  30.942  1.00  0.00     0.000 A 
ENDBRANCH  59  72
ENDBRANCH  33  34
ENDBRANCH  26  28
ENDBRANCH  25  26
ENDBRANCH  24  25
ENDBRANCH   1  24
TORSDOF 16
ENDMDL
MODEL 2
REMARK VINA RESULT:      -9.9      2.968      7.016
REMARK SMILES CC[C@H](C)[C@@H](NC(=O)c1csc(NC(C)=O)n1)C(=O)OCCOC(=O)c1ccc(-c2c3nc(c(-c4ccccc4)c4ccc([nH]4)c(-c4ccccc4)c4nc(c(-c5ccccc5)c5ccc2[nH]5)C=C4)C=C3)cc1
REMARK SMILES IDX 21 1 20 2 18 3 19 4 5 5 3 6 4 7 2 8 1 9 6 10 7 11 8 13 9 14
REMARK SMILES IDX 10 15 17 16 11 17 12 18 13 19 14 20 15 22 16 23 22 24 23 25
REMARK SMILES IDX 24 26 25 27 26 28 27 29 73 30 28 31 72 32 29 33 30 34 31 35
REMARK SMILES IDX 66 36 32 37 71 38 65 39 67 40 33 41 70 42 64 43 63 44 34 46
REMARK SMILES IDX 56 47 41 48 55 49 42 50 45 51 54 52 68 53 43 54 44 55 53 57
REMARK SMILES IDX 69 58 46 59 35 60 36 61 40 62 37 63 39 64 38 65 57 66 58 67
REMARK SMILES IDX 62 68 59 69 61 70 60 71 47 72 48 73 52 74 49 75 51 76 50 77
REMARK H PARENT 6 12 13 21 67 45 45 56
REMARK Flexibility Score: inf
ROOT
ATOM      1  C   UNL A   1      35.987  19.502  24.669  1.00  0.00     0.274 C 
ENDROOT
BRANCH   1   2
ATOM      2  O   UNL A   1      35.289  20.546  25.381  1.00  0.00    -0.461 OA
BRANCH   2   3
ATOM      3  C   UNL A   1      34.109  20.948  24.840  1.00  0.00     0.329 C 
ATOM      4  O   UNL A   1      33.105  20.248  24.776  1.00  0.00    -0.250 OA
BRANCH   3   5
ATOM      5  C   UNL A   1      34.123  22.398  24.319  1.00  0.00     0.195 C 
BRANCH   5   6
ATOM      6  C   UNL A   1      35.511  23.078  24.604  1.00  0.00     0.019 C 
ATOM      7  C   UNL A   1      36.412  23.085  23.355  1.00  0.00     0.010 C 
BRANCH   6   8
ATOM      8  C   UNL A   1      35.402  24.534  25.114  1.00  0.00     0.002 C 
ATOM      9  C   UNL A   1      34.183  24.753  26.001  1.00  0.00     0.004 C 
ENDBRANCH   6   8
ENDBRANCH   5   6
BRANCH   5  10
ATOM     10  N   UNL A   1      33.765  22.583  22.892  1.00  0.00    -0.337 N 
ATOM     11  C   UNL A   1      33.226  23.627  22.179  1.00  0.00     0.271 C 
ATOM     12  H   UNL A   1      33.953  21.790  22.339  1.00  0.00     0.164 HD
ATOM     13  O   UNL A   1      33.425  23.646  20.964  1.00  0.00    -0.267 OA
BRANCH  11  14
ATOM     14  C   UNL A   1      32.286  24.540  22.811  1.00  0.00     0.141 A 
ATOM     15  C   UNL A   1      31.045  24.125  23.263  1.00  0.00     0.102 A 
ATOM     16  N   UNL A   1      32.537  25.885  23.019  1.00  0.00    -0.215 NA
ATOM     17  S   UNL A   1      30.286  25.390  24.134  1.00  0.00    -0.104 S 
ATOM     18  C   UNL A   1      31.643  26.374  23.847  1.00  0.00     0.190 A 
BRANCH  18  19
ATOM     19  N   UNL A   1      31.868  27.564  24.493  1.00  0.00    -0.302 N 
ATOM     20  C   UNL A   1      31.195  28.745  24.283  1.00  0.00     0.223 C 
ATOM     21  H   UNL A   1      32.580  27.574  25.173  1.00  0.00     0.172 HD
ATOM     22  C   UNL A   1      31.544  29.812  25.293  1.00  0.00     0.114 C 
ATOM     23  O   UNL A   1      30.339  28.970  23.433  1.00  0.00    -0.275 OA
ENDBRANCH  18  19
ENDBRANCH  11  14
ENDBRANCH   5  10
ENDBRANCH   3   5
ENDBRANCH   2   3
ENDBRANCH   1   2
BRANCH   1  24
ATOM     24  C   UNL A   1      37.521  19.539  24.750  1.00  0.00     0.275 C 
BRANCH  24  25
ATOM     25  O   UNL A   1      38.012  20.714  25.426  1.00  0.00    -0.458 OA
BRANCH  25  26
ATOM     26  C   UNL A   1      39.238  20.595  25.985  1.00  0.00     0.338 C 
ATOM     27  O   UNL A   1      39.984  19.626  25.932  1.00  0.00    -0.246 OA
BRANCH  26  28
ATOM     28  C   UNL A   1      39.656  21.858  26.618  1.00  0.00     0.060 A 
ATOM     29  C   UNL A   1      39.154  23.063  26.111  1.00  0.00     0.016 A 
ATOM     30  C   UNL A   1      40.670  21.869  27.574  1.00  0.00     0.016 A 
ATOM     31  C   UNL A   1      39.673  24.282  26.531  1.00  0.00     0.010 A 
ATOM     32  C   UNL A   1      41.200  23.095  27.992  1.00  0.00     0.010 A 
ATOM     33  C   UNL A   1      40.726  24.303  27.447  1.00  0.00    -0.014 A 
BRANCH  33  34
ATOM     34  C   UNL A   1      41.431  25.576  27.713  1.00  0.00     0.031 A 
ATOM     35  C   UNL A   1      40.760  26.611  28.570  1.00  0.00     0.074 A 
ATOM     36  C   UNL A   1      42.669  25.790  27.237  1.00  0.00     0.049 A 
ATOM     37  N   UNL A   1      41.129  27.839  28.827  1.00  0.00    -0.248 NA
ATOM     38  C   UNL A   1      39.509  26.205  29.231  1.00  0.00     0.031 C 
ATOM     39  C   UNL A   1      43.469  24.824  26.485  1.00  0.00     0.029 A 
ATOM     40  N   UNL A   1      43.467  26.902  27.318  1.00  0.00    -0.354 N 
ATOM     41  C   UNL A   1      40.140  28.363  29.650  1.00  0.00     0.074 A 
ATOM     42  C   UNL A   1      39.159  27.321  29.855  1.00  0.00     0.031 C 
ATOM     43  C   UNL A   1      44.643  25.392  26.160  1.00  0.00     0.029 A 
ATOM     44  C   UNL A   1      44.652  26.773  26.637  1.00  0.00     0.049 A 
ATOM     45  H   UNL A   1      43.215  27.713  27.815  1.00  0.00     0.167 HD
ATOM     46  C   UNL A   1      40.055  29.605  30.179  1.00  0.00     0.031 A 
ATOM     47  C   UNL A   1      45.615  27.681  26.392  1.00  0.00     0.031 A 
ATOM     48  C   UNL A   1      41.034  30.639  29.977  1.00  0.00     0.049 A 
ATOM     49  C   UNL A   1      45.452  29.084  26.908  1.00  0.00     0.074 A 
ATOM     50  C   UNL A   1      41.031  31.937  30.457  1.00  0.00     0.029 A 
ATOM     51  N   UNL A   1      42.191  30.488  29.231  1.00  0.00    -0.354 N 
ATOM     52  N   UNL A   1      44.490  29.588  27.644  1.00  0.00    -0.248 NA
ATOM     53  C   UNL A   1      46.501  30.049  26.546  1.00  0.00     0.031 C 
ATOM     54  C   UNL A   1      42.172  32.584  29.967  1.00  0.00     0.029 A 
ATOM     55  C   UNL A   1      42.903  31.674  29.219  1.00  0.00     0.049 A 
ATOM     56  H   UNL A   1      42.467  29.658  28.778  1.00  0.00     0.167 HD
ATOM     57  C   UNL A   1      44.827  30.919  27.849  1.00  0.00     0.074 A 
ATOM     58  C   UNL A   1      46.087  31.143  27.169  1.00  0.00     0.031 C 
ATOM     59  C   UNL A   1      44.154  31.873  28.537  1.00  0.00     0.031 A 
BRANCH  46  60
ATOM     60  C   UNL A   1      38.829  29.927  30.980  1.00  0.00    -0.014 A 
ATOM     61  C   UNL A   1      38.782  29.712  32.366  1.00  0.00     0.009 A 
ATOM     62  C   UNL A   1      37.706  30.468  30.336  1.00  0.00     0.009 A 
ATOM     63  C   UNL A   1      37.623  30.010  33.086  1.00  0.00     0.001 A 
ATOM     64  C   UNL A   1      36.556  30.783  31.060  1.00  0.00     0.001 A 
ATOM     65  C   UNL A   1      36.512  30.546  32.433  1.00  0.00     0.000 A 
ENDBRANCH  46  60
BRANCH  47  66
ATOM     66  C   UNL A   1      46.796  27.312  25.572  1.00  0.00    -0.014 A 
ATOM     67  C   UNL A   1      47.853  26.579  26.130  1.00  0.00     0.009 A 
ATOM     68  C   UNL A   1      46.876  27.706  24.226  1.00  0.00     0.009 A 
ATOM     69  C   UNL A   1      48.977  26.264  25.360  1.00  0.00     0.001 A 
ATOM     70  C   UNL A   1      47.989  27.369  23.454  1.00  0.00     0.001 A 
ATOM     71  C   UNL A   1      49.041  26.655  24.024  1.00  0.00     0.000 A 
ENDBRANCH  47  66
BRANCH  59  72
ATOM     72  C   UNL A   1      44.784  33.232  28.615  1.00  0.00    -0.014 A 
ATOM     73  C   UNL A   1      45.680  33.557  29.645  1.00  0.00     0.009 A 
ATOM     74  C   UNL A   1      44.508  34.184  27.623  1.00  0.00     0.009 A 
ATOM     75  C   UNL A   1      46.268  34.823  29.691  1.00  0.00     0.001 A 
ATOM     76  C   UNL A   1      45.113  35.440  27.660  1.00  0.00     0.001 A 
ATOM     77  C   UNL A   1      45.987  35.761  28.699  1.00  0.00     0.000 A 
ENDBRANCH  59  72
ENDBRANCH  33  34
ENDBRANCH  26  28
ENDBRANCH  25  26
ENDBRANCH  24  25
ENDBRANCH   1  24
TORSDOF 16
ENDMDL
MODEL 3
REMARK VINA RESULT:      -9.8      3.219      6.714
REMARK SMILES CC[C@H](C)[C@@H](NC(=O)c1csc(NC(C)=O)n1)C(=O)OCCOC(=O)c1ccc(-c2c3nc(c(-c4ccccc4)c4ccc([nH]4)c(-c4ccccc4)c4nc(c(-c5ccccc5)c5ccc2[nH]5)C=C4)C=C3)cc1
REMARK SMILES IDX 21 1 20 2 18 3 19 4 5 5 3 6 4 7 2 8 1 9 6 10 7 11 8 13 9 14
REMARK SMILES IDX 10 15 17 16 11 17 12 18 13 19 14 20 15 22 16 23 22 24 23 25
REMARK SMILES IDX 24 26 25 27 26 28 27 29 73 30 28 31 72 32 29 33 30 34 31 35
REMARK SMILES IDX 66 36 32 37 71 38 65 39 67 40 33 41 70 42 64 43 63 44 34 46
REMARK SMILES IDX 56 47 41 48 55 49 42 50 45 51 54 52 68 53 43 54 44 55 53 57
REMARK SMILES IDX 69 58 46 59 35 60 36 61 40 62 37 63 39 64 38 65 57 66 58 67
REMARK SMILES IDX 62 68 59 69 61 70 60 71 47 72 48 73 52 74 49 75 51 76 50 77
REMARK H PARENT 6 12 13 21 67 45 45 56
REMARK Flexibility Score: inf
ROOT
ATOM      1  C   UNL A   1      36.383  22.635  23.731  1.00  0.00     0.274 C 
ENDROOT
BRANCH   1   2
ATOM      2  O   UNL A   1      34.941  22.564  23.766  1.00  0.00    -0.461 OA
BRANCH   2   3
ATOM      3  C   UNL A   1      34.285  23.749  23.645  1.00  0.00     0.329 C 
ATOM      4  O   UNL A   1      34.746  24.831  23.991  1.00  0.00    -0.250 OA
BRANCH   3   5
ATOM      5  C   UNL A   1      32.891  23.627  23.001  1.00  0.00     0.195 C 
BRANCH   5   6
ATOM      6  C   UNL A   1      31.790  24.244  23.939  1.00  0.00     0.019 C 
ATOM      7  C   UNL A   1      30.369  23.947  23.423  1.00  0.00     0.010 C 
BRANCH   6   8
ATOM      8  C   UNL A   1      31.871  23.756  25.404  1.00  0.00     0.002 C 
ATOM      9  C   UNL A   1      31.991  24.905  26.398  1.00  0.00     0.004 C 
ENDBRANCH   6   8
ENDBRANCH   5   6
BRANCH   5  10
ATOM     10  N   UNL A   1      32.751  24.190  21.637  1.00  0.00    -0.337 N 
ATOM     11  C   UNL A   1      32.806  25.466  21.129  1.00  0.00     0.271 C 
ATOM     12  H   UNL A   1      32.583  23.505  20.950  1.00  0.00     0.164 HD
ATOM     13  O   UNL A   1      33.068  25.589  19.933  1.00  0.00    -0.267 OA
BRANCH  11  14
ATOM     14  C   UNL A   1      32.360  26.596  21.932  1.00  0.00     0.141 A 
ATOM     15  C   UNL A   1      33.228  27.326  22.725  1.00  0.00     0.102 A 
ATOM     16  N   UNL A   1      31.051  27.040  21.976  1.00  0.00    -0.215 NA
ATOM     17  S   UNL A   1      32.424  28.697  23.362  1.00  0.00    -0.104 S 
ATOM     18  C   UNL A   1      31.010  28.222  22.548  1.00  0.00     0.190 A 
BRANCH  18  19
ATOM     19  N   UNL A   1      29.912  29.032  22.396  1.00  0.00    -0.302 N 
ATOM     20  C   UNL A   1      28.633  28.759  22.825  1.00  0.00     0.223 C 
ATOM     21  H   UNL A   1      30.053  29.892  21.938  1.00  0.00     0.172 HD
ATOM     22  C   UNL A   1      27.700  29.938  22.685  1.00  0.00     0.114 C 
ATOM     23  O   UNL A   1      28.228  27.721  23.337  1.00  0.00    -0.275 OA
ENDBRANCH  18  19
ENDBRANCH  11  14
ENDBRANCH   5  10
ENDBRANCH   3   5
ENDBRANCH   2   3
ENDBRANCH   1   2
BRANCH   1  24
ATOM     24  C   UNL A   1      37.132  21.468  24.394  1.00  0.00     0.275 C 
BRANCH  24  25
ATOM     25  O   UNL A   1      37.485  21.743  25.764  1.00  0.00    -0.458 OA
BRANCH  25  26
ATOM     26  C   UNL A   1      38.792  21.580  26.073  1.00  0.00     0.338 C 
ATOM     27  O   UNL A   1      39.505  20.626  25.791  1.00  0.00    -0.246 OA
BRANCH  26  28
ATOM     28  C   UNL A   1      39.334  22.780  26.733  1.00  0.00     0.060 A 
ATOM     29  C   UNL A   1      38.808  24.032  26.390  1.00  0.00     0.016 A 
ATOM     30  C   UNL A   1      40.468  22.694  27.539  1.00  0.00     0.016 A 
ATOM     31  C   UNL A   1      39.419  25.203  26.823  1.00  0.00     0.010 A 
ATOM     32  C   UNL A   1      41.091  23.872  27.968  1.00  0.00     0.010 A 
ATOM     33  C   UNL A   1      40.587  25.129  27.585  1.00  0.00    -0.014 A 
BRANCH  33  34
ATOM     34  C   UNL A   1      41.363  26.361  27.844  1.00  0.00     0.031 A 
ATOM     35  C   UNL A   1      40.780  27.408  28.748  1.00  0.00     0.074 A 
ATOM     36  C   UNL A   1      42.590  26.526  27.319  1.00  0.00     0.049 A 
ATOM     37  N   UNL A   1      41.219  28.612  29.012  1.00  0.00    -0.248 NA
ATOM     38  C   UNL A   1      39.540  27.048  29.455  1.00  0.00     0.031 C 
ATOM     39  C   UNL A   1      43.309  25.539  26.514  1.00  0.00     0.029 A 
ATOM     40  N   UNL A   1      43.443  27.597  27.385  1.00  0.00    -0.354 N 
ATOM     41  C   UNL A   1      40.293  29.165  29.886  1.00  0.00     0.074 A 
ATOM     42  C   UNL A   1      39.272  28.166  30.114  1.00  0.00     0.031 C 
ATOM     43  C   UNL A   1      44.494  26.057  26.149  1.00  0.00     0.029 A 
ATOM     44  C   UNL A   1      44.591  27.426  26.651  1.00  0.00     0.049 A 
ATOM     45  H   UNL A   1      43.252  28.409  27.908  1.00  0.00     0.167 HD
ATOM     46  C   UNL A   1      40.290  30.399  30.443  1.00  0.00     0.031 A 
ATOM     47  C   UNL A   1      45.584  28.292  26.382  1.00  0.00     0.031 A 
ATOM     48  C   UNL A   1      41.308  31.388  30.217  1.00  0.00     0.049 A 
ATOM     49  C   UNL A   1      45.511  29.690  26.931  1.00  0.00     0.074 A 
ATOM     50  C   UNL A   1      41.389  32.675  30.722  1.00  0.00     0.029 A 
ATOM     51  N   UNL A   1      42.424  31.198  29.420  1.00  0.00    -0.354 N 
ATOM     52  N   UNL A   1      44.607  30.223  27.718  1.00  0.00    -0.248 NA
ATOM     53  C   UNL A   1      46.590  30.611  26.542  1.00  0.00     0.031 C 
ATOM     54  C   UNL A   1      42.538  33.277  30.196  1.00  0.00     0.029 A 
ATOM     55  C   UNL A   1      43.192  32.349  29.399  1.00  0.00     0.049 A 
ATOM     56  H   UNL A   1      42.640  30.366  28.939  1.00  0.00     0.167 HD
ATOM     57  C   UNL A   1      45.016  31.533  27.933  1.00  0.00     0.074 A 
ATOM     58  C   UNL A   1      46.256  31.711  27.203  1.00  0.00     0.031 C 
ATOM     59  C   UNL A   1      44.420  32.503  28.667  1.00  0.00     0.031 A 
BRANCH  46  60
ATOM     60  C   UNL A   1      39.116  30.761  31.302  1.00  0.00    -0.014 A 
ATOM     61  C   UNL A   1      38.014  31.456  30.781  1.00  0.00     0.009 A 
ATOM     62  C   UNL A   1      39.109  30.388  32.655  1.00  0.00     0.009 A 
ATOM     63  C   UNL A   1      36.938  31.792  31.607  1.00  0.00     0.001 A 
ATOM     64  C   UNL A   1      38.025  30.707  33.473  1.00  0.00     0.001 A 
ATOM     65  C   UNL A   1      36.945  31.415  32.951  1.00  0.00     0.000 A 
ENDBRANCH  46  60
BRANCH  47  66
ATOM     66  C   UNL A   1      46.710  27.885  25.504  1.00  0.00    -0.014 A 
ATOM     67  C   UNL A   1      47.884  27.346  26.051  1.00  0.00     0.009 A 
ATOM     68  C   UNL A   1      46.620  28.048  24.113  1.00  0.00     0.009 A 
ATOM     69  C   UNL A   1      48.953  26.996  25.220  1.00  0.00     0.001 A 
ATOM     70  C   UNL A   1      47.680  27.674  23.284  1.00  0.00     0.001 A 
ATOM     71  C   UNL A   1      48.848  27.156  23.840  1.00  0.00     0.000 A 
ENDBRANCH  47  66
BRANCH  59  72
ATOM     72  C   UNL A   1      45.119  33.828  28.744  1.00  0.00    -0.014 A 
ATOM     73  C   UNL A   1      44.824  34.856  27.834  1.00  0.00     0.009 A 
ATOM     74  C   UNL A   1      46.054  34.064  29.763  1.00  0.00     0.009 A 
ATOM     75  C   UNL A   1      45.474  36.088  27.931  1.00  0.00     0.001 A 
ATOM     76  C   UNL A   1      46.686  35.302  29.870  1.00  0.00     0.001 A 
ATOM     77  C   UNL A   1      46.402  36.311  28.949  1.00  0.00     0.000 A 
ENDBRANCH  59  72
ENDBRANCH  33  34
ENDBRANCH  26  28
ENDBRANCH  25  26
ENDBRANCH  24  25
ENDBRANCH   1  24
TORSDOF 16
ENDMDL
