MODEL 1
REMARK VINA RESULT:     -11.2      0.000      0.000
REMARK SMILES COc1ccc(-c2ccc(CCC(=O)OCCOC(=O)c3ccc(-c4c5nc(c(-c6ccccc6)c6ccc([nH]6)c(-c6ccccc6)c6nc(c(-c7ccccc7)c7ccc4[nH]7)C=C6)C=C5)cc3)n2-c2ccc(C(C)=O)cc2)cc1
REMARK SMILES IDX 16 1 15 2 13 3 14 4 12 5 11 6 10 7 7 8 8 9 69 10 9 11 6 12
REMARK SMILES IDX 3 13 4 14 80 15 5 16 79 17 2 18 1 19 70 20 71 21 78 22 72 23
REMARK SMILES IDX 77 24 73 25 74 26 75 27 76 28 17 29 18 30 19 31 20 32 21 33
REMARK SMILES IDX 22 34 68 35 23 36 67 37 24 38 25 39 26 40 61 41 27 42 66 43
REMARK SMILES IDX 60 44 62 45 28 46 65 47 59 48 58 49 29 51 51 52 36 53 50 54
REMARK SMILES IDX 37 55 40 56 49 57 63 58 38 59 39 60 48 62 64 63 41 64 30 65
REMARK SMILES IDX 31 66 35 67 32 68 34 69 33 70 52 71 53 72 57 73 54 74 56 75
REMARK SMILES IDX 55 76 42 77 43 78 47 79 44 80 46 81 45 82
REMARK H PARENT 62 50 40 61
REMARK Flexibility Score: inf
ROOT
ATOM      1  C   UNL A   1      33.124  29.804  26.580  1.00  0.00     0.274 C 
ENDROOT
BRANCH   1   2
ATOM      2  O   UNL A   1      33.149  29.724  25.141  1.00  0.00    -0.462 OA
BRANCH   2   3
ATOM      3  C   UNL A   1      32.527  28.664  24.562  1.00  0.00     0.306 C 
ATOM      4  O   UNL A   1      31.445  28.719  23.989  1.00  0.00    -0.252 OA
BRANCH   3   5
ATOM      5  C   UNL A   1      33.294  27.372  24.749  1.00  0.00     0.129 C 
BRANCH   5   6
ATOM      6  C   UNL A   1      33.458  26.492  23.508  1.00  0.00     0.066 C 
BRANCH   6   7
ATOM      7  C   UNL A   1      32.610  25.247  23.530  1.00  0.00     0.024 A 
ATOM      8  C   UNL A   1      32.101  23.047  23.477  1.00  0.00     0.053 A 
ATOM      9  C   UNL A   1      30.947  23.750  23.199  1.00  0.00     0.029 A 
ATOM     10  N   UNL A   1      33.101  23.970  23.770  1.00  0.00    -0.314 N 
ATOM     11  C   UNL A   1      31.255  25.111  23.283  1.00  0.00     0.024 A 
BRANCH   8  12
ATOM     12  C   UNL A   1      32.190  21.606  23.642  1.00  0.00    -0.001 A 
ATOM     13  C   UNL A   1      32.520  18.850  23.940  1.00  0.00     0.118 A 
ATOM     14  C   UNL A   1      32.270  19.394  22.679  1.00  0.00     0.047 A 
ATOM     15  C   UNL A   1      32.630  19.690  25.050  1.00  0.00     0.047 A 
ATOM     16  C   UNL A   1      32.102  20.767  22.529  1.00  0.00     0.014 A 
ATOM     17  C   UNL A   1      32.468  21.067  24.900  1.00  0.00     0.014 A 
BRANCH  13  18
ATOM     18  O   UNL A   1      32.683  17.493  23.960  1.00  0.00    -0.497 OA
ATOM     19  C   UNL A   1      33.884  17.017  23.366  1.00  0.00     0.278 C 
ENDBRANCH  13  18
ENDBRANCH   8  12
BRANCH  10  20
ATOM     20  C   UNL A   1      34.382  23.663  24.290  1.00  0.00     0.046 A 
ATOM     21  C   UNL A   1      35.383  23.228  23.415  1.00  0.00     0.027 A 
ATOM     22  C   UNL A   1      34.649  23.840  25.645  1.00  0.00     0.027 A 
ATOM     23  C   UNL A   1      36.665  22.965  23.900  1.00  0.00     0.014 A 
ATOM     24  C   UNL A   1      35.928  23.555  26.128  1.00  0.00     0.014 A 
ATOM     25  C   UNL A   1      36.950  23.125  25.262  1.00  0.00     0.017 A 
BRANCH  25  26
ATOM     26  C   UNL A   1      38.295  22.859  25.857  1.00  0.00     0.159 C 
ATOM     27  C   UNL A   1      38.976  23.878  26.736  1.00  0.00     0.093 C 
ATOM     28  O   UNL A   1      38.843  21.777  25.640  1.00  0.00    -0.295 OA
ENDBRANCH  25  26
ENDBRANCH  10  20
ENDBRANCH   6   7
ENDBRANCH   5   6
ENDBRANCH   3   5
ENDBRANCH   2   3
ENDBRANCH   1   2
BRANCH   1  29
ATOM     29  C   UNL A   1      32.708  31.173  27.127  1.00  0.00     0.275 C 
BRANCH  29  30
ATOM     30  O   UNL A   1      33.748  32.161  27.069  1.00  0.00    -0.458 OA
BRANCH  30  31
ATOM     31  C   UNL A   1      33.541  33.151  27.955  1.00  0.00     0.338 C 
ATOM     32  O   UNL A   1      32.717  34.041  27.877  1.00  0.00    -0.246 OA
BRANCH  31  33
ATOM     33  C   UNL A   1      34.561  33.299  28.970  1.00  0.00     0.060 A 
ATOM     34  C   UNL A   1      35.808  33.758  28.515  1.00  0.00     0.016 A 
ATOM     35  C   UNL A   1      34.414  32.503  30.105  1.00  0.00     0.016 A 
ATOM     36  C   UNL A   1      36.946  33.315  29.145  1.00  0.00     0.010 A 
ATOM     37  C   UNL A   1      35.557  32.043  30.724  1.00  0.00     0.010 A 
ATOM     38  C   UNL A   1      36.810  32.437  30.225  1.00  0.00    -0.014 A 
BRANCH  38  39
ATOM     39  C   UNL A   1      38.010  32.124  31.000  1.00  0.00     0.031 A 
ATOM     40  C   UNL A   1      38.713  30.901  30.411  1.00  0.00     0.074 A 
ATOM     41  C   UNL A   1      38.280  32.923  32.073  1.00  0.00     0.049 A 
ATOM     42  N   UNL A   1      39.610  30.136  30.941  1.00  0.00    -0.248 NA
ATOM     43  C   UNL A   1      38.338  30.424  29.045  1.00  0.00     0.031 C 
ATOM     44  C   UNL A   1      37.446  34.067  32.510  1.00  0.00     0.029 A 
ATOM     45  N   UNL A   1      39.288  32.943  33.011  1.00  0.00    -0.354 N 
ATOM     46  C   UNL A   1      40.031  29.233  29.946  1.00  0.00     0.074 A 
ATOM     47  C   UNL A   1      39.150  29.392  28.833  1.00  0.00     0.031 C 
ATOM     48  C   UNL A   1      37.938  34.613  33.643  1.00  0.00     0.029 A 
ATOM     49  C   UNL A   1      39.145  33.911  34.034  1.00  0.00     0.049 A 
ATOM     50  H   UNL A   1      40.055  32.327  32.972  1.00  0.00     0.167 HD
ATOM     51  C   UNL A   1      41.174  28.505  30.041  1.00  0.00     0.031 A 
ATOM     52  C   UNL A   1      39.931  34.115  35.134  1.00  0.00     0.031 A 
ATOM     53  C   UNL A   1      41.769  28.665  31.323  1.00  0.00     0.049 A 
ATOM     54  C   UNL A   1      41.109  33.251  34.965  1.00  0.00     0.074 A 
ATOM     55  C   UNL A   1      41.383  28.258  32.574  1.00  0.00     0.029 A 
ATOM     56  N   UNL A   1      42.701  29.667  31.443  1.00  0.00    -0.354 N 
ATOM     57  N   UNL A   1      42.069  33.465  34.119  1.00  0.00    -0.248 NA
ATOM     58  C   UNL A   1      41.218  32.027  35.767  1.00  0.00     0.031 C 
ATOM     59  C   UNL A   1      41.736  29.348  33.398  1.00  0.00     0.029 A 
ATOM     60  C   UNL A   1      42.472  30.275  32.653  1.00  0.00     0.049 A 
ATOM     61  H   UNL A   1      43.398  29.903  30.790  1.00  0.00     0.167 HD
ATOM     62  C   UNL A   1      42.645  32.224  34.014  1.00  0.00     0.074 A 
ATOM     63  C   UNL A   1      42.329  31.521  35.239  1.00  0.00     0.031 C 
ATOM     64  C   UNL A   1      42.817  31.672  32.784  1.00  0.00     0.031 A 
BRANCH  51  65
ATOM     65  C   UNL A   1      41.968  27.835  28.966  1.00  0.00    -0.014 A 
ATOM     66  C   UNL A   1      42.580  28.662  28.000  1.00  0.00     0.009 A 
ATOM     67  C   UNL A   1      41.864  26.467  28.680  1.00  0.00     0.009 A 
ATOM     68  C   UNL A   1      42.973  28.166  26.757  1.00  0.00     0.001 A 
ATOM     69  C   UNL A   1      42.294  25.962  27.445  1.00  0.00     0.001 A 
ATOM     70  C   UNL A   1      42.814  26.816  26.474  1.00  0.00     0.000 A 
ENDBRANCH  51  65
BRANCH  52  71
ATOM     71  C   UNL A   1      39.887  34.909  36.414  1.00  0.00    -0.014 A 
ATOM     72  C   UNL A   1      39.062  34.656  37.511  1.00  0.00     0.009 A 
ATOM     73  C   UNL A   1      40.825  35.966  36.585  1.00  0.00     0.009 A 
ATOM     74  C   UNL A   1      39.228  35.359  38.724  1.00  0.00     0.001 A 
ATOM     75  C   UNL A   1      41.027  36.633  37.796  1.00  0.00     0.001 A 
ATOM     76  C   UNL A   1      40.229  36.318  38.877  1.00  0.00     0.000 A 
ENDBRANCH  52  71
BRANCH  64  77
ATOM     77  C   UNL A   1      42.884  32.670  31.636  1.00  0.00    -0.014 A 
ATOM     78  C   UNL A   1      44.109  33.241  31.261  1.00  0.00     0.009 A 
ATOM     79  C   UNL A   1      41.733  33.155  30.989  1.00  0.00     0.009 A 
ATOM     80  C   UNL A   1      44.178  34.266  30.305  1.00  0.00     0.001 A 
ATOM     81  C   UNL A   1      41.794  34.178  30.031  1.00  0.00     0.001 A 
ATOM     82  C   UNL A   1      43.020  34.738  29.693  1.00  0.00     0.000 A 
ENDBRANCH  64  77
ENDBRANCH  38  39
ENDBRANCH  31  33
ENDBRANCH  30  31
ENDBRANCH  29  30
ENDBRANCH   1  29
TORSDOF 17
ENDMDL
MODEL 2
REMARK VINA RESULT:     -11.1      4.088      9.988
REMARK SMILES COc1ccc(-c2ccc(CCC(=O)OCCOC(=O)c3ccc(-c4c5nc(c(-c6ccccc6)c6ccc([nH]6)c(-c6ccccc6)c6nc(c(-c7ccccc7)c7ccc4[nH]7)C=C6)C=C5)cc3)n2-c2ccc(C(C)=O)cc2)cc1
REMARK SMILES IDX 16 1 15 2 13 3 14 4 12 5 11 6 10 7 7 8 8 9 69 10 9 11 6 12
REMARK SMILES IDX 3 13 4 14 80 15 5 16 79 17 2 18 1 19 70 20 71 21 78 22 72 23
REMARK SMILES IDX 77 24 73 25 74 26 75 27 76 28 17 29 18 30 19 31 20 32 21 33
REMARK SMILES IDX 22 34 68 35 23 36 67 37 24 38 25 39 26 40 61 41 27 42 66 43
REMARK SMILES IDX 60 44 62 45 28 46 65 47 59 48 58 49 29 51 51 52 36 53 50 54
REMARK SMILES IDX 37 55 40 56 49 57 63 58 38 59 39 60 48 62 64 63 41 64 30 65
REMARK SMILES IDX 31 66 35 67 32 68 34 69 33 70 52 71 53 72 57 73 54 74 56 75
REMARK SMILES IDX 55 76 42 77 43 78 47 79 44 80 46 81 45 82
REMARK H PARENT 62 50 40 61
REMARK Flexibility Score: inf
ROOT
ATOM      1  C   UNL A   1      37.933  22.125  25.814  1.00  0.00     0.274 C 
ENDROOT
BRANCH   1   2
ATOM      2  O   UNL A   1      36.514  21.893  25.713  1.00  0.00    -0.462 OA
BRANCH   2   3
ATOM      3  C   UNL A   1      35.713  22.979  25.558  1.00  0.00     0.306 C 
ATOM      4  O   UNL A   1      36.117  24.125  25.395  1.00  0.00    -0.252 OA
BRANCH   3   5
ATOM      5  C   UNL A   1      34.243  22.633  25.663  1.00  0.00     0.129 C 
BRANCH   5   6
ATOM      6  C   UNL A   1      33.308  23.760  26.105  1.00  0.00     0.066 C 
BRANCH   6   7
ATOM      7  C   UNL A   1      32.300  24.159  25.058  1.00  0.00     0.024 A 
ATOM      8  C   UNL A   1      30.714  25.393  24.027  1.00  0.00     0.053 A 
ATOM      9  C   UNL A   1      30.662  24.121  23.498  1.00  0.00     0.029 A 
ATOM     10  N   UNL A   1      31.782  25.440  24.920  1.00  0.00    -0.314 N 
ATOM     11  C   UNL A   1      31.679  23.374  24.102  1.00  0.00     0.024 A 
BRANCH   8  12
ATOM     12  C   UNL A   1      29.930  26.528  23.569  1.00  0.00    -0.001 A 
ATOM     13  C   UNL A   1      28.469  28.787  22.822  1.00  0.00     0.118 A 
ATOM     14  C   UNL A   1      27.858  27.766  23.553  1.00  0.00     0.047 A 
ATOM     15  C   UNL A   1      29.821  28.688  22.486  1.00  0.00     0.047 A 
ATOM     16  C   UNL A   1      28.584  26.638  23.923  1.00  0.00     0.014 A 
ATOM     17  C   UNL A   1      30.551  27.561  22.861  1.00  0.00     0.014 A 
BRANCH  13  18
ATOM     18  O   UNL A   1      27.660  29.849  22.530  1.00  0.00    -0.497 OA
ATOM     19  C   UNL A   1      28.020  31.075  23.156  1.00  0.00     0.278 C 
ENDBRANCH  13  18
ENDBRANCH   8  12
BRANCH  10  20
ATOM     20  C   UNL A   1      32.296  26.609  25.533  1.00  0.00     0.046 A 
ATOM     21  C   UNL A   1      33.332  27.305  24.902  1.00  0.00     0.027 A 
ATOM     22  C   UNL A   1      31.741  27.079  26.720  1.00  0.00     0.027 A 
ATOM     23  C   UNL A   1      33.821  28.485  25.466  1.00  0.00     0.014 A 
ATOM     24  C   UNL A   1      32.249  28.248  27.290  1.00  0.00     0.014 A 
ATOM     25  C   UNL A   1      33.285  28.968  26.666  1.00  0.00     0.017 A 
BRANCH  25  26
ATOM     26  C   UNL A   1      33.758  30.219  27.333  1.00  0.00     0.159 C 
ATOM     27  C   UNL A   1      35.076  30.266  28.064  1.00  0.00     0.093 C 
ATOM     28  O   UNL A   1      33.063  31.235  27.263  1.00  0.00    -0.295 OA
ENDBRANCH  25  26
ENDBRANCH  10  20
ENDBRANCH   6   7
ENDBRANCH   5   6
ENDBRANCH   3   5
ENDBRANCH   2   3
ENDBRANCH   1   2
BRANCH   1  29
ATOM     29  C   UNL A   1      38.797  20.931  25.396  1.00  0.00     0.275 C 
BRANCH  29  30
ATOM     30  O   UNL A   1      39.506  20.320  26.485  1.00  0.00    -0.458 OA
BRANCH  30  31
ATOM     31  C   UNL A   1      40.741  19.935  26.117  1.00  0.00     0.338 C 
ATOM     32  O   UNL A   1      41.081  18.834  25.732  1.00  0.00    -0.246 OA
BRANCH  31  33
ATOM     33  C   UNL A   1      41.802  20.862  26.448  1.00  0.00     0.060 A 
ATOM     34  C   UNL A   1      41.922  21.187  27.808  1.00  0.00     0.016 A 
ATOM     35  C   UNL A   1      42.207  21.719  25.424  1.00  0.00     0.016 A 
ATOM     36  C   UNL A   1      42.351  22.448  28.152  1.00  0.00     0.010 A 
ATOM     37  C   UNL A   1      42.618  22.988  25.769  1.00  0.00     0.010 A 
ATOM     38  C   UNL A   1      42.666  23.346  27.127  1.00  0.00    -0.014 A 
BRANCH  38  39
ATOM     39  C   UNL A   1      43.295  24.610  27.505  1.00  0.00     0.031 A 
ATOM     40  C   UNL A   1      42.234  25.612  27.962  1.00  0.00     0.074 A 
ATOM     41  C   UNL A   1      44.651  24.689  27.376  1.00  0.00     0.049 A 
ATOM     42  N   UNL A   1      42.320  26.895  28.095  1.00  0.00    -0.248 NA
ATOM     43  C   UNL A   1      40.856  25.128  28.280  1.00  0.00     0.031 C 
ATOM     44  C   UNL A   1      45.521  23.598  26.877  1.00  0.00     0.029 A 
ATOM     45  N   UNL A   1      45.572  25.682  27.626  1.00  0.00    -0.354 N 
ATOM     46  C   UNL A   1      41.114  27.336  28.671  1.00  0.00     0.074 A 
ATOM     47  C   UNL A   1      40.215  26.226  28.674  1.00  0.00     0.031 C 
ATOM     48  C   UNL A   1      46.806  24.006  26.800  1.00  0.00     0.029 A 
ATOM     49  C   UNL A   1      46.907  25.376  27.268  1.00  0.00     0.049 A 
ATOM     50  H   UNL A   1      45.319  26.545  28.027  1.00  0.00     0.167 HD
ATOM     51  C   UNL A   1      40.971  28.559  29.246  1.00  0.00     0.031 A 
ATOM     52  C   UNL A   1      48.012  26.180  27.320  1.00  0.00     0.031 A 
ATOM     53  C   UNL A   1      42.131  29.354  29.036  1.00  0.00     0.049 A 
ATOM     54  C   UNL A   1      47.600  27.403  28.024  1.00  0.00     0.074 A 
ATOM     55  C   UNL A   1      42.665  29.925  27.910  1.00  0.00     0.029 A 
ATOM     56  N   UNL A   1      43.098  29.293  30.011  1.00  0.00    -0.354 N 
ATOM     57  N   UNL A   1      47.364  27.481  29.297  1.00  0.00    -0.248 NA
ATOM     58  C   UNL A   1      47.391  28.634  27.253  1.00  0.00     0.031 C 
ATOM     59  C   UNL A   1      44.056  29.751  28.080  1.00  0.00     0.029 A 
ATOM     60  C   UNL A   1      44.308  29.256  29.363  1.00  0.00     0.049 A 
ATOM     61  H   UNL A   1      42.952  29.278  30.983  1.00  0.00     0.167 HD
ATOM     62  C   UNL A   1      46.606  28.622  29.382  1.00  0.00     0.074 A 
ATOM     63  C   UNL A   1      46.942  29.424  28.225  1.00  0.00     0.031 C 
ATOM     64  C   UNL A   1      45.405  28.577  30.016  1.00  0.00     0.031 A 
BRANCH  51  65
ATOM     65  C   UNL A   1      39.949  29.036  30.227  1.00  0.00    -0.014 A 
ATOM     66  C   UNL A   1      39.826  28.319  31.437  1.00  0.00     0.009 A 
ATOM     67  C   UNL A   1      38.914  29.916  29.885  1.00  0.00     0.009 A 
ATOM     68  C   UNL A   1      38.673  28.394  32.217  1.00  0.00     0.001 A 
ATOM     69  C   UNL A   1      37.771  30.020  30.689  1.00  0.00     0.001 A 
ATOM     70  C   UNL A   1      37.636  29.235  31.832  1.00  0.00     0.000 A 
ENDBRANCH  51  65
BRANCH  52  71
ATOM     71  C   UNL A   1      49.439  26.159  26.836  1.00  0.00    -0.014 A 
ATOM     72  C   UNL A   1      50.495  25.454  27.415  1.00  0.00     0.009 A 
ATOM     73  C   UNL A   1      49.751  26.843  25.626  1.00  0.00     0.009 A 
ATOM     74  C   UNL A   1      51.752  25.370  26.777  1.00  0.00     0.001 A 
ATOM     75  C   UNL A   1      50.976  26.725  24.965  1.00  0.00     0.001 A 
ATOM     76  C   UNL A   1      51.980  25.974  25.540  1.00  0.00     0.000 A 
ENDBRANCH  52  71
BRANCH  64  77
ATOM     77  C   UNL A   1      45.259  27.458  31.038  1.00  0.00    -0.014 A 
ATOM     78  C   UNL A   1      44.742  26.211  30.658  1.00  0.00     0.009 A 
ATOM     79  C   UNL A   1      45.509  27.651  32.409  1.00  0.00     0.009 A 
ATOM     80  C   UNL A   1      44.463  25.214  31.605  1.00  0.00     0.001 A 
ATOM     81  C   UNL A   1      45.235  26.658  33.362  1.00  0.00     0.001 A 
ATOM     82  C   UNL A   1      44.705  25.439  32.958  1.00  0.00     0.000 A 
ENDBRANCH  64  77
ENDBRANCH  38  39
ENDBRANCH  31  33
ENDBRANCH  30  31
ENDBRANCH  29  30
ENDBRANCH   1  29
TORSDOF 17
ENDMDL
MODEL 3
REMARK VINA RESULT:     -10.8      5.363     12.309
REMARK SMILES COc1ccc(-c2ccc(CCC(=O)OCCOC(=O)c3ccc(-c4c5nc(c(-c6ccccc6)c6ccc([nH]6)c(-c6ccccc6)c6nc(c(-c7ccccc7)c7ccc4[nH]7)C=C6)C=C5)cc3)n2-c2ccc(C(C)=O)cc2)cc1
REMARK SMILES IDX 16 1 15 2 13 3 14 4 12 5 11 6 10 7 7 8 8 9 69 10 9 11 6 12
REMARK SMILES IDX 3 13 4 14 80 15 5 16 79 17 2 18 1 19 70 20 71 21 78 22 72 23
REMARK SMILES IDX 77 24 73 25 74 26 75 27 76 28 17 29 18 30 19 31 20 32 21 33
REMARK SMILES IDX 22 34 68 35 23 36 67 37 24 38 25 39 26 40 61 41 27 42 66 43
REMARK SMILES IDX 60 44 62 45 28 46 65 47 59 48 58 49 29 51 51 52 36 53 50 54
REMARK SMILES IDX 37 55 40 56 49 57 63 58 38 59 39 60 48 62 64 63 41 64 30 65
REMARK SMILES IDX 31 66 35 67 32 68 34 69 33 70 52 71 53 72 57 73 54 74 56 75
REMARK SMILES IDX 55 76 42 77 43 78 47 79 44 80 46 81 45 82
REMARK H PARENT 62 50 40 61
REMARK Flexibility Score: inf
ROOT
ATOM      1  C   UNL A   1      44.106  28.743  36.037  1.00  0.00     0.274 C 
ENDROOT
BRANCH   1   2
ATOM      2  O   UNL A   1      42.735  29.092  36.316  1.00  0.00    -0.462 OA
BRANCH   2   3
ATOM      3  C   UNL A   1      41.767  28.368  35.695  1.00  0.00     0.306 C 
ATOM      4  O   UNL A   1      41.167  27.428  36.204  1.00  0.00    -0.252 OA
BRANCH   3   5
ATOM      5  C   UNL A   1      41.539  28.812  34.267  1.00  0.00     0.129 C 
BRANCH   5   6
ATOM      6  C   UNL A   1      41.467  30.321  34.026  1.00  0.00     0.066 C 
BRANCH   6   7
ATOM      7  C   UNL A   1      42.490  30.828  33.042  1.00  0.00     0.024 A 
ATOM      8  C   UNL A   1      43.472  31.233  31.049  1.00  0.00     0.053 A 
ATOM      9  C   UNL A   1      44.434  31.383  32.027  1.00  0.00     0.029 A 
ATOM     10  N   UNL A   1      42.257  30.983  31.681  1.00  0.00    -0.314 N 
ATOM     11  C   UNL A   1      43.810  31.182  33.262  1.00  0.00     0.024 A 
BRANCH   8  12
ATOM     12  C   UNL A   1      43.662  31.504  29.634  1.00  0.00    -0.001 A 
ATOM     13  C   UNL A   1      44.181  31.987  26.933  1.00  0.00     0.118 A 
ATOM     14  C   UNL A   1      44.261  33.027  27.860  1.00  0.00     0.047 A 
ATOM     15  C   UNL A   1      43.865  30.696  27.363  1.00  0.00     0.047 A 
ATOM     16  C   UNL A   1      43.999  32.789  29.206  1.00  0.00     0.014 A 
ATOM     17  C   UNL A   1      43.608  30.455  28.713  1.00  0.00     0.014 A 
BRANCH  13  18
ATOM     18  O   UNL A   1      44.475  32.337  25.646  1.00  0.00    -0.497 OA
ATOM     19  C   UNL A   1      43.969  33.600  25.231  1.00  0.00     0.278 C 
ENDBRANCH  13  18
ENDBRANCH   8  12
BRANCH  10  20
ATOM     20  C   UNL A   1      40.989  30.956  31.053  1.00  0.00     0.046 A 
ATOM     21  C   UNL A   1      40.494  29.737  30.576  1.00  0.00     0.027 A 
ATOM     22  C   UNL A   1      40.230  32.119  30.957  1.00  0.00     0.027 A 
ATOM     23  C   UNL A   1      39.225  29.681  29.996  1.00  0.00     0.014 A 
ATOM     24  C   UNL A   1      38.971  32.060  30.356  1.00  0.00     0.014 A 
ATOM     25  C   UNL A   1      38.452  30.843  29.879  1.00  0.00     0.017 A 
BRANCH  25  26
ATOM     26  C   UNL A   1      37.088  30.865  29.266  1.00  0.00     0.159 C 
ATOM     27  C   UNL A   1      36.351  29.587  28.953  1.00  0.00     0.093 C 
ATOM     28  O   UNL A   1      36.553  31.950  29.034  1.00  0.00    -0.295 OA
ENDBRANCH  25  26
ENDBRANCH  10  20
ENDBRANCH   6   7
ENDBRANCH   5   6
ENDBRANCH   3   5
ENDBRANCH   2   3
ENDBRANCH   1   2
BRANCH   1  29
ATOM     29  C   UNL A   1      44.616  27.526  36.817  1.00  0.00     0.275 C 
BRANCH  29  30
ATOM     30  O   UNL A   1      45.362  26.597  36.016  1.00  0.00    -0.458 OA
BRANCH  30  31
ATOM     31  C   UNL A   1      44.637  25.503  35.723  1.00  0.00     0.338 C 
ATOM     32  O   UNL A   1      44.253  24.651  36.499  1.00  0.00    -0.246 OA
BRANCH  31  33
ATOM     33  C   UNL A   1      44.519  25.197  34.314  1.00  0.00     0.060 A 
ATOM     34  C   UNL A   1      45.660  24.639  33.716  1.00  0.00     0.016 A 
ATOM     35  C   UNL A   1      43.577  25.941  33.604  1.00  0.00     0.016 A 
ATOM     36  C   UNL A   1      45.925  24.930  32.398  1.00  0.00     0.010 A 
ATOM     37  C   UNL A   1      43.853  26.248  32.289  1.00  0.00     0.010 A 
ATOM     38  C   UNL A   1      45.034  25.757  31.707  1.00  0.00    -0.014 A 
BRANCH  38  39
ATOM     39  C   UNL A   1      45.227  25.903  30.265  1.00  0.00     0.031 A 
ATOM     40  C   UNL A   1      44.705  24.665  29.535  1.00  0.00     0.074 A 
ATOM     41  C   UNL A   1      45.825  27.051  29.834  1.00  0.00     0.049 A 
ATOM     42  N   UNL A   1      44.939  24.265  28.328  1.00  0.00    -0.248 NA
ATOM     43  C   UNL A   1      43.825  23.700  30.262  1.00  0.00     0.031 C 
ATOM     44  C   UNL A   1      46.296  28.145  30.716  1.00  0.00     0.029 A 
ATOM     45  N   UNL A   1      46.164  27.536  28.590  1.00  0.00    -0.354 N 
ATOM     46  C   UNL A   1      44.119  23.145  28.094  1.00  0.00     0.074 A 
ATOM     47  C   UNL A   1      43.528  22.784  29.343  1.00  0.00     0.031 C 
ATOM     48  C   UNL A   1      46.907  29.111  29.996  1.00  0.00     0.029 A 
ATOM     49  C   UNL A   1      46.865  28.765  28.588  1.00  0.00     0.049 A 
ATOM     50  H   UNL A   1      45.933  27.059  27.760  1.00  0.00     0.167 HD
ATOM     51  C   UNL A   1      43.858  22.664  26.849  1.00  0.00     0.031 A 
ATOM     52  C   UNL A   1      47.398  29.444  27.527  1.00  0.00     0.031 A 
ATOM     53  C   UNL A   1      44.645  23.337  25.874  1.00  0.00     0.049 A 
ATOM     54  C   UNL A   1      46.930  28.752  26.317  1.00  0.00     0.074 A 
ATOM     55  C   UNL A   1      45.992  23.334  25.615  1.00  0.00     0.029 A 
ATOM     56  N   UNL A   1      44.077  24.441  25.287  1.00  0.00    -0.354 N 
ATOM     57  N   UNL A   1      45.717  28.797  25.861  1.00  0.00    -0.248 NA
ATOM     58  C   UNL A   1      47.869  27.906  25.570  1.00  0.00     0.031 C 
ATOM     59  C   UNL A   1      46.267  24.680  25.289  1.00  0.00     0.029 A 
ATOM     60  C   UNL A   1      45.066  25.389  25.188  1.00  0.00     0.049 A 
ATOM     61  H   UNL A   1      43.142  24.535  24.994  1.00  0.00     0.167 HD
ATOM     62  C   UNL A   1      45.671  27.690  25.051  1.00  0.00     0.074 A 
ATOM     63  C   UNL A   1      47.036  27.413  24.658  1.00  0.00     0.031 C 
ATOM     64  C   UNL A   1      44.677  26.780  25.223  1.00  0.00     0.031 A 
BRANCH  51  65
ATOM     65  C   UNL A   1      42.743  21.785  26.382  1.00  0.00    -0.014 A 
ATOM     66  C   UNL A   1      41.428  22.280  26.517  1.00  0.00     0.009 A 
ATOM     67  C   UNL A   1      42.901  20.415  26.138  1.00  0.00     0.009 A 
ATOM     68  C   UNL A   1      40.324  21.428  26.517  1.00  0.00     0.001 A 
ATOM     69  C   UNL A   1      41.788  19.564  26.100  1.00  0.00     0.001 A 
ATOM     70  C   UNL A   1      40.507  20.065  26.325  1.00  0.00     0.000 A 
ENDBRANCH  51  65
BRANCH  52  71
ATOM     71  C   UNL A   1      48.317  30.615  27.290  1.00  0.00    -0.014 A 
ATOM     72  C   UNL A   1      49.712  30.573  27.265  1.00  0.00     0.009 A 
ATOM     73  C   UNL A   1      47.737  31.875  26.973  1.00  0.00     0.009 A 
ATOM     74  C   UNL A   1      50.467  31.697  26.862  1.00  0.00     0.001 A 
ATOM     75  C   UNL A   1      48.474  32.975  26.528  1.00  0.00     0.001 A 
ATOM     76  C   UNL A   1      49.848  32.881  26.462  1.00  0.00     0.000 A 
ENDBRANCH  52  71
BRANCH  64  77
ATOM     77  C   UNL A   1      43.417  27.321  25.887  1.00  0.00    -0.014 A 
ATOM     78  C   UNL A   1      43.111  26.983  27.213  1.00  0.00     0.009 A 
ATOM     79  C   UNL A   1      42.454  28.067  25.183  1.00  0.00     0.009 A 
ATOM     80  C   UNL A   1      41.891  27.349  27.800  1.00  0.00     0.001 A 
ATOM     81  C   UNL A   1      41.232  28.438  25.764  1.00  0.00     0.001 A 
ATOM     82  C   UNL A   1      40.949  28.073  27.074  1.00  0.00     0.000 A 
ENDBRANCH  64  77
ENDBRANCH  38  39
ENDBRANCH  31  33
ENDBRANCH  30  31
ENDBRANCH  29  30
ENDBRANCH   1  29
TORSDOF 17
ENDMDL
