MODEL 1
REMARK VINA RESULT:     -11.0      0.000      0.000
REMARK SMILES CC1(C)CCN(c2ncccc2C(=O)OCCOC(=O)c2ccc(-c3c4nc(c(-c5ccccc5)c5ccc([nH]5)c(-c5ccccc5)c5nc(c(-c6ccccc6)c6ccc3[nH]6)C=C5)C=C4)cc2)C1
REMARK SMILES IDX 17 1 16 2 15 3 13 4 14 5 12 6 7 7 8 8 9 9 11 10 10 11 6 12
REMARK SMILES IDX 1 13 2 14 3 15 4 16 69 17 5 18 18 19 19 20 20 21 21 22 22 23
REMARK SMILES IDX 68 24 23 25 67 26 24 27 25 28 26 29 61 30 27 31 66 32 60 33
REMARK SMILES IDX 62 34 28 35 65 36 59 37 58 38 29 40 51 41 36 42 50 43 37 44
REMARK SMILES IDX 40 45 49 46 63 47 38 48 39 49 48 51 64 52 41 53 30 54 31 55
REMARK SMILES IDX 35 56 32 57 34 58 33 59 52 60 53 61 57 62 54 63 56 64 55 65
REMARK SMILES IDX 42 66 43 67 47 68 44 69 46 70 45 71
REMARK H PARENT 62 39 40 50
REMARK Flexibility Score: inf
ROOT
ATOM      1  C   UNL A   1      31.438  29.255  25.319  1.00  0.00     0.275 C 
ENDROOT
BRANCH   1   2
ATOM      2  C   UNL A   1      31.559  28.089  26.303  1.00  0.00     0.275 C 
BRANCH   2   3
ATOM      3  O   UNL A   1      32.439  27.049  25.797  1.00  0.00    -0.458 OA
BRANCH   3   4
ATOM      4  C   UNL A   1      31.866  25.858  25.449  1.00  0.00     0.342 C 
ATOM      5  O   UNL A   1      31.161  25.179  26.178  1.00  0.00    -0.246 OA
BRANCH   4   6
ATOM      6  C   UNL A   1      32.250  25.450  24.071  1.00  0.00     0.102 A 
ATOM      7  C   UNL A   1      33.330  24.601  23.726  1.00  0.00     0.143 A 
ATOM      8  N   UNL A   1      33.646  24.399  22.419  1.00  0.00    -0.238 NA
ATOM      9  C   UNL A   1      32.907  24.993  21.459  1.00  0.00     0.113 A 
ATOM     10  C   UNL A   1      31.485  26.026  23.044  1.00  0.00     0.021 A 
ATOM     11  C   UNL A   1      31.814  25.790  21.718  1.00  0.00     0.021 A 
BRANCH   7  12
ATOM     12  N   UNL A   1      33.906  23.649  24.555  1.00  0.00    -0.355 N 
ATOM     13  C   UNL A   1      37.188  23.719  26.145  1.00  0.00     0.013 C 
ATOM     14  C   UNL A   1      36.643  22.131  25.123  1.00  0.00    -0.016 C 
ATOM     15  C   UNL A   1      37.217  20.371  24.622  1.00  0.00     0.013 C 
ATOM     16  C   UNL A   1      34.938  20.811  25.015  1.00  0.00     0.030 C 
ATOM     17  C   UNL A   1      35.682  23.961  24.650  1.00  0.00     0.124 C 
ATOM     18  C   UNL A   1      33.389  21.972  24.709  1.00  0.00     0.119 C 
ENDBRANCH   7  12
ENDBRANCH   4   6
ENDBRANCH   3   4
ENDBRANCH   2   3
ENDBRANCH   1   2
BRANCH   1  19
ATOM     19  O   UNL A   1      32.556  30.122  25.520  1.00  0.00    -0.458 OA
BRANCH  19  20
ATOM     20  C   UNL A   1      32.353  30.992  26.520  1.00  0.00     0.338 C 
ATOM     21  O   UNL A   1      31.363  31.647  26.792  1.00  0.00    -0.246 OA
BRANCH  20  22
ATOM     22  C   UNL A   1      33.506  30.976  27.388  1.00  0.00     0.060 A 
ATOM     23  C   UNL A   1      34.319  32.551  27.868  1.00  0.00     0.016 A 
ATOM     24  C   UNL A   1      34.370  29.427  27.621  1.00  0.00     0.016 A 
ATOM     25  C   UNL A   1      36.336  32.469  28.318  1.00  0.00     0.010 A 
ATOM     26  C   UNL A   1      35.918  29.324  28.561  1.00  0.00     0.010 A 
ATOM     27  C   UNL A   1      36.936  30.802  28.976  1.00  0.00    -0.014 A 
BRANCH  27  28
ATOM     28  C   UNL A   1      38.139  30.379  29.766  1.00  0.00     0.031 A 
ATOM     29  C   UNL A   1      39.130  29.350  29.199  1.00  0.00     0.074 A 
ATOM     30  C   UNL A   1      38.183  30.683  31.082  1.00  0.00     0.049 A 
ATOM     31  N   UNL A   1      40.223  28.881  29.753  1.00  0.00    -0.248 NA
ATOM     32  C   UNL A   1      38.881  28.708  27.889  1.00  0.00     0.031 C 
ATOM     33  C   UNL A   1      37.104  31.311  31.827  1.00  0.00     0.029 A 
ATOM     34  N   UNL A   1      39.124  30.503  32.060  1.00  0.00    -0.354 N 
ATOM     35  C   UNL A   1      40.781  28.002  28.824  1.00  0.00     0.074 A 
ATOM     36  C   UNL A   1      39.910  27.916  27.703  1.00  0.00     0.031 C 
ATOM     37  C   UNL A   1      37.506  31.712  33.033  1.00  0.00     0.029 A 
ATOM     38  C   UNL A   1      38.803  31.120  33.257  1.00  0.00     0.049 A 
ATOM     39  H   UNL A   1      39.950  29.984  31.925  1.00  0.00     0.167 HD
ATOM     40  C   UNL A   1      41.921  27.287  28.886  1.00  0.00     0.031 A 
ATOM     41  C   UNL A   1      39.432  31.126  34.442  1.00  0.00     0.031 A 
ATOM     42  C   UNL A   1      42.680  27.214  30.085  1.00  0.00     0.049 A 
ATOM     43  C   UNL A   1      40.656  30.271  34.513  1.00  0.00     0.074 A 
ATOM     44  C   UNL A   1      43.829  26.502  30.339  1.00  0.00     0.029 A 
ATOM     45  N   UNL A   1      42.310  27.862  31.256  1.00  0.00    -0.354 N 
ATOM     46  N   UNL A   1      41.197  29.543  33.564  1.00  0.00    -0.248 NA
ATOM     47  C   UNL A   1      41.341  30.207  35.803  1.00  0.00     0.031 C 
ATOM     48  C   UNL A   1      44.128  26.679  31.691  1.00  0.00     0.029 A 
ATOM     49  C   UNL A   1      43.217  27.572  32.245  1.00  0.00     0.049 A 
ATOM     50  H   UNL A   1      41.520  28.440  31.360  1.00  0.00     0.167 HD
ATOM     51  C   UNL A   1      42.313  28.962  34.128  1.00  0.00     0.074 A 
ATOM     52  C   UNL A   1      42.376  29.437  35.499  1.00  0.00     0.031 C 
ATOM     53  C   UNL A   1      43.211  28.113  33.577  1.00  0.00     0.031 A 
BRANCH  40  54
ATOM     54  C   UNL A   1      42.333  26.538  27.646  1.00  0.00    -0.014 A 
ATOM     55  C   UNL A   1      42.895  27.230  26.555  1.00  0.00     0.009 A 
ATOM     56  C   UNL A   1      42.103  25.161  27.522  1.00  0.00     0.009 A 
ATOM     57  C   UNL A   1      43.194  26.566  25.364  1.00  0.00     0.001 A 
ATOM     58  C   UNL A   1      42.435  24.493  26.340  1.00  0.00     0.001 A 
ATOM     59  C   UNL A   1      42.972  25.196  25.262  1.00  0.00     0.000 A 
ENDBRANCH  40  54
BRANCH  41  60
ATOM     60  C   UNL A   1      38.912  31.879  35.623  1.00  0.00    -0.014 A 
ATOM     61  C   UNL A   1      39.191  33.247  35.773  1.00  0.00     0.009 A 
ATOM     62  C   UNL A   1      38.148  31.248  36.622  1.00  0.00     0.009 A 
ATOM     63  C   UNL A   1      38.773  33.945  36.910  1.00  0.00     0.001 A 
ATOM     64  C   UNL A   1      37.683  31.960  37.733  1.00  0.00     0.001 A 
ATOM     65  C   UNL A   1      38.017  33.302  37.889  1.00  0.00     0.000 A 
ENDBRANCH  41  60
BRANCH  53  66
ATOM     66  C   UNL A   1      44.376  27.750  34.430  1.00  0.00    -0.014 A 
ATOM     67  C   UNL A   1      45.529  28.542  34.472  1.00  0.00     0.009 A 
ATOM     68  C   UNL A   1      44.258  26.629  35.264  1.00  0.00     0.009 A 
ATOM     69  C   UNL A   1      46.570  28.190  35.323  1.00  0.00     0.001 A 
ATOM     70  C   UNL A   1      45.277  26.313  36.152  1.00  0.00     0.001 A 
ATOM     71  C   UNL A   1      46.437  27.088  36.170  1.00  0.00     0.000 A 
ENDBRANCH  53  66
ENDBRANCH  27  28
ENDBRANCH  20  22
ENDBRANCH  19  20
ENDBRANCH   1  19
TORSDOF 12
ENDMDL
MODEL 2
REMARK VINA RESULT:     -11.0      7.133     10.100
REMARK SMILES CC1(C)CCN(c2ncccc2C(=O)OCCOC(=O)c2ccc(-c3c4nc(c(-c5ccccc5)c5ccc([nH]5)c(-c5ccccc5)c5nc(c(-c6ccccc6)c6ccc3[nH]6)C=C5)C=C4)cc2)C1
REMARK SMILES IDX 17 1 16 2 15 3 13 4 14 5 12 6 7 7 8 8 9 9 11 10 10 11 6 12
REMARK SMILES IDX 1 13 2 14 3 15 4 16 69 17 5 18 18 19 19 20 20 21 21 22 22 23
REMARK SMILES IDX 68 24 23 25 67 26 24 27 25 28 26 29 61 30 27 31 66 32 60 33
REMARK SMILES IDX 62 34 28 35 65 36 59 37 58 38 29 40 51 41 36 42 50 43 37 44
REMARK SMILES IDX 40 45 49 46 63 47 38 48 39 49 48 51 64 52 41 53 30 54 31 55
REMARK SMILES IDX 35 56 32 57 34 58 33 59 52 60 53 61 57 62 54 63 56 64 55 65
REMARK SMILES IDX 42 66 43 67 47 68 44 69 46 70 45 71
REMARK H PARENT 62 39 40 50
REMARK Flexibility Score: inf
ROOT
ATOM      1  C   UNL A   1      39.700  22.226  26.724  1.00  0.00     0.275 C 
ENDROOT
BRANCH   1   2
ATOM      2  C   UNL A   1      38.522  22.911  26.028  1.00  0.00     0.275 C 
BRANCH   2   3
ATOM      3  O   UNL A   1      37.500  21.954  25.636  1.00  0.00    -0.458 OA
BRANCH   3   4
ATOM      4  C   UNL A   1      36.722  22.275  24.559  1.00  0.00     0.342 C 
ATOM      5  O   UNL A   1      37.049  23.029  23.657  1.00  0.00    -0.246 OA
BRANCH   4   6
ATOM      6  C   UNL A   1      35.386  21.627  24.640  1.00  0.00     0.102 A 
ATOM      7  C   UNL A   1      34.136  22.294  24.618  1.00  0.00     0.143 A 
ATOM      8  N   UNL A   1      32.988  21.595  24.817  1.00  0.00    -0.238 NA
ATOM      9  C   UNL A   1      33.048  20.261  25.011  1.00  0.00     0.113 A 
ATOM     10  C   UNL A   1      35.408  20.235  24.815  1.00  0.00     0.021 A 
ATOM     11  C   UNL A   1      34.222  19.539  24.996  1.00  0.00     0.021 A 
BRANCH   7  12
ATOM     12  N   UNL A   1      33.897  23.542  24.060  1.00  0.00    -0.355 N 
ATOM     13  C   UNL A   1      33.647  26.767  25.748  1.00  0.00     0.013 C 
ATOM     14  C   UNL A   1      32.233  26.218  24.498  1.00  0.00    -0.016 C 
ATOM     15  C   UNL A   1      30.603  26.816  23.685  1.00  0.00     0.013 C 
ATOM     16  C   UNL A   1      32.092  25.441  22.489  1.00  0.00     0.030 C 
ATOM     17  C   UNL A   1      33.400  24.679  25.372  1.00  0.00     0.124 C 
ATOM     18  C   UNL A   1      33.224  23.841  22.459  1.00  0.00     0.119 C 
ENDBRANCH   7  12
ENDBRANCH   4   6
ENDBRANCH   3   4
ENDBRANCH   2   3
ENDBRANCH   1   2
BRANCH   1  19
ATOM     19  O   UNL A   1      40.792  23.148  26.758  1.00  0.00    -0.458 OA
BRANCH  19  20
ATOM     20  C   UNL A   1      41.900  22.648  26.192  1.00  0.00     0.338 C 
ATOM     21  O   UNL A   1      42.050  21.629  25.542  1.00  0.00    -0.246 OA
BRANCH  20  22
ATOM     22  C   UNL A   1      42.971  23.602  26.351  1.00  0.00     0.060 A 
ATOM     23  C   UNL A   1      43.679  23.919  28.016  1.00  0.00     0.016 A 
ATOM     24  C   UNL A   1      43.286  24.756  25.021  1.00  0.00     0.016 A 
ATOM     25  C   UNL A   1      44.505  25.787  28.346  1.00  0.00     0.010 A 
ATOM     26  C   UNL A   1      44.499  26.094  25.179  1.00  0.00     0.010 A 
ATOM     27  C   UNL A   1      45.178  26.643  26.801  1.00  0.00    -0.014 A 
BRANCH  27  28
ATOM     28  C   UNL A   1      46.161  27.754  26.586  1.00  0.00     0.031 A 
ATOM     29  C   UNL A   1      47.671  27.468  26.530  1.00  0.00     0.074 A 
ATOM     30  C   UNL A   1      45.736  29.028  26.735  1.00  0.00     0.049 A 
ATOM     31  N   UNL A   1      48.655  28.317  26.346  1.00  0.00    -0.248 NA
ATOM     32  C   UNL A   1      48.186  26.098  26.754  1.00  0.00     0.031 C 
ATOM     33  C   UNL A   1      44.409  29.413  27.188  1.00  0.00     0.029 A 
ATOM     34  N   UNL A   1      46.335  30.247  26.567  1.00  0.00    -0.354 N 
ATOM     35  C   UNL A   1      49.825  27.558  26.347  1.00  0.00     0.074 A 
ATOM     36  C   UNL A   1      49.486  26.203  26.618  1.00  0.00     0.031 C 
ATOM     37  C   UNL A   1      44.187  30.716  27.009  1.00  0.00     0.029 A 
ATOM     38  C   UNL A   1      45.460  31.314  26.686  1.00  0.00     0.049 A 
ATOM     39  H   UNL A   1      47.295  30.356  26.380  1.00  0.00     0.167 HD
ATOM     40  C   UNL A   1      51.104  27.939  26.161  1.00  0.00     0.031 A 
ATOM     41  C   UNL A   1      45.673  32.638  26.643  1.00  0.00     0.031 A 
ATOM     42  C   UNL A   1      51.460  29.314  26.097  1.00  0.00     0.049 A 
ATOM     43  C   UNL A   1      47.105  33.044  26.507  1.00  0.00     0.074 A 
ATOM     44  C   UNL A   1      52.706  29.878  25.962  1.00  0.00     0.029 A 
ATOM     45  N   UNL A   1      50.534  30.341  26.216  1.00  0.00    -0.354 N 
ATOM     46  N   UNL A   1      48.163  32.275  26.405  1.00  0.00    -0.248 NA
ATOM     47  C   UNL A   1      47.386  34.479  26.511  1.00  0.00     0.031 C 
ATOM     48  C   UNL A   1      52.540  31.261  26.053  1.00  0.00     0.029 A 
ATOM     49  C   UNL A   1      51.183  31.550  26.152  1.00  0.00     0.049 A 
ATOM     50  H   UNL A   1      49.564  30.222  26.330  1.00  0.00     0.167 HD
ATOM     51  C   UNL A   1      49.239  33.130  26.289  1.00  0.00     0.074 A 
ATOM     52  C   UNL A   1      48.697  34.478  26.321  1.00  0.00     0.031 C 
ATOM     53  C   UNL A   1      50.556  32.843  26.168  1.00  0.00     0.031 A 
BRANCH  40  54
ATOM     54  C   UNL A   1      52.141  26.852  26.067  1.00  0.00    -0.014 A 
ATOM     55  C   UNL A   1      52.922  26.517  27.190  1.00  0.00     0.009 A 
ATOM     56  C   UNL A   1      52.399  26.202  24.852  1.00  0.00     0.009 A 
ATOM     57  C   UNL A   1      53.951  25.579  27.093  1.00  0.00     0.001 A 
ATOM     58  C   UNL A   1      53.408  25.238  24.766  1.00  0.00     0.001 A 
ATOM     59  C   UNL A   1      54.186  24.933  25.883  1.00  0.00     0.000 A 
ENDBRANCH  40  54
BRANCH  41  60
ATOM     60  C   UNL A   1      44.568  33.634  26.785  1.00  0.00    -0.014 A 
ATOM     61  C   UNL A   1      43.925  34.149  25.648  1.00  0.00     0.009 A 
ATOM     62  C   UNL A   1      44.151  34.098  28.046  1.00  0.00     0.009 A 
ATOM     63  C   UNL A   1      42.942  35.136  25.764  1.00  0.00     0.001 A 
ATOM     64  C   UNL A   1      43.128  35.045  28.164  1.00  0.00     0.001 A 
ATOM     65  C   UNL A   1      42.541  35.582  27.022  1.00  0.00     0.000 A 
ENDBRANCH  41  60
BRANCH  53  66
ATOM     66  C   UNL A   1      51.461  34.006  25.952  1.00  0.00    -0.014 A 
ATOM     67  C   UNL A   1      52.127  34.623  27.017  1.00  0.00     0.009 A 
ATOM     68  C   UNL A   1      51.700  34.419  24.634  1.00  0.00     0.009 A 
ATOM     69  C   UNL A   1      53.001  35.672  26.761  1.00  0.00     0.001 A 
ATOM     70  C   UNL A   1      52.616  35.430  24.379  1.00  0.00     0.001 A 
ATOM     71  C   UNL A   1      53.255  36.064  25.444  1.00  0.00     0.000 A 
ENDBRANCH  53  66
ENDBRANCH  27  28
ENDBRANCH  20  22
ENDBRANCH  19  20
ENDBRANCH   1  19
TORSDOF 12
ENDMDL
MODEL 3
REMARK VINA RESULT:     -10.9      3.991      6.133
REMARK SMILES CC1(C)CCN(c2ncccc2C(=O)OCCOC(=O)c2ccc(-c3c4nc(c(-c5ccccc5)c5ccc([nH]5)c(-c5ccccc5)c5nc(c(-c6ccccc6)c6ccc3[nH]6)C=C5)C=C4)cc2)C1
REMARK SMILES IDX 17 1 16 2 15 3 13 4 14 5 12 6 7 7 8 8 9 9 11 10 10 11 6 12
REMARK SMILES IDX 1 13 2 14 3 15 4 16 69 17 5 18 18 19 19 20 20 21 21 22 22 23
REMARK SMILES IDX 68 24 23 25 67 26 24 27 25 28 26 29 61 30 27 31 66 32 60 33
REMARK SMILES IDX 62 34 28 35 65 36 59 37 58 38 29 40 51 41 36 42 50 43 37 44
REMARK SMILES IDX 40 45 49 46 63 47 38 48 39 49 48 51 64 52 41 53 30 54 31 55
REMARK SMILES IDX 35 56 32 57 34 58 33 59 52 60 53 61 57 62 54 63 56 64 55 65
REMARK SMILES IDX 42 66 43 67 47 68 44 69 46 70 45 71
REMARK H PARENT 62 39 40 50
REMARK Flexibility Score: inf
ROOT
ATOM      1  C   UNL A   1      33.895  28.973  27.710  1.00  0.00     0.275 C 
ENDROOT
BRANCH   1   2
ATOM      2  C   UNL A   1      32.595  28.507  27.052  1.00  0.00     0.275 C 
BRANCH   2   3
ATOM      3  O   UNL A   1      32.643  27.094  26.712  1.00  0.00    -0.458 OA
BRANCH   3   4
ATOM      4  C   UNL A   1      31.501  26.530  26.215  1.00  0.00     0.342 C 
ATOM      5  O   UNL A   1      30.635  25.993  26.886  1.00  0.00    -0.246 OA
BRANCH   4   6
ATOM      6  C   UNL A   1      31.459  26.602  24.730  1.00  0.00     0.102 A 
ATOM      7  C   UNL A   1      32.407  26.034  23.843  1.00  0.00     0.143 A 
ATOM      8  N   UNL A   1      32.316  26.270  22.508  1.00  0.00    -0.238 NA
ATOM      9  C   UNL A   1      31.305  27.028  22.035  1.00  0.00     0.113 A 
ATOM     10  C   UNL A   1      30.404  27.360  24.199  1.00  0.00     0.021 A 
ATOM     11  C   UNL A   1      30.320  27.572  22.832  1.00  0.00     0.021 A 
BRANCH   7  12
ATOM     12  N   UNL A   1      33.234  24.956  24.127  1.00  0.00    -0.355 N 
ATOM     13  C   UNL A   1      32.501  21.396  23.810  1.00  0.00     0.013 C 
ATOM     14  C   UNL A   1      33.242  22.084  25.495  1.00  0.00    -0.016 C 
ATOM     15  C   UNL A   1      33.852  21.533  27.229  1.00  0.00     0.013 C 
ATOM     16  C   UNL A   1      34.885  23.337  26.124  1.00  0.00     0.030 C 
ATOM     17  C   UNL A   1      32.220  23.466  24.255  1.00  0.00     0.124 C 
ATOM     18  C   UNL A   1      34.688  25.009  25.121  1.00  0.00     0.119 C 
ENDBRANCH   7  12
ENDBRANCH   4   6
ENDBRANCH   3   4
ENDBRANCH   2   3
ENDBRANCH   1   2
BRANCH   1  19
ATOM     19  O   UNL A   1      33.972  30.395  27.580  1.00  0.00    -0.458 OA
BRANCH  19  20
ATOM     20  C   UNL A   1      34.719  30.955  28.542  1.00  0.00     0.338 C 
ATOM     21  O   UNL A   1      34.428  31.820  29.349  1.00  0.00    -0.246 OA
BRANCH  20  22
ATOM     22  C   UNL A   1      35.990  30.274  28.596  1.00  0.00     0.060 A 
ATOM     23  C   UNL A   1      36.615  29.618  30.194  1.00  0.00     0.016 A 
ATOM     24  C   UNL A   1      37.113  30.460  27.216  1.00  0.00     0.016 A 
ATOM     25  C   UNL A   1      38.667  29.473  30.412  1.00  0.00     0.010 A 
ATOM     26  C   UNL A   1      38.793  29.779  27.247  1.00  0.00     0.010 A 
ATOM     27  C   UNL A   1      39.623  29.235  28.799  1.00  0.00    -0.014 A 
BRANCH  27  28
ATOM     28  C   UNL A   1      40.992  28.712  28.482  1.00  0.00     0.031 A 
ATOM     29  C   UNL A   1      41.225  27.212  28.237  1.00  0.00     0.074 A 
ATOM     30  C   UNL A   1      42.055  29.518  28.701  1.00  0.00     0.049 A 
ATOM     31  N   UNL A   1      42.348  26.598  27.947  1.00  0.00    -0.248 NA
ATOM     32  C   UNL A   1      40.111  26.246  28.375  1.00  0.00     0.031 C 
ATOM     33  C   UNL A   1      41.988  30.832  29.318  1.00  0.00     0.029 A 
ATOM     34  N   UNL A   1      43.399  29.386  28.479  1.00  0.00    -0.354 N 
ATOM     35  C   UNL A   1      42.022  25.251  27.792  1.00  0.00     0.074 A 
ATOM     36  C   UNL A   1      40.640  25.082  28.083  1.00  0.00     0.031 C 
ATOM     37  C   UNL A   1      43.137  31.497  29.188  1.00  0.00     0.029 A 
ATOM     38  C   UNL A   1      44.116  30.546  28.721  1.00  0.00     0.049 A 
ATOM     39  H   UNL A   1      43.817  28.547  28.177  1.00  0.00     0.167 HD
ATOM     40  C   UNL A   1      42.803  24.205  27.458  1.00  0.00     0.031 A 
ATOM     41  C   UNL A   1      45.434  30.794  28.671  1.00  0.00     0.031 A 
ATOM     42  C   UNL A   1      44.215  24.340  27.370  1.00  0.00     0.049 A 
ATOM     43  C   UNL A   1      46.290  29.607  28.367  1.00  0.00     0.074 A 
ATOM     44  C   UNL A   1      45.160  23.379  27.093  1.00  0.00     0.029 A 
ATOM     45  N   UNL A   1      44.879  25.534  27.618  1.00  0.00    -0.354 N 
ATOM     46  N   UNL A   1      45.915  28.373  28.124  1.00  0.00    -0.248 NA
ATOM     47  C   UNL A   1      47.736  29.824  28.358  1.00  0.00     0.031 C 
ATOM     48  C   UNL A   1      46.409  23.986  27.224  1.00  0.00     0.029 A 
ATOM     49  C   UNL A   1      46.232  25.339  27.493  1.00  0.00     0.049 A 
ATOM     50  H   UNL A   1      44.446  26.388  27.848  1.00  0.00     0.167 HD
ATOM     51  C   UNL A   1      47.077  27.668  27.890  1.00  0.00     0.074 A 
ATOM     52  C   UNL A   1      48.167  28.620  28.009  1.00  0.00     0.031 C 
ATOM     53  C   UNL A   1      47.242  26.355  27.605  1.00  0.00     0.031 A 
BRANCH  40  54
ATOM     54  C   UNL A   1      42.121  22.884  27.220  1.00  0.00    -0.014 A 
ATOM     55  C   UNL A   1      42.073  21.918  28.244  1.00  0.00     0.009 A 
ATOM     56  C   UNL A   1      41.587  22.560  25.966  1.00  0.00     0.009 A 
ATOM     57  C   UNL A   1      41.529  20.653  28.010  1.00  0.00     0.001 A 
ATOM     58  C   UNL A   1      41.012  21.305  25.744  1.00  0.00     0.001 A 
ATOM     59  C   UNL A   1      40.990  20.352  26.762  1.00  0.00     0.000 A 
ENDBRANCH  40  54
BRANCH  41  60
ATOM     60  C   UNL A   1      46.008  32.142  28.963  1.00  0.00    -0.014 A 
ATOM     61  C   UNL A   1      46.393  32.483  30.269  1.00  0.00     0.009 A 
ATOM     62  C   UNL A   1      46.164  33.111  27.954  1.00  0.00     0.009 A 
ATOM     63  C   UNL A   1      46.862  33.767  30.568  1.00  0.00     0.001 A 
ATOM     64  C   UNL A   1      46.684  34.377  28.243  1.00  0.00     0.001 A 
ATOM     65  C   UNL A   1      47.010  34.712  29.555  1.00  0.00     0.000 A 
ENDBRANCH  41  60
BRANCH  53  66
ATOM     66  C   UNL A   1      48.634  25.924  27.298  1.00  0.00    -0.014 A 
ATOM     67  C   UNL A   1      49.162  26.020  26.006  1.00  0.00     0.009 A 
ATOM     68  C   UNL A   1      49.440  25.493  28.361  1.00  0.00     0.009 A 
ATOM     69  C   UNL A   1      50.484  25.654  25.778  1.00  0.00     0.001 A 
ATOM     70  C   UNL A   1      50.774  25.181  28.139  1.00  0.00     0.001 A 
ATOM     71  C   UNL A   1      51.289  25.249  26.845  1.00  0.00     0.000 A 
ENDBRANCH  53  66
ENDBRANCH  27  28
ENDBRANCH  20  22
ENDBRANCH  19  20
ENDBRANCH   1  19
TORSDOF 12
ENDMDL
