MODEL 1
REMARK VINA RESULT:      -9.6      0.000      0.000
REMARK SMILES CC1CC[NH+]([C@H](c2ccc(F)cc2)c2ccc([C@@H](C)C(=O)OCCOC(=O)c3ccc(-c4c5nc(c(-c6ccccc6)c6ccc([nH]6)c(-c6ccccc6)c6nc(c(-c7ccccc7)c7ccc4[nH]7)C=C6)C=C5)cc3)cc2-c2ccc(C(F)(F)F)cc2)CC1
REMARK SMILES IDX 23 1 22 2 20 3 21 4 18 5 19 6 17 7 14 8 15 9 77 10 16 11
REMARK SMILES IDX 76 12 6 13 5 14 1 15 2 16 3 17 89 18 4 19 88 20 7 22 8 23
REMARK SMILES IDX 13 24 9 25 12 26 10 27 11 28 78 29 79 30 87 31 80 32 86 33
REMARK SMILES IDX 81 34 82 35 83 36 84 37 85 38 24 39 25 40 26 41 27 42 28 43
REMARK SMILES IDX 29 44 75 45 30 46 74 47 31 48 32 49 33 50 68 51 34 52 73 53
REMARK SMILES IDX 67 54 69 55 35 56 72 57 66 58 65 59 36 61 58 62 43 63 57 64
REMARK SMILES IDX 44 65 47 66 56 67 70 68 45 69 46 70 55 72 71 73 48 74 37 75
REMARK SMILES IDX 38 76 42 77 39 78 41 79 40 80 59 81 60 82 64 83 61 84 63 85
REMARK SMILES IDX 62 86 49 87 50 88 54 89 51 90 53 91 52 92
REMARK H PARENT 5 21 69 60 47 71
REMARK Flexibility Score: inf
ROOT
ATOM      1  C   UNL A   1      47.029  23.143  36.353  1.00  0.00     0.274 C 
ENDROOT
BRANCH   1   2
ATOM      2  O   UNL A   1      46.695  22.848  34.985  1.00  0.00    -0.462 OA
BRANCH   2   3
ATOM      3  C   UNL A   1      45.403  22.543  34.695  1.00  0.00     0.313 C 
ATOM      4  O   UNL A   1      44.950  21.403  34.680  1.00  0.00    -0.252 OA
BRANCH   3   5
ATOM      5  C   UNL A   1      44.556  23.767  34.337  1.00  0.00     0.126 C 
ATOM      6  C   UNL A   1      43.075  23.397  34.363  1.00  0.00     0.025 C 
BRANCH   5   7
ATOM      7  C   UNL A   1      44.953  24.473  33.048  1.00  0.00    -0.033 A 
ATOM      8  C   UNL A   1      45.636  25.860  30.631  1.00  0.00     0.022 A 
ATOM      9  C   UNL A   1      46.093  26.268  31.899  1.00  0.00     0.011 A 
ATOM     10  C   UNL A   1      44.812  24.699  30.585  1.00  0.00    -0.009 A 
ATOM     11  C   UNL A   1      45.790  25.582  33.070  1.00  0.00     0.005 A 
ATOM     12  C   UNL A   1      44.482  24.038  31.798  1.00  0.00     0.013 A 
BRANCH   8  13
ATOM     13  C   UNL A   1      46.061  26.625  29.342  1.00  0.00     0.247 C 
BRANCH  13  14
ATOM     14  N   UNL A   1      47.519  26.652  28.984  1.00  0.00    -0.325 N 
ATOM     15  C   UNL A   1      51.055  25.303  26.741  1.00  0.00     0.008 C 
ATOM     16  C   UNL A   1      49.676  25.542  27.346  1.00  0.00    -0.003 C 
ATOM     17  C   UNL A   1      49.180  26.963  27.083  1.00  0.00     0.065 C 
ATOM     18  C   UNL A   1      49.689  25.344  28.857  1.00  0.00     0.065 C 
ATOM     19  C   UNL A   1      47.769  27.173  27.637  1.00  0.00     0.263 C 
ATOM     20  C   UNL A   1      48.283  25.488  29.440  1.00  0.00     0.263 C 
ATOM     21  H   UNL A   1      47.957  27.367  29.564  1.00  0.00     0.348 HD
ENDBRANCH  13  14
BRANCH  13  22
ATOM     22  C   UNL A   1      45.442  28.026  29.199  1.00  0.00     0.014 A 
ATOM     23  C   UNL A   1      44.558  28.349  28.153  1.00  0.00     0.013 A 
ATOM     24  C   UNL A   1      45.746  29.018  30.154  1.00  0.00     0.013 A 
ATOM     25  C   UNL A   1      43.994  29.624  28.067  1.00  0.00     0.040 A 
ATOM     26  C   UNL A   1      45.198  30.297  30.052  1.00  0.00     0.040 A 
ATOM     27  C   UNL A   1      44.324  30.586  29.013  1.00  0.00     0.123 A 
ATOM     28  F   UNL A   1      43.788  31.811  28.924  1.00  0.00    -0.207 F 
ENDBRANCH  13  22
ENDBRANCH   8  13
BRANCH  10  29
ATOM     29  C   UNL A   1      44.261  24.143  29.334  1.00  0.00    -0.018 A 
ATOM     30  C   UNL A   1      45.100  23.499  28.409  1.00  0.00     0.009 A 
ATOM     31  C   UNL A   1      42.895  24.239  29.033  1.00  0.00     0.009 A 
ATOM     32  C   UNL A   1      44.581  22.924  27.244  1.00  0.00     0.014 A 
ATOM     33  C   UNL A   1      42.371  23.659  27.871  1.00  0.00     0.014 A 
ATOM     34  C   UNL A   1      43.207  22.982  26.972  1.00  0.00     0.056 A 
BRANCH  34  35
ATOM     35  C   UNL A   1      42.652  22.333  25.727  1.00  0.00     0.416 C 
ATOM     36  F   UNL A   1      41.313  22.102  25.812  1.00  0.00    -0.166 F 
ATOM     37  F   UNL A   1      42.829  23.096  24.611  1.00  0.00    -0.166 F 
ATOM     38  F   UNL A   1      43.222  21.127  25.443  1.00  0.00    -0.166 F 
ENDBRANCH  34  35
ENDBRANCH  10  29
ENDBRANCH   5   7
ENDBRANCH   3   5
ENDBRANCH   2   3
ENDBRANCH   1   2
BRANCH   1  39
ATOM     39  C   UNL A   1      47.370  24.624  36.518  1.00  0.00     0.275 C 
BRANCH  39  40
ATOM     40  O   UNL A   1      46.203  25.360  36.927  1.00  0.00    -0.458 OA
BRANCH  40  41
ATOM     41  C   UNL A   1      46.328  26.705  36.926  1.00  0.00     0.338 C 
ATOM     42  O   UNL A   1      47.187  27.382  37.460  1.00  0.00    -0.246 OA
BRANCH  41  43
ATOM     43  C   UNL A   1      45.291  27.264  36.048  1.00  0.00     0.060 A 
ATOM     44  C   UNL A   1      45.640  28.316  35.200  1.00  0.00     0.016 A 
ATOM     45  C   UNL A   1      43.979  26.796  36.102  1.00  0.00     0.016 A 
ATOM     46  C   UNL A   1      44.677  28.917  34.398  1.00  0.00     0.010 A 
ATOM     47  C   UNL A   1      43.011  27.395  35.293  1.00  0.00     0.010 A 
ATOM     48  C   UNL A   1      43.353  28.466  34.447  1.00  0.00    -0.014 A 
BRANCH  48  49
ATOM     49  C   UNL A   1      42.314  29.161  33.656  1.00  0.00     0.031 A 
ATOM     50  C   UNL A   1      41.625  30.363  34.231  1.00  0.00     0.074 A 
ATOM     51  C   UNL A   1      41.999  28.721  32.426  1.00  0.00     0.049 A 
ATOM     52  N   UNL A   1      40.642  31.067  33.734  1.00  0.00    -0.248 NA
ATOM     53  C   UNL A   1      42.104  30.828  35.541  1.00  0.00     0.031 C 
ATOM     54  C   UNL A   1      42.627  27.588  31.747  1.00  0.00     0.029 A 
ATOM     55  N   UNL A   1      41.062  29.175  31.533  1.00  0.00    -0.354 N 
ATOM     56  C   UNL A   1      40.364  32.043  34.681  1.00  0.00     0.074 A 
ATOM     57  C   UNL A   1      41.274  31.831  35.788  1.00  0.00     0.031 C 
ATOM     58  C   UNL A   1      42.053  27.430  30.543  1.00  0.00     0.029 A 
ATOM     59  C   UNL A   1      40.993  28.422  30.387  1.00  0.00     0.049 A 
ATOM     60  H   UNL A   1      40.496  29.963  31.698  1.00  0.00     0.167 HD
ATOM     61  C   UNL A   1      39.433  33.025  34.635  1.00  0.00     0.031 A 
ATOM     62  C   UNL A   1      40.148  28.504  29.343  1.00  0.00     0.031 A 
ATOM     63  C   UNL A   1      38.528  33.231  33.536  1.00  0.00     0.049 A 
ATOM     64  C   UNL A   1      39.091  29.572  29.332  1.00  0.00     0.074 A 
ATOM     65  C   UNL A   1      37.563  34.211  33.383  1.00  0.00     0.029 A 
ATOM     66  N   UNL A   1      38.472  32.434  32.402  1.00  0.00    -0.354 N 
ATOM     67  N   UNL A   1      38.844  30.496  30.228  1.00  0.00    -0.248 NA
ATOM     68  C   UNL A   1      38.199  29.607  28.164  1.00  0.00     0.031 C 
ATOM     69  C   UNL A   1      36.892  33.978  32.177  1.00  0.00     0.029 A 
ATOM     70  C   UNL A   1      37.472  32.882  31.557  1.00  0.00     0.049 A 
ATOM     71  H   UNL A   1      39.059  31.663  32.224  1.00  0.00     0.167 HD
ATOM     72  C   UNL A   1      37.776  31.230  29.731  1.00  0.00     0.074 A 
ATOM     73  C   UNL A   1      37.434  30.654  28.445  1.00  0.00     0.031 C 
ATOM     74  C   UNL A   1      37.135  32.286  30.289  1.00  0.00     0.031 A 
BRANCH  61  75
ATOM     75  C   UNL A   1      39.319  33.911  35.842  1.00  0.00    -0.014 A 
ATOM     76  C   UNL A   1      39.960  35.159  35.899  1.00  0.00     0.009 A 
ATOM     77  C   UNL A   1      38.564  33.483  36.945  1.00  0.00     0.009 A 
ATOM     78  C   UNL A   1      39.884  35.939  37.056  1.00  0.00     0.001 A 
ATOM     79  C   UNL A   1      38.468  34.277  38.088  1.00  0.00     0.001 A 
ATOM     80  C   UNL A   1      39.136  35.498  38.148  1.00  0.00     0.000 A 
ENDBRANCH  61  75
BRANCH  62  81
ATOM     81  C   UNL A   1      40.256  27.518  28.240  1.00  0.00    -0.014 A 
ATOM     82  C   UNL A   1      39.503  26.335  28.258  1.00  0.00     0.009 A 
ATOM     83  C   UNL A   1      41.092  27.776  27.141  1.00  0.00     0.009 A 
ATOM     84  C   UNL A   1      39.591  25.428  27.199  1.00  0.00     0.001 A 
ATOM     85  C   UNL A   1      41.158  26.878  26.074  1.00  0.00     0.001 A 
ATOM     86  C   UNL A   1      40.411  25.703  26.106  1.00  0.00     0.000 A 
ENDBRANCH  62  81
BRANCH  74  87
ATOM     87  C   UNL A   1      36.008  32.893  29.504  1.00  0.00    -0.014 A 
ATOM     88  C   UNL A   1      34.749  32.275  29.449  1.00  0.00     0.009 A 
ATOM     89  C   UNL A   1      36.196  34.118  28.845  1.00  0.00     0.009 A 
ATOM     90  C   UNL A   1      33.708  32.859  28.723  1.00  0.00     0.001 A 
ATOM     91  C   UNL A   1      35.148  34.710  28.139  1.00  0.00     0.001 A 
ATOM     92  C   UNL A   1      33.907  34.077  28.073  1.00  0.00     0.000 A 
ENDBRANCH  74  87
ENDBRANCH  48  49
ENDBRANCH  41  43
ENDBRANCH  40  41
ENDBRANCH  39  40
ENDBRANCH   1  39
TORSDOF 17
ENDMDL
MODEL 2
REMARK VINA RESULT:      -9.4      5.658     10.833
REMARK SMILES CC1CC[NH+]([C@H](c2ccc(F)cc2)c2ccc([C@@H](C)C(=O)OCCOC(=O)c3ccc(-c4c5nc(c(-c6ccccc6)c6ccc([nH]6)c(-c6ccccc6)c6nc(c(-c7ccccc7)c7ccc4[nH]7)C=C6)C=C5)cc3)cc2-c2ccc(C(F)(F)F)cc2)CC1
REMARK SMILES IDX 23 1 22 2 20 3 21 4 18 5 19 6 17 7 14 8 15 9 77 10 16 11
REMARK SMILES IDX 76 12 6 13 5 14 1 15 2 16 3 17 89 18 4 19 88 20 7 22 8 23
REMARK SMILES IDX 13 24 9 25 12 26 10 27 11 28 78 29 79 30 87 31 80 32 86 33
REMARK SMILES IDX 81 34 82 35 83 36 84 37 85 38 24 39 25 40 26 41 27 42 28 43
REMARK SMILES IDX 29 44 75 45 30 46 74 47 31 48 32 49 33 50 68 51 34 52 73 53
REMARK SMILES IDX 67 54 69 55 35 56 72 57 66 58 65 59 36 61 58 62 43 63 57 64
REMARK SMILES IDX 44 65 47 66 56 67 70 68 45 69 46 70 55 72 71 73 48 74 37 75
REMARK SMILES IDX 38 76 42 77 39 78 41 79 40 80 59 81 60 82 64 83 61 84 63 85
REMARK SMILES IDX 62 86 49 87 50 88 54 89 51 90 53 91 52 92
REMARK H PARENT 5 21 69 60 47 71
REMARK Flexibility Score: inf
ROOT
ATOM      1  C   UNL A   1      42.548  21.047  26.008  1.00  0.00     0.274 C 
ENDROOT
BRANCH   1   2
ATOM      2  O   UNL A   1      41.289  21.424  25.421  1.00  0.00    -0.462 OA
BRANCH   2   3
ATOM      3  C   UNL A   1      40.255  21.709  26.257  1.00  0.00     0.313 C 
ATOM      4  O   UNL A   1      40.075  21.164  27.341  1.00  0.00    -0.252 OA
BRANCH   3   5
ATOM      5  C   UNL A   1      39.292  22.757  25.695  1.00  0.00     0.126 C 
ATOM      6  C   UNL A   1      39.314  24.004  26.576  1.00  0.00     0.025 C 
BRANCH   5   7
ATOM      7  C   UNL A   1      37.878  22.261  25.432  1.00  0.00    -0.033 A 
ATOM      8  C   UNL A   1      35.238  21.292  24.860  1.00  0.00     0.022 A 
ATOM      9  C   UNL A   1      36.228  20.495  25.467  1.00  0.00     0.011 A 
ATOM     10  C   UNL A   1      35.596  22.633  24.543  1.00  0.00    -0.009 A 
ATOM     11  C   UNL A   1      37.499  20.969  25.774  1.00  0.00     0.005 A 
ATOM     12  C   UNL A   1      36.912  23.083  24.828  1.00  0.00     0.013 A 
BRANCH   8  13
ATOM     13  C   UNL A   1      33.807  20.733  24.601  1.00  0.00     0.247 C 
BRANCH  13  14
ATOM     14  N   UNL A   1      32.651  21.407  25.279  1.00  0.00    -0.325 N 
ATOM     15  C   UNL A   1      30.297  24.917  26.501  1.00  0.00     0.008 C 
ATOM     16  C   UNL A   1      31.309  23.922  25.945  1.00  0.00    -0.003 C 
ATOM     17  C   UNL A   1      30.671  22.969  24.936  1.00  0.00     0.065 C 
ATOM     18  C   UNL A   1      31.913  23.066  27.051  1.00  0.00     0.065 C 
ATOM     19  C   UNL A   1      31.709  22.017  24.334  1.00  0.00     0.263 C 
ATOM     20  C   UNL A   1      32.999  22.142  26.498  1.00  0.00     0.263 C 
ATOM     21  H   UNL A   1      32.076  20.674  25.694  1.00  0.00     0.348 HD
ENDBRANCH  13  14
BRANCH  13  22
ATOM     22  C   UNL A   1      33.690  19.204  24.722  1.00  0.00     0.014 A 
ATOM     23  C   UNL A   1      32.866  18.592  25.686  1.00  0.00     0.013 A 
ATOM     24  C   UNL A   1      34.408  18.381  23.832  1.00  0.00     0.013 A 
ATOM     25  C   UNL A   1      32.763  17.201  25.753  1.00  0.00     0.040 A 
ATOM     26  C   UNL A   1      34.320  16.991  23.916  1.00  0.00     0.040 A 
ATOM     27  C   UNL A   1      33.495  16.415  24.872  1.00  0.00     0.123 A 
ATOM     28  F   UNL A   1      33.401  15.080  24.944  1.00  0.00    -0.207 F 
ENDBRANCH  13  22
ENDBRANCH   8  13
BRANCH  10  29
ATOM     29  C   UNL A   1      34.668  23.593  23.912  1.00  0.00    -0.018 A 
ATOM     30  C   UNL A   1      34.352  24.804  24.549  1.00  0.00     0.009 A 
ATOM     31  C   UNL A   1      34.081  23.328  22.666  1.00  0.00     0.009 A 
ATOM     32  C   UNL A   1      33.514  25.743  23.937  1.00  0.00     0.014 A 
ATOM     33  C   UNL A   1      33.248  24.268  22.048  1.00  0.00     0.014 A 
ATOM     34  C   UNL A   1      32.968  25.492  22.671  1.00  0.00     0.056 A 
BRANCH  34  35
ATOM     35  C   UNL A   1      32.089  26.524  22.006  1.00  0.00     0.416 C 
ATOM     36  F   UNL A   1      31.777  26.194  20.722  1.00  0.00    -0.166 F 
ATOM     37  F   UNL A   1      30.899  26.695  22.647  1.00  0.00    -0.166 F 
ATOM     38  F   UNL A   1      32.656  27.763  21.946  1.00  0.00    -0.166 F 
ENDBRANCH  34  35
ENDBRANCH  10  29
ENDBRANCH   5   7
ENDBRANCH   3   5
ENDBRANCH   2   3
ENDBRANCH   1   2
BRANCH   1  39
ATOM     39  C   UNL A   1      43.707  21.725  25.277  1.00  0.00     0.275 C 
BRANCH  39  40
ATOM     40  O   UNL A   1      43.306  23.024  24.807  1.00  0.00    -0.458 OA
BRANCH  40  41
ATOM     41  C   UNL A   1      44.149  24.039  25.102  1.00  0.00     0.338 C 
ATOM     42  O   UNL A   1      45.210  24.314  24.574  1.00  0.00    -0.246 OA
BRANCH  41  43
ATOM     43  C   UNL A   1      43.517  24.879  26.129  1.00  0.00     0.060 A 
ATOM     44  C   UNL A   1      43.726  26.257  26.075  1.00  0.00     0.016 A 
ATOM     45  C   UNL A   1      42.777  24.309  27.164  1.00  0.00     0.016 A 
ATOM     46  C   UNL A   1      43.200  27.084  27.061  1.00  0.00     0.010 A 
ATOM     47  C   UNL A   1      42.244  25.138  28.153  1.00  0.00     0.010 A 
ATOM     48  C   UNL A   1      42.463  26.528  28.112  1.00  0.00    -0.014 A 
BRANCH  48  49
ATOM     49  C   UNL A   1      41.977  27.398  29.205  1.00  0.00     0.031 A 
ATOM     50  C   UNL A   1      42.708  27.424  30.514  1.00  0.00     0.074 A 
ATOM     51  C   UNL A   1      40.890  28.168  29.018  1.00  0.00     0.049 A 
ATOM     52  N   UNL A   1      42.405  28.059  31.615  1.00  0.00    -0.248 NA
ATOM     53  C   UNL A   1      43.939  26.623  30.592  1.00  0.00     0.031 C 
ATOM     54  C   UNL A   1      40.121  28.257  27.777  1.00  0.00     0.029 A 
ATOM     55  N   UNL A   1      40.244  29.017  29.879  1.00  0.00    -0.354 N 
ATOM     56  C   UNL A   1      43.392  27.715  32.529  1.00  0.00     0.074 A 
ATOM     57  C   UNL A   1      44.294  26.805  31.856  1.00  0.00     0.031 C 
ATOM     58  C   UNL A   1      39.100  29.110  27.960  1.00  0.00     0.029 A 
ATOM     59  C   UNL A   1      39.122  29.591  29.338  1.00  0.00     0.049 A 
ATOM     60  H   UNL A   1      40.555  29.196  30.796  1.00  0.00     0.167 HD
ATOM     61  C   UNL A   1      43.531  28.118  33.815  1.00  0.00     0.031 A 
ATOM     62  C   UNL A   1      38.197  30.392  29.899  1.00  0.00     0.031 A 
ATOM     63  C   UNL A   1      42.631  29.019  34.482  1.00  0.00     0.049 A 
ATOM     64  C   UNL A   1      38.345  30.790  31.340  1.00  0.00     0.074 A 
ATOM     65  C   UNL A   1      42.697  29.506  35.776  1.00  0.00     0.029 A 
ATOM     66  N   UNL A   1      41.492  29.563  33.908  1.00  0.00    -0.354 N 
ATOM     67  N   UNL A   1      39.288  30.468  32.192  1.00  0.00    -0.248 NA
ATOM     68  C   UNL A   1      37.301  31.664  31.896  1.00  0.00     0.031 C 
ATOM     69  C   UNL A   1      41.572  30.308  35.999  1.00  0.00     0.029 A 
ATOM     70  C   UNL A   1      40.832  30.359  34.828  1.00  0.00     0.049 A 
ATOM     71  H   UNL A   1      41.197  29.407  32.982  1.00  0.00     0.167 HD
ATOM     72  C   UNL A   1      38.959  31.105  33.381  1.00  0.00     0.074 A 
ATOM     73  C   UNL A   1      37.739  31.848  33.134  1.00  0.00     0.031 C 
ATOM     74  C   UNL A   1      39.610  31.077  34.571  1.00  0.00     0.031 A 
BRANCH  61  75
ATOM     75  C   UNL A   1      44.677  27.532  34.591  1.00  0.00    -0.014 A 
ATOM     76  C   UNL A   1      45.935  28.155  34.624  1.00  0.00     0.009 A 
ATOM     77  C   UNL A   1      44.494  26.330  35.291  1.00  0.00     0.009 A 
ATOM     78  C   UNL A   1      46.998  27.560  35.307  1.00  0.00     0.001 A 
ATOM     79  C   UNL A   1      45.551  25.752  35.994  1.00  0.00     0.001 A 
ATOM     80  C   UNL A   1      46.805  26.361  35.993  1.00  0.00     0.000 A 
ENDBRANCH  61  75
BRANCH  62  81
ATOM     81  C   UNL A   1      37.033  30.837  29.094  1.00  0.00    -0.014 A 
ATOM     82  C   UNL A   1      36.020  29.936  28.738  1.00  0.00     0.009 A 
ATOM     83  C   UNL A   1      36.915  32.183  28.708  1.00  0.00     0.009 A 
ATOM     84  C   UNL A   1      34.914  30.373  28.004  1.00  0.00     0.001 A 
ATOM     85  C   UNL A   1      35.797  32.621  27.997  1.00  0.00     0.001 A 
ATOM     86  C   UNL A   1      34.800  31.715  27.642  1.00  0.00     0.000 A 
ENDBRANCH  62  81
BRANCH  74  87
ATOM     87  C   UNL A   1      39.019  31.885  35.690  1.00  0.00    -0.014 A 
ATOM     88  C   UNL A   1      38.155  31.298  36.628  1.00  0.00     0.009 A 
ATOM     89  C   UNL A   1      39.362  33.238  35.831  1.00  0.00     0.009 A 
ATOM     90  C   UNL A   1      37.622  32.062  37.669  1.00  0.00     0.001 A 
ATOM     91  C   UNL A   1      38.847  33.992  36.886  1.00  0.00     0.001 A 
ATOM     92  C   UNL A   1      37.972  33.405  37.800  1.00  0.00     0.000 A 
ENDBRANCH  74  87
ENDBRANCH  48  49
ENDBRANCH  41  43
ENDBRANCH  40  41
ENDBRANCH  39  40
ENDBRANCH   1  39
TORSDOF 17
ENDMDL
MODEL 3
REMARK VINA RESULT:      -9.4      6.243     12.266
REMARK SMILES CC1CC[NH+]([C@H](c2ccc(F)cc2)c2ccc([C@@H](C)C(=O)OCCOC(=O)c3ccc(-c4c5nc(c(-c6ccccc6)c6ccc([nH]6)c(-c6ccccc6)c6nc(c(-c7ccccc7)c7ccc4[nH]7)C=C6)C=C5)cc3)cc2-c2ccc(C(F)(F)F)cc2)CC1
REMARK SMILES IDX 23 1 22 2 20 3 21 4 18 5 19 6 17 7 14 8 15 9 77 10 16 11
REMARK SMILES IDX 76 12 6 13 5 14 1 15 2 16 3 17 89 18 4 19 88 20 7 22 8 23
REMARK SMILES IDX 13 24 9 25 12 26 10 27 11 28 78 29 79 30 87 31 80 32 86 33
REMARK SMILES IDX 81 34 82 35 83 36 84 37 85 38 24 39 25 40 26 41 27 42 28 43
REMARK SMILES IDX 29 44 75 45 30 46 74 47 31 48 32 49 33 50 68 51 34 52 73 53
REMARK SMILES IDX 67 54 69 55 35 56 72 57 66 58 65 59 36 61 58 62 43 63 57 64
REMARK SMILES IDX 44 65 47 66 56 67 70 68 45 69 46 70 55 72 71 73 48 74 37 75
REMARK SMILES IDX 38 76 42 77 39 78 41 79 40 80 59 81 60 82 64 83 61 84 63 85
REMARK SMILES IDX 62 86 49 87 50 88 54 89 51 90 53 91 52 92
REMARK H PARENT 5 21 69 60 47 71
REMARK Flexibility Score: inf
ROOT
ATOM      1  C   UNL A   1      34.412  33.846  30.083  1.00  0.00     0.274 C 
ENDROOT
BRANCH   1   2
ATOM      2  O   UNL A   1      33.810  32.846  29.240  1.00  0.00    -0.462 OA
BRANCH   2   3
ATOM      3  C   UNL A   1      34.613  32.174  28.373  1.00  0.00     0.313 C 
ATOM      4  O   UNL A   1      35.418  32.713  27.621  1.00  0.00    -0.252 OA
BRANCH   3   5
ATOM      5  C   UNL A   1      34.387  30.660  28.386  1.00  0.00     0.126 C 
ATOM      6  C   UNL A   1      35.732  29.937  28.407  1.00  0.00     0.025 C 
BRANCH   5   7
ATOM      7  C   UNL A   1      33.466  30.135  27.294  1.00  0.00    -0.033 A 
ATOM      8  C   UNL A   1      31.661  29.164  25.285  1.00  0.00     0.022 A 
ATOM      9  C   UNL A   1      32.027  30.521  25.391  1.00  0.00     0.011 A 
ATOM     10  C   UNL A   1      32.242  28.266  26.224  1.00  0.00    -0.009 A 
ATOM     11  C   UNL A   1      32.924  30.991  26.344  1.00  0.00     0.005 A 
ATOM     12  C   UNL A   1      33.124  28.774  27.214  1.00  0.00     0.013 A 
BRANCH   8  13
ATOM     13  C   UNL A   1      30.705  28.679  24.156  1.00  0.00     0.247 C 
BRANCH  13  14
ATOM     14  N   UNL A   1      31.244  27.718  23.137  1.00  0.00    -0.325 N 
ATOM     15  C   UNL A   1      33.422  24.107  21.885  1.00  0.00     0.008 C 
ATOM     16  C   UNL A   1      32.751  25.263  22.618  1.00  0.00    -0.003 C 
ATOM     17  C   UNL A   1      31.244  25.292  22.371  1.00  0.00     0.065 C 
ATOM     18  C   UNL A   1      33.306  26.608  22.162  1.00  0.00     0.065 C 
ATOM     19  C   UNL A   1      30.570  26.416  23.162  1.00  0.00     0.263 C 
ATOM     20  C   UNL A   1      32.700  27.753  22.972  1.00  0.00     0.263 C 
ATOM     21  H   UNL A   1      30.972  28.070  22.219  1.00  0.00     0.348 HD
ENDBRANCH  13  14
BRANCH  13  22
ATOM     22  C   UNL A   1      29.904  29.801  23.473  1.00  0.00     0.014 A 
ATOM     23  C   UNL A   1      29.473  30.943  24.174  1.00  0.00     0.013 A 
ATOM     24  C   UNL A   1      29.608  29.703  22.099  1.00  0.00     0.013 A 
ATOM     25  C   UNL A   1      28.770  31.956  23.517  1.00  0.00     0.040 A 
ATOM     26  C   UNL A   1      28.886  30.706  21.451  1.00  0.00     0.040 A 
ATOM     27  C   UNL A   1      28.478  31.824  22.165  1.00  0.00     0.123 A 
ATOM     28  F   UNL A   1      27.797  32.794  21.540  1.00  0.00    -0.207 F 
ENDBRANCH  13  22
ENDBRANCH   8  13
BRANCH  10  29
ATOM     29  C   UNL A   1      31.965  26.816  26.239  1.00  0.00    -0.018 A 
ATOM     30  C   UNL A   1      30.649  26.342  26.366  1.00  0.00     0.009 A 
ATOM     31  C   UNL A   1      32.999  25.874  26.125  1.00  0.00     0.009 A 
ATOM     32  C   UNL A   1      30.369  24.971  26.331  1.00  0.00     0.014 A 
ATOM     33  C   UNL A   1      32.722  24.502  26.083  1.00  0.00     0.014 A 
ATOM     34  C   UNL A   1      31.403  24.038  26.170  1.00  0.00     0.056 A 
BRANCH  34  35
ATOM     35  C   UNL A   1      31.088  22.563  26.104  1.00  0.00     0.416 C 
ATOM     36  F   UNL A   1      30.818  22.143  24.837  1.00  0.00    -0.166 F 
ATOM     37  F   UNL A   1      32.116  21.784  26.544  1.00  0.00    -0.166 F 
ATOM     38  F   UNL A   1      30.007  22.204  26.854  1.00  0.00    -0.166 F 
ENDBRANCH  34  35
ENDBRANCH  10  29
ENDBRANCH   5   7
ENDBRANCH   3   5
ENDBRANCH   2   3
ENDBRANCH   1   2
BRANCH   1  39
ATOM     39  C   UNL A   1      34.319  33.438  31.553  1.00  0.00     0.275 C 
BRANCH  39  40
ATOM     40  O   UNL A   1      34.999  32.188  31.766  1.00  0.00    -0.458 OA
BRANCH  40  41
ATOM     41  C   UNL A   1      35.991  32.210  32.684  1.00  0.00     0.338 C 
ATOM     42  O   UNL A   1      35.911  32.446  33.875  1.00  0.00    -0.246 OA
BRANCH  41  43
ATOM     43  C   UNL A   1      37.233  31.777  32.030  1.00  0.00     0.060 A 
ATOM     44  C   UNL A   1      37.426  32.113  30.689  1.00  0.00     0.016 A 
ATOM     45  C   UNL A   1      38.168  31.000  32.713  1.00  0.00     0.016 A 
ATOM     46  C   UNL A   1      38.557  31.671  30.013  1.00  0.00     0.010 A 
ATOM     47  C   UNL A   1      39.307  30.559  32.036  1.00  0.00     0.010 A 
ATOM     48  C   UNL A   1      39.501  30.882  30.680  1.00  0.00    -0.014 A 
BRANCH  48  49
ATOM     49  C   UNL A   1      40.660  30.342  29.936  1.00  0.00     0.031 A 
ATOM     50  C   UNL A   1      41.866  31.205  29.716  1.00  0.00     0.074 A 
ATOM     51  C   UNL A   1      40.631  29.082  29.470  1.00  0.00     0.049 A 
ATOM     52  N   UNL A   1      42.950  30.948  29.031  1.00  0.00    -0.248 NA
ATOM     53  C   UNL A   1      41.845  32.534  30.344  1.00  0.00     0.031 C 
ATOM     54  C   UNL A   1      39.531  28.136  29.656  1.00  0.00     0.029 A 
ATOM     55  N   UNL A   1      41.557  28.385  28.737  1.00  0.00    -0.354 N 
ATOM     56  C   UNL A   1      43.731  32.093  29.123  1.00  0.00     0.074 A 
ATOM     57  C   UNL A   1      42.989  33.049  29.918  1.00  0.00     0.031 C 
ATOM     58  C   UNL A   1      39.842  26.981  29.046  1.00  0.00     0.029 A 
ATOM     59  C   UNL A   1      41.141  27.122  28.394  1.00  0.00     0.049 A 
ATOM     60  H   UNL A   1      42.433  28.753  28.482  1.00  0.00     0.167 HD
ATOM     61  C   UNL A   1      44.953  32.327  28.590  1.00  0.00     0.031 A 
ATOM     62  C   UNL A   1      41.729  26.195  27.616  1.00  0.00     0.031 A 
ATOM     63  C   UNL A   1      45.686  31.377  27.797  1.00  0.00     0.049 A 
ATOM     64  C   UNL A   1      43.064  26.492  26.995  1.00  0.00     0.074 A 
ATOM     65  C   UNL A   1      46.941  31.509  27.230  1.00  0.00     0.029 A 
ATOM     66  N   UNL A   1      45.223  30.116  27.452  1.00  0.00    -0.354 N 
ATOM     67  N   UNL A   1      43.798  27.573  27.097  1.00  0.00    -0.248 NA
ATOM     68  C   UNL A   1      43.652  25.439  26.154  1.00  0.00     0.031 C 
ATOM     69  C   UNL A   1      47.218  30.346  26.503  1.00  0.00     0.029 A 
ATOM     70  C   UNL A   1      46.155  29.470  26.658  1.00  0.00     0.049 A 
ATOM     71  H   UNL A   1      44.359  29.735  27.732  1.00  0.00     0.167 HD
ATOM     72  C   UNL A   1      44.938  27.330  26.343  1.00  0.00     0.074 A 
ATOM     73  C   UNL A   1      44.807  25.991  25.805  1.00  0.00     0.031 C 
ATOM     74  C   UNL A   1      45.999  28.144  26.117  1.00  0.00     0.031 A 
BRANCH  61  75
ATOM     75  C   UNL A   1      45.540  33.693  28.807  1.00  0.00    -0.014 A 
ATOM     76  C   UNL A   1      45.559  34.655  27.785  1.00  0.00     0.009 A 
ATOM     77  C   UNL A   1      46.093  34.016  30.055  1.00  0.00     0.009 A 
ATOM     78  C   UNL A   1      46.161  35.897  27.997  1.00  0.00     0.001 A 
ATOM     79  C   UNL A   1      46.670  35.267  30.273  1.00  0.00     0.001 A 
ATOM     80  C   UNL A   1      46.714  36.203  29.241  1.00  0.00     0.000 A 
ENDBRANCH  61  75
BRANCH  62  81
ATOM     81  C   UNL A   1      41.030  24.911  27.359  1.00  0.00    -0.014 A 
ATOM     82  C   UNL A   1      41.442  23.730  27.992  1.00  0.00     0.009 A 
ATOM     83  C   UNL A   1      39.918  24.872  26.501  1.00  0.00     0.009 A 
ATOM     84  C   UNL A   1      40.759  22.533  27.765  1.00  0.00     0.001 A 
ATOM     85  C   UNL A   1      39.223  23.679  26.296  1.00  0.00     0.001 A 
ATOM     86  C   UNL A   1      39.646  22.510  26.925  1.00  0.00     0.000 A 
ENDBRANCH  62  81
BRANCH  74  87
ATOM     87  C   UNL A   1      47.105  27.599  25.260  1.00  0.00    -0.014 A 
ATOM     88  C   UNL A   1      48.136  26.825  25.813  1.00  0.00     0.009 A 
ATOM     89  C   UNL A   1      47.094  27.831  23.875  1.00  0.00     0.009 A 
ATOM     90  C   UNL A   1      49.151  26.317  25.000  1.00  0.00     0.001 A 
ATOM     91  C   UNL A   1      48.097  27.303  23.061  1.00  0.00     0.001 A 
ATOM     92  C   UNL A   1      49.128  26.552  23.625  1.00  0.00     0.000 A 
ENDBRANCH  74  87
ENDBRANCH  48  49
ENDBRANCH  41  43
ENDBRANCH  40  41
ENDBRANCH  39  40
ENDBRANCH   1  39
TORSDOF 17
ENDMDL
