MODEL 1
REMARK VINA RESULT:     -10.1      0.000      0.000
REMARK SMILES O=C(NCc1cccc(F)c1)NCc1ccc(C(=O)OCCOC(=O)c2ccc(-c3c4nc(c(-c5ccccc5)c5ccc([nH]5)c(-c5ccccc5)c5nc(c(-c6ccccc6)c6ccc3[nH]6)C=C5)C=C4)cc2)o1
REMARK SMILES IDX 21 1 20 2 18 3 19 4 17 5 14 6 15 7 74 8 16 9 13 10 12 11
REMARK SMILES IDX 1 12 2 13 3 14 4 17 5 18 6 19 11 20 7 21 9 22 8 23 10 24
REMARK SMILES IDX 22 25 23 26 24 27 25 28 26 29 27 30 73 31 28 32 72 33 29 34
REMARK SMILES IDX 30 35 31 36 66 37 32 38 71 39 65 40 67 41 33 42 70 43 64 44
REMARK SMILES IDX 63 45 34 47 56 48 41 49 55 50 42 51 45 52 54 53 68 54 43 55
REMARK SMILES IDX 44 56 53 58 69 59 46 60 35 61 36 62 40 63 37 64 39 65 38 66
REMARK SMILES IDX 57 67 58 68 62 69 59 70 61 71 60 72 47 73 48 74 52 75 49 76
REMARK SMILES IDX 51 77 50 78
REMARK H PARENT 3 15 12 16 67 46 45 57
REMARK Flexibility Score: inf
ROOT
ATOM      1  C   UNL A   1      34.074  34.190  28.516  1.00  0.00     0.275 C 
ENDROOT
BRANCH   1   2
ATOM      2  O   UNL A   1      32.861  34.930  28.750  1.00  0.00    -0.456 OA
BRANCH   2   3
ATOM      3  C   UNL A   1      33.022  36.159  29.327  1.00  0.00     0.374 C 
ATOM      4  O   UNL A   1      32.894  37.221  28.735  1.00  0.00    -0.242 OA
BRANCH   3   5
ATOM      5  C   UNL A   1      33.242  36.009  30.748  1.00  0.00     0.211 A 
ATOM      6  C   UNL A   1      33.537  34.790  32.567  1.00  0.00     0.124 A 
ATOM      7  C   UNL A   1      33.854  36.086  32.914  1.00  0.00     0.048 A 
ATOM      8  O   UNL A   1      33.104  34.753  31.277  1.00  0.00    -0.452 OA
ATOM      9  C   UNL A   1      33.667  36.869  31.745  1.00  0.00     0.058 A 
BRANCH   6  10
ATOM     10  C   UNL A   1      33.628  33.480  33.259  1.00  0.00     0.193 C 
BRANCH  10  11
ATOM     11  N   UNL A   1      34.977  32.985  33.156  1.00  0.00    -0.331 N 
ATOM     12  O   UNL A   1      35.663  33.866  35.141  1.00  0.00    -0.249 OA
ATOM     13  C   UNL A   1      35.899  33.231  34.118  1.00  0.00     0.315 C 
ATOM     14  N   UNL A   1      37.143  32.742  33.919  1.00  0.00    -0.334 N 
ATOM     15  H   UNL A   1      37.784  32.948  34.639  1.00  0.00     0.165 HD
ATOM     16  H   UNL A   1      35.236  32.456  32.368  1.00  0.00     0.165 HD
BRANCH  14  17
ATOM     17  C   UNL A   1      37.694  31.969  32.830  1.00  0.00     0.153 C 
BRANCH  17  18
ATOM     18  C   UNL A   1      38.091  32.849  31.676  1.00  0.00    -0.026 A 
ATOM     19  C   UNL A   1      39.107  33.807  31.829  1.00  0.00     0.006 A 
ATOM     20  C   UNL A   1      37.464  32.725  30.427  1.00  0.00     0.044 A 
ATOM     21  C   UNL A   1      39.487  34.623  30.759  1.00  0.00     0.003 A 
ATOM     22  C   UNL A   1      37.852  33.541  29.369  1.00  0.00     0.123 A 
ATOM     23  C   UNL A   1      38.857  34.488  29.525  1.00  0.00     0.039 A 
ATOM     24  F   UNL A   1      37.249  33.411  28.180  1.00  0.00    -0.207 F 
ENDBRANCH  17  18
ENDBRANCH  14  17
ENDBRANCH  10  11
ENDBRANCH   6  10
ENDBRANCH   3   5
ENDBRANCH   2   3
ENDBRANCH   1   2
BRANCH   1  25
ATOM     25  C   UNL A   1      33.773  32.744  28.105  1.00  0.00     0.275 C 
BRANCH  25  26
ATOM     26  O   UNL A   1      34.614  31.796  28.793  1.00  0.00    -0.458 OA
BRANCH  26  27
ATOM     27  C   UNL A   1      34.686  30.565  28.231  1.00  0.00     0.338 C 
ATOM     28  O   UNL A   1      33.798  29.981  27.631  1.00  0.00    -0.246 OA
BRANCH  27  29
ATOM     29  C   UNL A   1      36.063  30.045  28.329  1.00  0.00     0.060 A 
ATOM     30  C   UNL A   1      36.452  29.458  29.536  1.00  0.00     0.016 A 
ATOM     31  C   UNL A   1      36.982  30.178  27.285  1.00  0.00     0.016 A 
ATOM     32  C   UNL A   1      37.752  28.992  29.708  1.00  0.00     0.010 A 
ATOM     33  C   UNL A   1      38.294  29.721  27.461  1.00  0.00     0.010 A 
ATOM     34  C   UNL A   1      38.687  29.132  28.676  1.00  0.00    -0.014 A 
BRANCH  34  35
ATOM     35  C   UNL A   1      40.084  28.690  28.898  1.00  0.00     0.031 A 
ATOM     36  C   UNL A   1      41.068  29.611  29.559  1.00  0.00     0.074 A 
ATOM     37  C   UNL A   1      40.457  27.445  28.549  1.00  0.00     0.049 A 
ATOM     38  N   UNL A   1      42.329  29.405  29.845  1.00  0.00    -0.248 NA
ATOM     39  C   UNL A   1      40.567  30.937  29.953  1.00  0.00     0.031 C 
ATOM     40  C   UNL A   1      39.583  26.440  27.944  1.00  0.00     0.029 A 
ATOM     41  N   UNL A   1      41.670  26.814  28.666  1.00  0.00    -0.354 N 
ATOM     42  C   UNL A   1      42.774  30.574  30.446  1.00  0.00     0.074 A 
ATOM     43  C   UNL A   1      41.655  31.493  30.464  1.00  0.00     0.031 C 
ATOM     44  C   UNL A   1      40.287  25.313  27.751  1.00  0.00     0.029 A 
ATOM     45  C   UNL A   1      41.664  25.527  28.190  1.00  0.00     0.049 A 
ATOM     46  H   UNL A   1      42.467  27.243  29.053  1.00  0.00     0.167 HD
ATOM     47  C   UNL A   1      44.004  30.857  30.939  1.00  0.00     0.031 A 
ATOM     48  C   UNL A   1      42.659  24.625  28.107  1.00  0.00     0.031 A 
ATOM     49  C   UNL A   1      45.121  29.951  30.918  1.00  0.00     0.049 A 
ATOM     50  C   UNL A   1      44.029  24.984  28.604  1.00  0.00     0.074 A 
ATOM     51  C   UNL A   1      46.402  30.148  31.401  1.00  0.00     0.029 A 
ATOM     52  N   UNL A   1      45.089  28.674  30.378  1.00  0.00    -0.354 N 
ATOM     53  N   UNL A   1      44.437  26.093  29.173  1.00  0.00    -0.248 NA
ATOM     54  C   UNL A   1      45.079  23.966  28.447  1.00  0.00     0.031 C 
ATOM     55  C   UNL A   1      47.159  29.005  31.118  1.00  0.00     0.029 A 
ATOM     56  C   UNL A   1      46.336  28.082  30.495  1.00  0.00     0.049 A 
ATOM     57  H   UNL A   1      44.297  28.251  29.973  1.00  0.00     0.167 HD
ATOM     58  C   UNL A   1      45.783  25.901  29.454  1.00  0.00     0.074 A 
ATOM     59  C   UNL A   1      46.121  24.566  29.007  1.00  0.00     0.031 C 
ATOM     60  C   UNL A   1      46.660  26.757  30.034  1.00  0.00     0.031 A 
BRANCH  47  61
ATOM     61  C   UNL A   1      44.210  32.228  31.515  1.00  0.00    -0.014 A 
ATOM     62  C   UNL A   1      43.947  32.496  32.867  1.00  0.00     0.009 A 
ATOM     63  C   UNL A   1      44.693  33.259  30.696  1.00  0.00     0.009 A 
ATOM     64  C   UNL A   1      44.136  33.780  33.381  1.00  0.00     0.001 A 
ATOM     65  C   UNL A   1      44.900  34.538  31.217  1.00  0.00     0.001 A 
ATOM     66  C   UNL A   1      44.614  34.799  32.557  1.00  0.00     0.000 A 
ENDBRANCH  47  61
BRANCH  48  67
ATOM     67  C   UNL A   1      42.397  23.292  27.508  1.00  0.00    -0.014 A 
ATOM     68  C   UNL A   1      41.858  22.254  28.282  1.00  0.00     0.009 A 
ATOM     69  C   UNL A   1      42.683  23.056  26.155  1.00  0.00     0.009 A 
ATOM     70  C   UNL A   1      41.622  21.000  27.714  1.00  0.00     0.001 A 
ATOM     71  C   UNL A   1      42.426  21.808  25.585  1.00  0.00     0.001 A 
ATOM     72  C   UNL A   1      41.902  20.780  26.366  1.00  0.00     0.000 A 
ENDBRANCH  48  67
BRANCH  60  73
ATOM     73  C   UNL A   1      48.066  26.268  30.227  1.00  0.00    -0.014 A 
ATOM     74  C   UNL A   1      49.020  26.393  29.207  1.00  0.00     0.009 A 
ATOM     75  C   UNL A   1      48.446  25.707  31.455  1.00  0.00     0.009 A 
ATOM     76  C   UNL A   1      50.326  25.940  29.406  1.00  0.00     0.001 A 
ATOM     77  C   UNL A   1      49.758  25.273  31.657  1.00  0.00     0.001 A 
ATOM     78  C   UNL A   1      50.694  25.384  30.630  1.00  0.00     0.000 A 
ENDBRANCH  60  73
ENDBRANCH  34  35
ENDBRANCH  27  29
ENDBRANCH  26  27
ENDBRANCH  25  26
ENDBRANCH   1  25
TORSDOF 15
ENDMDL
MODEL 2
REMARK VINA RESULT:     -10.0      5.040     10.582
REMARK SMILES O=C(NCc1cccc(F)c1)NCc1ccc(C(=O)OCCOC(=O)c2ccc(-c3c4nc(c(-c5ccccc5)c5ccc([nH]5)c(-c5ccccc5)c5nc(c(-c6ccccc6)c6ccc3[nH]6)C=C5)C=C4)cc2)o1
REMARK SMILES IDX 21 1 20 2 18 3 19 4 17 5 14 6 15 7 74 8 16 9 13 10 12 11
REMARK SMILES IDX 1 12 2 13 3 14 4 17 5 18 6 19 11 20 7 21 9 22 8 23 10 24
REMARK SMILES IDX 22 25 23 26 24 27 25 28 26 29 27 30 73 31 28 32 72 33 29 34
REMARK SMILES IDX 30 35 31 36 66 37 32 38 71 39 65 40 67 41 33 42 70 43 64 44
REMARK SMILES IDX 63 45 34 47 56 48 41 49 55 50 42 51 45 52 54 53 68 54 43 55
REMARK SMILES IDX 44 56 53 58 69 59 46 60 35 61 36 62 40 63 37 64 39 65 38 66
REMARK SMILES IDX 57 67 58 68 62 69 59 70 61 71 60 72 47 73 48 74 52 75 49 76
REMARK SMILES IDX 51 77 50 78
REMARK H PARENT 3 15 12 16 67 46 45 57
REMARK Flexibility Score: inf
ROOT
ATOM      1  C   UNL A   1      42.692  20.433  26.078  1.00  0.00     0.275 C 
ENDROOT
BRANCH   1   2
ATOM      2  O   UNL A   1      41.339  20.827  25.780  1.00  0.00    -0.456 OA
BRANCH   2   3
ATOM      3  C   UNL A   1      40.582  21.199  26.855  1.00  0.00     0.374 C 
ATOM      4  O   UNL A   1      40.783  20.828  28.003  1.00  0.00    -0.242 OA
BRANCH   3   5
ATOM      5  C   UNL A   1      39.601  22.180  26.449  1.00  0.00     0.211 A 
ATOM      6  C   UNL A   1      37.740  22.779  25.419  1.00  0.00     0.124 A 
ATOM      7  C   UNL A   1      38.112  23.852  26.202  1.00  0.00     0.048 A 
ATOM      8  O   UNL A   1      38.673  21.793  25.517  1.00  0.00    -0.452 OA
ATOM      9  C   UNL A   1      39.307  23.466  26.865  1.00  0.00     0.058 A 
BRANCH   6  10
ATOM     10  C   UNL A   1      36.553  22.468  24.583  1.00  0.00     0.193 C 
BRANCH  10  11
ATOM     11  N   UNL A   1      35.498  23.398  24.897  1.00  0.00    -0.331 N 
ATOM     12  O   UNL A   1      34.695  23.514  22.769  1.00  0.00    -0.249 OA
ATOM     13  C   UNL A   1      34.649  23.857  23.947  1.00  0.00     0.315 C 
ATOM     14  N   UNL A   1      33.707  24.743  24.338  1.00  0.00    -0.334 N 
ATOM     15  H   UNL A   1      33.114  25.056  23.616  1.00  0.00     0.165 HD
ATOM     16  H   UNL A   1      35.392  23.707  25.825  1.00  0.00     0.165 HD
BRANCH  14  17
ATOM     17  C   UNL A   1      33.420  25.310  25.636  1.00  0.00     0.153 C 
BRANCH  17  18
ATOM     18  C   UNL A   1      33.017  26.755  25.529  1.00  0.00    -0.026 A 
ATOM     19  C   UNL A   1      32.138  27.320  26.468  1.00  0.00     0.006 A 
ATOM     20  C   UNL A   1      33.514  27.567  24.498  1.00  0.00     0.044 A 
ATOM     21  C   UNL A   1      31.765  28.664  26.380  1.00  0.00     0.003 A 
ATOM     22  C   UNL A   1      33.137  28.904  24.421  1.00  0.00     0.123 A 
ATOM     23  C   UNL A   1      32.267  29.458  25.352  1.00  0.00     0.039 A 
ATOM     24  F   UNL A   1      33.622  29.670  23.435  1.00  0.00    -0.207 F 
ENDBRANCH  17  18
ENDBRANCH  14  17
ENDBRANCH  10  11
ENDBRANCH   6  10
ENDBRANCH   3   5
ENDBRANCH   2   3
ENDBRANCH   1   2
BRANCH   1  25
ATOM     25  C   UNL A   1      43.705  21.313  25.336  1.00  0.00     0.275 C 
BRANCH  25  26
ATOM     26  O   UNL A   1      43.141  22.579  24.942  1.00  0.00    -0.458 OA
BRANCH  26  27
ATOM     27  C   UNL A   1      43.986  23.637  25.000  1.00  0.00     0.338 C 
ATOM     28  O   UNL A   1      44.890  23.895  24.222  1.00  0.00    -0.246 OA
BRANCH  27  29
ATOM     29  C   UNL A   1      43.588  24.542  26.095  1.00  0.00     0.060 A 
ATOM     30  C   UNL A   1      42.881  23.993  27.168  1.00  0.00     0.016 A 
ATOM     31  C   UNL A   1      43.844  25.915  26.052  1.00  0.00     0.016 A 
ATOM     32  C   UNL A   1      42.434  24.804  28.207  1.00  0.00     0.010 A 
ATOM     33  C   UNL A   1      43.385  26.733  27.091  1.00  0.00     0.010 A 
ATOM     34  C   UNL A   1      42.672  26.182  28.171  1.00  0.00    -0.014 A 
BRANCH  34  35
ATOM     35  C   UNL A   1      42.134  27.040  29.253  1.00  0.00     0.031 A 
ATOM     36  C   UNL A   1      42.880  27.177  30.547  1.00  0.00     0.074 A 
ATOM     37  C   UNL A   1      40.997  27.732  29.056  1.00  0.00     0.049 A 
ATOM     38  N   UNL A   1      42.575  27.883  31.607  1.00  0.00    -0.248 NA
ATOM     39  C   UNL A   1      44.139  26.425  30.664  1.00  0.00     0.031 C 
ATOM     40  C   UNL A   1      40.204  27.722  27.826  1.00  0.00     0.029 A 
ATOM     41  N   UNL A   1      40.320  28.588  29.888  1.00  0.00    -0.354 N 
ATOM     42  C   UNL A   1      43.597  27.656  32.518  1.00  0.00     0.074 A 
ATOM     43  C   UNL A   1      44.521  26.731  31.895  1.00  0.00     0.031 C 
ATOM     44  C   UNL A   1      39.152  28.542  27.981  1.00  0.00     0.029 A 
ATOM     45  C   UNL A   1      39.181  29.110  29.327  1.00  0.00     0.049 A 
ATOM     46  H   UNL A   1      40.623  28.807  30.799  1.00  0.00     0.167 HD
ATOM     47  C   UNL A   1      43.753  28.172  33.761  1.00  0.00     0.031 A 
ATOM     48  C   UNL A   1      38.259  29.942  29.843  1.00  0.00     0.031 A 
ATOM     49  C   UNL A   1      42.836  29.086  34.386  1.00  0.00     0.049 A 
ATOM     50  C   UNL A   1      38.423  30.452  31.246  1.00  0.00     0.074 A 
ATOM     51  C   UNL A   1      42.917  29.668  35.640  1.00  0.00     0.029 A 
ATOM     52  N   UNL A   1      41.665  29.549  33.805  1.00  0.00    -0.354 N 
ATOM     53  N   UNL A   1      39.396  30.232  32.096  1.00  0.00    -0.248 NA
ATOM     54  C   UNL A   1      37.358  31.327  31.761  1.00  0.00     0.031 C 
ATOM     55  C   UNL A   1      41.773  30.451  35.834  1.00  0.00     0.029 A 
ATOM     56  C   UNL A   1      41.002  30.389  34.685  1.00  0.00     0.049 A 
ATOM     57  H   UNL A   1      41.353  29.315  32.902  1.00  0.00     0.167 HD
ATOM     58  C   UNL A   1      39.069  30.950  33.239  1.00  0.00     0.074 A 
ATOM     59  C   UNL A   1      37.816  31.624  32.970  1.00  0.00     0.031 C 
ATOM     60  C   UNL A   1      39.750  31.043  34.407  1.00  0.00     0.031 A 
BRANCH  47  61
ATOM     61  C   UNL A   1      44.955  27.724  34.540  1.00  0.00    -0.014 A 
ATOM     62  C   UNL A   1      44.908  26.584  35.357  1.00  0.00     0.009 A 
ATOM     63  C   UNL A   1      46.156  28.442  34.439  1.00  0.00     0.009 A 
ATOM     64  C   UNL A   1      46.035  26.189  36.081  1.00  0.00     0.001 A 
ATOM     65  C   UNL A   1      47.286  28.034  35.149  1.00  0.00     0.001 A 
ATOM     66  C   UNL A   1      47.223  26.913  35.975  1.00  0.00     0.000 A 
ENDBRANCH  47  61
BRANCH  48  67
ATOM     67  C   UNL A   1      37.081  30.333  29.028  1.00  0.00    -0.014 A 
ATOM     68  C   UNL A   1      36.128  29.379  28.646  1.00  0.00     0.009 A 
ATOM     69  C   UNL A   1      36.906  31.669  28.634  1.00  0.00     0.009 A 
ATOM     70  C   UNL A   1      35.028  29.753  27.871  1.00  0.00     0.001 A 
ATOM     71  C   UNL A   1      35.794  32.043  27.877  1.00  0.00     0.001 A 
ATOM     72  C   UNL A   1      34.859  31.084  27.492  1.00  0.00     0.000 A 
ENDBRANCH  48  67
BRANCH  60  73
ATOM     73  C   UNL A   1      39.158  31.915  35.476  1.00  0.00    -0.014 A 
ATOM     74  C   UNL A   1      39.429  33.290  35.518  1.00  0.00     0.009 A 
ATOM     75  C   UNL A   1      38.293  31.358  36.430  1.00  0.00     0.009 A 
ATOM     76  C   UNL A   1      38.863  34.089  36.514  1.00  0.00     0.001 A 
ATOM     77  C   UNL A   1      37.714  32.163  37.412  1.00  0.00     0.001 A 
ATOM     78  C   UNL A   1      38.005  33.526  37.457  1.00  0.00     0.000 A 
ENDBRANCH  60  73
ENDBRANCH  34  35
ENDBRANCH  27  29
ENDBRANCH  26  27
ENDBRANCH  25  26
ENDBRANCH   1  25
TORSDOF 15
ENDMDL
MODEL 3
REMARK VINA RESULT:      -9.9      3.448      5.546
REMARK SMILES O=C(NCc1cccc(F)c1)NCc1ccc(C(=O)OCCOC(=O)c2ccc(-c3c4nc(c(-c5ccccc5)c5ccc([nH]5)c(-c5ccccc5)c5nc(c(-c6ccccc6)c6ccc3[nH]6)C=C5)C=C4)cc2)o1
REMARK SMILES IDX 21 1 20 2 18 3 19 4 17 5 14 6 15 7 74 8 16 9 13 10 12 11
REMARK SMILES IDX 1 12 2 13 3 14 4 17 5 18 6 19 11 20 7 21 9 22 8 23 10 24
REMARK SMILES IDX 22 25 23 26 24 27 25 28 26 29 27 30 73 31 28 32 72 33 29 34
REMARK SMILES IDX 30 35 31 36 66 37 32 38 71 39 65 40 67 41 33 42 70 43 64 44
REMARK SMILES IDX 63 45 34 47 56 48 41 49 55 50 42 51 45 52 54 53 68 54 43 55
REMARK SMILES IDX 44 56 53 58 69 59 46 60 35 61 36 62 40 63 37 64 39 65 38 66
REMARK SMILES IDX 57 67 58 68 62 69 59 70 61 71 60 72 47 73 48 74 52 75 49 76
REMARK SMILES IDX 51 77 50 78
REMARK H PARENT 3 15 12 16 67 46 45 57
REMARK Flexibility Score: inf
ROOT
ATOM      1  C   UNL A   1      34.036  35.346  32.920  1.00  0.00     0.275 C 
ENDROOT
BRANCH   1   2
ATOM      2  O   UNL A   1      32.967  35.017  32.014  1.00  0.00    -0.456 OA
BRANCH   2   3
ATOM      3  C   UNL A   1      32.953  35.715  30.838  1.00  0.00     0.374 C 
ATOM      4  O   UNL A   1      32.453  36.822  30.699  1.00  0.00    -0.242 OA
BRANCH   3   5
ATOM      5  C   UNL A   1      33.716  35.005  29.837  1.00  0.00     0.211 A 
ATOM      6  C   UNL A   1      34.526  33.157  28.936  1.00  0.00     0.124 A 
ATOM      7  C   UNL A   1      34.725  34.159  28.010  1.00  0.00     0.048 A 
ATOM      8  O   UNL A   1      33.976  33.679  30.066  1.00  0.00    -0.452 OA
ATOM      9  C   UNL A   1      34.203  35.346  28.588  1.00  0.00     0.058 A 
BRANCH   6  10
ATOM     10  C   UNL A   1      34.718  31.685  28.929  1.00  0.00     0.193 C 
BRANCH  10  11
ATOM     11  N   UNL A   1      33.936  31.112  27.862  1.00  0.00    -0.331 N 
ATOM     12  O   UNL A   1      35.414  29.441  27.406  1.00  0.00    -0.249 OA
ATOM     13  C   UNL A   1      34.361  30.026  27.173  1.00  0.00     0.315 C 
ATOM     14  N   UNL A   1      33.565  29.578  26.177  1.00  0.00    -0.334 N 
ATOM     15  H   UNL A   1      33.913  28.790  25.699  1.00  0.00     0.165 HD
ATOM     16  H   UNL A   1      33.072  31.521  27.628  1.00  0.00     0.165 HD
BRANCH  14  17
ATOM     17  C   UNL A   1      32.291  30.058  25.695  1.00  0.00     0.153 C 
BRANCH  17  18
ATOM     18  C   UNL A   1      31.453  28.936  25.144  1.00  0.00    -0.026 A 
ATOM     19  C   UNL A   1      30.765  29.093  23.929  1.00  0.00     0.006 A 
ATOM     20  C   UNL A   1      31.349  27.714  25.824  1.00  0.00     0.044 A 
ATOM     21  C   UNL A   1      29.991  28.052  23.407  1.00  0.00     0.003 A 
ATOM     22  C   UNL A   1      30.577  26.685  25.294  1.00  0.00     0.123 A 
ATOM     23  C   UNL A   1      29.898  26.844  24.092  1.00  0.00     0.039 A 
ATOM     24  F   UNL A   1      30.489  25.521  25.951  1.00  0.00    -0.207 F 
ENDBRANCH  17  18
ENDBRANCH  14  17
ENDBRANCH  10  11
ENDBRANCH   6  10
ENDBRANCH   3   5
ENDBRANCH   2   3
ENDBRANCH   1   2
BRANCH   1  25
ATOM     25  C   UNL A   1      34.586  34.093  33.611  1.00  0.00     0.275 C 
BRANCH  25  26
ATOM     26  O   UNL A   1      35.580  33.421  32.812  1.00  0.00    -0.458 OA
BRANCH  26  27
ATOM     27  C   UNL A   1      36.537  32.759  33.507  1.00  0.00     0.338 C 
ATOM     28  O   UNL A   1      36.558  32.555  34.710  1.00  0.00    -0.246 OA
BRANCH  27  29
ATOM     29  C   UNL A   1      37.529  32.186  32.579  1.00  0.00     0.060 A 
ATOM     30  C   UNL A   1      38.585  31.451  33.126  1.00  0.00     0.016 A 
ATOM     31  C   UNL A   1      37.470  32.408  31.200  1.00  0.00     0.016 A 
ATOM     32  C   UNL A   1      39.580  30.927  32.307  1.00  0.00     0.010 A 
ATOM     33  C   UNL A   1      38.477  31.891  30.376  1.00  0.00     0.010 A 
ATOM     34  C   UNL A   1      39.541  31.153  30.926  1.00  0.00    -0.014 A 
BRANCH  34  35
ATOM     35  C   UNL A   1      40.642  30.643  30.076  1.00  0.00     0.031 A 
ATOM     36  C   UNL A   1      41.848  31.496  29.816  1.00  0.00     0.074 A 
ATOM     37  C   UNL A   1      40.580  29.395  29.576  1.00  0.00     0.049 A 
ATOM     38  N   UNL A   1      42.915  31.226  29.106  1.00  0.00    -0.248 NA
ATOM     39  C   UNL A   1      41.860  32.829  30.440  1.00  0.00     0.031 C 
ATOM     40  C   UNL A   1      39.485  28.450  29.796  1.00  0.00     0.029 A 
ATOM     41  N   UNL A   1      41.467  28.708  28.787  1.00  0.00    -0.354 N 
ATOM     42  C   UNL A   1      43.720  32.353  29.191  1.00  0.00     0.074 A 
ATOM     43  C   UNL A   1      43.011  33.319  30.004  1.00  0.00     0.031 C 
ATOM     44  C   UNL A   1      39.770  27.300  29.164  1.00  0.00     0.029 A 
ATOM     45  C   UNL A   1      41.050  27.439  28.473  1.00  0.00     0.049 A 
ATOM     46  H   UNL A   1      42.321  29.088  28.477  1.00  0.00     0.167 HD
ATOM     47  C   UNL A   1      44.941  32.564  28.643  1.00  0.00     0.031 A 
ATOM     48  C   UNL A   1      41.628  26.497  27.705  1.00  0.00     0.031 A 
ATOM     49  C   UNL A   1      45.648  31.611  27.831  1.00  0.00     0.049 A 
ATOM     50  C   UNL A   1      42.953  26.779  27.058  1.00  0.00     0.074 A 
ATOM     51  C   UNL A   1      46.893  31.735  27.239  1.00  0.00     0.029 A 
ATOM     52  N   UNL A   1      45.167  30.355  27.491  1.00  0.00    -0.354 N 
ATOM     53  N   UNL A   1      43.706  27.848  27.148  1.00  0.00    -0.248 NA
ATOM     54  C   UNL A   1      43.510  25.721  26.201  1.00  0.00     0.031 C 
ATOM     55  C   UNL A   1      47.149  30.570  26.507  1.00  0.00     0.029 A 
ATOM     56  C   UNL A   1      46.080  29.705  26.677  1.00  0.00     0.049 A 
ATOM     57  H   UNL A   1      44.304  29.982  27.785  1.00  0.00     0.167 HD
ATOM     58  C   UNL A   1      44.829  27.588  26.374  1.00  0.00     0.074 A 
ATOM     59  C   UNL A   1      44.666  26.255  25.831  1.00  0.00     0.031 C 
ATOM     60  C   UNL A   1      45.899  28.384  26.136  1.00  0.00     0.031 A 
BRANCH  47  61
ATOM     61  C   UNL A   1      45.574  33.904  28.882  1.00  0.00    -0.014 A 
ATOM     62  C   UNL A   1      45.330  34.987  28.022  1.00  0.00     0.009 A 
ATOM     63  C   UNL A   1      46.409  34.089  29.994  1.00  0.00     0.009 A 
ATOM     64  C   UNL A   1      45.936  36.223  28.257  1.00  0.00     0.001 A 
ATOM     65  C   UNL A   1      46.998  35.332  30.237  1.00  0.00     0.001 A 
ATOM     66  C   UNL A   1      46.767  36.395  29.364  1.00  0.00     0.000 A 
ENDBRANCH  47  61
BRANCH  48  67
ATOM     67  C   UNL A   1      40.942  25.198  27.491  1.00  0.00    -0.014 A 
ATOM     68  C   UNL A   1      41.430  24.025  28.086  1.00  0.00     0.009 A 
ATOM     69  C   UNL A   1      39.791  25.130  26.691  1.00  0.00     0.009 A 
ATOM     70  C   UNL A   1      40.784  22.806  27.872  1.00  0.00     0.001 A 
ATOM     71  C   UNL A   1      39.136  23.912  26.497  1.00  0.00     0.001 A 
ATOM     72  C   UNL A   1      39.636  22.751  27.083  1.00  0.00     0.000 A 
ENDBRANCH  48  67
BRANCH  60  73
ATOM     73  C   UNL A   1      46.983  27.827  25.259  1.00  0.00    -0.014 A 
ATOM     74  C   UNL A   1      46.931  27.971  23.865  1.00  0.00     0.009 A 
ATOM     75  C   UNL A   1      48.085  27.180  25.839  1.00  0.00     0.009 A 
ATOM     76  C   UNL A   1      47.951  27.455  23.065  1.00  0.00     0.001 A 
ATOM     77  C   UNL A   1      49.114  26.682  25.037  1.00  0.00     0.001 A 
ATOM     78  C   UNL A   1      49.042  26.814  23.651  1.00  0.00     0.000 A 
ENDBRANCH  60  73
ENDBRANCH  34  35
ENDBRANCH  27  29
ENDBRANCH  26  27
ENDBRANCH  25  26
ENDBRANCH   1  25
TORSDOF 15
ENDMDL
