MODEL 1
REMARK VINA RESULT:     -10.5      0.000      0.000
REMARK SMILES C[C@H]1CN([C@@H](C(=O)OCCOC(=O)c2ccc(-c3c4nc(c(-c5ccccc5)c5ccc([nH]5)c(-c5ccccc5)c5nc(c(-c6ccccc6)c6ccc3[nH]6)C=C5)C=C4)cc2)C(C)(C)C)S(=O)(=O)C1
REMARK SMILES IDX 10 1 9 2 8 3 6 4 7 5 5 6 4 7 1 8 2 9 3 10 69 11 66 12 67 13
REMARK SMILES IDX 68 14 62 15 63 16 64 17 65 18 11 19 12 20 13 21 14 22 15 23
REMARK SMILES IDX 61 24 16 25 60 26 17 27 18 28 19 29 54 30 20 31 59 32 53 33
REMARK SMILES IDX 55 34 21 35 58 36 52 37 51 38 22 40 44 41 29 42 43 43 30 44
REMARK SMILES IDX 33 45 42 46 56 47 31 48 32 49 41 51 57 52 34 53 23 54 24 55
REMARK SMILES IDX 28 56 25 57 27 58 26 59 45 60 46 61 50 62 47 63 49 64 48 65
REMARK SMILES IDX 35 66 36 67 40 68 37 69 39 70 38 71
REMARK H PARENT 55 39 33 50
REMARK Flexibility Score: inf
ROOT
ATOM      1  C   UNL A   1      31.711  29.182  25.073  1.00  0.00     0.275 C 
ENDROOT
BRANCH   1   2
ATOM      2  C   UNL A   1      31.705  27.759  25.619  1.00  0.00     0.274 C 
BRANCH   2   3
ATOM      3  O   UNL A   1      31.791  26.800  24.540  1.00  0.00    -0.461 OA
BRANCH   3   4
ATOM      4  C   UNL A   1      32.966  26.117  24.418  1.00  0.00     0.325 C 
ATOM      5  O   UNL A   1      34.028  26.681  24.180  1.00  0.00    -0.250 OA
BRANCH   4   6
ATOM      6  C   UNL A   1      32.773  24.580  24.392  1.00  0.00     0.188 C 
BRANCH   6   7
ATOM      7  N   UNL A   1      33.086  23.878  25.676  1.00  0.00    -0.187 NA
ATOM      8  C   UNL A   1      34.697  21.089  25.809  1.00  0.00     0.010 C 
ATOM      9  C   UNL A   1      34.553  22.278  26.760  1.00  0.00     0.017 C 
ATOM     10  C   UNL A   1      34.493  23.640  26.041  1.00  0.00     0.107 C 
ATOM     11  C   UNL A   1      33.272  22.154  27.579  1.00  0.00     0.159 C 
ATOM     12  S   UNL A   1      32.025  23.046  26.669  1.00  0.00     0.215 S 
ATOM     13  O   UNL A   1      31.414  23.986  27.574  1.00  0.00    -0.212 OA
ATOM     14  O   UNL A   1      31.260  22.122  25.861  1.00  0.00    -0.212 OA
ENDBRANCH   6   7
BRANCH   6  15
ATOM     15  C   UNL A   1      33.246  23.840  23.067  1.00  0.00    -0.011 C 
ATOM     16  C   UNL A   1      34.776  23.627  23.126  1.00  0.00     0.013 C 
ATOM     17  C   UNL A   1      32.638  22.416  22.946  1.00  0.00     0.013 C 
ATOM     18  C   UNL A   1      32.903  24.556  21.750  1.00  0.00     0.013 C 
ENDBRANCH   6  15
ENDBRANCH   4   6
ENDBRANCH   3   4
ENDBRANCH   2   3
ENDBRANCH   1   2
BRANCH   1  19
ATOM     19  O   UNL A   1      32.935  29.812  25.472  1.00  0.00    -0.458 OA
BRANCH  19  20
ATOM     20  C   UNL A   1      32.843  30.704  26.487  1.00  0.00     0.338 C 
ATOM     21  O   UNL A   1      31.915  31.463  26.708  1.00  0.00    -0.246 OA
BRANCH  20  22
ATOM     22  C   UNL A   1      34.081  30.646  27.297  1.00  0.00     0.060 A 
ATOM     23  C   UNL A   1      34.771  31.805  27.656  1.00  0.00     0.016 A 
ATOM     24  C   UNL A   1      34.598  29.403  27.653  1.00  0.00     0.016 A 
ATOM     25  C   UNL A   1      36.014  31.722  28.285  1.00  0.00     0.010 A 
ATOM     26  C   UNL A   1      35.786  29.328  28.387  1.00  0.00     0.010 A 
ATOM     27  C   UNL A   1      36.524  30.485  28.696  1.00  0.00    -0.014 A 
BRANCH  27  28
ATOM     28  C   UNL A   1      37.813  30.367  29.439  1.00  0.00     0.031 A 
ATOM     29  C   UNL A   1      38.944  29.562  28.856  1.00  0.00     0.074 A 
ATOM     30  C   UNL A   1      37.974  30.923  30.657  1.00  0.00     0.049 A 
ATOM     31  N   UNL A   1      39.966  29.011  29.460  1.00  0.00    -0.248 NA
ATOM     32  C   UNL A   1      38.903  29.327  27.404  1.00  0.00     0.031 C 
ATOM     33  C   UNL A   1      37.028  31.812  31.333  1.00  0.00     0.029 A 
ATOM     34  N   UNL A   1      39.007  30.799  31.556  1.00  0.00    -0.354 N 
ATOM     35  C   UNL A   1      40.640  28.292  28.479  1.00  0.00     0.074 A 
ATOM     36  C   UNL A   1      39.922  28.494  27.238  1.00  0.00     0.031 C 
ATOM     37  C   UNL A   1      37.535  32.181  32.517  1.00  0.00     0.029 A 
ATOM     38  C   UNL A   1      38.775  31.452  32.743  1.00  0.00     0.049 A 
ATOM     39  H   UNL A   1      39.830  30.293  31.370  1.00  0.00     0.167 HD
ATOM     40  C   UNL A   1      41.745  27.518  28.612  1.00  0.00     0.031 A 
ATOM     41  C   UNL A   1      39.433  31.413  33.917  1.00  0.00     0.031 A 
ATOM     42  C   UNL A   1      42.483  27.365  29.840  1.00  0.00     0.049 A 
ATOM     43  C   UNL A   1      40.607  30.494  34.074  1.00  0.00     0.074 A 
ATOM     44  C   UNL A   1      43.614  26.604  30.082  1.00  0.00     0.029 A 
ATOM     45  N   UNL A   1      42.175  28.010  31.029  1.00  0.00    -0.354 N 
ATOM     46  N   UNL A   1      41.163  29.711  33.183  1.00  0.00    -0.248 NA
ATOM     47  C   UNL A   1      41.218  30.428  35.407  1.00  0.00     0.031 C 
ATOM     48  C   UNL A   1      43.969  26.760  31.427  1.00  0.00     0.029 A 
ATOM     49  C   UNL A   1      43.087  27.657  32.009  1.00  0.00     0.049 A 
ATOM     50  H   UNL A   1      41.419  28.627  31.157  1.00  0.00     0.167 HD
ATOM     51  C   UNL A   1      42.201  29.070  33.843  1.00  0.00     0.074 A 
ATOM     52  C   UNL A   1      42.202  29.562  35.206  1.00  0.00     0.031 C 
ATOM     53  C   UNL A   1      43.076  28.155  33.360  1.00  0.00     0.031 A 
BRANCH  40  54
ATOM     54  C   UNL A   1      42.185  26.723  27.414  1.00  0.00    -0.014 A 
ATOM     55  C   UNL A   1      41.695  25.436  27.156  1.00  0.00     0.009 A 
ATOM     56  C   UNL A   1      43.092  27.297  26.507  1.00  0.00     0.009 A 
ATOM     57  C   UNL A   1      42.135  24.723  26.036  1.00  0.00     0.001 A 
ATOM     58  C   UNL A   1      43.508  26.596  25.375  1.00  0.00     0.001 A 
ATOM     59  C   UNL A   1      43.038  25.305  25.146  1.00  0.00     0.000 A 
ENDBRANCH  40  54
BRANCH  41  60
ATOM     60  C   UNL A   1      38.934  32.223  35.059  1.00  0.00    -0.014 A 
ATOM     61  C   UNL A   1      38.122  31.636  36.040  1.00  0.00     0.009 A 
ATOM     62  C   UNL A   1      39.309  33.569  35.202  1.00  0.00     0.009 A 
ATOM     63  C   UNL A   1      37.703  32.380  37.145  1.00  0.00     0.001 A 
ATOM     64  C   UNL A   1      38.912  34.301  36.321  1.00  0.00     0.001 A 
ATOM     65  C   UNL A   1      38.106  33.706  37.290  1.00  0.00     0.000 A 
ENDBRANCH  41  60
BRANCH  53  66
ATOM     66  C   UNL A   1      44.140  27.667  34.299  1.00  0.00    -0.014 A 
ATOM     67  C   UNL A   1      45.354  28.353  34.446  1.00  0.00     0.009 A 
ATOM     68  C   UNL A   1      43.906  26.517  35.069  1.00  0.00     0.009 A 
ATOM     69  C   UNL A   1      46.328  27.879  35.327  1.00  0.00     0.001 A 
ATOM     70  C   UNL A   1      44.872  26.058  35.964  1.00  0.00     0.001 A 
ATOM     71  C   UNL A   1      46.085  26.735  36.087  1.00  0.00     0.000 A 
ENDBRANCH  53  66
ENDBRANCH  27  28
ENDBRANCH  20  22
ENDBRANCH  19  20
ENDBRANCH   1  19
TORSDOF 13
ENDMDL
MODEL 2
REMARK VINA RESULT:     -10.4      1.378      2.212
REMARK SMILES C[C@H]1CN([C@@H](C(=O)OCCOC(=O)c2ccc(-c3c4nc(c(-c5ccccc5)c5ccc([nH]5)c(-c5ccccc5)c5nc(c(-c6ccccc6)c6ccc3[nH]6)C=C5)C=C4)cc2)C(C)(C)C)S(=O)(=O)C1
REMARK SMILES IDX 10 1 9 2 8 3 6 4 7 5 5 6 4 7 1 8 2 9 3 10 69 11 66 12 67 13
REMARK SMILES IDX 68 14 62 15 63 16 64 17 65 18 11 19 12 20 13 21 14 22 15 23
REMARK SMILES IDX 61 24 16 25 60 26 17 27 18 28 19 29 54 30 20 31 59 32 53 33
REMARK SMILES IDX 55 34 21 35 58 36 52 37 51 38 22 40 44 41 29 42 43 43 30 44
REMARK SMILES IDX 33 45 42 46 56 47 31 48 32 49 41 51 57 52 34 53 23 54 24 55
REMARK SMILES IDX 28 56 25 57 27 58 26 59 45 60 46 61 50 62 47 63 49 64 48 65
REMARK SMILES IDX 35 66 36 67 40 68 37 69 39 70 38 71
REMARK H PARENT 55 39 33 50
REMARK Flexibility Score: inf
ROOT
ATOM      1  C   UNL A   1      31.497  29.815  24.953  1.00  0.00     0.275 C 
ENDROOT
BRANCH   1   2
ATOM      2  C   UNL A   1      31.568  28.736  23.880  1.00  0.00     0.274 C 
BRANCH   2   3
ATOM      3  O   UNL A   1      30.307  28.033  23.782  1.00  0.00    -0.461 OA
BRANCH   3   4
ATOM      4  C   UNL A   1      30.272  26.764  24.282  1.00  0.00     0.325 C 
ATOM      5  O   UNL A   1      29.259  26.287  24.781  1.00  0.00    -0.250 OA
BRANCH   4   6
ATOM      6  C   UNL A   1      31.670  26.100  24.349  1.00  0.00     0.188 C 
BRANCH   6   7
ATOM      7  N   UNL A   1      31.894  24.992  23.368  1.00  0.00    -0.187 NA
ATOM      8  C   UNL A   1      33.076  22.112  24.208  1.00  0.00     0.010 C 
ATOM      9  C   UNL A   1      32.135  22.592  23.103  1.00  0.00     0.017 C 
ATOM     10  C   UNL A   1      31.179  23.716  23.549  1.00  0.00     0.107 C 
ATOM     11  C   UNL A   1      32.933  23.133  21.921  1.00  0.00     0.159 C 
ATOM     12  S   UNL A   1      33.094  24.886  22.205  1.00  0.00     0.215 S 
ATOM     13  O   UNL A   1      32.638  25.563  21.017  1.00  0.00    -0.212 OA
ATOM     14  O   UNL A   1      34.370  25.162  22.827  1.00  0.00    -0.212 OA
ENDBRANCH   6   7
BRANCH   6  15
ATOM     15  C   UNL A   1      32.262  25.865  25.805  1.00  0.00    -0.011 C 
ATOM     16  C   UNL A   1      33.794  26.064  25.766  1.00  0.00     0.013 C 
ATOM     17  C   UNL A   1      31.737  26.912  26.824  1.00  0.00     0.013 C 
ATOM     18  C   UNL A   1      31.965  24.489  26.426  1.00  0.00     0.013 C 
ENDBRANCH   6  15
ENDBRANCH   4   6
ENDBRANCH   3   4
ENDBRANCH   2   3
ENDBRANCH   1   2
BRANCH   1  19
ATOM     19  O   UNL A   1      32.773  29.886  25.604  1.00  0.00    -0.458 OA
BRANCH  19  20
ATOM     20  C   UNL A   1      32.882  30.790  26.605  1.00  0.00     0.338 C 
ATOM     21  O   UNL A   1      32.065  31.643  26.910  1.00  0.00    -0.246 OA
BRANCH  20  22
ATOM     22  C   UNL A   1      34.188  30.612  27.279  1.00  0.00     0.060 A 
ATOM     23  C   UNL A   1      34.661  29.345  27.626  1.00  0.00     0.016 A 
ATOM     24  C   UNL A   1      34.927  31.739  27.629  1.00  0.00     0.016 A 
ATOM     25  C   UNL A   1      35.817  29.209  28.395  1.00  0.00     0.010 A 
ATOM     26  C   UNL A   1      36.147  31.592  28.298  1.00  0.00     0.010 A 
ATOM     27  C   UNL A   1      36.599  30.325  28.711  1.00  0.00    -0.014 A 
BRANCH  27  28
ATOM     28  C   UNL A   1      37.881  30.206  29.466  1.00  0.00     0.031 A 
ATOM     29  C   UNL A   1      39.033  29.438  28.874  1.00  0.00     0.074 A 
ATOM     30  C   UNL A   1      38.018  30.727  30.703  1.00  0.00     0.049 A 
ATOM     31  N   UNL A   1      40.057  28.886  29.474  1.00  0.00    -0.248 NA
ATOM     32  C   UNL A   1      39.013  29.247  27.415  1.00  0.00     0.031 C 
ATOM     33  C   UNL A   1      37.049  31.579  31.393  1.00  0.00     0.029 A 
ATOM     34  N   UNL A   1      39.042  30.593  31.611  1.00  0.00    -0.354 N 
ATOM     35  C   UNL A   1      40.755  28.209  28.481  1.00  0.00     0.074 A 
ATOM     36  C   UNL A   1      40.049  28.436  27.237  1.00  0.00     0.031 C 
ATOM     37  C   UNL A   1      37.536  31.920  32.594  1.00  0.00     0.029 A 
ATOM     38  C   UNL A   1      38.786  31.206  32.814  1.00  0.00     0.049 A 
ATOM     39  H   UNL A   1      39.876  30.107  31.419  1.00  0.00     0.167 HD
ATOM     40  C   UNL A   1      41.872  27.450  28.604  1.00  0.00     0.031 A 
ATOM     41  C   UNL A   1      39.429  31.143  33.994  1.00  0.00     0.031 A 
ATOM     42  C   UNL A   1      42.597  27.272  29.836  1.00  0.00     0.049 A 
ATOM     43  C   UNL A   1      40.617  30.239  34.138  1.00  0.00     0.074 A 
ATOM     44  C   UNL A   1      43.737  26.522  30.069  1.00  0.00     0.029 A 
ATOM     45  N   UNL A   1      42.263  27.874  31.039  1.00  0.00    -0.354 N 
ATOM     46  N   UNL A   1      41.197  29.492  33.231  1.00  0.00    -0.248 NA
ATOM     47  C   UNL A   1      41.214  30.143  35.476  1.00  0.00     0.031 C 
ATOM     48  C   UNL A   1      44.074  26.643  31.422  1.00  0.00     0.029 A 
ATOM     49  C   UNL A   1      43.170  27.508  32.019  1.00  0.00     0.049 A 
ATOM     50  H   UNL A   1      41.496  28.475  31.177  1.00  0.00     0.167 HD
ATOM     51  C   UNL A   1      42.238  28.849  33.884  1.00  0.00     0.074 A 
ATOM     52  C   UNL A   1      42.214  29.300  35.261  1.00  0.00     0.031 C 
ATOM     53  C   UNL A   1      43.134  27.964  33.385  1.00  0.00     0.031 A 
BRANCH  40  54
ATOM     54  C   UNL A   1      42.339  26.699  27.387  1.00  0.00    -0.014 A 
ATOM     55  C   UNL A   1      41.865  25.416  27.079  1.00  0.00     0.009 A 
ATOM     56  C   UNL A   1      43.256  27.310  26.516  1.00  0.00     0.009 A 
ATOM     57  C   UNL A   1      42.332  24.745  25.943  1.00  0.00     0.001 A 
ATOM     58  C   UNL A   1      43.698  26.651  25.369  1.00  0.00     0.001 A 
ATOM     59  C   UNL A   1      43.244  25.364  25.089  1.00  0.00     0.000 A 
ENDBRANCH  40  54
BRANCH  41  60
ATOM     60  C   UNL A   1      38.903  31.908  35.154  1.00  0.00    -0.014 A 
ATOM     61  C   UNL A   1      38.148  31.263  36.143  1.00  0.00     0.009 A 
ATOM     62  C   UNL A   1      39.197  33.274  35.304  1.00  0.00     0.009 A 
ATOM     63  C   UNL A   1      37.704  31.969  37.264  1.00  0.00     0.001 A 
ATOM     64  C   UNL A   1      38.777  33.970  36.438  1.00  0.00     0.001 A 
ATOM     65  C   UNL A   1      38.028  33.316  37.416  1.00  0.00     0.000 A 
ENDBRANCH  41  60
BRANCH  53  66
ATOM     66  C   UNL A   1      44.194  27.466  34.322  1.00  0.00    -0.014 A 
ATOM     67  C   UNL A   1      45.402  28.158  34.492  1.00  0.00     0.009 A 
ATOM     68  C   UNL A   1      43.965  26.298  35.067  1.00  0.00     0.009 A 
ATOM     69  C   UNL A   1      46.373  27.674  35.371  1.00  0.00     0.001 A 
ATOM     70  C   UNL A   1      44.928  25.829  35.960  1.00  0.00     0.001 A 
ATOM     71  C   UNL A   1      46.134  26.513  36.106  1.00  0.00     0.000 A 
ENDBRANCH  53  66
ENDBRANCH  27  28
ENDBRANCH  20  22
ENDBRANCH  19  20
ENDBRANCH   1  19
TORSDOF 13
ENDMDL
MODEL 3
REMARK VINA RESULT:     -10.3      3.662      8.428
REMARK SMILES C[C@H]1CN([C@@H](C(=O)OCCOC(=O)c2ccc(-c3c4nc(c(-c5ccccc5)c5ccc([nH]5)c(-c5ccccc5)c5nc(c(-c6ccccc6)c6ccc3[nH]6)C=C5)C=C4)cc2)C(C)(C)C)S(=O)(=O)C1
REMARK SMILES IDX 10 1 9 2 8 3 6 4 7 5 5 6 4 7 1 8 2 9 3 10 69 11 66 12 67 13
REMARK SMILES IDX 68 14 62 15 63 16 64 17 65 18 11 19 12 20 13 21 14 22 15 23
REMARK SMILES IDX 61 24 16 25 60 26 17 27 18 28 19 29 54 30 20 31 59 32 53 33
REMARK SMILES IDX 55 34 21 35 58 36 52 37 51 38 22 40 44 41 29 42 43 43 30 44
REMARK SMILES IDX 33 45 42 46 56 47 31 48 32 49 41 51 57 52 34 53 23 54 24 55
REMARK SMILES IDX 28 56 25 57 27 58 26 59 45 60 46 61 50 62 47 63 49 64 48 65
REMARK SMILES IDX 35 66 36 67 40 68 37 69 39 70 38 71
REMARK H PARENT 55 39 33 50
REMARK Flexibility Score: inf
ROOT
ATOM      1  C   UNL A   1      35.407  21.810  24.510  1.00  0.00     0.275 C 
ENDROOT
BRANCH   1   2
ATOM      2  C   UNL A   1      35.346  23.169  23.824  1.00  0.00     0.274 C 
BRANCH   2   3
ATOM      3  O   UNL A   1      34.136  23.871  24.195  1.00  0.00    -0.461 OA
BRANCH   3   4
ATOM      4  C   UNL A   1      33.516  24.585  23.212  1.00  0.00     0.325 C 
ATOM      5  O   UNL A   1      33.878  24.536  22.041  1.00  0.00    -0.250 OA
BRANCH   4   6
ATOM      6  C   UNL A   1      32.484  25.601  23.761  1.00  0.00     0.188 C 
BRANCH   6   7
ATOM      7  N   UNL A   1      33.067  26.743  24.533  1.00  0.00    -0.187 NA
ATOM      8  C   UNL A   1      31.680  27.973  27.171  1.00  0.00     0.010 C 
ATOM      9  C   UNL A   1      33.125  27.863  26.685  1.00  0.00     0.017 C 
ATOM     10  C   UNL A   1      33.430  26.545  25.947  1.00  0.00     0.107 C 
ATOM     11  C   UNL A   1      33.451  28.996  25.718  1.00  0.00     0.159 C 
ATOM     12  S   UNL A   1      33.114  28.357  24.088  1.00  0.00     0.215 S 
ATOM     13  O   UNL A   1      34.290  28.574  23.284  1.00  0.00    -0.212 OA
ATOM     14  O   UNL A   1      31.790  28.763  23.671  1.00  0.00    -0.212 OA
ENDBRANCH   6   7
BRANCH   6  15
ATOM     15  C   UNL A   1      31.141  24.985  24.347  1.00  0.00    -0.011 C 
ATOM     16  C   UNL A   1      30.651  23.856  23.411  1.00  0.00     0.013 C 
ATOM     17  C   UNL A   1      31.365  24.307  25.726  1.00  0.00     0.013 C 
ATOM     18  C   UNL A   1      29.989  25.983  24.553  1.00  0.00     0.013 C 
ENDBRANCH   6  15
ENDBRANCH   4   6
ENDBRANCH   3   4
ENDBRANCH   2   3
ENDBRANCH   1   2
BRANCH   1  19
ATOM     19  O   UNL A   1      36.259  21.923  25.658  1.00  0.00    -0.458 OA
BRANCH  19  20
ATOM     20  C   UNL A   1      37.526  21.472  25.506  1.00  0.00     0.338 C 
ATOM     21  O   UNL A   1      37.867  20.387  25.067  1.00  0.00    -0.246 OA
BRANCH  20  22
ATOM     22  C   UNL A   1      38.469  22.505  25.993  1.00  0.00     0.060 A 
ATOM     23  C   UNL A   1      39.689  22.160  26.578  1.00  0.00     0.016 A 
ATOM     24  C   UNL A   1      38.099  23.846  25.919  1.00  0.00     0.016 A 
ATOM     25  C   UNL A   1      40.491  23.137  27.168  1.00  0.00     0.010 A 
ATOM     26  C   UNL A   1      38.962  24.833  26.407  1.00  0.00     0.010 A 
ATOM     27  C   UNL A   1      40.162  24.492  27.059  1.00  0.00    -0.014 A 
BRANCH  27  28
ATOM     28  C   UNL A   1      41.037  25.567  27.611  1.00  0.00     0.031 A 
ATOM     29  C   UNL A   1      40.467  26.584  28.565  1.00  0.00     0.074 A 
ATOM     30  C   UNL A   1      42.326  25.688  27.231  1.00  0.00     0.049 A 
ATOM     31  N   UNL A   1      40.902  27.783  28.856  1.00  0.00    -0.248 NA
ATOM     32  C   UNL A   1      39.229  26.205  29.265  1.00  0.00     0.031 C 
ATOM     33  C   UNL A   1      43.071  24.746  26.395  1.00  0.00     0.029 A 
ATOM     34  N   UNL A   1      43.237  26.682  27.497  1.00  0.00    -0.354 N 
ATOM     35  C   UNL A   1      39.947  28.336  29.701  1.00  0.00     0.074 A 
ATOM     36  C   UNL A   1      38.920  27.333  29.893  1.00  0.00     0.031 C 
ATOM     37  C   UNL A   1      44.328  25.185  26.246  1.00  0.00     0.029 A 
ATOM     38  C   UNL A   1      44.441  26.501  26.860  1.00  0.00     0.049 A 
ATOM     39  H   UNL A   1      43.047  27.449  28.084  1.00  0.00     0.167 HD
ATOM     40  C   UNL A   1      39.922  29.576  30.248  1.00  0.00     0.031 A 
ATOM     41  C   UNL A   1      45.495  27.324  26.709  1.00  0.00     0.031 A 
ATOM     42  C   UNL A   1      40.973  30.549  30.095  1.00  0.00     0.049 A 
ATOM     43  C   UNL A   1      45.424  28.719  27.252  1.00  0.00     0.074 A 
ATOM     44  C   UNL A   1      41.046  31.834  30.605  1.00  0.00     0.029 A 
ATOM     45  N   UNL A   1      42.150  30.331  29.394  1.00  0.00    -0.354 N 
ATOM     46  N   UNL A   1      44.463  29.288  27.937  1.00  0.00    -0.248 NA
ATOM     47  C   UNL A   1      46.567  29.596  26.969  1.00  0.00     0.031 C 
ATOM     48  C   UNL A   1      42.252  32.406  30.184  1.00  0.00     0.029 A 
ATOM     49  C   UNL A   1      42.951  31.460  29.452  1.00  0.00     0.049 A 
ATOM     50  H   UNL A   1      42.384  29.498  28.926  1.00  0.00     0.167 HD
ATOM     51  C   UNL A   1      44.890  30.584  28.182  1.00  0.00     0.074 A 
ATOM     52  C   UNL A   1      46.202  30.715  27.579  1.00  0.00     0.031 C 
ATOM     53  C   UNL A   1      44.253  31.576  28.848  1.00  0.00     0.031 A 
BRANCH  40  54
ATOM     54  C   UNL A   1      38.688  29.975  31.010  1.00  0.00    -0.014 A 
ATOM     55  C   UNL A   1      38.590  29.819  32.400  1.00  0.00     0.009 A 
ATOM     56  C   UNL A   1      37.610  30.548  30.314  1.00  0.00     0.009 A 
ATOM     57  C   UNL A   1      37.421  30.192  33.072  1.00  0.00     0.001 A 
ATOM     58  C   UNL A   1      36.456  30.946  30.990  1.00  0.00     0.001 A 
ATOM     59  C   UNL A   1      36.358  30.758  32.367  1.00  0.00     0.000 A 
ENDBRANCH  40  54
BRANCH  41  60
ATOM     60  C   UNL A   1      46.677  26.860  25.937  1.00  0.00    -0.014 A 
ATOM     61  C   UNL A   1      46.826  27.218  24.589  1.00  0.00     0.009 A 
ATOM     62  C   UNL A   1      47.687  26.104  26.557  1.00  0.00     0.009 A 
ATOM     63  C   UNL A   1      47.966  26.833  23.880  1.00  0.00     0.001 A 
ATOM     64  C   UNL A   1      48.837  25.746  25.854  1.00  0.00     0.001 A 
ATOM     65  C   UNL A   1      48.974  26.109  24.515  1.00  0.00     0.000 A 
ENDBRANCH  41  60
BRANCH  53  66
ATOM     66  C   UNL A   1      44.989  32.874  29.004  1.00  0.00    -0.014 A 
ATOM     67  C   UNL A   1      44.821  33.923  28.088  1.00  0.00     0.009 A 
ATOM     68  C   UNL A   1      45.842  33.056  30.104  1.00  0.00     0.009 A 
ATOM     69  C   UNL A   1      45.517  35.122  28.256  1.00  0.00     0.001 A 
ATOM     70  C   UNL A   1      46.520  34.262  30.280  1.00  0.00     0.001 A 
ATOM     71  C   UNL A   1      46.362  35.291  29.353  1.00  0.00     0.000 A 
ENDBRANCH  53  66
ENDBRANCH  27  28
ENDBRANCH  20  22
ENDBRANCH  19  20
ENDBRANCH   1  19
TORSDOF 13
ENDMDL
