MODEL 1
REMARK VINA RESULT:     -10.1      0.000      0.000
REMARK SMILES COCCS(=O)(=O)N1C[C@@H](C(=O)OCCOC(=O)c2ccc(-c3c4nc(c(-c5ccccc5)c5ccc([nH]5)c(-c5ccccc5)c5nc(c(-c6ccccc6)c6ccc3[nH]6)C=C5)C=C4)cc2)c2ccccc21
REMARK SMILES IDX 14 1 13 2 11 3 12 4 10 5 8 6 9 7 72 8 67 9 71 10 68 11 70 12
REMARK SMILES IDX 69 13 5 14 6 15 7 16 4 17 3 18 2 19 1 20 15 21 16 22 17 23
REMARK SMILES IDX 18 24 19 25 20 26 66 27 21 28 65 29 22 30 23 31 24 32 59 33
REMARK SMILES IDX 25 34 64 35 58 36 60 37 26 38 63 39 57 40 56 41 27 43 49 44
REMARK SMILES IDX 34 45 48 46 35 47 38 48 47 49 61 50 36 51 37 52 46 54 62 55
REMARK SMILES IDX 39 56 28 57 29 58 33 59 30 60 32 61 31 62 50 63 51 64 55 65
REMARK SMILES IDX 52 66 54 67 53 68 40 69 41 70 45 71 42 72 44 73 43 74
REMARK H PARENT 60 42 38 53
REMARK Flexibility Score: inf
ROOT
ATOM      1  C   UNL A   1      33.375  31.253  27.268  1.00  0.00     0.274 C 
ENDROOT
BRANCH   1   2
ATOM      2  O   UNL A   1      32.648  30.134  26.727  1.00  0.00    -0.462 OA
BRANCH   2   3
ATOM      3  C   UNL A   1      33.281  29.409  25.766  1.00  0.00     0.315 C 
ATOM      4  O   UNL A   1      34.400  28.921  25.883  1.00  0.00    -0.251 OA
BRANCH   3   5
ATOM      5  C   UNL A   1      32.506  29.327  24.479  1.00  0.00     0.152 C 
ATOM      6  N   UNL A   1      30.268  28.501  23.881  1.00  0.00    -0.269 N 
ATOM      7  C   UNL A   1      31.012  29.441  24.825  1.00  0.00     0.155 C 
ATOM      8  C   UNL A   1      31.277  27.594  23.412  1.00  0.00     0.056 A 
ATOM      9  C   UNL A   1      32.561  28.037  23.718  1.00  0.00    -0.008 A 
ATOM     10  C   UNL A   1      31.080  26.358  22.821  1.00  0.00     0.027 A 
ATOM     11  C   UNL A   1      33.677  27.320  23.304  1.00  0.00     0.007 A 
ATOM     12  C   UNL A   1      32.196  25.612  22.431  1.00  0.00     0.002 A 
ATOM     13  C   UNL A   1      33.487  26.100  22.652  1.00  0.00     0.000 A 
BRANCH   6  14
ATOM     14  S   UNL A   1      29.370  29.413  22.749  1.00  0.00     0.237 S 
ATOM     15  O   UNL A   1      28.118  28.720  22.515  1.00  0.00    -0.206 OA
ATOM     16  O   UNL A   1      30.267  29.621  21.626  1.00  0.00    -0.206 OA
BRANCH  14  17
ATOM     17  C   UNL A   1      29.053  31.022  23.470  1.00  0.00     0.188 C 
BRANCH  17  18
ATOM     18  C   UNL A   1      27.690  31.577  23.097  1.00  0.00     0.178 C 
BRANCH  18  19
ATOM     19  O   UNL A   1      27.784  32.705  22.232  1.00  0.00    -0.384 OA
ATOM     20  C   UNL A   1      28.025  32.352  20.873  1.00  0.00     0.194 C 
ENDBRANCH  18  19
ENDBRANCH  17  18
ENDBRANCH  14  17
ENDBRANCH   6  14
ENDBRANCH   3   5
ENDBRANCH   2   3
ENDBRANCH   1   2
BRANCH   1  21
ATOM     21  C   UNL A   1      32.452  32.443  27.523  1.00  0.00     0.275 C 
BRANCH  21  22
ATOM     22  O   UNL A   1      33.208  33.664  27.561  1.00  0.00    -0.458 OA
BRANCH  22  23
ATOM     23  C   UNL A   1      33.303  34.253  28.774  1.00  0.00     0.338 C 
ATOM     24  O   UNL A   1      32.528  35.034  29.295  1.00  0.00    -0.246 OA
BRANCH  23  25
ATOM     25  C   UNL A   1      34.514  33.772  29.448  1.00  0.00     0.060 A 
ATOM     26  C   UNL A   1      35.766  34.200  28.999  1.00  0.00     0.016 A 
ATOM     27  C   UNL A   1      34.402  32.812  30.453  1.00  0.00     0.016 A 
ATOM     28  C   UNL A   1      36.923  33.649  29.549  1.00  0.00     0.010 A 
ATOM     29  C   UNL A   1      35.562  32.281  31.019  1.00  0.00     0.010 A 
ATOM     30  C   UNL A   1      36.829  32.684  30.561  1.00  0.00    -0.014 A 
BRANCH  30  31
ATOM     31  C   UNL A   1      38.049  32.061  31.126  1.00  0.00     0.031 A 
ATOM     32  C   UNL A   1      38.756  30.974  30.368  1.00  0.00     0.074 A 
ATOM     33  C   UNL A   1      38.507  32.450  32.330  1.00  0.00     0.049 A 
ATOM     34  N   UNL A   1      39.745  30.207  30.751  1.00  0.00    -0.248 NA
ATOM     35  C   UNL A   1      38.285  30.713  28.998  1.00  0.00     0.031 C 
ATOM     36  C   UNL A   1      37.933  33.518  33.149  1.00  0.00     0.029 A 
ATOM     37  N   UNL A   1      39.553  31.976  33.079  1.00  0.00    -0.354 N 
ATOM     38  C   UNL A   1      40.003  29.360  29.682  1.00  0.00     0.074 A 
ATOM     39  C   UNL A   1      39.057  29.696  28.637  1.00  0.00     0.031 C 
ATOM     40  C   UNL A   1      38.630  33.613  34.292  1.00  0.00     0.029 A 
ATOM     41  C   UNL A   1      39.664  32.581  34.306  1.00  0.00     0.049 A 
ATOM     42  H   UNL A   1      40.165  31.270  32.767  1.00  0.00     0.167 HD
ATOM     43  C   UNL A   1      40.941  28.390  29.579  1.00  0.00     0.031 A 
ATOM     44  C   UNL A   1      40.480  32.311  35.341  1.00  0.00     0.031 A 
ATOM     45  C   UNL A   1      41.878  28.051  30.617  1.00  0.00     0.049 A 
ATOM     46  C   UNL A   1      41.473  31.190  35.226  1.00  0.00     0.074 A 
ATOM     47  C   UNL A   1      42.863  27.078  30.608  1.00  0.00     0.029 A 
ATOM     48  N   UNL A   1      41.947  28.680  31.850  1.00  0.00    -0.354 N 
ATOM     49  N   UNL A   1      41.693  30.383  34.217  1.00  0.00    -0.248 NA
ATOM     50  C   UNL A   1      42.327  30.940  36.397  1.00  0.00     0.031 C 
ATOM     51  C   UNL A   1      43.506  27.094  31.851  1.00  0.00     0.029 A 
ATOM     52  C   UNL A   1      42.949  28.108  32.615  1.00  0.00     0.049 A 
ATOM     53  H   UNL A   1      41.371  29.424  32.139  1.00  0.00     0.167 HD
ATOM     54  C   UNL A   1      42.719  29.540  34.624  1.00  0.00     0.074 A 
ATOM     55  C   UNL A   1      43.090  29.945  35.965  1.00  0.00     0.031 C 
ATOM     56  C   UNL A   1      43.301  28.520  33.948  1.00  0.00     0.031 A 
BRANCH  43  57
ATOM     57  C   UNL A   1      40.980  27.601  28.302  1.00  0.00    -0.014 A 
ATOM     58  C   UNL A   1      41.764  28.018  27.214  1.00  0.00     0.009 A 
ATOM     59  C   UNL A   1      40.252  26.406  28.198  1.00  0.00     0.009 A 
ATOM     60  C   UNL A   1      41.795  27.266  26.038  1.00  0.00     0.001 A 
ATOM     61  C   UNL A   1      40.303  25.645  27.029  1.00  0.00     0.001 A 
ATOM     62  C   UNL A   1      41.068  26.079  25.948  1.00  0.00     0.000 A 
ENDBRANCH  43  57
BRANCH  44  63
ATOM     63  C   UNL A   1      40.364  33.093  36.598  1.00  0.00    -0.014 A 
ATOM     64  C   UNL A   1      41.165  34.223  36.816  1.00  0.00     0.009 A 
ATOM     65  C   UNL A   1      39.446  32.707  37.589  1.00  0.00     0.009 A 
ATOM     66  C   UNL A   1      41.064  34.939  38.011  1.00  0.00     0.001 A 
ATOM     67  C   UNL A   1      39.330  33.439  38.770  1.00  0.00     0.001 A 
ATOM     68  C   UNL A   1      40.144  34.550  38.984  1.00  0.00     0.000 A 
ENDBRANCH  44  63
BRANCH  56  69
ATOM     69  C   UNL A   1      44.416  27.793  34.640  1.00  0.00    -0.014 A 
ATOM     70  C   UNL A   1      45.744  28.231  34.533  1.00  0.00     0.009 A 
ATOM     71  C   UNL A   1      44.128  26.673  35.436  1.00  0.00     0.009 A 
ATOM     72  C   UNL A   1      46.769  27.543  35.187  1.00  0.00     0.001 A 
ATOM     73  C   UNL A   1      45.151  26.001  36.107  1.00  0.00     0.001 A 
ATOM     74  C   UNL A   1      46.471  26.431  35.975  1.00  0.00     0.000 A 
ENDBRANCH  56  69
ENDBRANCH  30  31
ENDBRANCH  23  25
ENDBRANCH  22  23
ENDBRANCH  21  22
ENDBRANCH   1  21
TORSDOF 15
ENDMDL
MODEL 2
REMARK VINA RESULT:      -9.9      2.219      3.546
REMARK SMILES COCCS(=O)(=O)N1C[C@@H](C(=O)OCCOC(=O)c2ccc(-c3c4nc(c(-c5ccccc5)c5ccc([nH]5)c(-c5ccccc5)c5nc(c(-c6ccccc6)c6ccc3[nH]6)C=C5)C=C4)cc2)c2ccccc21
REMARK SMILES IDX 14 1 13 2 11 3 12 4 10 5 8 6 9 7 72 8 67 9 71 10 68 11 70 12
REMARK SMILES IDX 69 13 5 14 6 15 7 16 4 17 3 18 2 19 1 20 15 21 16 22 17 23
REMARK SMILES IDX 18 24 19 25 20 26 66 27 21 28 65 29 22 30 23 31 24 32 59 33
REMARK SMILES IDX 25 34 64 35 58 36 60 37 26 38 63 39 57 40 56 41 27 43 49 44
REMARK SMILES IDX 34 45 48 46 35 47 38 48 47 49 61 50 36 51 37 52 46 54 62 55
REMARK SMILES IDX 39 56 28 57 29 58 33 59 30 60 32 61 31 62 50 63 51 64 55 65
REMARK SMILES IDX 52 66 54 67 53 68 40 69 41 70 45 71 42 72 44 73 43 74
REMARK H PARENT 60 42 38 53
REMARK Flexibility Score: inf
ROOT
ATOM      1  C   UNL A   1      33.172  31.353  27.232  1.00  0.00     0.274 C 
ENDROOT
BRANCH   1   2
ATOM      2  O   UNL A   1      32.441  30.126  27.419  1.00  0.00    -0.462 OA
BRANCH   2   3
ATOM      3  C   UNL A   1      32.944  29.022  26.803  1.00  0.00     0.315 C 
ATOM      4  O   UNL A   1      34.111  28.890  26.451  1.00  0.00    -0.251 OA
BRANCH   3   5
ATOM      5  C   UNL A   1      31.898  27.983  26.504  1.00  0.00     0.152 C 
ATOM      6  N   UNL A   1      31.954  25.741  25.496  1.00  0.00    -0.269 N 
ATOM      7  C   UNL A   1      32.570  26.603  26.594  1.00  0.00     0.155 C 
ATOM      8  C   UNL A   1      31.378  26.686  24.581  1.00  0.00     0.056 A 
ATOM      9  C   UNL A   1      31.313  27.966  25.124  1.00  0.00    -0.008 A 
ATOM     10  C   UNL A   1      31.010  26.458  23.267  1.00  0.00     0.027 A 
ATOM     11  C   UNL A   1      30.741  29.011  24.411  1.00  0.00     0.007 A 
ATOM     12  C   UNL A   1      30.464  27.511  22.527  1.00  0.00     0.002 A 
ATOM     13  C   UNL A   1      30.311  28.776  23.103  1.00  0.00     0.000 A 
BRANCH   6  14
ATOM     14  S   UNL A   1      30.961  24.539  26.195  1.00  0.00     0.237 S 
ATOM     15  O   UNL A   1      29.639  25.105  26.375  1.00  0.00    -0.206 OA
ATOM     16  O   UNL A   1      31.683  24.080  27.369  1.00  0.00    -0.206 OA
BRANCH  14  17
ATOM     17  C   UNL A   1      30.887  23.160  25.054  1.00  0.00     0.188 C 
BRANCH  17  18
ATOM     18  C   UNL A   1      31.998  22.150  25.277  1.00  0.00     0.178 C 
BRANCH  18  19
ATOM     19  O   UNL A   1      33.198  22.510  24.598  1.00  0.00    -0.384 OA
ATOM     20  C   UNL A   1      34.247  21.560  24.771  1.00  0.00     0.194 C 
ENDBRANCH  18  19
ENDBRANCH  17  18
ENDBRANCH  14  17
ENDBRANCH   6  14
ENDBRANCH   3   5
ENDBRANCH   2   3
ENDBRANCH   1   2
BRANCH   1  21
ATOM     21  C   UNL A   1      32.332  32.565  27.628  1.00  0.00     0.275 C 
BRANCH  21  22
ATOM     22  O   UNL A   1      33.152  33.743  27.694  1.00  0.00    -0.458 OA
BRANCH  22  23
ATOM     23  C   UNL A   1      33.356  34.242  28.933  1.00  0.00     0.338 C 
ATOM     24  O   UNL A   1      32.597  34.910  29.611  1.00  0.00    -0.246 OA
BRANCH  23  25
ATOM     25  C   UNL A   1      34.677  33.819  29.410  1.00  0.00     0.060 A 
ATOM     26  C   UNL A   1      35.820  34.216  28.711  1.00  0.00     0.016 A 
ATOM     27  C   UNL A   1      34.766  32.937  30.487  1.00  0.00     0.016 A 
ATOM     28  C   UNL A   1      37.067  33.714  29.082  1.00  0.00     0.010 A 
ATOM     29  C   UNL A   1      36.018  32.456  30.871  1.00  0.00     0.010 A 
ATOM     30  C   UNL A   1      37.174  32.827  30.162  1.00  0.00    -0.014 A 
BRANCH  30  31
ATOM     31  C   UNL A   1      38.487  32.254  30.541  1.00  0.00     0.031 A 
ATOM     32  C   UNL A   1      38.943  30.958  29.933  1.00  0.00     0.074 A 
ATOM     33  C   UNL A   1      39.257  32.880  31.449  1.00  0.00     0.049 A 
ATOM     34  N   UNL A   1      39.981  30.223  30.238  1.00  0.00    -0.248 NA
ATOM     35  C   UNL A   1      38.118  30.416  28.842  1.00  0.00     0.031 C 
ATOM     36  C   UNL A   1      38.946  34.162  32.083  1.00  0.00     0.029 A 
ATOM     37  N   UNL A   1      40.455  32.511  32.005  1.00  0.00    -0.354 N 
ATOM     38  C   UNL A   1      39.926  29.122  29.392  1.00  0.00     0.074 A 
ATOM     39  C   UNL A   1      38.744  29.279  28.571  1.00  0.00     0.031 C 
ATOM     40  C   UNL A   1      39.925  34.467  32.950  1.00  0.00     0.029 A 
ATOM     41  C   UNL A   1      40.903  33.383  32.967  1.00  0.00     0.049 A 
ATOM     42  H   UNL A   1      40.946  31.700  31.740  1.00  0.00     0.167 HD
ATOM     43  C   UNL A   1      40.782  28.077  29.308  1.00  0.00     0.031 A 
ATOM     44  C   UNL A   1      41.959  33.300  33.796  1.00  0.00     0.031 A 
ATOM     45  C   UNL A   1      41.954  27.918  30.127  1.00  0.00     0.049 A 
ATOM     46  C   UNL A   1      42.861  32.100  33.725  1.00  0.00     0.074 A 
ATOM     47  C   UNL A   1      42.880  26.888  30.119  1.00  0.00     0.029 A 
ATOM     48  N   UNL A   1      42.364  28.817  31.099  1.00  0.00    -0.354 N 
ATOM     49  N   UNL A   1      42.786  31.057  32.935  1.00  0.00    -0.248 NA
ATOM     50  C   UNL A   1      43.990  32.066  34.666  1.00  0.00     0.031 C 
ATOM     51  C   UNL A   1      43.832  27.148  31.113  1.00  0.00     0.029 A 
ATOM     52  C   UNL A   1      43.521  28.360  31.706  1.00  0.00     0.049 A 
ATOM     53  H   UNL A   1      41.901  29.657  31.323  1.00  0.00     0.167 HD
ATOM     54  C   UNL A   1      43.865  30.250  33.272  1.00  0.00     0.074 A 
ATOM     55  C   UNL A   1      44.589  30.933  34.325  1.00  0.00     0.031 C 
ATOM     56  C   UNL A   1      44.224  29.050  32.756  1.00  0.00     0.031 A 
BRANCH  43  57
ATOM     57  C   UNL A   1      40.462  27.003  28.309  1.00  0.00    -0.014 A 
ATOM     58  C   UNL A   1      40.994  27.038  27.010  1.00  0.00     0.009 A 
ATOM     59  C   UNL A   1      39.647  25.923  28.683  1.00  0.00     0.009 A 
ATOM     60  C   UNL A   1      40.693  26.024  26.099  1.00  0.00     0.001 A 
ATOM     61  C   UNL A   1      39.366  24.901  27.776  1.00  0.00     0.001 A 
ATOM     62  C   UNL A   1      39.884  24.955  26.483  1.00  0.00     0.000 A 
ENDBRANCH  43  57
BRANCH  44  63
ATOM     63  C   UNL A   1      42.198  34.369  34.797  1.00  0.00    -0.014 A 
ATOM     64  C   UNL A   1      41.688  34.260  36.098  1.00  0.00     0.009 A 
ATOM     65  C   UNL A   1      42.940  35.510  34.450  1.00  0.00     0.009 A 
ATOM     66  C   UNL A   1      41.899  35.282  37.026  1.00  0.00     0.001 A 
ATOM     67  C   UNL A   1      43.170  36.518  35.387  1.00  0.00     0.001 A 
ATOM     68  C   UNL A   1      42.643  36.407  36.672  1.00  0.00     0.000 A 
ENDBRANCH  44  63
BRANCH  56  69
ATOM     69  C   UNL A   1      45.467  28.416  33.306  1.00  0.00    -0.014 A 
ATOM     70  C   UNL A   1      45.409  27.523  34.387  1.00  0.00     0.009 A 
ATOM     71  C   UNL A   1      46.710  28.691  32.714  1.00  0.00     0.009 A 
ATOM     72  C   UNL A   1      46.576  26.940  34.884  1.00  0.00     0.001 A 
ATOM     73  C   UNL A   1      47.872  28.090  33.199  1.00  0.00     0.001 A 
ATOM     74  C   UNL A   1      47.805  27.222  34.288  1.00  0.00     0.000 A 
ENDBRANCH  56  69
ENDBRANCH  30  31
ENDBRANCH  23  25
ENDBRANCH  22  23
ENDBRANCH  21  22
ENDBRANCH   1  21
TORSDOF 15
ENDMDL
MODEL 3
REMARK VINA RESULT:      -9.9      1.655      6.183
REMARK SMILES COCCS(=O)(=O)N1C[C@@H](C(=O)OCCOC(=O)c2ccc(-c3c4nc(c(-c5ccccc5)c5ccc([nH]5)c(-c5ccccc5)c5nc(c(-c6ccccc6)c6ccc3[nH]6)C=C5)C=C4)cc2)c2ccccc21
REMARK SMILES IDX 14 1 13 2 11 3 12 4 10 5 8 6 9 7 72 8 67 9 71 10 68 11 70 12
REMARK SMILES IDX 69 13 5 14 6 15 7 16 4 17 3 18 2 19 1 20 15 21 16 22 17 23
REMARK SMILES IDX 18 24 19 25 20 26 66 27 21 28 65 29 22 30 23 31 24 32 59 33
REMARK SMILES IDX 25 34 64 35 58 36 60 37 26 38 63 39 57 40 56 41 27 43 49 44
REMARK SMILES IDX 34 45 48 46 35 47 38 48 47 49 61 50 36 51 37 52 46 54 62 55
REMARK SMILES IDX 39 56 28 57 29 58 33 59 30 60 32 61 31 62 50 63 51 64 55 65
REMARK SMILES IDX 52 66 54 67 53 68 40 69 41 70 45 71 42 72 44 73 43 74
REMARK H PARENT 60 42 38 53
REMARK Flexibility Score: inf
ROOT
ATOM      1  C   UNL A   1      33.382  31.729  27.454  1.00  0.00     0.274 C 
ENDROOT
BRANCH   1   2
ATOM      2  O   UNL A   1      32.690  30.546  27.013  1.00  0.00    -0.462 OA
BRANCH   2   3
ATOM      3  C   UNL A   1      33.465  29.521  26.568  1.00  0.00     0.315 C 
ATOM      4  O   UNL A   1      34.549  29.207  27.048  1.00  0.00    -0.251 OA
BRANCH   3   5
ATOM      5  C   UNL A   1      32.904  28.841  25.349  1.00  0.00     0.152 C 
ATOM      6  N   UNL A   1      30.649  28.638  24.391  1.00  0.00    -0.269 N 
ATOM      7  C   UNL A   1      31.679  29.647  24.885  1.00  0.00     0.155 C 
ATOM      8  C   UNL A   1      31.053  27.394  24.985  1.00  0.00     0.056 A 
ATOM      9  C   UNL A   1      32.334  27.465  25.525  1.00  0.00    -0.008 A 
ATOM     10  C   UNL A   1      30.283  26.255  25.143  1.00  0.00     0.027 A 
ATOM     11  C   UNL A   1      32.924  26.348  26.102  1.00  0.00     0.007 A 
ATOM     12  C   UNL A   1      30.855  25.135  25.753  1.00  0.00     0.002 A 
ATOM     13  C   UNL A   1      32.176  25.174  26.211  1.00  0.00     0.000 A 
BRANCH   6  14
ATOM     14  S   UNL A   1      30.503  28.746  22.692  1.00  0.00     0.237 S 
ATOM     15  O   UNL A   1      30.558  27.400  22.155  1.00  0.00    -0.206 OA
ATOM     16  O   UNL A   1      31.520  29.698  22.280  1.00  0.00    -0.206 OA
BRANCH  14  17
ATOM     17  C   UNL A   1      28.914  29.487  22.325  1.00  0.00     0.188 C 
BRANCH  17  18
ATOM     18  C   UNL A   1      28.767  30.882  22.905  1.00  0.00     0.178 C 
BRANCH  18  19
ATOM     19  O   UNL A   1      29.062  31.898  21.951  1.00  0.00    -0.384 OA
ATOM     20  C   UNL A   1      28.135  31.940  20.870  1.00  0.00     0.194 C 
ENDBRANCH  18  19
ENDBRANCH  17  18
ENDBRANCH  14  17
ENDBRANCH   6  14
ENDBRANCH   3   5
ENDBRANCH   2   3
ENDBRANCH   1   2
BRANCH   1  21
ATOM     21  C   UNL A   1      32.423  32.906  27.615  1.00  0.00     0.275 C 
BRANCH  21  22
ATOM     22  O   UNL A   1      33.157  34.131  27.781  1.00  0.00    -0.458 OA
BRANCH  22  23
ATOM     23  C   UNL A   1      33.336  34.535  29.057  1.00  0.00     0.338 C 
ATOM     24  O   UNL A   1      32.597  35.216  29.744  1.00  0.00    -0.246 OA
BRANCH  23  25
ATOM     25  C   UNL A   1      34.596  33.980  29.564  1.00  0.00     0.060 A 
ATOM     26  C   UNL A   1      35.777  34.191  28.847  1.00  0.00     0.016 A 
ATOM     27  C   UNL A   1      34.579  33.158  30.691  1.00  0.00     0.016 A 
ATOM     28  C   UNL A   1      36.953  33.561  29.252  1.00  0.00     0.010 A 
ATOM     29  C   UNL A   1      35.763  32.549  31.107  1.00  0.00     0.010 A 
ATOM     30  C   UNL A   1      36.954  32.733  30.383  1.00  0.00    -0.014 A 
BRANCH  30  31
ATOM     31  C   UNL A   1      38.187  32.025  30.799  1.00  0.00     0.031 A 
ATOM     32  C   UNL A   1      39.095  32.640  31.825  1.00  0.00     0.074 A 
ATOM     33  C   UNL A   1      38.506  30.844  30.238  1.00  0.00     0.049 A 
ATOM     34  N   UNL A   1      40.284  32.254  32.214  1.00  0.00    -0.248 NA
ATOM     35  C   UNL A   1      38.602  33.851  32.499  1.00  0.00     0.031 C 
ATOM     36  C   UNL A   1      37.691  30.124  29.259  1.00  0.00     0.029 A 
ATOM     37  N   UNL A   1      39.613  30.052  30.403  1.00  0.00    -0.354 N 
ATOM     38  C   UNL A   1      40.691  33.184  33.162  1.00  0.00     0.074 A 
ATOM     39  C   UNL A   1      39.628  34.161  33.280  1.00  0.00     0.031 C 
ATOM     40  C   UNL A   1      38.331  28.998  28.903  1.00  0.00     0.029 A 
ATOM     41  C   UNL A   1      39.619  28.945  29.590  1.00  0.00     0.049 A 
ATOM     42  H   UNL A   1      40.334  30.256  31.042  1.00  0.00     0.167 HD
ATOM     43  C   UNL A   1      41.844  33.221  33.869  1.00  0.00     0.031 A 
ATOM     44  C   UNL A   1      40.569  28.014  29.391  1.00  0.00     0.031 A 
ATOM     45  C   UNL A   1      42.902  32.254  33.750  1.00  0.00     0.049 A 
ATOM     46  C   UNL A   1      41.866  28.110  30.142  1.00  0.00     0.074 A 
ATOM     47  C   UNL A   1      44.113  32.210  34.420  1.00  0.00     0.029 A 
ATOM     48  N   UNL A   1      42.874  31.156  32.904  1.00  0.00    -0.354 N 
ATOM     49  N   UNL A   1      42.246  29.005  31.021  1.00  0.00    -0.248 NA
ATOM     50  C   UNL A   1      42.867  27.067  29.870  1.00  0.00     0.031 C 
ATOM     51  C   UNL A   1      44.833  31.104  33.953  1.00  0.00     0.029 A 
ATOM     52  C   UNL A   1      44.050  30.436  33.026  1.00  0.00     0.049 A 
ATOM     53  H   UNL A   1      42.127  30.922  32.306  1.00  0.00     0.167 HD
ATOM     54  C   UNL A   1      43.522  28.626  31.417  1.00  0.00     0.074 A 
ATOM     55  C   UNL A   1      43.844  27.411  30.697  1.00  0.00     0.031 C 
ATOM     56  C   UNL A   1      44.355  29.233  32.298  1.00  0.00     0.031 A 
BRANCH  43  57
ATOM     57  C   UNL A   1      42.034  34.367  34.819  1.00  0.00    -0.014 A 
ATOM     58  C   UNL A   1      41.626  34.275  36.160  1.00  0.00     0.009 A 
ATOM     59  C   UNL A   1      42.662  35.542  34.377  1.00  0.00     0.009 A 
ATOM     60  C   UNL A   1      41.821  35.350  37.031  1.00  0.00     0.001 A 
ATOM     61  C   UNL A   1      42.874  36.606  35.257  1.00  0.00     0.001 A 
ATOM     62  C   UNL A   1      42.448  36.511  36.580  1.00  0.00     0.000 A 
ENDBRANCH  43  57
BRANCH  44  63
ATOM     63  C   UNL A   1      40.345  26.929  28.402  1.00  0.00    -0.014 A 
ATOM     64  C   UNL A   1      39.657  25.762  28.763  1.00  0.00     0.009 A 
ATOM     65  C   UNL A   1      40.824  27.059  27.088  1.00  0.00     0.009 A 
ATOM     66  C   UNL A   1      39.471  24.737  27.832  1.00  0.00     0.001 A 
ATOM     67  C   UNL A   1      40.614  26.045  26.154  1.00  0.00     0.001 A 
ATOM     68  C   UNL A   1      39.945  24.881  26.528  1.00  0.00     0.000 A 
ENDBRANCH  44  63
BRANCH  56  69
ATOM     69  C   UNL A   1      45.679  28.573  32.549  1.00  0.00    -0.014 A 
ATOM     70  C   UNL A   1      45.824  27.591  33.540  1.00  0.00     0.009 A 
ATOM     71  C   UNL A   1      46.788  28.917  31.760  1.00  0.00     0.009 A 
ATOM     72  C   UNL A   1      47.063  26.986  33.757  1.00  0.00     0.001 A 
ATOM     73  C   UNL A   1      48.020  28.294  31.964  1.00  0.00     0.001 A 
ATOM     74  C   UNL A   1      48.159  27.336  32.968  1.00  0.00     0.000 A 
ENDBRANCH  56  69
ENDBRANCH  30  31
ENDBRANCH  23  25
ENDBRANCH  22  23
ENDBRANCH  21  22
ENDBRANCH   1  21
TORSDOF 15
ENDMDL
