MODEL 1
REMARK VINA RESULT:     -10.3      0.000      0.000
REMARK SMILES Cn1cc(SCC[C@H]2CCC[C@]2([NH2+]C2CC2)C(=O)OCCOC(=O)c2ccc(-c3c4nc(c(-c5ccccc5)c5ccc([nH]5)c(-c5ccccc5)c5nc(c(-c6ccccc6)c6ccc3[nH]6)C=C5)C=C4)cc2)cn1
REMARK SMILES IDX 20 1 19 2 17 3 18 4 12 5 8 6 9 7 10 8 11 9 7 10 6 11 5 12
REMARK SMILES IDX 4 13 1 14 2 15 3 16 74 17 73 18 13 19 14 22 15 23 16 24
REMARK SMILES IDX 21 25 22 26 23 27 24 28 25 29 26 30 72 31 27 32 71 33 28 34
REMARK SMILES IDX 29 35 30 36 65 37 31 38 70 39 64 40 66 41 32 42 69 43 63 44
REMARK SMILES IDX 62 45 33 47 55 48 40 49 54 50 41 51 44 52 53 53 67 54 42 55
REMARK SMILES IDX 43 56 52 58 68 59 45 60 34 61 35 62 39 63 36 64 38 65 37 66
REMARK SMILES IDX 56 67 57 68 61 69 58 70 60 71 59 72 46 73 47 74 51 75 48 76
REMARK SMILES IDX 50 77 49 78
REMARK H PARENT 13 20 13 21 66 46 44 57
REMARK Flexibility Score: inf
ROOT
ATOM      1  C   UNL A   1      31.452  27.930  25.373  1.00  0.00     0.274 C 
ENDROOT
BRANCH   1   2
ATOM      2  O   UNL A   1      32.502  27.060  25.841  1.00  0.00    -0.457 OA
BRANCH   2   3
ATOM      3  C   UNL A   1      32.165  25.740  25.956  1.00  0.00     0.368 C 
ATOM      4  O   UNL A   1      31.384  25.326  26.807  1.00  0.00    -0.245 OA
BRANCH   3   5
ATOM      5  C   UNL A   1      32.889  24.827  24.891  1.00  0.00     0.197 C 
ATOM      6  C   UNL A   1      32.990  23.344  25.451  1.00  0.00     0.063 C 
ATOM      7  C   UNL A   1      34.122  23.556  26.454  1.00  0.00     0.011 C 
ATOM      8  C   UNL A   1      35.184  24.255  25.640  1.00  0.00     0.008 C 
ATOM      9  C   UNL A   1      34.397  25.207  24.748  1.00  0.00     0.081 C 
BRANCH   6  10
ATOM     10  C   UNL A   1      33.329  22.232  24.414  1.00  0.00     0.022 C 
BRANCH  10  11
ATOM     11  C   UNL A   1      33.318  20.752  24.883  1.00  0.00     0.075 C 
BRANCH  11  12
ATOM     12  S   UNL A   1      32.537  19.536  23.783  1.00  0.00    -0.123 SA
BRANCH  12  13
ATOM     13  C   UNL A   1      32.973  17.949  24.359  1.00  0.00     0.045 A 
ATOM     14  C   UNL A   1      32.517  14.704  25.759  1.00  0.00     0.173 C 
ATOM     15  N   UNL A   1      33.032  15.940  25.215  1.00  0.00    -0.275 N 
ATOM     16  C   UNL A   1      32.560  17.207  25.443  1.00  0.00     0.123 A 
ATOM     17  N   UNL A   1      33.979  15.899  24.260  1.00  0.00    -0.181 NA
ATOM     18  C   UNL A   1      33.926  17.123  23.727  1.00  0.00     0.150 A 
ENDBRANCH  12  13
ENDBRANCH  11  12
ENDBRANCH  10  11
ENDBRANCH   6  10
BRANCH   5  19
ATOM     19  N   UNL A   1      32.190  24.982  23.600  1.00  0.00    -0.329 N 
ATOM     20  H   UNL A   1      31.341  25.518  23.785  1.00  0.00     0.347 HD
ATOM     21  H   UNL A   1      32.069  24.023  23.277  1.00  0.00     0.347 HD
BRANCH  19  22
ATOM     22  C   UNL A   1      32.883  25.646  22.470  1.00  0.00     0.183 C 
ATOM     23  C   UNL A   1      32.486  25.656  21.016  1.00  0.00     0.071 C 
ATOM     24  C   UNL A   1      32.245  26.870  21.848  1.00  0.00     0.071 C 
ENDBRANCH  19  22
ENDBRANCH   5  19
ENDBRANCH   3   5
ENDBRANCH   2   3
ENDBRANCH   1   2
BRANCH   1  25
ATOM     25  C   UNL A   1      31.849  29.407  25.470  1.00  0.00     0.275 C 
BRANCH  25  26
ATOM     26  O   UNL A   1      32.123  29.764  26.837  1.00  0.00    -0.458 OA
BRANCH  26  27
ATOM     27  C   UNL A   1      32.769  30.938  27.028  1.00  0.00     0.338 C 
ATOM     28  O   UNL A   1      32.309  32.056  26.865  1.00  0.00    -0.246 OA
BRANCH  27  29
ATOM     29  C   UNL A   1      34.141  30.710  27.552  1.00  0.00     0.060 A 
ATOM     30  C   UNL A   1      34.647  29.424  27.720  1.00  0.00     0.016 A 
ATOM     31  C   UNL A   1      34.891  31.796  28.008  1.00  0.00     0.016 A 
ATOM     32  C   UNL A   1      35.829  29.212  28.431  1.00  0.00     0.010 A 
ATOM     33  C   UNL A   1      36.128  31.586  28.636  1.00  0.00     0.010 A 
ATOM     34  C   UNL A   1      36.597  30.288  28.891  1.00  0.00    -0.014 A 
BRANCH  34  35
ATOM     35  C   UNL A   1      37.870  30.054  29.634  1.00  0.00     0.031 A 
ATOM     36  C   UNL A   1      38.995  29.267  29.009  1.00  0.00     0.074 A 
ATOM     37  C   UNL A   1      38.037  30.552  30.877  1.00  0.00     0.049 A 
ATOM     38  N   UNL A   1      40.068  28.768  29.573  1.00  0.00    -0.248 NA
ATOM     39  C   UNL A   1      38.903  29.002  27.565  1.00  0.00     0.031 C 
ATOM     40  C   UNL A   1      37.079  31.397  31.595  1.00  0.00     0.029 A 
ATOM     41  N   UNL A   1      39.082  30.419  31.760  1.00  0.00    -0.354 N 
ATOM     42  C   UNL A   1      40.743  28.081  28.572  1.00  0.00     0.074 A 
ATOM     43  C   UNL A   1      39.968  28.237  27.359  1.00  0.00     0.031 C 
ATOM     44  C   UNL A   1      37.596  31.740  32.782  1.00  0.00     0.029 A 
ATOM     45  C   UNL A   1      38.864  31.047  32.962  1.00  0.00     0.049 A 
ATOM     46  H   UNL A   1      39.905  29.922  31.551  1.00  0.00     0.167 HD
ATOM     47  C   UNL A   1      41.897  27.375  28.658  1.00  0.00     0.031 A 
ATOM     48  C   UNL A   1      39.563  31.023  34.112  1.00  0.00     0.031 A 
ATOM     49  C   UNL A   1      42.687  27.246  29.856  1.00  0.00     0.049 A 
ATOM     50  C   UNL A   1      40.790  30.170  34.210  1.00  0.00     0.074 A 
ATOM     51  C   UNL A   1      43.867  26.544  30.041  1.00  0.00     0.029 A 
ATOM     52  N   UNL A   1      42.387  27.845  31.068  1.00  0.00    -0.354 N 
ATOM     53  N   UNL A   1      41.363  29.443  33.283  1.00  0.00    -0.248 NA
ATOM     54  C   UNL A   1      41.448  30.110  35.523  1.00  0.00     0.031 C 
ATOM     55  C   UNL A   1      44.260  26.688  31.376  1.00  0.00     0.029 A 
ATOM     56  C   UNL A   1      43.349  27.517  32.010  1.00  0.00     0.049 A 
ATOM     57  H   UNL A   1      41.605  28.420  31.235  1.00  0.00     0.167 HD
ATOM     58  C   UNL A   1      42.451  28.839  33.898  1.00  0.00     0.074 A 
ATOM     59  C   UNL A   1      42.470  29.305  35.271  1.00  0.00     0.031 C 
ATOM     60  C   UNL A   1      43.348  27.973  33.373  1.00  0.00     0.031 A 
BRANCH  47  61
ATOM     61  C   UNL A   1      42.359  26.634  27.434  1.00  0.00    -0.014 A 
ATOM     62  C   UNL A   1      43.249  27.211  26.516  1.00  0.00     0.009 A 
ATOM     63  C   UNL A   1      41.943  25.307  27.235  1.00  0.00     0.009 A 
ATOM     64  C   UNL A   1      43.696  26.478  25.413  1.00  0.00     0.001 A 
ATOM     65  C   UNL A   1      42.408  24.572  26.144  1.00  0.00     0.001 A 
ATOM     66  C   UNL A   1      43.280  25.159  25.231  1.00  0.00     0.000 A 
ENDBRANCH  47  61
BRANCH  48  67
ATOM     67  C   UNL A   1      39.055  31.770  35.292  1.00  0.00    -0.014 A 
ATOM     68  C   UNL A   1      39.427  33.105  35.505  1.00  0.00     0.009 A 
ATOM     69  C   UNL A   1      38.164  31.158  36.189  1.00  0.00     0.009 A 
ATOM     70  C   UNL A   1      38.919  33.810  36.597  1.00  0.00     0.001 A 
ATOM     71  C   UNL A   1      37.633  31.877  37.262  1.00  0.00     0.001 A 
ATOM     72  C   UNL A   1      38.015  33.201  37.467  1.00  0.00     0.000 A 
ENDBRANCH  48  67
BRANCH  60  73
ATOM     73  C   UNL A   1      44.437  27.491  34.287  1.00  0.00    -0.014 A 
ATOM     74  C   UNL A   1      44.254  26.360  35.096  1.00  0.00     0.009 A 
ATOM     75  C   UNL A   1      45.660  28.177  34.334  1.00  0.00     0.009 A 
ATOM     76  C   UNL A   1      45.266  25.942  35.961  1.00  0.00     0.001 A 
ATOM     77  C   UNL A   1      46.678  27.744  35.185  1.00  0.00     0.001 A 
ATOM     78  C   UNL A   1      46.477  26.634  36.004  1.00  0.00     0.000 A 
ENDBRANCH  60  73
ENDBRANCH  34  35
ENDBRANCH  27  29
ENDBRANCH  26  27
ENDBRANCH  25  26
ENDBRANCH   1  25
TORSDOF 17
ENDMDL
MODEL 2
REMARK VINA RESULT:     -10.2      4.060      7.068
REMARK SMILES Cn1cc(SCC[C@H]2CCC[C@]2([NH2+]C2CC2)C(=O)OCCOC(=O)c2ccc(-c3c4nc(c(-c5ccccc5)c5ccc([nH]5)c(-c5ccccc5)c5nc(c(-c6ccccc6)c6ccc3[nH]6)C=C5)C=C4)cc2)cn1
REMARK SMILES IDX 20 1 19 2 17 3 18 4 12 5 8 6 9 7 10 8 11 9 7 10 6 11 5 12
REMARK SMILES IDX 4 13 1 14 2 15 3 16 74 17 73 18 13 19 14 22 15 23 16 24
REMARK SMILES IDX 21 25 22 26 23 27 24 28 25 29 26 30 72 31 27 32 71 33 28 34
REMARK SMILES IDX 29 35 30 36 65 37 31 38 70 39 64 40 66 41 32 42 69 43 63 44
REMARK SMILES IDX 62 45 33 47 55 48 40 49 54 50 41 51 44 52 53 53 67 54 42 55
REMARK SMILES IDX 43 56 52 58 68 59 45 60 34 61 35 62 39 63 36 64 38 65 37 66
REMARK SMILES IDX 56 67 57 68 61 69 58 70 60 71 59 72 46 73 47 74 51 75 48 76
REMARK SMILES IDX 50 77 49 78
REMARK H PARENT 13 20 13 21 66 46 44 57
REMARK Flexibility Score: inf
ROOT
ATOM      1  C   UNL A   1      31.984  30.365  26.347  1.00  0.00     0.274 C 
ENDROOT
BRANCH   1   2
ATOM      2  O   UNL A   1      32.575  29.105  25.973  1.00  0.00    -0.457 OA
BRANCH   2   3
ATOM      3  C   UNL A   1      31.824  27.997  26.251  1.00  0.00     0.368 C 
ATOM      4  O   UNL A   1      31.400  27.746  27.375  1.00  0.00    -0.245 OA
BRANCH   3   5
ATOM      5  C   UNL A   1      31.574  27.092  24.982  1.00  0.00     0.197 C 
ATOM      6  C   UNL A   1      31.873  25.576  25.350  1.00  0.00     0.063 C 
ATOM      7  C   UNL A   1      33.399  25.639  25.353  1.00  0.00     0.011 C 
ATOM      8  C   UNL A   1      33.724  26.295  24.034  1.00  0.00     0.008 C 
ATOM      9  C   UNL A   1      32.644  27.357  23.875  1.00  0.00     0.081 C 
BRANCH   6  10
ATOM     10  C   UNL A   1      31.334  24.502  24.359  1.00  0.00     0.022 C 
BRANCH  10  11
ATOM     11  C   UNL A   1      31.525  23.003  24.713  1.00  0.00     0.075 C 
BRANCH  11  12
ATOM     12  S   UNL A   1      32.533  22.001  23.582  1.00  0.00    -0.123 SA
BRANCH  12  13
ATOM     13  C   UNL A   1      34.208  22.283  23.979  1.00  0.00     0.045 A 
ATOM     14  C   UNL A   1      37.457  21.591  25.265  1.00  0.00     0.173 C 
ATOM     15  N   UNL A   1      36.267  22.184  24.699  1.00  0.00    -0.275 N 
ATOM     16  C   UNL A   1      34.969  21.963  25.080  1.00  0.00     0.123 A 
ATOM     17  N   UNL A   1      36.365  22.923  23.579  1.00  0.00    -0.181 NA
ATOM     18  C   UNL A   1      35.106  22.965  23.132  1.00  0.00     0.150 A 
ENDBRANCH  12  13
ENDBRANCH  11  12
ENDBRANCH  10  11
ENDBRANCH   6  10
BRANCH   5  19
ATOM     19  N   UNL A   1      30.219  27.376  24.473  1.00  0.00    -0.329 N 
ATOM     20  H   UNL A   1      29.710  27.839  25.227  1.00  0.00     0.347 HD
ATOM     21  H   UNL A   1      29.877  26.462  24.178  1.00  0.00     0.347 HD
BRANCH  19  22
ATOM     22  C   UNL A   1      30.055  28.216  23.262  1.00  0.00     0.183 C 
ATOM     23  C   UNL A   1      28.798  28.874  22.753  1.00  0.00     0.071 C 
ATOM     24  C   UNL A   1      29.831  29.703  23.437  1.00  0.00     0.071 C 
ENDBRANCH  19  22
ENDBRANCH   5  19
ENDBRANCH   3   5
ENDBRANCH   2   3
ENDBRANCH   1   2
BRANCH   1  25
ATOM     25  C   UNL A   1      32.908  31.181  27.257  1.00  0.00     0.275 C 
BRANCH  25  26
ATOM     26  O   UNL A   1      33.989  30.362  27.740  1.00  0.00    -0.458 OA
BRANCH  26  27
ATOM     27  C   UNL A   1      34.866  30.965  28.576  1.00  0.00     0.338 C 
ATOM     28  O   UNL A   1      34.652  31.943  29.272  1.00  0.00    -0.246 OA
BRANCH  27  29
ATOM     29  C   UNL A   1      36.157  30.230  28.610  1.00  0.00     0.060 A 
ATOM     30  C   UNL A   1      36.655  29.697  29.795  1.00  0.00     0.016 A 
ATOM     31  C   UNL A   1      36.952  30.183  27.463  1.00  0.00     0.016 A 
ATOM     32  C   UNL A   1      37.967  29.226  29.868  1.00  0.00     0.010 A 
ATOM     33  C   UNL A   1      38.235  29.619  27.514  1.00  0.00     0.010 A 
ATOM     34  C   UNL A   1      38.776  29.166  28.727  1.00  0.00    -0.014 A 
BRANCH  34  35
ATOM     35  C   UNL A   1      40.172  28.642  28.807  1.00  0.00     0.031 A 
ATOM     36  C   UNL A   1      41.316  29.548  29.189  1.00  0.00     0.074 A 
ATOM     37  C   UNL A   1      40.430  27.344  28.544  1.00  0.00     0.049 A 
ATOM     38  N   UNL A   1      42.606  29.339  29.088  1.00  0.00    -0.248 NA
ATOM     39  C   UNL A   1      40.968  30.861  29.757  1.00  0.00     0.031 C 
ATOM     40  C   UNL A   1      39.429  26.320  28.233  1.00  0.00     0.029 A 
ATOM     41  N   UNL A   1      41.622  26.662  28.499  1.00  0.00    -0.354 N 
ATOM     42  C   UNL A   1      43.219  30.509  29.517  1.00  0.00     0.074 A 
ATOM     43  C   UNL A   1      42.162  31.424  29.895  1.00  0.00     0.031 C 
ATOM     44  C   UNL A   1      40.041  25.139  28.073  1.00  0.00     0.029 A 
ATOM     45  C   UNL A   1      41.482  25.341  28.151  1.00  0.00     0.049 A 
ATOM     46  H   UNL A   1      42.491  27.080  28.696  1.00  0.00     0.167 HD
ATOM     47  C   UNL A   1      44.542  30.799  29.580  1.00  0.00     0.031 A 
ATOM     48  C   UNL A   1      42.399  24.401  27.857  1.00  0.00     0.031 A 
ATOM     49  C   UNL A   1      45.596  29.880  29.238  1.00  0.00     0.049 A 
ATOM     50  C   UNL A   1      43.852  24.766  27.853  1.00  0.00     0.074 A 
ATOM     51  C   UNL A   1      46.965  30.087  29.262  1.00  0.00     0.029 A 
ATOM     52  N   UNL A   1      45.400  28.573  28.823  1.00  0.00    -0.354 N 
ATOM     53  N   UNL A   1      44.414  25.907  28.163  1.00  0.00    -0.248 NA
ATOM     54  C   UNL A   1      44.793  23.721  27.427  1.00  0.00     0.031 C 
ATOM     55  C   UNL A   1      47.596  28.917  28.826  1.00  0.00     0.029 A 
ATOM     56  C   UNL A   1      46.621  27.967  28.574  1.00  0.00     0.049 A 
ATOM     57  H   UNL A   1      44.522  28.138  28.722  1.00  0.00     0.167 HD
ATOM     58  C   UNL A   1      45.776  25.720  27.971  1.00  0.00     0.074 A 
ATOM     59  C   UNL A   1      45.955  24.348  27.541  1.00  0.00     0.031 C 
ATOM     60  C   UNL A   1      46.784  26.608  28.133  1.00  0.00     0.031 A 
BRANCH  47  61
ATOM     61  C   UNL A   1      44.935  32.192  29.987  1.00  0.00    -0.014 A 
ATOM     62  C   UNL A   1      45.035  33.233  29.051  1.00  0.00     0.009 A 
ATOM     63  C   UNL A   1      45.146  32.479  31.346  1.00  0.00     0.009 A 
ATOM     64  C   UNL A   1      45.357  34.527  29.469  1.00  0.00     0.001 A 
ATOM     65  C   UNL A   1      45.445  33.777  31.762  1.00  0.00     0.001 A 
ATOM     66  C   UNL A   1      45.556  34.799  30.822  1.00  0.00     0.000 A 
ENDBRANCH  47  61
BRANCH  48  67
ATOM     67  C   UNL A   1      41.952  23.042  27.457  1.00  0.00    -0.014 A 
ATOM     68  C   UNL A   1      41.836  22.019  28.407  1.00  0.00     0.009 A 
ATOM     69  C   UNL A   1      41.602  22.776  26.122  1.00  0.00     0.009 A 
ATOM     70  C   UNL A   1      41.381  20.755  28.028  1.00  0.00     0.001 A 
ATOM     71  C   UNL A   1      41.119  21.520  25.752  1.00  0.00     0.001 A 
ATOM     72  C   UNL A   1      41.013  20.509  26.705  1.00  0.00     0.000 A 
ENDBRANCH  48  67
BRANCH  60  73
ATOM     73  C   UNL A   1      48.173  26.109  27.859  1.00  0.00    -0.014 A 
ATOM     74  C   UNL A   1      48.963  25.571  28.886  1.00  0.00     0.009 A 
ATOM     75  C   UNL A   1      48.693  26.176  26.558  1.00  0.00     0.009 A 
ATOM     76  C   UNL A   1      50.263  25.137  28.620  1.00  0.00     0.001 A 
ATOM     77  C   UNL A   1      49.985  25.721  26.291  1.00  0.00     0.001 A 
ATOM     78  C   UNL A   1      50.772  25.212  27.323  1.00  0.00     0.000 A 
ENDBRANCH  60  73
ENDBRANCH  34  35
ENDBRANCH  27  29
ENDBRANCH  26  27
ENDBRANCH  25  26
ENDBRANCH   1  25
TORSDOF 17
ENDMDL
MODEL 3
REMARK VINA RESULT:     -10.2      4.062      9.195
REMARK SMILES Cn1cc(SCC[C@H]2CCC[C@]2([NH2+]C2CC2)C(=O)OCCOC(=O)c2ccc(-c3c4nc(c(-c5ccccc5)c5ccc([nH]5)c(-c5ccccc5)c5nc(c(-c6ccccc6)c6ccc3[nH]6)C=C5)C=C4)cc2)cn1
REMARK SMILES IDX 20 1 19 2 17 3 18 4 12 5 8 6 9 7 10 8 11 9 7 10 6 11 5 12
REMARK SMILES IDX 4 13 1 14 2 15 3 16 74 17 73 18 13 19 14 22 15 23 16 24
REMARK SMILES IDX 21 25 22 26 23 27 24 28 25 29 26 30 72 31 27 32 71 33 28 34
REMARK SMILES IDX 29 35 30 36 65 37 31 38 70 39 64 40 66 41 32 42 69 43 63 44
REMARK SMILES IDX 62 45 33 47 55 48 40 49 54 50 41 51 44 52 53 53 67 54 42 55
REMARK SMILES IDX 43 56 52 58 68 59 45 60 34 61 35 62 39 63 36 64 38 65 37 66
REMARK SMILES IDX 56 67 57 68 61 69 58 70 60 71 59 72 46 73 47 74 51 75 48 76
REMARK SMILES IDX 50 77 49 78
REMARK H PARENT 13 20 13 21 66 46 44 57
REMARK Flexibility Score: inf
ROOT
ATOM      1  C   UNL A   1      35.168  21.336  25.818  1.00  0.00     0.274 C 
ENDROOT
BRANCH   1   2
ATOM      2  O   UNL A   1      34.330  22.144  24.967  1.00  0.00    -0.457 OA
BRANCH   2   3
ATOM      3  C   UNL A   1      34.272  23.471  25.287  1.00  0.00     0.368 C 
ATOM      4  O   UNL A   1      35.208  24.071  25.807  1.00  0.00    -0.245 OA
BRANCH   3   5
ATOM      5  C   UNL A   1      32.885  24.131  24.922  1.00  0.00     0.197 C 
ATOM      6  C   UNL A   1      32.186  24.656  26.248  1.00  0.00     0.063 C 
ATOM      7  C   UNL A   1      31.720  23.313  26.807  1.00  0.00     0.011 C 
ATOM      8  C   UNL A   1      31.006  22.678  25.639  1.00  0.00     0.008 C 
ATOM      9  C   UNL A   1      31.857  23.060  24.435  1.00  0.00     0.081 C 
BRANCH   6  10
ATOM     10  C   UNL A   1      31.004  25.653  26.062  1.00  0.00     0.022 C 
BRANCH  10  11
ATOM     11  C   UNL A   1      31.172  27.108  26.578  1.00  0.00     0.075 C 
BRANCH  11  12
ATOM     12  S   UNL A   1      31.849  28.331  25.419  1.00  0.00    -0.123 SA
BRANCH  12  13
ATOM     13  C   UNL A   1      33.061  29.251  26.271  1.00  0.00     0.045 A 
ATOM     14  C   UNL A   1      34.398  31.788  28.384  1.00  0.00     0.173 C 
ATOM     15  N   UNL A   1      34.184  30.695  27.465  1.00  0.00    -0.275 N 
ATOM     16  C   UNL A   1      33.214  30.599  26.501  1.00  0.00     0.123 A 
ATOM     17  N   UNL A   1      34.883  29.555  27.617  1.00  0.00    -0.181 NA
ATOM     18  C   UNL A   1      34.182  28.671  26.902  1.00  0.00     0.150 A 
ENDBRANCH  12  13
ENDBRANCH  11  12
ENDBRANCH  10  11
ENDBRANCH   6  10
BRANCH   5  19
ATOM     19  N   UNL A   1      33.117  25.141  23.872  1.00  0.00    -0.329 N 
ATOM     20  H   UNL A   1      34.101  25.075  23.609  1.00  0.00     0.347 HD
ATOM     21  H   UNL A   1      32.813  26.012  24.307  1.00  0.00     0.347 HD
BRANCH  19  22
ATOM     22  C   UNL A   1      32.330  25.085  22.617  1.00  0.00     0.183 C 
ATOM     23  C   UNL A   1      31.530  26.189  21.973  1.00  0.00     0.071 C 
ATOM     24  C   UNL A   1      32.855  25.815  21.399  1.00  0.00     0.071 C 
ENDBRANCH  19  22
ENDBRANCH   5  19
ENDBRANCH   3   5
ENDBRANCH   2   3
ENDBRANCH   1   2
BRANCH   1  25
ATOM     25  C   UNL A   1      36.197  20.538  25.011  1.00  0.00     0.275 C 
BRANCH  25  26
ATOM     26  O   UNL A   1      37.384  21.323  24.792  1.00  0.00    -0.458 OA
BRANCH  26  27
ATOM     27  C   UNL A   1      38.470  20.976  25.522  1.00  0.00     0.338 C 
ATOM     28  O   UNL A   1      38.945  19.857  25.632  1.00  0.00    -0.246 OA
BRANCH  27  29
ATOM     29  C   UNL A   1      39.095  22.171  26.146  1.00  0.00     0.060 A 
ATOM     30  C   UNL A   1      38.553  23.442  25.977  1.00  0.00     0.016 A 
ATOM     31  C   UNL A   1      40.319  22.041  26.805  1.00  0.00     0.016 A 
ATOM     32  C   UNL A   1      39.270  24.577  26.356  1.00  0.00     0.010 A 
ATOM     33  C   UNL A   1      40.993  23.179  27.274  1.00  0.00     0.010 A 
ATOM     34  C   UNL A   1      40.496  24.467  27.023  1.00  0.00    -0.014 A 
BRANCH  34  35
ATOM     35  C   UNL A   1      41.249  25.685  27.445  1.00  0.00     0.031 A 
ATOM     36  C   UNL A   1      40.644  26.669  28.415  1.00  0.00     0.074 A 
ATOM     37  C   UNL A   1      42.488  25.922  26.966  1.00  0.00     0.049 A 
ATOM     38  N   UNL A   1      41.038  27.882  28.717  1.00  0.00    -0.248 NA
ATOM     39  C   UNL A   1      39.439  26.236  29.141  1.00  0.00     0.031 C 
ATOM     40  C   UNL A   1      43.246  25.035  26.079  1.00  0.00     0.029 A 
ATOM     41  N   UNL A   1      43.334  26.987  27.165  1.00  0.00    -0.354 N 
ATOM     42  C   UNL A   1      40.100  28.378  29.614  1.00  0.00     0.074 A 
ATOM     43  C   UNL A   1      39.122  27.331  29.821  1.00  0.00     0.031 C 
ATOM     44  C   UNL A   1      44.452  25.569  25.847  1.00  0.00     0.029 A 
ATOM     45  C   UNL A   1      44.512  26.886  26.467  1.00  0.00     0.049 A 
ATOM     46  H   UNL A   1      43.116  27.748  27.750  1.00  0.00     0.167 HD
ATOM     47  C   UNL A   1      40.052  29.598  30.202  1.00  0.00     0.031 A 
ATOM     48  C   UNL A   1      45.509  27.770  26.280  1.00  0.00     0.031 A 
ATOM     49  C   UNL A   1      41.042  30.629  30.023  1.00  0.00     0.049 A 
ATOM     50  C   UNL A   1      45.396  29.142  26.872  1.00  0.00     0.074 A 
ATOM     51  C   UNL A   1      41.073  31.901  30.572  1.00  0.00     0.029 A 
ATOM     52  N   UNL A   1      42.184  30.502  29.250  1.00  0.00    -0.354 N 
ATOM     53  N   UNL A   1      44.453  29.633  27.636  1.00  0.00    -0.248 NA
ATOM     54  C   UNL A   1      46.471  30.090  26.547  1.00  0.00     0.031 C 
ATOM     55  C   UNL A   1      42.216  32.556  30.098  1.00  0.00     0.029 A 
ATOM     56  C   UNL A   1      42.918  31.677  29.293  1.00  0.00     0.049 A 
ATOM     57  H   UNL A   1      42.436  29.696  28.744  1.00  0.00     0.167 HD
ATOM     58  C   UNL A   1      44.819  30.948  27.886  1.00  0.00     0.074 A 
ATOM     59  C   UNL A   1      46.083  31.169  27.211  1.00  0.00     0.031 C 
ATOM     60  C   UNL A   1      44.163  31.888  28.606  1.00  0.00     0.031 A 
BRANCH  47  61
ATOM     61  C   UNL A   1      38.859  29.917  31.059  1.00  0.00    -0.014 A 
ATOM     62  C   UNL A   1      38.884  29.741  32.451  1.00  0.00     0.009 A 
ATOM     63  C   UNL A   1      37.711  30.466  30.465  1.00  0.00     0.009 A 
ATOM     64  C   UNL A   1      37.775  30.092  33.226  1.00  0.00     0.001 A 
ATOM     65  C   UNL A   1      36.613  30.835  31.244  1.00  0.00     0.001 A 
ATOM     66  C   UNL A   1      36.644  30.642  32.623  1.00  0.00     0.000 A 
ENDBRANCH  47  61
BRANCH  48  67
ATOM     67  C   UNL A   1      46.662  27.402  25.418  1.00  0.00    -0.014 A 
ATOM     68  C   UNL A   1      46.723  27.830  24.085  1.00  0.00     0.009 A 
ATOM     69  C   UNL A   1      47.727  26.649  25.942  1.00  0.00     0.009 A 
ATOM     70  C   UNL A   1      47.826  27.509  23.293  1.00  0.00     0.001 A 
ATOM     71  C   UNL A   1      48.842  26.356  25.156  1.00  0.00     0.001 A 
ATOM     72  C   UNL A   1      48.888  26.782  23.831  1.00  0.00     0.000 A 
ENDBRANCH  48  67
BRANCH  60  73
ATOM     73  C   UNL A   1      44.817  33.235  28.713  1.00  0.00    -0.014 A 
ATOM     74  C   UNL A   1      44.563  34.239  27.767  1.00  0.00     0.009 A 
ATOM     75  C   UNL A   1      45.694  33.500  29.775  1.00  0.00     0.009 A 
ATOM     76  C   UNL A   1      45.201  35.477  27.866  1.00  0.00     0.001 A 
ATOM     77  C   UNL A   1      46.314  34.746  29.883  1.00  0.00     0.001 A 
ATOM     78  C   UNL A   1      46.075  35.729  28.924  1.00  0.00     0.000 A 
ENDBRANCH  60  73
ENDBRANCH  34  35
ENDBRANCH  27  29
ENDBRANCH  26  27
ENDBRANCH  25  26
ENDBRANCH   1  25
TORSDOF 17
ENDMDL
