MODEL 1
REMARK VINA RESULT:      -9.7      0.000      0.000
REMARK SMILES CC(C)(CC(=O)OCCOC(=O)c1ccc(-c2c3nc(c(-c4ccccc4)c4ccc([nH]4)c(-c4ccccc4)c4nc(c(-c5ccccc5)c5ccc2[nH]5)C=C4)C=C3)cc1)CC(=O)N1CCN(c2nc3ccc(Cl)cc3s2)CC1
REMARK SMILES IDX 8 1 7 2 5 3 6 4 4 5 2 6 1 7 3 8 61 9 62 10 63 11 64 12 65 13
REMARK SMILES IDX 79 14 66 15 78 16 67 17 68 18 69 19 77 20 70 21 76 22 71 23
REMARK SMILES IDX 75 24 72 25 73 26 74 27 9 28 10 29 11 30 12 31 13 32 14 33
REMARK SMILES IDX 60 34 15 35 59 36 16 37 17 38 18 39 53 40 19 41 58 42 52 43
REMARK SMILES IDX 54 44 20 45 57 46 51 47 50 48 21 50 43 51 28 52 42 53 29 54
REMARK SMILES IDX 32 55 41 56 55 57 30 58 31 59 40 61 56 62 33 63 22 64 23 65
REMARK SMILES IDX 27 66 24 67 26 68 25 69 44 70 45 71 49 72 46 73 48 74 47 75
REMARK SMILES IDX 34 76 35 77 39 78 36 79 38 80 37 81
REMARK H PARENT 54 49 32 60
REMARK Flexibility Score: inf
ROOT
ATOM      1  C   UNL A   1      34.644  34.491  29.300  1.00  0.00     0.274 C 
ENDROOT
BRANCH   1   2
ATOM      2  O   UNL A   1      36.095  34.549  29.141  1.00  0.00    -0.462 OA
BRANCH   2   3
ATOM      3  C   UNL A   1      36.813  33.442  29.465  1.00  0.00     0.306 C 
ATOM      4  O   UNL A   1      37.580  32.881  28.684  1.00  0.00    -0.252 OA
BRANCH   3   5
ATOM      5  C   UNL A   1      36.797  33.028  30.936  1.00  0.00     0.129 C 
BRANCH   5   6
ATOM      6  C   UNL A   1      37.456  33.798  32.111  1.00  0.00    -0.016 C 
ATOM      7  C   UNL A   1      38.673  34.578  31.604  1.00  0.00     0.012 C 
ATOM      8  C   UNL A   1      36.405  34.838  32.614  1.00  0.00     0.012 C 
BRANCH   6   9
ATOM      9  C   UNL A   1      37.802  32.992  33.373  1.00  0.00     0.107 C 
BRANCH   9  10
ATOM     10  C   UNL A   1      37.398  31.540  33.429  1.00  0.00     0.223 C 
ATOM     11  O   UNL A   1      36.265  31.160  33.178  1.00  0.00    -0.275 OA
ATOM     12  N   UNL A   1      38.436  30.668  33.685  1.00  0.00    -0.339 N 
ATOM     13  C   UNL A   1      38.223  28.960  32.907  1.00  0.00     0.141 C 
ATOM     14  C   UNL A   1      40.113  31.215  34.376  1.00  0.00     0.141 C 
ATOM     15  C   UNL A   1      39.784  27.761  32.882  1.00  0.00     0.140 C 
ATOM     16  C   UNL A   1      41.589  29.945  34.409  1.00  0.00     0.140 C 
ATOM     17  N   UNL A   1      41.433  28.377  33.449  1.00  0.00    -0.345 N 
BRANCH  17  18
ATOM     18  C   UNL A   1      42.317  27.474  33.962  1.00  0.00     0.186 A 
ATOM     19  N   UNL A   1      43.351  27.070  33.263  1.00  0.00    -0.220 NA
ATOM     20  S   UNL A   1      41.959  26.487  35.332  1.00  0.00    -0.097 S 
ATOM     21  C   UNL A   1      43.716  25.797  33.630  1.00  0.00     0.084 A 
ATOM     22  C   UNL A   1      43.068  25.284  34.754  1.00  0.00     0.058 A 
ATOM     23  C   UNL A   1      44.631  24.990  32.926  1.00  0.00     0.031 A 
ATOM     24  C   UNL A   1      43.334  23.981  35.219  1.00  0.00     0.042 A 
ATOM     25  C   UNL A   1      44.874  23.684  33.352  1.00  0.00     0.023 A 
ATOM     26  C   UNL A   1      44.236  23.195  34.487  1.00  0.00     0.042 A 
ATOM     27  Cl  UNL A   1      44.552  21.577  34.988  1.00  0.00    -0.084 Cl
ENDBRANCH  17  18
ENDBRANCH   9  10
ENDBRANCH   6   9
ENDBRANCH   5   6
ENDBRANCH   3   5
ENDBRANCH   2   3
ENDBRANCH   1   2
BRANCH   1  28
ATOM     28  C   UNL A   1      33.741  33.451  28.469  1.00  0.00     0.275 C 
BRANCH  28  29
ATOM     29  O   UNL A   1      34.309  31.937  27.718  1.00  0.00    -0.458 OA
BRANCH  29  30
ATOM     30  C   UNL A   1      34.644  30.281  27.582  1.00  0.00     0.338 C 
ATOM     31  O   UNL A   1      33.961  29.406  27.021  1.00  0.00    -0.246 OA
BRANCH  30  32
ATOM     32  C   UNL A   1      35.882  29.624  28.007  1.00  0.00     0.060 A 
ATOM     33  C   UNL A   1      36.110  29.474  29.387  1.00  0.00     0.016 A 
ATOM     34  C   UNL A   1      36.943  29.702  27.101  1.00  0.00     0.016 A 
ATOM     35  C   UNL A   1      37.386  29.319  29.861  1.00  0.00     0.010 A 
ATOM     36  C   UNL A   1      38.225  29.541  27.567  1.00  0.00     0.010 A 
ATOM     37  C   UNL A   1      38.424  29.328  28.935  1.00  0.00    -0.014 A 
BRANCH  37  38
ATOM     38  C   UNL A   1      39.750  28.957  29.381  1.00  0.00     0.031 A 
ATOM     39  C   UNL A   1      40.576  29.961  30.087  1.00  0.00     0.074 A 
ATOM     40  C   UNL A   1      40.136  27.734  28.990  1.00  0.00     0.049 A 
ATOM     41  N   UNL A   1      41.834  29.890  30.403  1.00  0.00    -0.248 NA
ATOM     42  C   UNL A   1      39.920  31.230  30.449  1.00  0.00     0.031 C 
ATOM     43  C   UNL A   1      39.290  26.773  28.262  1.00  0.00     0.029 A 
ATOM     44  N   UNL A   1      41.329  27.101  29.111  1.00  0.00    -0.354 N 
ATOM     45  C   UNL A   1      42.139  31.116  30.970  1.00  0.00     0.074 A 
ATOM     46  C   UNL A   1      40.939  31.921  30.942  1.00  0.00     0.031 C 
ATOM     47  C   UNL A   1      40.001  25.670  28.002  1.00  0.00     0.029 A 
ATOM     48  C   UNL A   1      41.349  25.874  28.498  1.00  0.00     0.049 A 
ATOM     49  H   UNL A   1      42.102  27.482  29.590  1.00  0.00     0.167 HD
ATOM     50  C   UNL A   1      43.339  31.506  31.453  1.00  0.00     0.031 A 
ATOM     51  C   UNL A   1      42.378  25.030  28.345  1.00  0.00     0.031 A 
ATOM     52  C   UNL A   1      44.489  30.641  31.403  1.00  0.00     0.049 A 
ATOM     53  C   UNL A   1      43.681  25.477  28.931  1.00  0.00     0.074 A 
ATOM     54  C   UNL A   1      45.771  30.864  31.859  1.00  0.00     0.029 A 
ATOM     55  N   UNL A   1      44.472  29.362  30.847  1.00  0.00    -0.354 N 
ATOM     56  N   UNL A   1      43.969  26.623  29.508  1.00  0.00    -0.248 NA
ATOM     57  C   UNL A   1      44.789  24.527  28.868  1.00  0.00     0.031 C 
ATOM     58  C   UNL A   1      46.536  29.731  31.550  1.00  0.00     0.029 A 
ATOM     59  C   UNL A   1      45.720  28.781  30.946  1.00  0.00     0.049 A 
ATOM     60  H   UNL A   1      43.683  28.934  30.443  1.00  0.00     0.167 HD
ATOM     61  C   UNL A   1      45.291  26.532  29.898  1.00  0.00     0.074 A 
ATOM     62  C   UNL A   1      45.735  25.202  29.507  1.00  0.00     0.031 C 
ATOM     63  C   UNL A   1      46.077  27.449  30.517  1.00  0.00     0.031 A 
BRANCH  50  64
ATOM     64  C   UNL A   1      43.438  32.899  32.008  1.00  0.00    -0.014 A 
ATOM     65  C   UNL A   1      43.217  33.160  33.372  1.00  0.00     0.009 A 
ATOM     66  C   UNL A   1      43.710  33.978  31.154  1.00  0.00     0.009 A 
ATOM     67  C   UNL A   1      43.219  34.470  33.858  1.00  0.00     0.001 A 
ATOM     68  C   UNL A   1      43.740  35.286  31.648  1.00  0.00     0.001 A 
ATOM     69  C   UNL A   1      43.482  35.532  32.995  1.00  0.00     0.000 A 
ENDBRANCH  50  64
BRANCH  51  70
ATOM     70  C   UNL A   1      42.170  23.726  27.673  1.00  0.00    -0.014 A 
ATOM     71  C   UNL A   1      41.603  22.655  28.376  1.00  0.00     0.009 A 
ATOM     72  C   UNL A   1      42.440  23.569  26.303  1.00  0.00     0.009 A 
ATOM     73  C   UNL A   1      41.333  21.445  27.730  1.00  0.00     0.001 A 
ATOM     74  C   UNL A   1      42.143  22.368  25.652  1.00  0.00     0.001 A 
ATOM     75  C   UNL A   1      41.598  21.304  26.369  1.00  0.00     0.000 A 
ENDBRANCH  51  70
BRANCH  63  76
ATOM     76  C   UNL A   1      47.476  27.004  30.804  1.00  0.00    -0.014 A 
ATOM     77  C   UNL A   1      48.531  27.357  29.951  1.00  0.00     0.009 A 
ATOM     78  C   UNL A   1      47.735  26.255  31.960  1.00  0.00     0.009 A 
ATOM     79  C   UNL A   1      49.827  26.934  30.236  1.00  0.00     0.001 A 
ATOM     80  C   UNL A   1      49.037  25.860  32.257  1.00  0.00     0.001 A 
ATOM     81  C   UNL A   1      50.079  26.192  31.391  1.00  0.00     0.000 A 
ENDBRANCH  63  76
ENDBRANCH  37  38
ENDBRANCH  30  32
ENDBRANCH  29  30
ENDBRANCH  28  29
ENDBRANCH   1  28
TORSDOF 15
ENDMDL
MODEL 2
REMARK VINA RESULT:      -9.0      0.444      5.894
REMARK SMILES CC(C)(CC(=O)OCCOC(=O)c1ccc(-c2c3nc(c(-c4ccccc4)c4ccc([nH]4)c(-c4ccccc4)c4nc(c(-c5ccccc5)c5ccc2[nH]5)C=C4)C=C3)cc1)CC(=O)N1CCN(c2nc3ccc(Cl)cc3s2)CC1
REMARK SMILES IDX 8 1 7 2 5 3 6 4 4 5 2 6 1 7 3 8 61 9 62 10 63 11 64 12 65 13
REMARK SMILES IDX 79 14 66 15 78 16 67 17 68 18 69 19 77 20 70 21 76 22 71 23
REMARK SMILES IDX 75 24 72 25 73 26 74 27 9 28 10 29 11 30 12 31 13 32 14 33
REMARK SMILES IDX 60 34 15 35 59 36 16 37 17 38 18 39 53 40 19 41 58 42 52 43
REMARK SMILES IDX 54 44 20 45 57 46 51 47 50 48 21 50 43 51 28 52 42 53 29 54
REMARK SMILES IDX 32 55 41 56 55 57 30 58 31 59 40 61 56 62 33 63 22 64 23 65
REMARK SMILES IDX 27 66 24 67 26 68 25 69 44 70 45 71 49 72 46 73 48 74 47 75
REMARK SMILES IDX 34 76 35 77 39 78 36 79 38 80 37 81
REMARK H PARENT 54 49 32 60
REMARK Flexibility Score: inf
ROOT
ATOM      1  C   UNL A   1      34.741  34.563  29.339  1.00  0.00     0.274 C 
ENDROOT
BRANCH   1   2
ATOM      2  O   UNL A   1      36.174  34.602  29.060  1.00  0.00    -0.462 OA
BRANCH   2   3
ATOM      3  C   UNL A   1      36.913  33.509  29.383  1.00  0.00     0.306 C 
ATOM      4  O   UNL A   1      37.771  33.029  28.643  1.00  0.00    -0.252 OA
BRANCH   3   5
ATOM      5  C   UNL A   1      36.788  33.004  30.820  1.00  0.00     0.129 C 
BRANCH   5   6
ATOM      6  C   UNL A   1      37.384  33.681  32.083  1.00  0.00    -0.016 C 
ATOM      7  C   UNL A   1      38.530  34.615  31.681  1.00  0.00     0.012 C 
ATOM      8  C   UNL A   1      36.251  34.562  32.698  1.00  0.00     0.012 C 
BRANCH   6   9
ATOM      9  C   UNL A   1      37.799  32.763  33.243  1.00  0.00     0.107 C 
BRANCH   9  10
ATOM     10  C   UNL A   1      37.423  31.304  33.172  1.00  0.00     0.223 C 
ATOM     11  O   UNL A   1      36.338  30.922  32.761  1.00  0.00    -0.275 OA
ATOM     12  N   UNL A   1      38.438  30.434  33.512  1.00  0.00    -0.339 N 
ATOM     13  C   UNL A   1      38.360  28.768  32.626  1.00  0.00     0.141 C 
ATOM     14  C   UNL A   1      40.003  30.967  34.437  1.00  0.00     0.141 C 
ATOM     15  C   UNL A   1      39.937  27.594  32.736  1.00  0.00     0.140 C 
ATOM     16  C   UNL A   1      41.490  29.718  34.591  1.00  0.00     0.140 C 
ATOM     17  N   UNL A   1      41.488  28.202  33.539  1.00  0.00    -0.345 N 
BRANCH  17  18
ATOM     18  C   UNL A   1      42.319  27.285  34.112  1.00  0.00     0.186 A 
ATOM     19  N   UNL A   1      43.453  26.953  33.542  1.00  0.00    -0.220 NA
ATOM     20  S   UNL A   1      41.804  26.198  35.350  1.00  0.00    -0.097 S 
ATOM     21  C   UNL A   1      43.803  25.666  33.874  1.00  0.00     0.084 A 
ATOM     22  C   UNL A   1      43.020  25.063  34.858  1.00  0.00     0.058 A 
ATOM     23  C   UNL A   1      44.832  24.930  33.256  1.00  0.00     0.031 A 
ATOM     24  C   UNL A   1      43.259  23.737  35.271  1.00  0.00     0.042 A 
ATOM     25  C   UNL A   1      45.054  23.603  33.626  1.00  0.00     0.023 A 
ATOM     26  C   UNL A   1      44.279  23.024  34.624  1.00  0.00     0.042 A 
ATOM     27  Cl  UNL A   1      44.572  21.381  35.059  1.00  0.00    -0.084 Cl
ENDBRANCH  17  18
ENDBRANCH   9  10
ENDBRANCH   6   9
ENDBRANCH   5   6
ENDBRANCH   3   5
ENDBRANCH   2   3
ENDBRANCH   1   2
BRANCH   1  28
ATOM     28  C   UNL A   1      33.772  33.481  28.648  1.00  0.00     0.275 C 
BRANCH  28  29
ATOM     29  O   UNL A   1      34.271  31.913  27.964  1.00  0.00    -0.458 OA
BRANCH  29  30
ATOM     30  C   UNL A   1      34.631  30.257  27.931  1.00  0.00     0.338 C 
ATOM     31  O   UNL A   1      33.879  29.317  27.619  1.00  0.00    -0.246 OA
BRANCH  30  32
ATOM     32  C   UNL A   1      35.954  29.668  28.152  1.00  0.00     0.060 A 
ATOM     33  C   UNL A   1      36.369  29.455  29.479  1.00  0.00     0.016 A 
ATOM     34  C   UNL A   1      36.880  29.873  27.126  1.00  0.00     0.016 A 
ATOM     35  C   UNL A   1      37.704  29.366  29.776  1.00  0.00     0.010 A 
ATOM     36  C   UNL A   1      38.219  29.778  27.413  1.00  0.00     0.010 A 
ATOM     37  C   UNL A   1      38.608  29.502  28.729  1.00  0.00    -0.014 A 
BRANCH  37  38
ATOM     38  C   UNL A   1      40.003  29.203  28.978  1.00  0.00     0.031 A 
ATOM     39  C   UNL A   1      40.541  27.892  28.555  1.00  0.00     0.074 A 
ATOM     40  C   UNL A   1      40.644  30.141  29.691  1.00  0.00     0.049 A 
ATOM     41  N   UNL A   1      41.694  27.366  28.840  1.00  0.00    -0.248 NA
ATOM     42  C   UNL A   1      39.658  27.038  27.741  1.00  0.00     0.031 C 
ATOM     43  C   UNL A   1      40.061  31.424  30.118  1.00  0.00     0.029 A 
ATOM     44  N   UNL A   1      41.896  30.156  30.211  1.00  0.00    -0.354 N 
ATOM     45  C   UNL A   1      41.670  26.102  28.275  1.00  0.00     0.074 A 
ATOM     46  C   UNL A   1      40.381  25.931  27.642  1.00  0.00     0.031 C 
ATOM     47  C   UNL A   1      40.963  32.100  30.839  1.00  0.00     0.029 A 
ATOM     48  C   UNL A   1      42.152  31.277  30.959  1.00  0.00     0.049 A 
ATOM     49  H   UNL A   1      42.555  29.437  30.066  1.00  0.00     0.167 HD
ATOM     50  C   UNL A   1      42.657  25.181  28.313  1.00  0.00     0.031 A 
ATOM     51  C   UNL A   1      43.240  31.570  31.683  1.00  0.00     0.031 A 
ATOM     52  C   UNL A   1      43.896  25.433  29.002  1.00  0.00     0.049 A 
ATOM     53  C   UNL A   1      44.332  30.546  31.666  1.00  0.00     0.074 A 
ATOM     54  C   UNL A   1      45.007  24.625  29.127  1.00  0.00     0.029 A 
ATOM     55  N   UNL A   1      44.173  26.612  29.692  1.00  0.00    -0.354 N 
ATOM     56  N   UNL A   1      44.332  29.360  31.097  1.00  0.00    -0.248 NA
ATOM     57  C   UNL A   1      45.568  30.893  32.362  1.00  0.00     0.031 C 
ATOM     58  C   UNL A   1      45.942  25.305  29.919  1.00  0.00     0.029 A 
ATOM     59  C   UNL A   1      45.435  26.557  30.248  1.00  0.00     0.049 A 
ATOM     60  H   UNL A   1      43.556  27.376  29.772  1.00  0.00     0.167 HD
ATOM     61  C   UNL A   1      45.578  28.818  31.348  1.00  0.00     0.074 A 
ATOM     62  C   UNL A   1      46.310  29.824  32.104  1.00  0.00     0.031 C 
ATOM     63  C   UNL A   1      46.082  27.607  30.999  1.00  0.00     0.031 A 
BRANCH  50  64
ATOM     64  C   UNL A   1      42.396  23.863  27.641  1.00  0.00    -0.014 A 
ATOM     65  C   UNL A   1      41.828  22.785  28.342  1.00  0.00     0.009 A 
ATOM     66  C   UNL A   1      42.762  23.672  26.300  1.00  0.00     0.009 A 
ATOM     67  C   UNL A   1      41.677  21.537  27.733  1.00  0.00     0.001 A 
ATOM     68  C   UNL A   1      42.584  22.430  25.683  1.00  0.00     0.001 A 
ATOM     69  C   UNL A   1      42.054  21.361  26.403  1.00  0.00     0.000 A 
ENDBRANCH  50  64
BRANCH  51  70
ATOM     70  C   UNL A   1      43.325  32.866  32.397  1.00  0.00    -0.014 A 
ATOM     71  C   UNL A   1      43.861  33.989  31.753  1.00  0.00     0.009 A 
ATOM     72  C   UNL A   1      42.781  33.019  33.683  1.00  0.00     0.009 A 
ATOM     73  C   UNL A   1      43.876  35.233  32.391  1.00  0.00     0.001 A 
ATOM     74  C   UNL A   1      42.770  34.269  34.308  1.00  0.00     0.001 A 
ATOM     75  C   UNL A   1      43.326  35.373  33.664  1.00  0.00     0.000 A 
ENDBRANCH  51  70
BRANCH  63  76
ATOM     76  C   UNL A   1      47.491  27.352  31.432  1.00  0.00    -0.014 A 
ATOM     77  C   UNL A   1      47.769  26.850  32.712  1.00  0.00     0.009 A 
ATOM     78  C   UNL A   1      48.540  27.585  30.532  1.00  0.00     0.009 A 
ATOM     79  C   UNL A   1      49.087  26.617  33.096  1.00  0.00     0.001 A 
ATOM     80  C   UNL A   1      49.854  27.321  30.910  1.00  0.00     0.001 A 
ATOM     81  C   UNL A   1      50.127  26.847  32.193  1.00  0.00     0.000 A 
ENDBRANCH  63  76
ENDBRANCH  37  38
ENDBRANCH  30  32
ENDBRANCH  29  30
ENDBRANCH  28  29
ENDBRANCH   1  28
TORSDOF 15
ENDMDL
MODEL 3
REMARK VINA RESULT:      -8.9      4.103      9.205
REMARK SMILES CC(C)(CC(=O)OCCOC(=O)c1ccc(-c2c3nc(c(-c4ccccc4)c4ccc([nH]4)c(-c4ccccc4)c4nc(c(-c5ccccc5)c5ccc2[nH]5)C=C4)C=C3)cc1)CC(=O)N1CCN(c2nc3ccc(Cl)cc3s2)CC1
REMARK SMILES IDX 8 1 7 2 5 3 6 4 4 5 2 6 1 7 3 8 61 9 62 10 63 11 64 12 65 13
REMARK SMILES IDX 79 14 66 15 78 16 67 17 68 18 69 19 77 20 70 21 76 22 71 23
REMARK SMILES IDX 75 24 72 25 73 26 74 27 9 28 10 29 11 30 12 31 13 32 14 33
REMARK SMILES IDX 60 34 15 35 59 36 16 37 17 38 18 39 53 40 19 41 58 42 52 43
REMARK SMILES IDX 54 44 20 45 57 46 51 47 50 48 21 50 43 51 28 52 42 53 29 54
REMARK SMILES IDX 32 55 41 56 55 57 30 58 31 59 40 61 56 62 33 63 22 64 23 65
REMARK SMILES IDX 27 66 24 67 26 68 25 69 44 70 45 71 49 72 46 73 48 74 47 75
REMARK SMILES IDX 34 76 35 77 39 78 36 79 38 80 37 81
REMARK H PARENT 54 49 32 60
REMARK Flexibility Score: inf
ROOT
ATOM      1  C   UNL A   1      31.471  30.473  26.018  1.00  0.00     0.274 C 
ENDROOT
BRANCH   1   2
ATOM      2  O   UNL A   1      32.578  30.045  25.166  1.00  0.00    -0.462 OA
BRANCH   2   3
ATOM      3  C   UNL A   1      32.308  29.150  24.179  1.00  0.00     0.306 C 
ATOM      4  O   UNL A   1      32.721  29.269  23.026  1.00  0.00    -0.252 OA
BRANCH   3   5
ATOM      5  C   UNL A   1      31.634  27.847  24.609  1.00  0.00     0.129 C 
BRANCH   5   6
ATOM      6  C   UNL A   1      30.599  27.037  23.784  1.00  0.00    -0.016 C 
ATOM      7  C   UNL A   1      29.294  27.828  23.663  1.00  0.00     0.012 C 
ATOM      8  C   UNL A   1      31.192  26.883  22.346  1.00  0.00     0.012 C 
BRANCH   6   9
ATOM      9  C   UNL A   1      30.331  25.588  24.221  1.00  0.00     0.107 C 
BRANCH   9  10
ATOM     10  C   UNL A   1      30.933  25.109  25.517  1.00  0.00     0.223 C 
ATOM     11  O   UNL A   1      30.303  25.067  26.563  1.00  0.00    -0.275 OA
ATOM     12  N   UNL A   1      32.221  24.625  25.405  1.00  0.00    -0.339 N 
ATOM     13  C   UNL A   1      32.652  23.272  26.650  1.00  0.00     0.141 C 
ATOM     14  C   UNL A   1      33.331  24.950  23.904  1.00  0.00     0.141 C 
ATOM     15  C   UNL A   1      34.308  22.249  26.358  1.00  0.00     0.140 C 
ATOM     16  C   UNL A   1      35.004  23.970  23.728  1.00  0.00     0.140 C 
ATOM     17  N   UNL A   1      35.296  22.508  24.816  1.00  0.00    -0.345 N 
BRANCH  17  18
ATOM     18  C   UNL A   1      36.638  22.274  24.864  1.00  0.00     0.186 A 
ATOM     19  N   UNL A   1      37.131  21.102  24.538  1.00  0.00    -0.220 NA
ATOM     20  S   UNL A   1      37.737  23.289  25.726  1.00  0.00    -0.097 S 
ATOM     21  C   UNL A   1      38.302  20.864  25.216  1.00  0.00     0.084 A 
ATOM     22  C   UNL A   1      38.813  21.944  25.936  1.00  0.00     0.058 A 
ATOM     23  C   UNL A   1      38.959  19.620  25.270  1.00  0.00     0.031 A 
ATOM     24  C   UNL A   1      39.994  21.823  26.695  1.00  0.00     0.042 A 
ATOM     25  C   UNL A   1      40.108  19.475  26.048  1.00  0.00     0.023 A 
ATOM     26  C   UNL A   1      40.616  20.567  26.743  1.00  0.00     0.042 A 
ATOM     27  Cl  UNL A   1      42.034  20.358  27.701  1.00  0.00    -0.084 Cl
ENDBRANCH  17  18
ENDBRANCH   9  10
ENDBRANCH   6   9
ENDBRANCH   5   6
ENDBRANCH   3   5
ENDBRANCH   2   3
ENDBRANCH   1   2
BRANCH   1  28
ATOM     28  C   UNL A   1      31.243  32.019  26.398  1.00  0.00     0.275 C 
BRANCH  28  29
ATOM     29  O   UNL A   1      32.205  32.965  27.563  1.00  0.00    -0.458 OA
BRANCH  29  30
ATOM     30  C   UNL A   1      33.442  33.982  28.118  1.00  0.00     0.338 C 
ATOM     31  O   UNL A   1      33.547  35.212  27.967  1.00  0.00    -0.246 OA
BRANCH  30  32
ATOM     32  C   UNL A   1      34.546  33.581  28.993  1.00  0.00     0.060 A 
ATOM     33  C   UNL A   1      35.778  34.245  28.848  1.00  0.00     0.016 A 
ATOM     34  C   UNL A   1      34.479  32.274  29.482  1.00  0.00     0.016 A 
ATOM     35  C   UNL A   1      36.937  33.642  29.262  1.00  0.00     0.010 A 
ATOM     36  C   UNL A   1      35.635  31.665  29.906  1.00  0.00     0.010 A 
ATOM     37  C   UNL A   1      36.841  32.369  29.811  1.00  0.00    -0.014 A 
BRANCH  37  38
ATOM     38  C   UNL A   1      38.012  31.801  30.446  1.00  0.00     0.031 A 
ATOM     39  C   UNL A   1      38.802  30.785  29.716  1.00  0.00     0.074 A 
ATOM     40  C   UNL A   1      38.190  32.194  31.716  1.00  0.00     0.049 A 
ATOM     41  N   UNL A   1      39.762  30.036  30.168  1.00  0.00    -0.248 NA
ATOM     42  C   UNL A   1      38.443  30.546  28.308  1.00  0.00     0.031 C 
ATOM     43  C   UNL A   1      37.361  33.189  32.417  1.00  0.00     0.029 A 
ATOM     44  N   UNL A   1      39.086  31.792  32.651  1.00  0.00    -0.354 N 
ATOM     45  C   UNL A   1      40.104  29.205  29.114  1.00  0.00     0.074 A 
ATOM     46  C   UNL A   1      39.239  29.530  28.003  1.00  0.00     0.031 C 
ATOM     47  C   UNL A   1      37.794  33.315  33.677  1.00  0.00     0.029 A 
ATOM     48  C   UNL A   1      38.886  32.380  33.874  1.00  0.00     0.049 A 
ATOM     49  H   UNL A   1      39.807  31.145  32.470  1.00  0.00     0.167 HD
ATOM     50  C   UNL A   1      41.060  28.251  29.116  1.00  0.00     0.031 A 
ATOM     51  C   UNL A   1      39.520  32.146  35.030  1.00  0.00     0.031 A 
ATOM     52  C   UNL A   1      41.849  27.976  30.289  1.00  0.00     0.049 A 
ATOM     53  C   UNL A   1      40.603  31.113  34.983  1.00  0.00     0.074 A 
ATOM     54  C   UNL A   1      42.867  27.062  30.464  1.00  0.00     0.029 A 
ATOM     55  N   UNL A   1      41.687  28.640  31.504  1.00  0.00    -0.354 N 
ATOM     56  N   UNL A   1      40.962  30.348  33.975  1.00  0.00    -0.248 NA
ATOM     57  C   UNL A   1      41.377  30.919  36.206  1.00  0.00     0.031 C 
ATOM     58  C   UNL A   1      43.298  27.154  31.794  1.00  0.00     0.029 A 
ATOM     59  C   UNL A   1      42.583  28.159  32.436  1.00  0.00     0.049 A 
ATOM     60  H   UNL A   1      41.027  29.351  31.673  1.00  0.00     0.167 HD
ATOM     61  C   UNL A   1      42.021  29.589  34.432  1.00  0.00     0.074 A 
ATOM     62  C   UNL A   1      42.255  30.009  35.806  1.00  0.00     0.031 C 
ATOM     63  C   UNL A   1      42.739  28.630  33.792  1.00  0.00     0.031 A 
BRANCH  50  64
ATOM     64  C   UNL A   1      41.241  27.455  27.854  1.00  0.00    -0.014 A 
ATOM     65  C   UNL A   1      42.075  27.910  26.817  1.00  0.00     0.009 A 
ATOM     66  C   UNL A   1      40.536  26.256  27.672  1.00  0.00     0.009 A 
ATOM     67  C   UNL A   1      42.162  27.208  25.612  1.00  0.00     0.001 A 
ATOM     68  C   UNL A   1      40.646  25.541  26.475  1.00  0.00     0.001 A 
ATOM     69  C   UNL A   1      41.448  26.024  25.442  1.00  0.00     0.000 A 
ENDBRANCH  50  64
BRANCH  51  70
ATOM     70  C   UNL A   1      39.165  32.927  36.238  1.00  0.00    -0.014 A 
ATOM     71  C   UNL A   1      38.233  32.419  37.153  1.00  0.00     0.009 A 
ATOM     72  C   UNL A   1      39.823  34.130  36.540  1.00  0.00     0.009 A 
ATOM     73  C   UNL A   1      37.947  33.113  38.333  1.00  0.00     0.001 A 
ATOM     74  C   UNL A   1      39.558  34.807  37.733  1.00  0.00     0.001 A 
ATOM     75  C   UNL A   1      38.613  34.302  38.625  1.00  0.00     0.000 A 
ENDBRANCH  51  70
BRANCH  63  76
ATOM     76  C   UNL A   1      43.839  28.012  34.596  1.00  0.00    -0.014 A 
ATOM     77  C   UNL A   1      45.110  28.600  34.648  1.00  0.00     0.009 A 
ATOM     78  C   UNL A   1      43.579  26.848  35.333  1.00  0.00     0.009 A 
ATOM     79  C   UNL A   1      46.120  28.010  35.403  1.00  0.00     0.001 A 
ATOM     80  C   UNL A   1      44.583  26.278  36.112  1.00  0.00     0.001 A 
ATOM     81  C   UNL A   1      45.853  26.854  36.139  1.00  0.00     0.000 A 
ENDBRANCH  63  76
ENDBRANCH  37  38
ENDBRANCH  30  32
ENDBRANCH  29  30
ENDBRANCH  28  29
ENDBRANCH   1  28
TORSDOF 15
ENDMDL
