MODEL 1
REMARK VINA RESULT:     -10.5      0.000      0.000
REMARK SMILES O=C(OCCOC(=O)[C@H](CO)NC(=O)[C@H]1CC(=O)N(CC(F)(F)F)C1)c1ccc(-c2c3nc(c(-c4ccccc4)c4ccc([nH]4)c(-c4ccccc4)c4nc(c(-c5ccccc5)c5ccc2[nH]5)C=C4)C=C3)cc1
REMARK SMILES IDX 5 1 4 2 3 3 2 4 1 5 26 6 27 7 73 8 28 9 72 10 29 11 30 12
REMARK SMILES IDX 31 13 66 14 32 15 71 16 65 17 67 18 33 19 70 20 64 21 63 22
REMARK SMILES IDX 34 24 56 25 41 26 55 27 42 28 45 29 54 30 68 31 43 32 44 33
REMARK SMILES IDX 53 35 69 36 46 37 35 38 36 39 40 40 37 41 39 42 38 43 57 44
REMARK SMILES IDX 58 45 62 46 59 47 61 48 60 49 47 50 48 51 52 52 49 53 51 54
REMARK SMILES IDX 50 55 6 56 7 57 8 58 9 59 12 60 13 61 14 63 15 64 16 65
REMARK SMILES IDX 25 66 17 67 19 68 18 69 20 70 21 71 22 72 23 73 24 74 10 75
REMARK SMILES IDX 11 76
REMARK H PARENT 67 23 45 34 12 62 11 77
REMARK Flexibility Score: inf
ROOT
ATOM      1  C   UNL A   1      32.571  31.229  26.796  1.00  0.00     0.274 C 
ENDROOT
BRANCH   1   2
ATOM      2  C   UNL A   1      31.631  32.361  27.217  1.00  0.00     0.275 C 
BRANCH   2   3
ATOM      3  O   UNL A   1      32.261  33.653  27.239  1.00  0.00    -0.458 OA
BRANCH   3   4
ATOM      4  C   UNL A   1      32.966  34.263  28.217  1.00  0.00     0.338 C 
ATOM      5  O   UNL A   1      32.538  35.334  28.649  1.00  0.00    -0.246 OA
BRANCH   4   6
ATOM      6  C   UNL A   1      34.302  33.803  28.730  1.00  0.00     0.060 A 
ATOM      7  C   UNL A   1      35.563  34.237  28.314  1.00  0.00     0.016 A 
ATOM      8  C   UNL A   1      34.262  32.853  29.764  1.00  0.00     0.016 A 
ATOM      9  C   UNL A   1      36.739  33.783  28.924  1.00  0.00     0.010 A 
ATOM     10  C   UNL A   1      35.432  32.411  30.386  1.00  0.00     0.010 A 
ATOM     11  C   UNL A   1      36.690  32.872  29.973  1.00  0.00    -0.014 A 
BRANCH  11  12
ATOM     12  C   UNL A   1      37.942  32.347  30.577  1.00  0.00     0.031 A 
ATOM     13  C   UNL A   1      38.541  31.082  30.018  1.00  0.00     0.074 A 
ATOM     14  C   UNL A   1      38.488  32.943  31.659  1.00  0.00     0.049 A 
ATOM     15  N   UNL A   1      39.517  30.350  30.487  1.00  0.00    -0.248 NA
ATOM     16  C   UNL A   1      37.938  30.560  28.779  1.00  0.00     0.031 C 
ATOM     17  C   UNL A   1      37.960  34.130  32.342  1.00  0.00     0.029 A 
ATOM     18  N   UNL A   1      39.542  32.554  32.455  1.00  0.00    -0.354 N 
ATOM     19  C   UNL A   1      39.647  29.288  29.595  1.00  0.00     0.074 A 
ATOM     20  C   UNL A   1      38.590  29.419  28.619  1.00  0.00     0.031 C 
ATOM     21  C   UNL A   1      38.598  34.288  33.515  1.00  0.00     0.029 A 
ATOM     22  C   UNL A   1      39.585  33.228  33.659  1.00  0.00     0.049 A 
ATOM     23  H   UNL A   1      40.198  31.868  32.193  1.00  0.00     0.167 HD
ATOM     24  C   UNL A   1      40.596  28.322  29.555  1.00  0.00     0.031 A 
ATOM     25  C   UNL A   1      40.287  32.970  34.779  1.00  0.00     0.031 A 
ATOM     26  C   UNL A   1      41.645  28.201  30.529  1.00  0.00     0.049 A 
ATOM     27  C   UNL A   1      41.287  31.849  34.766  1.00  0.00     0.074 A 
ATOM     28  C   UNL A   1      42.733  27.348  30.533  1.00  0.00     0.029 A 
ATOM     29  N   UNL A   1      41.720  28.956  31.687  1.00  0.00    -0.354 N 
ATOM     30  N   UNL A   1      41.481  30.930  33.852  1.00  0.00    -0.248 NA
ATOM     31  C   UNL A   1      42.204  31.775  35.910  1.00  0.00     0.031 C 
ATOM     32  C   UNL A   1      43.450  27.565  31.715  1.00  0.00     0.029 A 
ATOM     33  C   UNL A   1      42.839  28.594  32.414  1.00  0.00     0.049 A 
ATOM     34  H   UNL A   1      41.073  29.649  31.955  1.00  0.00     0.167 HD
ATOM     35  C   UNL A   1      42.597  30.216  34.274  1.00  0.00     0.074 A 
ATOM     36  C   UNL A   1      43.014  30.797  35.534  1.00  0.00     0.031 C 
ATOM     37  C   UNL A   1      43.241  29.197  33.657  1.00  0.00     0.031 A 
BRANCH  24  38
ATOM     38  C   UNL A   1      40.561  27.360  28.396  1.00  0.00    -0.014 A 
ATOM     39  C   UNL A   1      41.220  27.658  27.189  1.00  0.00     0.009 A 
ATOM     40  C   UNL A   1      39.888  26.134  28.508  1.00  0.00     0.009 A 
ATOM     41  C   UNL A   1      41.163  26.778  26.108  1.00  0.00     0.001 A 
ATOM     42  C   UNL A   1      39.863  25.238  27.436  1.00  0.00     0.001 A 
ATOM     43  C   UNL A   1      40.488  25.566  26.234  1.00  0.00     0.000 A 
ENDBRANCH  24  38
BRANCH  25  44
ATOM     44  C   UNL A   1      40.079  33.764  36.017  1.00  0.00    -0.014 A 
ATOM     45  C   UNL A   1      39.163  33.343  36.993  1.00  0.00     0.009 A 
ATOM     46  C   UNL A   1      40.742  34.989  36.193  1.00  0.00     0.009 A 
ATOM     47  C   UNL A   1      38.879  34.153  38.096  1.00  0.00     0.001 A 
ATOM     48  C   UNL A   1      40.475  35.785  37.310  1.00  0.00     0.001 A 
ATOM     49  C   UNL A   1      39.534  35.373  38.252  1.00  0.00     0.000 A 
ENDBRANCH  25  44
BRANCH  37  50
ATOM     50  C   UNL A   1      44.527  28.733  34.278  1.00  0.00    -0.014 A 
ATOM     51  C   UNL A   1      44.569  27.683  35.207  1.00  0.00     0.009 A 
ATOM     52  C   UNL A   1      45.724  29.370  33.912  1.00  0.00     0.009 A 
ATOM     53  C   UNL A   1      45.782  27.312  35.791  1.00  0.00     0.001 A 
ATOM     54  C   UNL A   1      46.938  28.973  34.470  1.00  0.00     0.001 A 
ATOM     55  C   UNL A   1      46.964  27.953  35.420  1.00  0.00     0.000 A 
ENDBRANCH  37  50
ENDBRANCH  11  12
ENDBRANCH   4   6
ENDBRANCH   3   4
ENDBRANCH   2   3
ENDBRANCH   1   2
BRANCH   1  56
ATOM     56  O   UNL A   1      31.943  30.320  25.871  1.00  0.00    -0.460 OA
BRANCH  56  57
ATOM     57  C   UNL A   1      32.525  29.095  25.730  1.00  0.00     0.331 C 
ATOM     58  O   UNL A   1      33.733  28.896  25.689  1.00  0.00    -0.250 OA
BRANCH  57  59
ATOM     59  C   UNL A   1      31.473  27.987  25.593  1.00  0.00     0.218 C 
BRANCH  59  60
ATOM     60  N   UNL A   1      31.825  27.162  24.440  1.00  0.00    -0.341 N 
ATOM     61  C   UNL A   1      31.158  26.843  23.315  1.00  0.00     0.226 C 
ATOM     62  H   UNL A   1      32.722  26.762  24.498  1.00  0.00     0.164 HD
ATOM     63  O   UNL A   1      31.606  25.844  22.730  1.00  0.00    -0.275 OA
BRANCH  61  64
ATOM     64  C   UNL A   1      30.096  27.686  22.619  1.00  0.00     0.107 C 
ATOM     65  C   UNL A   1      28.825  27.646  23.490  1.00  0.00     0.115 C 
ATOM     66  C   UNL A   1      30.177  29.167  22.271  1.00  0.00     0.133 C 
ATOM     67  C   UNL A   1      27.953  28.705  22.884  1.00  0.00     0.223 C 
ATOM     68  N   UNL A   1      28.775  29.546  22.155  1.00  0.00    -0.333 N 
ATOM     69  O   UNL A   1      26.750  28.796  23.009  1.00  0.00    -0.275 OA
BRANCH  68  70
ATOM     70  C   UNL A   1      28.238  30.639  21.335  1.00  0.00     0.234 C 
BRANCH  70  71
ATOM     71  C   UNL A   1      28.120  32.027  21.948  1.00  0.00     0.406 C 
ATOM     72  F   UNL A   1      27.408  32.000  23.096  1.00  0.00    -0.169 F 
ATOM     73  F   UNL A   1      29.344  32.518  22.252  1.00  0.00    -0.169 F 
ATOM     74  F   UNL A   1      27.523  32.908  21.120  1.00  0.00    -0.169 F 
ENDBRANCH  70  71
ENDBRANCH  68  70
ENDBRANCH  61  64
ENDBRANCH  59  60
BRANCH  59  75
ATOM     75  C   UNL A   1      31.547  27.148  26.882  1.00  0.00     0.193 C 
BRANCH  75  76
ATOM     76  O   UNL A   1      31.674  27.993  28.021  1.00  0.00    -0.394 OA
ATOM     77  H   UNL A   1      32.601  28.265  28.119  1.00  0.00     0.210 HD
ENDBRANCH  75  76
ENDBRANCH  59  75
ENDBRANCH  57  59
ENDBRANCH  56  57
ENDBRANCH   1  56
TORSDOF 17
ENDMDL
MODEL 2
REMARK VINA RESULT:     -10.2      3.265      7.323
REMARK SMILES O=C(OCCOC(=O)[C@H](CO)NC(=O)[C@H]1CC(=O)N(CC(F)(F)F)C1)c1ccc(-c2c3nc(c(-c4ccccc4)c4ccc([nH]4)c(-c4ccccc4)c4nc(c(-c5ccccc5)c5ccc2[nH]5)C=C4)C=C3)cc1
REMARK SMILES IDX 5 1 4 2 3 3 2 4 1 5 26 6 27 7 73 8 28 9 72 10 29 11 30 12
REMARK SMILES IDX 31 13 66 14 32 15 71 16 65 17 67 18 33 19 70 20 64 21 63 22
REMARK SMILES IDX 34 24 56 25 41 26 55 27 42 28 45 29 54 30 68 31 43 32 44 33
REMARK SMILES IDX 53 35 69 36 46 37 35 38 36 39 40 40 37 41 39 42 38 43 57 44
REMARK SMILES IDX 58 45 62 46 59 47 61 48 60 49 47 50 48 51 52 52 49 53 51 54
REMARK SMILES IDX 50 55 6 56 7 57 8 58 9 59 12 60 13 61 14 63 15 64 16 65
REMARK SMILES IDX 25 66 17 67 19 68 18 69 20 70 21 71 22 72 23 73 24 74 10 75
REMARK SMILES IDX 11 76
REMARK H PARENT 67 23 45 34 12 62 11 77
REMARK Flexibility Score: inf
ROOT
ATOM      1  C   UNL A   1      33.612  28.506  24.906  1.00  0.00     0.274 C 
ENDROOT
BRANCH   1   2
ATOM      2  C   UNL A   1      34.036  28.475  26.376  1.00  0.00     0.275 C 
BRANCH   2   3
ATOM      3  O   UNL A   1      33.793  29.709  27.070  1.00  0.00    -0.458 OA
BRANCH   3   4
ATOM      4  C   UNL A   1      34.603  30.431  27.876  1.00  0.00     0.338 C 
ATOM      5  O   UNL A   1      34.254  31.577  28.162  1.00  0.00    -0.246 OA
BRANCH   4   6
ATOM      6  C   UNL A   1      35.961  29.992  28.348  1.00  0.00     0.060 A 
ATOM      7  C   UNL A   1      36.303  29.524  29.620  1.00  0.00     0.016 A 
ATOM      8  C   UNL A   1      36.983  30.034  27.386  1.00  0.00     0.016 A 
ATOM      9  C   UNL A   1      37.595  29.074  29.917  1.00  0.00     0.010 A 
ATOM     10  C   UNL A   1      38.268  29.569  27.675  1.00  0.00     0.010 A 
ATOM     11  C   UNL A   1      38.592  29.081  28.948  1.00  0.00    -0.014 A 
BRANCH  11  12
ATOM     12  C   UNL A   1      39.977  28.659  29.286  1.00  0.00     0.031 A 
ATOM     13  C   UNL A   1      40.960  29.704  29.747  1.00  0.00     0.074 A 
ATOM     14  C   UNL A   1      40.372  27.380  29.101  1.00  0.00     0.049 A 
ATOM     15  N   UNL A   1      42.251  29.604  29.927  1.00  0.00    -0.248 NA
ATOM     16  C   UNL A   1      40.416  31.047  30.015  1.00  0.00     0.031 C 
ATOM     17  C   UNL A   1      39.535  26.290  28.586  1.00  0.00     0.029 A 
ATOM     18  N   UNL A   1      41.619  26.808  29.208  1.00  0.00    -0.354 N 
ATOM     19  C   UNL A   1      42.668  30.868  30.336  1.00  0.00     0.074 A 
ATOM     20  C   UNL A   1      41.514  31.736  30.281  1.00  0.00     0.031 C 
ATOM     21  C   UNL A   1      40.313  25.234  28.292  1.00  0.00     0.029 A 
ATOM     22  C   UNL A   1      41.695  25.565  28.611  1.00  0.00     0.049 A 
ATOM     23  H   UNL A   1      42.379  27.239  29.662  1.00  0.00     0.167 HD
ATOM     24  C   UNL A   1      43.888  31.261  30.775  1.00  0.00     0.031 A 
ATOM     25  C   UNL A   1      42.765  24.815  28.289  1.00  0.00     0.031 A 
ATOM     26  C   UNL A   1      45.028  30.390  30.829  1.00  0.00     0.049 A 
ATOM     27  C   UNL A   1      44.130  25.283  28.705  1.00  0.00     0.074 A 
ATOM     28  C   UNL A   1      46.281  30.629  31.365  1.00  0.00     0.029 A 
ATOM     29  N   UNL A   1      45.052  29.107  30.306  1.00  0.00    -0.354 N 
ATOM     30  N   UNL A   1      44.485  26.440  29.210  1.00  0.00    -0.248 NA
ATOM     31  C   UNL A   1      45.226  24.317  28.565  1.00  0.00     0.031 C 
ATOM     32  C   UNL A   1      47.073  29.499  31.136  1.00  0.00     0.029 A 
ATOM     33  C   UNL A   1      46.295  28.537  30.511  1.00  0.00     0.049 A 
ATOM     34  H   UNL A   1      44.296  28.666  29.856  1.00  0.00     0.167 HD
ATOM     35  C   UNL A   1      45.833  26.310  29.524  1.00  0.00     0.074 A 
ATOM     36  C   UNL A   1      46.229  24.974  29.128  1.00  0.00     0.031 C 
ATOM     37  C   UNL A   1      46.660  27.201  30.121  1.00  0.00     0.031 A 
BRANCH  24  38
ATOM     38  C   UNL A   1      44.026  32.677  31.272  1.00  0.00    -0.014 A 
ATOM     39  C   UNL A   1      43.778  32.996  32.620  1.00  0.00     0.009 A 
ATOM     40  C   UNL A   1      44.429  33.700  30.403  1.00  0.00     0.009 A 
ATOM     41  C   UNL A   1      43.880  34.312  33.072  1.00  0.00     0.001 A 
ATOM     42  C   UNL A   1      44.566  35.012  30.866  1.00  0.00     0.001 A 
ATOM     43  C   UNL A   1      44.278  35.319  32.195  1.00  0.00     0.000 A 
ENDBRANCH  24  38
BRANCH  25  44
ATOM     44  C   UNL A   1      42.616  23.549  27.525  1.00  0.00    -0.014 A 
ATOM     45  C   UNL A   1      42.766  23.533  26.130  1.00  0.00     0.009 A 
ATOM     46  C   UNL A   1      42.247  22.365  28.182  1.00  0.00     0.009 A 
ATOM     47  C   UNL A   1      42.504  22.368  25.403  1.00  0.00     0.001 A 
ATOM     48  C   UNL A   1      42.010  21.196  27.455  1.00  0.00     0.001 A 
ATOM     49  C   UNL A   1      42.125  21.202  26.066  1.00  0.00     0.000 A 
ENDBRANCH  25  44
BRANCH  37  50
ATOM     50  C   UNL A   1      48.033  26.715  30.486  1.00  0.00    -0.014 A 
ATOM     51  C   UNL A   1      49.138  26.903  29.644  1.00  0.00     0.009 A 
ATOM     52  C   UNL A   1      48.212  26.053  31.712  1.00  0.00     0.009 A 
ATOM     53  C   UNL A   1      50.389  26.397  30.004  1.00  0.00     0.001 A 
ATOM     54  C   UNL A   1      49.469  25.581  32.085  1.00  0.00     0.001 A 
ATOM     55  C   UNL A   1      50.554  25.741  31.224  1.00  0.00     0.000 A 
ENDBRANCH  37  50
ENDBRANCH  11  12
ENDBRANCH   4   6
ENDBRANCH   3   4
ENDBRANCH   2   3
ENDBRANCH   1   2
BRANCH   1  56
ATOM     56  O   UNL A   1      33.791  27.228  24.264  1.00  0.00    -0.460 OA
BRANCH  56  57
ATOM     57  C   UNL A   1      33.432  27.150  22.951  1.00  0.00     0.331 C 
ATOM     58  O   UNL A   1      33.575  28.050  22.131  1.00  0.00    -0.250 OA
BRANCH  57  59
ATOM     59  C   UNL A   1      32.789  25.796  22.625  1.00  0.00     0.218 C 
BRANCH  59  60
ATOM     60  N   UNL A   1      31.755  25.529  23.621  1.00  0.00    -0.341 N 
ATOM     61  C   UNL A   1      30.732  26.269  24.089  1.00  0.00     0.226 C 
ATOM     62  H   UNL A   1      31.819  24.636  24.030  1.00  0.00     0.164 HD
ATOM     63  O   UNL A   1      30.280  25.874  25.175  1.00  0.00    -0.275 OA
BRANCH  61  64
ATOM     64  C   UNL A   1      29.981  27.360  23.334  1.00  0.00     0.107 C 
ATOM     65  C   UNL A   1      28.502  27.288  23.763  1.00  0.00     0.115 C 
ATOM     66  C   UNL A   1      30.238  28.860  23.383  1.00  0.00     0.133 C 
ATOM     67  C   UNL A   1      27.914  28.547  23.196  1.00  0.00     0.223 C 
ATOM     68  N   UNL A   1      28.961  29.418  22.957  1.00  0.00    -0.333 N 
ATOM     69  O   UNL A   1      26.737  28.751  22.983  1.00  0.00    -0.275 OA
BRANCH  68  70
ATOM     70  C   UNL A   1      28.760  30.714  22.299  1.00  0.00     0.234 C 
BRANCH  70  71
ATOM     71  C   UNL A   1      28.420  31.927  23.152  1.00  0.00     0.406 C 
ATOM     72  F   UNL A   1      28.576  33.077  22.460  1.00  0.00    -0.169 F 
ATOM     73  F   UNL A   1      27.128  31.879  23.553  1.00  0.00    -0.169 F 
ATOM     74  F   UNL A   1      29.185  32.011  24.259  1.00  0.00    -0.169 F 
ENDBRANCH  70  71
ENDBRANCH  68  70
ENDBRANCH  61  64
ENDBRANCH  59  60
BRANCH  59  75
ATOM     75  C   UNL A   1      32.151  25.935  21.230  1.00  0.00     0.193 C 
BRANCH  75  76
ATOM     76  O   UNL A   1      33.155  25.942  20.221  1.00  0.00    -0.394 OA
ATOM     77  H   UNL A   1      32.938  25.283  19.543  1.00  0.00     0.210 HD
ENDBRANCH  75  76
ENDBRANCH  59  75
ENDBRANCH  57  59
ENDBRANCH  56  57
ENDBRANCH   1  56
TORSDOF 17
ENDMDL
MODEL 3
REMARK VINA RESULT:      -9.9      6.839     10.862
REMARK SMILES O=C(OCCOC(=O)[C@H](CO)NC(=O)[C@H]1CC(=O)N(CC(F)(F)F)C1)c1ccc(-c2c3nc(c(-c4ccccc4)c4ccc([nH]4)c(-c4ccccc4)c4nc(c(-c5ccccc5)c5ccc2[nH]5)C=C4)C=C3)cc1
REMARK SMILES IDX 5 1 4 2 3 3 2 4 1 5 26 6 27 7 73 8 28 9 72 10 29 11 30 12
REMARK SMILES IDX 31 13 66 14 32 15 71 16 65 17 67 18 33 19 70 20 64 21 63 22
REMARK SMILES IDX 34 24 56 25 41 26 55 27 42 28 45 29 54 30 68 31 43 32 44 33
REMARK SMILES IDX 53 35 69 36 46 37 35 38 36 39 40 40 37 41 39 42 38 43 57 44
REMARK SMILES IDX 58 45 62 46 59 47 61 48 60 49 47 50 48 51 52 52 49 53 51 54
REMARK SMILES IDX 50 55 6 56 7 57 8 58 9 59 12 60 13 61 14 63 15 64 16 65
REMARK SMILES IDX 25 66 17 67 19 68 18 69 20 70 21 71 22 72 23 73 24 74 10 75
REMARK SMILES IDX 11 76
REMARK H PARENT 67 23 45 34 12 62 11 77
REMARK Flexibility Score: inf
ROOT
ATOM      1  C   UNL A   1      38.449  20.782  25.177  1.00  0.00     0.274 C 
ENDROOT
BRANCH   1   2
ATOM      2  C   UNL A   1      38.941  19.470  25.793  1.00  0.00     0.275 C 
BRANCH   2   3
ATOM      3  O   UNL A   1      40.265  19.100  25.374  1.00  0.00    -0.458 OA
BRANCH   3   4
ATOM      4  C   UNL A   1      41.460  19.316  25.966  1.00  0.00     0.338 C 
ATOM      5  O   UNL A   1      42.195  18.345  26.148  1.00  0.00    -0.246 OA
BRANCH   4   6
ATOM      6  C   UNL A   1      41.912  20.632  26.537  1.00  0.00     0.060 A 
ATOM      7  C   UNL A   1      41.986  20.987  27.886  1.00  0.00     0.016 A 
ATOM      8  C   UNL A   1      42.332  21.590  25.600  1.00  0.00     0.016 A 
ATOM      9  C   UNL A   1      42.495  22.225  28.297  1.00  0.00     0.010 A 
ATOM     10  C   UNL A   1      42.856  22.818  26.007  1.00  0.00     0.010 A 
ATOM     11  C   UNL A   1      42.945  23.153  27.365  1.00  0.00    -0.014 A 
BRANCH  11  12
ATOM     12  C   UNL A   1      43.429  24.489  27.803  1.00  0.00     0.031 A 
ATOM     13  C   UNL A   1      42.419  25.580  28.045  1.00  0.00     0.074 A 
ATOM     14  C   UNL A   1      44.752  24.746  27.899  1.00  0.00     0.049 A 
ATOM     15  N   UNL A   1      42.612  26.856  28.259  1.00  0.00    -0.248 NA
ATOM     16  C   UNL A   1      41.000  25.184  28.015  1.00  0.00     0.031 C 
ATOM     17  C   UNL A   1      45.833  23.794  27.615  1.00  0.00     0.029 A 
ATOM     18  N   UNL A   1      45.416  25.928  28.140  1.00  0.00    -0.354 N 
ATOM     19  C   UNL A   1      41.341  27.407  28.397  1.00  0.00     0.074 A 
ATOM     20  C   UNL A   1      40.388  26.350  28.143  1.00  0.00     0.031 C 
ATOM     21  C   UNL A   1      47.003  24.454  27.562  1.00  0.00     0.029 A 
ATOM     22  C   UNL A   1      46.758  25.866  27.822  1.00  0.00     0.049 A 
ATOM     23  H   UNL A   1      44.980  26.732  28.503  1.00  0.00     0.167 HD
ATOM     24  C   UNL A   1      40.994  28.665  28.758  1.00  0.00     0.031 A 
ATOM     25  C   UNL A   1      47.666  26.850  27.680  1.00  0.00     0.031 A 
ATOM     26  C   UNL A   1      41.948  29.709  29.010  1.00  0.00     0.049 A 
ATOM     27  C   UNL A   1      47.266  28.259  28.006  1.00  0.00     0.074 A 
ATOM     28  C   UNL A   1      41.732  30.984  29.500  1.00  0.00     0.029 A 
ATOM     29  N   UNL A   1      43.308  29.593  28.772  1.00  0.00    -0.354 N 
ATOM     30  N   UNL A   1      46.072  28.739  28.259  1.00  0.00    -0.248 NA
ATOM     31  C   UNL A   1      48.350  29.247  28.088  1.00  0.00     0.031 C 
ATOM     32  C   UNL A   1      42.962  31.652  29.526  1.00  0.00     0.029 A 
ATOM     33  C   UNL A   1      43.947  30.771  29.109  1.00  0.00     0.049 A 
ATOM     34  H   UNL A   1      43.753  28.790  28.415  1.00  0.00     0.167 HD
ATOM     35  C   UNL A   1      46.273  30.068  28.611  1.00  0.00     0.074 A 
ATOM     36  C   UNL A   1      47.697  30.318  28.512  1.00  0.00     0.031 C 
ATOM     37  C   UNL A   1      45.366  30.990  29.016  1.00  0.00     0.031 A 
BRANCH  24  38
ATOM     38  C   UNL A   1      39.527  28.956  28.946  1.00  0.00    -0.014 A 
ATOM     39  C   UNL A   1      38.748  29.456  27.886  1.00  0.00     0.009 A 
ATOM     40  C   UNL A   1      38.904  28.708  30.177  1.00  0.00     0.009 A 
ATOM     41  C   UNL A   1      37.397  29.750  28.070  1.00  0.00     0.001 A 
ATOM     42  C   UNL A   1      37.543  28.969  30.350  1.00  0.00     0.001 A 
ATOM     43  C   UNL A   1      36.793  29.502  29.302  1.00  0.00     0.000 A 
ENDBRANCH  24  38
BRANCH  25  44
ATOM     44  C   UNL A   1      49.043  26.561  27.200  1.00  0.00    -0.014 A 
ATOM     45  C   UNL A   1      50.044  26.158  28.097  1.00  0.00     0.009 A 
ATOM     46  C   UNL A   1      49.380  26.761  25.853  1.00  0.00     0.009 A 
ATOM     47  C   UNL A   1      51.365  26.008  27.664  1.00  0.00     0.001 A 
ATOM     48  C   UNL A   1      50.696  26.585  25.418  1.00  0.00     0.001 A 
ATOM     49  C   UNL A   1      51.689  26.222  26.326  1.00  0.00     0.000 A 
ENDBRANCH  25  44
BRANCH  37  50
ATOM     50  C   UNL A   1      45.906  32.308  29.494  1.00  0.00    -0.014 A 
ATOM     51  C   UNL A   1      46.294  32.516  30.824  1.00  0.00     0.009 A 
ATOM     52  C   UNL A   1      46.027  33.362  28.573  1.00  0.00     0.009 A 
ATOM     53  C   UNL A   1      46.751  33.770  31.234  1.00  0.00     0.001 A 
ATOM     54  C   UNL A   1      46.517  34.602  28.977  1.00  0.00     0.001 A 
ATOM     55  C   UNL A   1      46.866  34.809  30.310  1.00  0.00     0.000 A 
ENDBRANCH  37  50
ENDBRANCH  11  12
ENDBRANCH   4   6
ENDBRANCH   3   4
ENDBRANCH   2   3
ENDBRANCH   1   2
BRANCH   1  56
ATOM     56  O   UNL A   1      38.629  21.899  26.070  1.00  0.00    -0.460 OA
BRANCH  56  57
ATOM     57  C   UNL A   1      37.709  22.902  25.984  1.00  0.00     0.331 C 
ATOM     58  O   UNL A   1      37.905  24.062  26.327  1.00  0.00    -0.250 OA
BRANCH  57  59
ATOM     59  C   UNL A   1      36.373  22.392  25.430  1.00  0.00     0.218 C 
BRANCH  59  60
ATOM     60  N   UNL A   1      35.332  22.674  26.415  1.00  0.00    -0.341 N 
ATOM     61  C   UNL A   1      34.009  22.420  26.436  1.00  0.00     0.226 C 
ATOM     62  H   UNL A   1      35.661  23.139  27.217  1.00  0.00     0.164 HD
ATOM     63  O   UNL A   1      33.377  23.109  27.251  1.00  0.00    -0.275 OA
BRANCH  61  64
ATOM     64  C   UNL A   1      33.295  21.267  25.739  1.00  0.00     0.107 C 
ATOM     65  C   UNL A   1      33.016  21.703  24.288  1.00  0.00     0.115 C 
ATOM     66  C   UNL A   1      33.814  19.850  25.535  1.00  0.00     0.133 C 
ATOM     67  C   UNL A   1      32.577  20.433  23.621  1.00  0.00     0.223 C 
ATOM     68  N   UNL A   1      33.031  19.383  24.398  1.00  0.00    -0.333 N 
ATOM     69  O   UNL A   1      31.936  20.351  22.594  1.00  0.00    -0.275 OA
BRANCH  68  70
ATOM     70  C   UNL A   1      32.687  17.988  24.099  1.00  0.00     0.234 C 
BRANCH  70  71
ATOM     71  C   UNL A   1      33.776  17.056  23.586  1.00  0.00     0.406 C 
ATOM     72  F   UNL A   1      33.446  15.760  23.777  1.00  0.00    -0.169 F 
ATOM     73  F   UNL A   1      33.960  17.227  22.256  1.00  0.00    -0.169 F 
ATOM     74  F   UNL A   1      34.962  17.267  24.191  1.00  0.00    -0.169 F 
ENDBRANCH  70  71
ENDBRANCH  68  70
ENDBRANCH  61  64
ENDBRANCH  59  60
BRANCH  59  75
ATOM     75  C   UNL A   1      36.101  23.182  24.137  1.00  0.00     0.193 C 
BRANCH  75  76
ATOM     76  O   UNL A   1      37.325  23.579  23.528  1.00  0.00    -0.394 OA
ATOM     77  H   UNL A   1      37.149  23.914  22.635  1.00  0.00     0.210 HD
ENDBRANCH  75  76
ENDBRANCH  59  75
ENDBRANCH  57  59
ENDBRANCH  56  57
ENDBRANCH   1  56
TORSDOF 17
ENDMDL
