MODEL 1
REMARK VINA RESULT:      -9.9      0.000      0.000
REMARK SMILES CCc1ccc2[nH]c(C(=O)c3cc(C)ccn3)c(CC(=O)OCCOC(=O)c3ccc(-c4c5nc(c(-c6ccccc6)c6ccc([nH]6)c(-c6ccccc6)c6nc(c(-c7ccccc7)c7ccc4[nH]7)C=C6)C=C5)cc3)c2c1
REMARK SMILES IDX 23 1 22 2 20 3 21 4 19 5 18 6 3 7 4 8 77 9 5 10 76 11 6 12
REMARK SMILES IDX 7 13 8 14 2 16 1 17 9 18 10 19 11 20 12 21 17 22 13 23 16 24
REMARK SMILES IDX 14 25 15 26 24 27 25 28 26 29 27 30 28 31 29 32 75 33 30 34
REMARK SMILES IDX 74 35 31 36 32 37 33 38 68 39 34 40 73 41 67 42 69 43 35 44
REMARK SMILES IDX 72 45 66 46 65 47 36 49 58 50 43 51 57 52 44 53 47 54 56 55
REMARK SMILES IDX 70 56 45 57 46 58 55 60 71 61 48 62 37 63 38 64 42 65 39 66
REMARK SMILES IDX 41 67 40 68 59 69 60 70 64 71 61 72 63 73 62 74 49 75 50 76
REMARK SMILES IDX 54 77 51 78 53 79 52 80
REMARK H PARENT 7 15 69 48 47 59
REMARK Flexibility Score: inf
ROOT
ATOM      1  C   UNL A   1      35.394  33.966  34.732  1.00  0.00     0.274 C 
ENDROOT
BRANCH   1   2
ATOM      2  O   UNL A   1      35.522  35.228  34.044  1.00  0.00    -0.462 OA
BRANCH   2   3
ATOM      3  C   UNL A   1      34.941  35.291  32.816  1.00  0.00     0.310 C 
ATOM      4  O   UNL A   1      34.348  36.279  32.383  1.00  0.00    -0.252 OA
BRANCH   3   5
ATOM      5  C   UNL A   1      35.117  34.052  31.964  1.00  0.00     0.161 C 
BRANCH   5   6
ATOM      6  C   UNL A   1      36.065  34.160  30.808  1.00  0.00     0.000 A 
ATOM      7  C   UNL A   1      39.747  34.392  31.838  1.00  0.00    -0.048 A 
ATOM      8  C   UNL A   1      40.244  34.414  30.530  1.00  0.00     0.006 A 
ATOM      9  C   UNL A   1      38.355  34.409  32.036  1.00  0.00     0.014 A 
ATOM     10  C   UNL A   1      39.394  34.409  29.417  1.00  0.00     0.027 A 
ATOM     11  C   UNL A   1      37.479  34.335  30.934  1.00  0.00     0.004 A 
ATOM     12  C   UNL A   1      38.018  34.342  29.655  1.00  0.00     0.046 A 
ATOM     13  N   UNL A   1      36.964  34.254  28.778  1.00  0.00    -0.352 N 
ATOM     14  C   UNL A   1      35.810  33.916  29.457  1.00  0.00     0.093 A 
ATOM     15  H   UNL A   1      37.023  34.409  27.808  1.00  0.00     0.167 HD
BRANCH   7  16
ATOM     16  C   UNL A   1      40.625  34.349  33.069  1.00  0.00     0.032 C 
ATOM     17  C   UNL A   1      39.945  34.665  34.394  1.00  0.00     0.009 C 
ENDBRANCH   7  16
BRANCH  14  18
ATOM     18  C   UNL A   1      34.634  33.330  28.833  1.00  0.00     0.227 C 
ATOM     19  O   UNL A   1      33.529  33.865  28.842  1.00  0.00    -0.285 OA
BRANCH  18  20
ATOM     20  C   UNL A   1      34.717  31.950  28.302  1.00  0.00     0.113 A 
ATOM     21  C   UNL A   1      35.860  31.197  28.547  1.00  0.00     0.036 A 
ATOM     22  N   UNL A   1      33.651  31.508  27.597  1.00  0.00    -0.253 NA
ATOM     23  C   UNL A   1      35.911  29.895  28.044  1.00  0.00    -0.047 A 
ATOM     24  C   UNL A   1      33.697  30.227  27.181  1.00  0.00     0.112 A 
ATOM     25  C   UNL A   1      37.128  29.040  28.220  1.00  0.00     0.044 C 
ATOM     26  C   UNL A   1      34.792  29.396  27.371  1.00  0.00     0.023 A 
ENDBRANCH  18  20
ENDBRANCH  14  18
ENDBRANCH   5   6
ENDBRANCH   3   5
ENDBRANCH   2   3
ENDBRANCH   1   2
BRANCH   1  27
ATOM     27  C   UNL A   1      36.768  33.345  34.963  1.00  0.00     0.275 C 
BRANCH  27  28
ATOM     28  O   UNL A   1      36.840  32.078  34.287  1.00  0.00    -0.458 OA
BRANCH  28  29
ATOM     29  C   UNL A   1      37.781  31.225  34.750  1.00  0.00     0.338 C 
ATOM     30  O   UNL A   1      37.917  30.841  35.905  1.00  0.00    -0.246 OA
BRANCH  29  31
ATOM     31  C   UNL A   1      38.705  30.845  33.664  1.00  0.00     0.060 A 
ATOM     32  C   UNL A   1      40.010  30.425  33.928  1.00  0.00     0.016 A 
ATOM     33  C   UNL A   1      38.273  30.986  32.345  1.00  0.00     0.016 A 
ATOM     34  C   UNL A   1      40.904  30.226  32.876  1.00  0.00     0.010 A 
ATOM     35  C   UNL A   1      39.139  30.682  31.293  1.00  0.00     0.010 A 
ATOM     36  C   UNL A   1      40.471  30.317  31.546  1.00  0.00    -0.014 A 
BRANCH  36  37
ATOM     37  C   UNL A   1      41.384  29.989  30.417  1.00  0.00     0.031 A 
ATOM     38  C   UNL A   1      41.256  28.688  29.673  1.00  0.00     0.074 A 
ATOM     39  C   UNL A   1      42.371  30.847  30.092  1.00  0.00     0.049 A 
ATOM     40  N   UNL A   1      42.083  28.147  28.812  1.00  0.00    -0.248 NA
ATOM     41  C   UNL A   1      40.053  27.883  29.937  1.00  0.00     0.031 C 
ATOM     42  C   UNL A   1      42.601  32.156  30.710  1.00  0.00     0.029 A 
ATOM     43  N   UNL A   1      43.375  30.742  29.161  1.00  0.00    -0.354 N 
ATOM     44  C   UNL A   1      41.527  26.920  28.469  1.00  0.00     0.074 A 
ATOM     45  C   UNL A   1      40.291  26.796  29.215  1.00  0.00     0.031 C 
ATOM     46  C   UNL A   1      43.655  32.741  30.124  1.00  0.00     0.029 A 
ATOM     47  C   UNL A   1      44.228  31.818  29.154  1.00  0.00     0.049 A 
ATOM     48  H   UNL A   1      43.474  29.970  28.557  1.00  0.00     0.167 HD
ATOM     49  C   UNL A   1      42.005  25.984  27.615  1.00  0.00     0.031 A 
ATOM     50  C   UNL A   1      45.374  32.028  28.482  1.00  0.00     0.031 A 
ATOM     51  C   UNL A   1      43.215  26.123  26.846  1.00  0.00     0.049 A 
ATOM     52  C   UNL A   1      45.903  30.960  27.575  1.00  0.00     0.074 A 
ATOM     53  C   UNL A   1      43.763  25.236  25.932  1.00  0.00     0.029 A 
ATOM     54  N   UNL A   1      44.060  27.219  26.892  1.00  0.00    -0.354 N 
ATOM     55  N   UNL A   1      45.386  29.791  27.290  1.00  0.00    -0.248 NA
ATOM     56  C   UNL A   1      47.185  31.234  26.911  1.00  0.00     0.031 C 
ATOM     57  C   UNL A   1      44.959  25.782  25.453  1.00  0.00     0.029 A 
ATOM     58  C   UNL A   1      45.134  27.025  26.038  1.00  0.00     0.049 A 
ATOM     59  H   UNL A   1      43.918  28.019  27.449  1.00  0.00     0.167 HD
ATOM     60  C   UNL A   1      46.274  29.191  26.410  1.00  0.00     0.074 A 
ATOM     61  C   UNL A   1      47.353  30.133  26.191  1.00  0.00     0.031 C 
ATOM     62  C   UNL A   1      46.205  27.965  25.840  1.00  0.00     0.031 A 
BRANCH  49  63
ATOM     63  C   UNL A   1      41.235  24.701  27.482  1.00  0.00    -0.014 A 
ATOM     64  C   UNL A   1      40.078  24.620  26.694  1.00  0.00     0.009 A 
ATOM     65  C   UNL A   1      41.720  23.538  28.103  1.00  0.00     0.009 A 
ATOM     66  C   UNL A   1      39.409  23.402  26.548  1.00  0.00     0.001 A 
ATOM     67  C   UNL A   1      41.061  22.318  27.936  1.00  0.00     0.001 A 
ATOM     68  C   UNL A   1      39.904  22.252  27.163  1.00  0.00     0.000 A 
ENDBRANCH  49  63
BRANCH  50  69
ATOM     69  C   UNL A   1      46.127  33.290  28.692  1.00  0.00    -0.014 A 
ATOM     70  C   UNL A   1      47.075  33.391  29.720  1.00  0.00     0.009 A 
ATOM     71  C   UNL A   1      45.915  34.392  27.847  1.00  0.00     0.009 A 
ATOM     72  C   UNL A   1      47.788  34.578  29.904  1.00  0.00     0.001 A 
ATOM     73  C   UNL A   1      46.650  35.565  28.017  1.00  0.00     0.001 A 
ATOM     74  C   UNL A   1      47.580  35.660  29.050  1.00  0.00     0.000 A 
ENDBRANCH  50  69
BRANCH  62  75
ATOM     75  C   UNL A   1      47.320  27.587  24.910  1.00  0.00    -0.014 A 
ATOM     76  C   UNL A   1      48.453  26.908  25.383  1.00  0.00     0.009 A 
ATOM     77  C   UNL A   1      47.230  27.904  23.546  1.00  0.00     0.009 A 
ATOM     78  C   UNL A   1      49.491  26.579  24.509  1.00  0.00     0.001 A 
ATOM     79  C   UNL A   1      48.260  27.556  22.672  1.00  0.00     0.001 A 
ATOM     80  C   UNL A   1      49.392  26.901  23.154  1.00  0.00     0.000 A 
ENDBRANCH  62  75
ENDBRANCH  36  37
ENDBRANCH  29  31
ENDBRANCH  28  29
ENDBRANCH  27  28
ENDBRANCH   1  27
TORSDOF 15
ENDMDL
MODEL 2
REMARK VINA RESULT:      -9.8      5.026     10.521
REMARK SMILES CCc1ccc2[nH]c(C(=O)c3cc(C)ccn3)c(CC(=O)OCCOC(=O)c3ccc(-c4c5nc(c(-c6ccccc6)c6ccc([nH]6)c(-c6ccccc6)c6nc(c(-c7ccccc7)c7ccc4[nH]7)C=C6)C=C5)cc3)c2c1
REMARK SMILES IDX 23 1 22 2 20 3 21 4 19 5 18 6 3 7 4 8 77 9 5 10 76 11 6 12
REMARK SMILES IDX 7 13 8 14 2 16 1 17 9 18 10 19 11 20 12 21 17 22 13 23 16 24
REMARK SMILES IDX 14 25 15 26 24 27 25 28 26 29 27 30 28 31 29 32 75 33 30 34
REMARK SMILES IDX 74 35 31 36 32 37 33 38 68 39 34 40 73 41 67 42 69 43 35 44
REMARK SMILES IDX 72 45 66 46 65 47 36 49 58 50 43 51 57 52 44 53 47 54 56 55
REMARK SMILES IDX 70 56 45 57 46 58 55 60 71 61 48 62 37 63 38 64 42 65 39 66
REMARK SMILES IDX 41 67 40 68 59 69 60 70 64 71 61 72 63 73 62 74 49 75 50 76
REMARK SMILES IDX 54 77 51 78 53 79 52 80
REMARK H PARENT 7 15 69 48 47 59
REMARK Flexibility Score: inf
ROOT
ATOM      1  C   UNL A   1      35.641  23.839  24.848  1.00  0.00     0.274 C 
ENDROOT
BRANCH   1   2
ATOM      2  O   UNL A   1      34.942  24.854  25.600  1.00  0.00    -0.462 OA
BRANCH   2   3
ATOM      3  C   UNL A   1      34.032  25.584  24.901  1.00  0.00     0.310 C 
ATOM      4  O   UNL A   1      33.959  25.601  23.673  1.00  0.00    -0.252 OA
BRANCH   3   5
ATOM      5  C   UNL A   1      33.048  26.358  25.752  1.00  0.00     0.161 C 
BRANCH   5   6
ATOM      6  C   UNL A   1      31.593  26.091  25.509  1.00  0.00     0.000 A 
ATOM      7  C   UNL A   1      29.959  28.536  23.054  1.00  0.00    -0.048 A 
ATOM      8  C   UNL A   1      28.703  27.918  23.076  1.00  0.00     0.006 A 
ATOM      9  C   UNL A   1      30.965  28.058  23.912  1.00  0.00     0.014 A 
ATOM     10  C   UNL A   1      28.438  26.813  23.896  1.00  0.00     0.027 A 
ATOM     11  C   UNL A   1      30.746  26.908  24.695  1.00  0.00     0.004 A 
ATOM     12  C   UNL A   1      29.489  26.317  24.672  1.00  0.00     0.046 A 
ATOM     13  N   UNL A   1      29.548  25.225  25.504  1.00  0.00    -0.352 N 
ATOM     14  C   UNL A   1      30.859  24.948  25.832  1.00  0.00     0.093 A 
ATOM     15  H   UNL A   1      28.767  24.715  25.820  1.00  0.00     0.167 HD
BRANCH   7  16
ATOM     16  C   UNL A   1      30.305  29.699  22.152  1.00  0.00     0.032 C 
ATOM     17  C   UNL A   1      29.130  30.491  21.591  1.00  0.00     0.009 C 
ENDBRANCH   7  16
BRANCH  14  18
ATOM     18  C   UNL A   1      31.328  23.660  26.318  1.00  0.00     0.227 C 
ATOM     19  O   UNL A   1      31.537  23.423  27.505  1.00  0.00    -0.285 OA
BRANCH  18  20
ATOM     20  C   UNL A   1      31.736  22.628  25.337  1.00  0.00     0.113 A 
ATOM     21  C   UNL A   1      32.191  21.398  25.797  1.00  0.00     0.036 A 
ATOM     22  N   UNL A   1      31.636  22.964  24.030  1.00  0.00    -0.253 NA
ATOM     23  C   UNL A   1      32.562  20.438  24.852  1.00  0.00    -0.047 A 
ATOM     24  C   UNL A   1      31.935  21.998  23.140  1.00  0.00     0.112 A 
ATOM     25  C   UNL A   1      33.113  19.108  25.268  1.00  0.00     0.044 C 
ATOM     26  C   UNL A   1      32.403  20.741  23.496  1.00  0.00     0.023 A 
ENDBRANCH  18  20
ENDBRANCH  14  18
ENDBRANCH   5   6
ENDBRANCH   3   5
ENDBRANCH   2   3
ENDBRANCH   1   2
BRANCH   1  27
ATOM     27  C   UNL A   1      36.592  23.065  25.756  1.00  0.00     0.275 C 
BRANCH  27  28
ATOM     28  O   UNL A   1      37.945  23.270  25.317  1.00  0.00    -0.458 OA
BRANCH  28  29
ATOM     29  C   UNL A   1      38.900  23.004  26.237  1.00  0.00     0.338 C 
ATOM     30  O   UNL A   1      39.335  21.901  26.544  1.00  0.00    -0.246 OA
BRANCH  29  31
ATOM     31  C   UNL A   1      39.330  24.249  26.901  1.00  0.00     0.060 A 
ATOM     32  C   UNL A   1      39.041  24.499  28.245  1.00  0.00     0.016 A 
ATOM     33  C   UNL A   1      39.972  25.223  26.136  1.00  0.00     0.016 A 
ATOM     34  C   UNL A   1      39.321  25.749  28.798  1.00  0.00     0.010 A 
ATOM     35  C   UNL A   1      40.348  26.434  26.722  1.00  0.00     0.010 A 
ATOM     36  C   UNL A   1      40.010  26.718  28.055  1.00  0.00    -0.014 A 
BRANCH  36  37
ATOM     37  C   UNL A   1      40.420  28.009  28.672  1.00  0.00     0.031 A 
ATOM     38  C   UNL A   1      41.804  28.191  29.234  1.00  0.00     0.074 A 
ATOM     39  C   UNL A   1      39.524  29.010  28.774  1.00  0.00     0.049 A 
ATOM     40  N   UNL A   1      42.266  29.160  29.985  1.00  0.00    -0.248 NA
ATOM     41  C   UNL A   1      42.793  27.146  28.925  1.00  0.00     0.031 C 
ATOM     42  C   UNL A   1      38.154  28.985  28.253  1.00  0.00     0.029 A 
ATOM     43  N   UNL A   1      39.629  30.246  29.362  1.00  0.00    -0.354 N 
ATOM     44  C   UNL A   1      43.581  28.819  30.279  1.00  0.00     0.074 A 
ATOM     45  C   UNL A   1      43.844  27.553  29.624  1.00  0.00     0.031 C 
ATOM     46  C   UNL A   1      37.560  30.156  28.518  1.00  0.00     0.029 A 
ATOM     47  C   UNL A   1      38.470  30.980  29.301  1.00  0.00     0.049 A 
ATOM     48  H   UNL A   1      40.455  30.575  29.786  1.00  0.00     0.167 HD
ATOM     49  C   UNL A   1      44.483  29.497  31.028  1.00  0.00     0.031 A 
ATOM     50  C   UNL A   1      38.148  32.164  29.852  1.00  0.00     0.031 A 
ATOM     51  C   UNL A   1      44.235  30.772  31.650  1.00  0.00     0.049 A 
ATOM     52  C   UNL A   1      39.150  32.874  30.711  1.00  0.00     0.074 A 
ATOM     53  C   UNL A   1      45.101  31.548  32.404  1.00  0.00     0.029 A 
ATOM     54  N   UNL A   1      43.037  31.464  31.582  1.00  0.00    -0.354 N 
ATOM     55  N   UNL A   1      40.375  32.521  31.009  1.00  0.00    -0.248 NA
ATOM     56  C   UNL A   1      38.716  34.137  31.323  1.00  0.00     0.031 C 
ATOM     57  C   UNL A   1      44.414  32.692  32.823  1.00  0.00     0.029 A 
ATOM     58  C   UNL A   1      43.134  32.649  32.296  1.00  0.00     0.049 A 
ATOM     59  H   UNL A   1      42.235  31.161  31.098  1.00  0.00     0.167 HD
ATOM     60  C   UNL A   1      40.863  33.521  31.840  1.00  0.00     0.074 A 
ATOM     61  C   UNL A   1      39.807  34.504  31.980  1.00  0.00     0.031 C 
ATOM     62  C   UNL A   1      42.074  33.610  32.437  1.00  0.00     0.031 A 
BRANCH  49  63
ATOM     63  C   UNL A   1      45.826  28.861  31.249  1.00  0.00    -0.014 A 
ATOM     64  C   UNL A   1      46.058  27.997  32.330  1.00  0.00     0.009 A 
ATOM     65  C   UNL A   1      46.855  29.078  30.318  1.00  0.00     0.009 A 
ATOM     66  C   UNL A   1      47.302  27.380  32.485  1.00  0.00     0.001 A 
ATOM     67  C   UNL A   1      48.090  28.443  30.464  1.00  0.00     0.001 A 
ATOM     68  C   UNL A   1      48.314  27.599  31.550  1.00  0.00     0.000 A 
ENDBRANCH  49  63
BRANCH  50  69
ATOM     69  C   UNL A   1      36.788  32.722  29.650  1.00  0.00    -0.014 A 
ATOM     70  C   UNL A   1      35.789  32.532  30.615  1.00  0.00     0.009 A 
ATOM     71  C   UNL A   1      36.491  33.470  28.498  1.00  0.00     0.009 A 
ATOM     72  C   UNL A   1      34.514  33.069  30.424  1.00  0.00     0.001 A 
ATOM     73  C   UNL A   1      35.225  34.029  28.324  1.00  0.00     0.001 A 
ATOM     74  C   UNL A   1      34.236  33.822  29.283  1.00  0.00     0.000 A 
ENDBRANCH  50  69
BRANCH  62  75
ATOM     75  C   UNL A   1      42.324  34.826  33.280  1.00  0.00    -0.014 A 
ATOM     76  C   UNL A   1      41.866  34.889  34.605  1.00  0.00     0.009 A 
ATOM     77  C   UNL A   1      43.034  35.912  32.747  1.00  0.00     0.009 A 
ATOM     78  C   UNL A   1      42.090  36.034  35.372  1.00  0.00     0.001 A 
ATOM     79  C   UNL A   1      43.274  37.046  33.523  1.00  0.00     0.001 A 
ATOM     80  C   UNL A   1      42.795  37.110  34.831  1.00  0.00     0.000 A 
ENDBRANCH  62  75
ENDBRANCH  36  37
ENDBRANCH  29  31
ENDBRANCH  28  29
ENDBRANCH  27  28
ENDBRANCH   1  27
TORSDOF 15
ENDMDL
MODEL 3
REMARK VINA RESULT:      -9.8      4.885      9.842
REMARK SMILES CCc1ccc2[nH]c(C(=O)c3cc(C)ccn3)c(CC(=O)OCCOC(=O)c3ccc(-c4c5nc(c(-c6ccccc6)c6ccc([nH]6)c(-c6ccccc6)c6nc(c(-c7ccccc7)c7ccc4[nH]7)C=C6)C=C5)cc3)c2c1
REMARK SMILES IDX 23 1 22 2 20 3 21 4 19 5 18 6 3 7 4 8 77 9 5 10 76 11 6 12
REMARK SMILES IDX 7 13 8 14 2 16 1 17 9 18 10 19 11 20 12 21 17 22 13 23 16 24
REMARK SMILES IDX 14 25 15 26 24 27 25 28 26 29 27 30 28 31 29 32 75 33 30 34
REMARK SMILES IDX 74 35 31 36 32 37 33 38 68 39 34 40 73 41 67 42 69 43 35 44
REMARK SMILES IDX 72 45 66 46 65 47 36 49 58 50 43 51 57 52 44 53 47 54 56 55
REMARK SMILES IDX 70 56 45 57 46 58 55 60 71 61 48 62 37 63 38 64 42 65 39 66
REMARK SMILES IDX 41 67 40 68 59 69 60 70 64 71 61 72 63 73 62 74 49 75 50 76
REMARK SMILES IDX 54 77 51 78 53 79 52 80
REMARK H PARENT 7 15 69 48 47 59
REMARK Flexibility Score: inf
ROOT
ATOM      1  C   UNL A   1      35.354  22.574  24.062  1.00  0.00     0.274 C 
ENDROOT
BRANCH   1   2
ATOM      2  O   UNL A   1      34.993  23.563  25.050  1.00  0.00    -0.462 OA
BRANCH   2   3
ATOM      3  C   UNL A   1      34.404  24.690  24.568  1.00  0.00     0.310 C 
ATOM      4  O   UNL A   1      34.464  25.050  23.393  1.00  0.00    -0.252 OA
BRANCH   3   5
ATOM      5  C   UNL A   1      33.601  25.473  25.585  1.00  0.00     0.161 C 
BRANCH   5   6
ATOM      6  C   UNL A   1      32.109  25.369  25.487  1.00  0.00     0.000 A 
ATOM      7  C   UNL A   1      30.511  28.044  23.259  1.00  0.00    -0.048 A 
ATOM      8  C   UNL A   1      29.205  27.562  23.398  1.00  0.00     0.006 A 
ATOM      9  C   UNL A   1      31.541  27.438  24.000  1.00  0.00     0.014 A 
ATOM     10  C   UNL A   1      28.905  26.468  24.220  1.00  0.00     0.027 A 
ATOM     11  C   UNL A   1      31.278  26.294  24.780  1.00  0.00     0.004 A 
ATOM     12  C   UNL A   1      29.969  25.841  24.875  1.00  0.00     0.046 A 
ATOM     13  N   UNL A   1      29.991  24.725  25.676  1.00  0.00    -0.352 N 
ATOM     14  C   UNL A   1      31.291  24.301  25.862  1.00  0.00     0.093 A 
ATOM     15  H   UNL A   1      29.195  24.290  26.060  1.00  0.00     0.167 HD
BRANCH   7  16
ATOM     16  C   UNL A   1      30.889  29.191  22.349  1.00  0.00     0.032 C 
ATOM     17  C   UNL A   1      29.740  30.037  21.816  1.00  0.00     0.009 C 
ENDBRANCH   7  16
BRANCH  14  18
ATOM     18  C   UNL A   1      31.664  22.956  26.273  1.00  0.00     0.227 C 
ATOM     19  O   UNL A   1      31.888  22.646  27.441  1.00  0.00    -0.285 OA
BRANCH  18  20
ATOM     20  C   UNL A   1      31.955  21.943  25.233  1.00  0.00     0.113 A 
ATOM     21  C   UNL A   1      32.401  20.684  25.619  1.00  0.00     0.036 A 
ATOM     22  N   UNL A   1      31.764  22.322  23.949  1.00  0.00    -0.253 NA
ATOM     23  C   UNL A   1      32.659  19.742  24.621  1.00  0.00    -0.047 A 
ATOM     24  C   UNL A   1      31.955  21.375  23.010  1.00  0.00     0.112 A 
ATOM     25  C   UNL A   1      33.193  18.382  24.953  1.00  0.00     0.044 C 
ATOM     26  C   UNL A   1      32.403  20.092  23.291  1.00  0.00     0.023 A 
ENDBRANCH  18  20
ENDBRANCH  14  18
ENDBRANCH   5   6
ENDBRANCH   3   5
ENDBRANCH   2   3
ENDBRANCH   1   2
BRANCH   1  27
ATOM     27  C   UNL A   1      35.957  21.345  24.735  1.00  0.00     0.275 C 
BRANCH  27  28
ATOM     28  O   UNL A   1      36.721  21.754  25.883  1.00  0.00    -0.458 OA
BRANCH  28  29
ATOM     29  C   UNL A   1      38.049  21.514  25.812  1.00  0.00     0.338 C 
ATOM     30  O   UNL A   1      38.588  20.472  25.461  1.00  0.00    -0.246 OA
BRANCH  29  31
ATOM     31  C   UNL A   1      38.806  22.688  26.289  1.00  0.00     0.060 A 
ATOM     32  C   UNL A   1      38.374  23.991  26.032  1.00  0.00     0.016 A 
ATOM     33  C   UNL A   1      40.018  22.474  26.945  1.00  0.00     0.016 A 
ATOM     34  C   UNL A   1      39.192  25.073  26.358  1.00  0.00     0.010 A 
ATOM     35  C   UNL A   1      40.783  23.564  27.367  1.00  0.00     0.010 A 
ATOM     36  C   UNL A   1      40.388  24.876  27.061  1.00  0.00    -0.014 A 
BRANCH  36  37
ATOM     37  C   UNL A   1      41.208  26.030  27.519  1.00  0.00     0.031 A 
ATOM     38  C   UNL A   1      40.650  27.038  28.486  1.00  0.00     0.074 A 
ATOM     39  C   UNL A   1      42.449  26.202  27.021  1.00  0.00     0.049 A 
ATOM     40  N   UNL A   1      41.136  28.205  28.831  1.00  0.00    -0.248 NA
ATOM     41  C   UNL A   1      39.377  26.701  29.142  1.00  0.00     0.031 C 
ATOM     42  C   UNL A   1      43.129  25.293  26.095  1.00  0.00     0.029 A 
ATOM     43  N   UNL A   1      43.359  27.211  27.219  1.00  0.00    -0.354 N 
ATOM     44  C   UNL A   1      40.208  28.762  29.703  1.00  0.00     0.074 A 
ATOM     45  C   UNL A   1      39.129  27.804  29.835  1.00  0.00     0.031 C 
ATOM     46  C   UNL A   1      44.353  25.768  25.829  1.00  0.00     0.029 A 
ATOM     47  C   UNL A   1      44.513  27.055  26.493  1.00  0.00     0.049 A 
ATOM     48  H   UNL A   1      43.199  27.972  27.823  1.00  0.00     0.167 HD
ATOM     49  C   UNL A   1      40.251  29.961  30.331  1.00  0.00     0.031 A 
ATOM     50  C   UNL A   1      45.569  27.873  26.332  1.00  0.00     0.031 A 
ATOM     51  C   UNL A   1      41.340  30.899  30.227  1.00  0.00     0.049 A 
ATOM     52  C   UNL A   1      45.573  29.212  27.004  1.00  0.00     0.074 A 
ATOM     53  C   UNL A   1      41.482  32.128  30.852  1.00  0.00     0.029 A 
ATOM     54  N   UNL A   1      42.476  30.709  29.459  1.00  0.00    -0.354 N 
ATOM     55  N   UNL A   1      44.672  29.739  27.795  1.00  0.00    -0.248 NA
ATOM     56  C   UNL A   1      46.733  30.076  26.746  1.00  0.00     0.031 C 
ATOM     57  C   UNL A   1      42.689  32.697  30.431  1.00  0.00     0.029 A 
ATOM     58  C   UNL A   1      43.316  31.805  29.578  1.00  0.00     0.049 A 
ATOM     59  H   UNL A   1      42.660  29.912  28.910  1.00  0.00     0.167 HD
ATOM     60  C   UNL A   1      45.157  30.994  28.134  1.00  0.00     0.074 A 
ATOM     61  C   UNL A   1      46.442  31.141  27.480  1.00  0.00     0.031 C 
ATOM     62  C   UNL A   1      44.584  31.942  28.912  1.00  0.00     0.031 A 
BRANCH  49  63
ATOM     63  C   UNL A   1      39.068  30.354  31.169  1.00  0.00    -0.014 A 
ATOM     64  C   UNL A   1      37.960  31.008  30.611  1.00  0.00     0.009 A 
ATOM     65  C   UNL A   1      39.036  29.998  32.528  1.00  0.00     0.009 A 
ATOM     66  C   UNL A   1      36.852  31.317  31.404  1.00  0.00     0.001 A 
ATOM     67  C   UNL A   1      37.918  30.289  33.311  1.00  0.00     0.001 A 
ATOM     68  C   UNL A   1      36.829  30.953  32.750  1.00  0.00     0.000 A 
ENDBRANCH  49  63
BRANCH  50  69
ATOM     69  C   UNL A   1      46.687  27.462  25.447  1.00  0.00    -0.014 A 
ATOM     70  C   UNL A   1      46.744  27.908  24.118  1.00  0.00     0.009 A 
ATOM     71  C   UNL A   1      47.716  26.641  25.936  1.00  0.00     0.009 A 
ATOM     72  C   UNL A   1      47.806  27.527  23.293  1.00  0.00     0.001 A 
ATOM     73  C   UNL A   1      48.788  26.286  25.118  1.00  0.00     0.001 A 
ATOM     74  C   UNL A   1      48.829  26.723  23.796  1.00  0.00     0.000 A 
ENDBRANCH  50  69
BRANCH  62  75
ATOM     75  C   UNL A   1      45.358  33.212  29.111  1.00  0.00    -0.014 A 
ATOM     76  C   UNL A   1      46.274  33.339  30.167  1.00  0.00     0.009 A 
ATOM     77  C   UNL A   1      45.177  34.286  28.227  1.00  0.00     0.009 A 
ATOM     78  C   UNL A   1      46.973  34.533  30.350  1.00  0.00     0.001 A 
ATOM     79  C   UNL A   1      45.894  35.470  28.401  1.00  0.00     0.001 A 
ATOM     80  C   UNL A   1      46.784  35.596  29.466  1.00  0.00     0.000 A 
ENDBRANCH  62  75
ENDBRANCH  36  37
ENDBRANCH  29  31
ENDBRANCH  28  29
ENDBRANCH  27  28
ENDBRANCH   1  27
TORSDOF 15
ENDMDL
