MODEL 1
REMARK VINA RESULT:     -11.1      0.000      0.000
REMARK SMILES CC(C)[C@H](NC(=O)[C@H](C)NC(=O)CNC(=O)OCc1ccccc1)C(=O)OCCOC(=O)c1ccc(-c2c3nc(c(-c4ccccc4)c4ccc([nH]4)c(-c4ccccc4)c4nc(c(-c5ccccc5)c5ccc2[nH]5)C=C4)C=C3)cc1
REMARK SMILES IDX 4 1 2 2 1 3 3 4 25 5 26 6 27 7 28 8 29 9 30 10 31 11 32 12
REMARK SMILES IDX 33 13 34 14 80 15 35 16 79 17 36 18 37 19 38 20 73 21 39 22
REMARK SMILES IDX 78 23 72 24 74 25 40 26 77 27 71 28 70 29 41 31 63 32 48 33
REMARK SMILES IDX 62 34 49 35 52 36 61 37 75 38 50 39 51 40 60 42 76 43 53 44
REMARK SMILES IDX 42 45 43 46 47 47 44 48 46 49 45 50 64 51 65 52 69 53 66 54
REMARK SMILES IDX 68 55 67 56 54 57 55 58 59 59 56 60 58 61 57 62 5 63 6 64
REMARK SMILES IDX 7 66 8 67 9 68 10 69 11 70 12 72 13 73 14 74 15 75 16 77
REMARK SMILES IDX 17 78 18 79 19 80 20 81 24 82 21 83 23 84 22 85
REMARK H PARENT 74 30 52 41 5 65 10 71 14 76
REMARK Flexibility Score: inf
ROOT
ATOM      1  C   UNL A   1      34.440  21.622  24.447  1.00  0.00     0.194 C 
ENDROOT
BRANCH   1   2
ATOM      2  C   UNL A   1      34.573  22.976  23.687  1.00  0.00     0.017 C 
ATOM      3  C   UNL A   1      35.983  23.175  23.148  1.00  0.00     0.010 C 
ATOM      4  C   UNL A   1      33.593  23.088  22.487  1.00  0.00     0.010 C 
ENDBRANCH   1   2
BRANCH   1   5
ATOM      5  C   UNL A   1      35.794  21.247  25.345  1.00  0.00     0.329 C 
ATOM      6  O   UNL A   1      36.200  21.956  26.261  1.00  0.00    -0.250 OA
BRANCH   5   7
ATOM      7  O   UNL A   1      36.467  20.124  24.949  1.00  0.00    -0.461 OA
BRANCH   7   8
ATOM      8  C   UNL A   1      37.936  20.001  24.686  1.00  0.00     0.274 C 
BRANCH   8   9
ATOM      9  C   UNL A   1      38.898  19.278  25.900  1.00  0.00     0.275 C 
BRANCH   9  10
ATOM     10  O   UNL A   1      40.378  18.883  25.554  1.00  0.00    -0.458 OA
BRANCH  10  11
ATOM     11  C   UNL A   1      41.674  19.220  25.924  1.00  0.00     0.338 C 
ATOM     12  O   UNL A   1      42.651  18.530  25.683  1.00  0.00    -0.246 OA
BRANCH  11  13
ATOM     13  C   UNL A   1      41.796  20.706  26.453  1.00  0.00     0.060 A 
ATOM     14  C   UNL A   1      41.482  21.061  27.788  1.00  0.00     0.016 A 
ATOM     15  C   UNL A   1      42.308  21.754  25.679  1.00  0.00     0.016 A 
ATOM     16  C   UNL A   1      41.833  22.322  28.371  1.00  0.00     0.010 A 
ATOM     17  C   UNL A   1      42.617  23.038  26.246  1.00  0.00     0.010 A 
ATOM     18  C   UNL A   1      42.415  23.343  27.611  1.00  0.00    -0.014 A 
BRANCH  18  19
ATOM     19  C   UNL A   1      42.551  24.767  28.145  1.00  0.00     0.031 A 
ATOM     20  C   UNL A   1      43.925  25.208  28.621  1.00  0.00     0.074 A 
ATOM     21  C   UNL A   1      41.563  25.693  28.235  1.00  0.00     0.049 A 
ATOM     22  N   UNL A   1      44.312  26.330  29.185  1.00  0.00    -0.248 NA
ATOM     23  C   UNL A   1      45.008  24.234  28.428  1.00  0.00     0.031 C 
ATOM     24  C   UNL A   1      40.185  25.534  27.779  1.00  0.00     0.029 A 
ATOM     25  N   UNL A   1      41.577  26.982  28.762  1.00  0.00    -0.354 N 
ATOM     26  C   UNL A   1      45.675  26.187  29.426  1.00  0.00     0.074 A 
ATOM     27  C   UNL A   1      46.038  24.862  28.969  1.00  0.00     0.031 C 
ATOM     28  C   UNL A   1      39.490  26.660  28.054  1.00  0.00     0.029 A 
ATOM     29  C   UNL A   1      40.356  27.628  28.737  1.00  0.00     0.049 A 
ATOM     30  H   UNL A   1      42.392  27.400  29.122  1.00  0.00     0.167 HD
ATOM     31  C   UNL A   1      46.561  27.058  29.970  1.00  0.00     0.031 A 
ATOM     32  C   UNL A   1      39.962  28.836  29.216  1.00  0.00     0.031 A 
ATOM     33  C   UNL A   1      46.252  28.375  30.458  1.00  0.00     0.049 A 
ATOM     34  C   UNL A   1      40.944  29.755  29.922  1.00  0.00     0.074 A 
ATOM     35  C   UNL A   1      47.110  29.306  31.021  1.00  0.00     0.029 A 
ATOM     36  N   UNL A   1      44.992  28.946  30.458  1.00  0.00    -0.354 N 
ATOM     37  N   UNL A   1      42.231  29.604  30.117  1.00  0.00    -0.248 NA
ATOM     38  C   UNL A   1      40.414  31.020  30.471  1.00  0.00     0.031 C 
ATOM     39  C   UNL A   1      46.358  30.416  31.422  1.00  0.00     0.029 A 
ATOM     40  C   UNL A   1      45.045  30.204  31.038  1.00  0.00     0.049 A 
ATOM     41  H   UNL A   1      44.179  28.523  30.098  1.00  0.00     0.167 HD
ATOM     42  C   UNL A   1      42.662  30.759  30.770  1.00  0.00     0.074 A 
ATOM     43  C   UNL A   1      41.508  31.613  30.929  1.00  0.00     0.031 C 
ATOM     44  C   UNL A   1      43.910  31.076  31.196  1.00  0.00     0.031 A 
BRANCH  31  45
ATOM     45  C   UNL A   1      47.983  26.580  30.113  1.00  0.00    -0.014 A 
ATOM     46  C   UNL A   1      48.933  26.799  29.102  1.00  0.00     0.009 A 
ATOM     47  C   UNL A   1      48.378  25.917  31.286  1.00  0.00     0.009 A 
ATOM     48  C   UNL A   1      50.237  26.322  29.244  1.00  0.00     0.001 A 
ATOM     49  C   UNL A   1      49.691  25.473  31.440  1.00  0.00     0.001 A 
ATOM     50  C   UNL A   1      50.616  25.664  30.414  1.00  0.00     0.000 A 
ENDBRANCH  31  45
BRANCH  32  51
ATOM     51  C   UNL A   1      38.535  29.287  29.100  1.00  0.00    -0.014 A 
ATOM     52  C   UNL A   1      38.087  29.998  27.971  1.00  0.00     0.009 A 
ATOM     53  C   UNL A   1      37.639  29.100  30.165  1.00  0.00     0.009 A 
ATOM     54  C   UNL A   1      36.791  30.529  27.925  1.00  0.00     0.001 A 
ATOM     55  C   UNL A   1      36.335  29.603  30.103  1.00  0.00     0.001 A 
ATOM     56  C   UNL A   1      35.914  30.326  28.988  1.00  0.00     0.000 A 
ENDBRANCH  32  51
BRANCH  44  57
ATOM     57  C   UNL A   1      44.132  32.426  31.831  1.00  0.00    -0.014 A 
ATOM     58  C   UNL A   1      44.180  32.591  33.224  1.00  0.00     0.009 A 
ATOM     59  C   UNL A   1      44.366  33.546  31.014  1.00  0.00     0.009 A 
ATOM     60  C   UNL A   1      44.426  33.850  33.783  1.00  0.00     0.001 A 
ATOM     61  C   UNL A   1      44.643  34.796  31.575  1.00  0.00     0.001 A 
ATOM     62  C   UNL A   1      44.663  34.949  32.958  1.00  0.00     0.000 A 
ENDBRANCH  44  57
ENDBRANCH  18  19
ENDBRANCH  11  13
ENDBRANCH  10  11
ENDBRANCH   9  10
ENDBRANCH   8   9
ENDBRANCH   7   8
ENDBRANCH   5   7
ENDBRANCH   1   5
BRANCH   1  63
ATOM     63  N   UNL A   1      32.993  21.580  24.897  1.00  0.00    -0.341 N 
ATOM     64  C   UNL A   1      32.269  22.185  25.867  1.00  0.00     0.242 C 
ATOM     65  H   UNL A   1      32.450  20.966  24.352  1.00  0.00     0.164 HD
ATOM     66  O   UNL A   1      31.059  22.008  25.947  1.00  0.00    -0.273 OA
BRANCH  64  67
ATOM     67  C   UNL A   1      33.011  23.166  26.701  1.00  0.00     0.168 C 
ATOM     68  C   UNL A   1      33.318  22.200  27.945  1.00  0.00     0.041 C 
BRANCH  67  69
ATOM     69  N   UNL A   1      31.967  24.485  26.526  1.00  0.00    -0.343 N 
ATOM     70  C   UNL A   1      31.127  25.361  25.847  1.00  0.00     0.240 C 
ATOM     71  H   UNL A   1      31.935  24.841  27.443  1.00  0.00     0.164 HD
ATOM     72  O   UNL A   1      30.625  26.162  26.669  1.00  0.00    -0.273 OA
BRANCH  70  73
ATOM     73  C   UNL A   1      30.478  25.498  24.290  1.00  0.00     0.219 C 
BRANCH  73  74
ATOM     74  N   UNL A   1      31.050  25.439  22.920  1.00  0.00    -0.312 N 
ATOM     75  C   UNL A   1      31.504  26.385  22.013  1.00  0.00     0.407 C 
ATOM     76  H   UNL A   1      31.122  24.518  22.578  1.00  0.00     0.167 HD
ATOM     77  O   UNL A   1      31.843  26.005  20.910  1.00  0.00    -0.225 OA
BRANCH  75  78
ATOM     78  O   UNL A   1      31.393  27.690  22.392  1.00  0.00    -0.445 OA
BRANCH  78  79
ATOM     79  C   UNL A   1      32.549  28.386  22.964  1.00  0.00     0.270 C 
BRANCH  79  80
ATOM     80  C   UNL A   1      32.706  28.529  24.459  1.00  0.00    -0.011 A 
ATOM     81  C   UNL A   1      33.757  27.880  25.115  1.00  0.00     0.007 A 
ATOM     82  C   UNL A   1      31.778  29.258  25.226  1.00  0.00     0.007 A 
ATOM     83  C   UNL A   1      33.911  28.000  26.497  1.00  0.00     0.000 A 
ATOM     84  C   UNL A   1      31.940  29.386  26.607  1.00  0.00     0.000 A 
ATOM     85  C   UNL A   1      33.014  28.766  27.241  1.00  0.00     0.000 A 
ENDBRANCH  79  80
ENDBRANCH  78  79
ENDBRANCH  75  78
ENDBRANCH  73  74
ENDBRANCH  70  73
ENDBRANCH  67  69
ENDBRANCH  64  67
ENDBRANCH   1  63
TORSDOF 20
ENDMDL
MODEL 2
REMARK VINA RESULT:     -10.9      2.590      5.376
REMARK SMILES CC(C)[C@H](NC(=O)[C@H](C)NC(=O)CNC(=O)OCc1ccccc1)C(=O)OCCOC(=O)c1ccc(-c2c3nc(c(-c4ccccc4)c4ccc([nH]4)c(-c4ccccc4)c4nc(c(-c5ccccc5)c5ccc2[nH]5)C=C4)C=C3)cc1
REMARK SMILES IDX 4 1 2 2 1 3 3 4 25 5 26 6 27 7 28 8 29 9 30 10 31 11 32 12
REMARK SMILES IDX 33 13 34 14 80 15 35 16 79 17 36 18 37 19 38 20 73 21 39 22
REMARK SMILES IDX 78 23 72 24 74 25 40 26 77 27 71 28 70 29 41 31 63 32 48 33
REMARK SMILES IDX 62 34 49 35 52 36 61 37 75 38 50 39 51 40 60 42 76 43 53 44
REMARK SMILES IDX 42 45 43 46 47 47 44 48 46 49 45 50 64 51 65 52 69 53 66 54
REMARK SMILES IDX 68 55 67 56 54 57 55 58 59 59 56 60 58 61 57 62 5 63 6 64
REMARK SMILES IDX 7 66 8 67 9 68 10 69 11 70 12 72 13 73 14 74 15 75 16 77
REMARK SMILES IDX 17 78 18 79 19 80 20 81 24 82 21 83 23 84 22 85
REMARK H PARENT 74 30 52 41 5 65 10 71 14 76
REMARK Flexibility Score: inf
ROOT
ATOM      1  C   UNL A   1      33.083  26.732  24.056  1.00  0.00     0.194 C 
ENDROOT
BRANCH   1   2
ATOM      2  C   UNL A   1      33.749  28.096  23.705  1.00  0.00     0.017 C 
ATOM      3  C   UNL A   1      34.027  28.212  22.212  1.00  0.00     0.010 C 
ATOM      4  C   UNL A   1      32.873  29.313  24.113  1.00  0.00     0.010 C 
ENDBRANCH   1   2
BRANCH   1   5
ATOM      5  C   UNL A   1      34.089  25.431  23.785  1.00  0.00     0.329 C 
ATOM      6  O   UNL A   1      34.041  24.756  22.761  1.00  0.00    -0.250 OA
BRANCH   5   7
ATOM      7  O   UNL A   1      34.935  25.120  24.815  1.00  0.00    -0.461 OA
BRANCH   7   8
ATOM      8  C   UNL A   1      35.457  23.762  25.172  1.00  0.00     0.274 C 
BRANCH   8   9
ATOM      9  C   UNL A   1      36.983  23.313  24.546  1.00  0.00     0.275 C 
BRANCH   9  10
ATOM     10  O   UNL A   1      37.950  22.468  25.451  1.00  0.00    -0.458 OA
BRANCH  10  11
ATOM     11  C   UNL A   1      39.179  22.594  26.086  1.00  0.00     0.338 C 
ATOM     12  O   UNL A   1      40.082  21.780  25.987  1.00  0.00    -0.246 OA
BRANCH  11  13
ATOM     13  C   UNL A   1      39.392  24.021  26.737  1.00  0.00     0.060 A 
ATOM     14  C   UNL A   1      38.912  24.341  28.030  1.00  0.00     0.016 A 
ATOM     15  C   UNL A   1      40.146  25.034  26.130  1.00  0.00     0.016 A 
ATOM     16  C   UNL A   1      39.313  25.513  28.751  1.00  0.00     0.010 A 
ATOM     17  C   UNL A   1      40.512  26.233  26.832  1.00  0.00     0.010 A 
ATOM     18  C   UNL A   1      40.130  26.488  28.168  1.00  0.00    -0.014 A 
BRANCH  18  19
ATOM     19  C   UNL A   1      40.348  27.851  28.821  1.00  0.00     0.031 A 
ATOM     20  C   UNL A   1      41.696  28.106  29.475  1.00  0.00     0.074 A 
ATOM     21  C   UNL A   1      39.457  28.873  28.872  1.00  0.00     0.049 A 
ATOM     22  N   UNL A   1      42.128  29.140  30.162  1.00  0.00    -0.248 NA
ATOM     23  C   UNL A   1      42.688  27.032  29.327  1.00  0.00     0.031 C 
ATOM     24  C   UNL A   1      38.132  28.898  28.259  1.00  0.00     0.029 A 
ATOM     25  N   UNL A   1      39.542  30.117  29.494  1.00  0.00    -0.354 N 
ATOM     26  C   UNL A   1      43.431  28.831  30.537  1.00  0.00     0.074 A 
ATOM     27  C   UNL A   1      43.708  27.506  30.024  1.00  0.00     0.031 C 
ATOM     28  C   UNL A   1      37.530  30.074  28.542  1.00  0.00     0.029 A 
ATOM     29  C   UNL A   1      38.405  30.894  29.386  1.00  0.00     0.049 A 
ATOM     30  H   UNL A   1      40.349  30.417  29.972  1.00  0.00     0.167 HD
ATOM     31  C   UNL A   1      44.334  29.562  31.239  1.00  0.00     0.031 A 
ATOM     32  C   UNL A   1      38.085  32.105  29.910  1.00  0.00     0.031 A 
ATOM     33  C   UNL A   1      44.107  30.871  31.790  1.00  0.00     0.049 A 
ATOM     34  C   UNL A   1      39.068  32.862  30.786  1.00  0.00     0.074 A 
ATOM     35  C   UNL A   1      44.985  31.664  32.512  1.00  0.00     0.029 A 
ATOM     36  N   UNL A   1      42.922  31.577  31.696  1.00  0.00    -0.354 N 
ATOM     37  N   UNL A   1      40.301  32.558  31.109  1.00  0.00    -0.248 NA
ATOM     38  C   UNL A   1      38.610  34.141  31.369  1.00  0.00     0.031 C 
ATOM     39  C   UNL A   1      44.310  32.822  32.912  1.00  0.00     0.029 A 
ATOM     40  C   UNL A   1      43.036  32.782  32.373  1.00  0.00     0.049 A 
ATOM     41  H   UNL A   1      42.116  31.271  31.219  1.00  0.00     0.167 HD
ATOM     42  C   UNL A   1      40.769  33.613  31.890  1.00  0.00     0.074 A 
ATOM     43  C   UNL A   1      39.699  34.578  31.987  1.00  0.00     0.031 C 
ATOM     44  C   UNL A   1      41.986  33.762  32.472  1.00  0.00     0.031 A 
BRANCH  31  45
ATOM     45  C   UNL A   1      45.673  28.921  31.499  1.00  0.00    -0.014 A 
ATOM     46  C   UNL A   1      45.941  28.253  32.704  1.00  0.00     0.009 A 
ATOM     47  C   UNL A   1      46.670  28.973  30.512  1.00  0.00     0.009 A 
ATOM     48  C   UNL A   1      47.199  27.690  32.934  1.00  0.00     0.001 A 
ATOM     49  C   UNL A   1      47.914  28.380  30.731  1.00  0.00     0.001 A 
ATOM     50  C   UNL A   1      48.182  27.751  31.946  1.00  0.00     0.000 A 
ENDBRANCH  31  45
BRANCH  32  51
ATOM     51  C   UNL A   1      36.736  32.718  29.675  1.00  0.00    -0.014 A 
ATOM     52  C   UNL A   1      36.495  33.540  28.558  1.00  0.00     0.009 A 
ATOM     53  C   UNL A   1      35.709  32.569  30.621  1.00  0.00     0.009 A 
ATOM     54  C   UNL A   1      35.276  34.214  28.412  1.00  0.00     0.001 A 
ATOM     55  C   UNL A   1      34.479  33.215  30.456  1.00  0.00     0.001 A 
ATOM     56  C   UNL A   1      34.266  34.046  29.357  1.00  0.00     0.000 A 
ENDBRANCH  32  51
BRANCH  44  57
ATOM     57  C   UNL A   1      42.270  35.036  33.228  1.00  0.00    -0.014 A 
ATOM     58  C   UNL A   1      43.022  36.080  32.666  1.00  0.00     0.009 A 
ATOM     59  C   UNL A   1      41.717  35.221  34.507  1.00  0.00     0.009 A 
ATOM     60  C   UNL A   1      43.237  37.265  33.378  1.00  0.00     0.001 A 
ATOM     61  C   UNL A   1      41.907  36.418  35.203  1.00  0.00     0.001 A 
ATOM     62  C   UNL A   1      42.675  37.435  34.643  1.00  0.00     0.000 A 
ENDBRANCH  44  57
ENDBRANCH  18  19
ENDBRANCH  11  13
ENDBRANCH  10  11
ENDBRANCH   9  10
ENDBRANCH   8   9
ENDBRANCH   7   8
ENDBRANCH   5   7
ENDBRANCH   1   5
BRANCH   1  63
ATOM     63  N   UNL A   1      32.259  27.020  25.296  1.00  0.00    -0.341 N 
ATOM     64  C   UNL A   1      31.044  26.639  25.753  1.00  0.00     0.242 C 
ATOM     65  H   UNL A   1      32.720  27.629  25.917  1.00  0.00     0.164 HD
ATOM     66  O   UNL A   1      30.658  26.983  26.864  1.00  0.00    -0.273 OA
BRANCH  64  67
ATOM     67  C   UNL A   1      30.308  25.679  24.891  1.00  0.00     0.168 C 
ATOM     68  C   UNL A   1      29.204  26.698  24.328  1.00  0.00     0.041 C 
BRANCH  67  69
ATOM     69  N   UNL A   1      30.203  24.391  25.982  1.00  0.00    -0.343 N 
ATOM     70  C   UNL A   1      30.391  23.089  26.435  1.00  0.00     0.240 C 
ATOM     71  H   UNL A   1      29.736  24.806  26.742  1.00  0.00     0.164 HD
ATOM     72  O   UNL A   1      29.981  23.006  27.616  1.00  0.00    -0.273 OA
BRANCH  70  73
ATOM     73  C   UNL A   1      31.179  21.692  25.896  1.00  0.00     0.219 C 
BRANCH  73  74
ATOM     74  N   UNL A   1      32.602  21.322  25.679  1.00  0.00    -0.312 N 
ATOM     75  C   UNL A   1      33.332  20.858  24.595  1.00  0.00     0.407 C 
ATOM     76  H   UNL A   1      33.151  21.432  26.489  1.00  0.00     0.167 HD
ATOM     77  O   UNL A   1      34.497  20.563  24.772  1.00  0.00    -0.225 OA
BRANCH  75  78
ATOM     78  O   UNL A   1      32.634  20.633  23.445  1.00  0.00    -0.445 OA
BRANCH  78  79
ATOM     79  C   UNL A   1      32.153  19.283  23.134  1.00  0.00     0.270 C 
BRANCH  79  80
ATOM     80  C   UNL A   1      32.758  18.072  23.801  1.00  0.00    -0.011 A 
ATOM     81  C   UNL A   1      32.355  17.712  25.090  1.00  0.00     0.007 A 
ATOM     82  C   UNL A   1      33.771  17.321  23.176  1.00  0.00     0.007 A 
ATOM     83  C   UNL A   1      32.909  16.597  25.721  1.00  0.00     0.000 A 
ATOM     84  C   UNL A   1      34.317  16.199  23.803  1.00  0.00     0.000 A 
ATOM     85  C   UNL A   1      33.876  15.830  25.071  1.00  0.00     0.000 A 
ENDBRANCH  79  80
ENDBRANCH  78  79
ENDBRANCH  75  78
ENDBRANCH  73  74
ENDBRANCH  70  73
ENDBRANCH  67  69
ENDBRANCH  64  67
ENDBRANCH   1  63
TORSDOF 20
ENDMDL
MODEL 3
REMARK VINA RESULT:     -10.9      2.478      5.253
REMARK SMILES CC(C)[C@H](NC(=O)[C@H](C)NC(=O)CNC(=O)OCc1ccccc1)C(=O)OCCOC(=O)c1ccc(-c2c3nc(c(-c4ccccc4)c4ccc([nH]4)c(-c4ccccc4)c4nc(c(-c5ccccc5)c5ccc2[nH]5)C=C4)C=C3)cc1
REMARK SMILES IDX 4 1 2 2 1 3 3 4 25 5 26 6 27 7 28 8 29 9 30 10 31 11 32 12
REMARK SMILES IDX 33 13 34 14 80 15 35 16 79 17 36 18 37 19 38 20 73 21 39 22
REMARK SMILES IDX 78 23 72 24 74 25 40 26 77 27 71 28 70 29 41 31 63 32 48 33
REMARK SMILES IDX 62 34 49 35 52 36 61 37 75 38 50 39 51 40 60 42 76 43 53 44
REMARK SMILES IDX 42 45 43 46 47 47 44 48 46 49 45 50 64 51 65 52 69 53 66 54
REMARK SMILES IDX 68 55 67 56 54 57 55 58 59 59 56 60 58 61 57 62 5 63 6 64
REMARK SMILES IDX 7 66 8 67 9 68 10 69 11 70 12 72 13 73 14 74 15 75 16 77
REMARK SMILES IDX 17 78 18 79 19 80 20 81 24 82 21 83 23 84 22 85
REMARK H PARENT 74 30 52 41 5 65 10 71 14 76
REMARK Flexibility Score: inf
ROOT
ATOM      1  C   UNL A   1      32.773  26.073  25.347  1.00  0.00     0.194 C 
ENDROOT
BRANCH   1   2
ATOM      2  C   UNL A   1      32.792  27.113  26.508  1.00  0.00     0.017 C 
ATOM      3  C   UNL A   1      33.672  28.309  26.169  1.00  0.00     0.010 C 
ATOM      4  C   UNL A   1      31.377  27.655  26.849  1.00  0.00     0.010 C 
ENDBRANCH   1   2
BRANCH   1   5
ATOM      5  C   UNL A   1      33.535  24.644  25.745  1.00  0.00     0.329 C 
ATOM      6  O   UNL A   1      33.066  23.843  26.549  1.00  0.00    -0.250 OA
BRANCH   5   7
ATOM      7  O   UNL A   1      34.758  24.451  25.164  1.00  0.00    -0.461 OA
BRANCH   7   8
ATOM      8  C   UNL A   1      35.411  23.139  24.856  1.00  0.00     0.274 C 
BRANCH   8   9
ATOM      9  C   UNL A   1      37.094  23.146  24.554  1.00  0.00     0.275 C 
BRANCH   9  10
ATOM     10  O   UNL A   1      38.049  22.453  25.591  1.00  0.00    -0.458 OA
BRANCH  10  11
ATOM     11  C   UNL A   1      39.312  22.628  26.143  1.00  0.00     0.338 C 
ATOM     12  O   UNL A   1      40.240  21.854  25.975  1.00  0.00    -0.246 OA
BRANCH  11  13
ATOM     13  C   UNL A   1      39.506  24.059  26.791  1.00  0.00     0.060 A 
ATOM     14  C   UNL A   1      39.037  24.369  28.091  1.00  0.00     0.016 A 
ATOM     15  C   UNL A   1      40.234  25.085  26.175  1.00  0.00     0.016 A 
ATOM     16  C   UNL A   1      39.426  25.548  28.807  1.00  0.00     0.010 A 
ATOM     17  C   UNL A   1      40.586  26.291  26.872  1.00  0.00     0.010 A 
ATOM     18  C   UNL A   1      40.217  26.538  28.214  1.00  0.00    -0.014 A 
BRANCH  18  19
ATOM     19  C   UNL A   1      40.418  27.905  28.864  1.00  0.00     0.031 A 
ATOM     20  C   UNL A   1      41.759  28.174  29.527  1.00  0.00     0.074 A 
ATOM     21  C   UNL A   1      39.517  28.919  28.907  1.00  0.00     0.049 A 
ATOM     22  N   UNL A   1      42.177  29.213  30.213  1.00  0.00    -0.248 NA
ATOM     23  C   UNL A   1      42.762  27.109  29.388  1.00  0.00     0.031 C 
ATOM     24  C   UNL A   1      38.197  28.930  28.284  1.00  0.00     0.029 A 
ATOM     25  N   UNL A   1      39.587  30.165  29.526  1.00  0.00    -0.354 N 
ATOM     26  C   UNL A   1      43.481  28.918  30.599  1.00  0.00     0.074 A 
ATOM     27  C   UNL A   1      43.772  27.594  30.091  1.00  0.00     0.031 C 
ATOM     28  C   UNL A   1      37.582  30.101  28.560  1.00  0.00     0.029 A 
ATOM     29  C   UNL A   1      38.444  30.931  29.408  1.00  0.00     0.049 A 
ATOM     30  H   UNL A   1      40.388  30.474  30.008  1.00  0.00     0.167 HD
ATOM     31  C   UNL A   1      44.372  29.659  31.305  1.00  0.00     0.031 A 
ATOM     32  C   UNL A   1      38.108  32.141  29.926  1.00  0.00     0.031 A 
ATOM     33  C   UNL A   1      44.129  30.968  31.850  1.00  0.00     0.049 A 
ATOM     34  C   UNL A   1      39.079  32.910  30.807  1.00  0.00     0.074 A 
ATOM     35  C   UNL A   1      44.995  31.770  32.576  1.00  0.00     0.029 A 
ATOM     36  N   UNL A   1      42.938  31.662  31.746  1.00  0.00    -0.354 N 
ATOM     37  N   UNL A   1      40.312  32.617  31.139  1.00  0.00    -0.248 NA
ATOM     38  C   UNL A   1      38.605  34.185  31.383  1.00  0.00     0.031 C 
ATOM     39  C   UNL A   1      44.307  32.923  32.968  1.00  0.00     0.029 A 
ATOM     40  C   UNL A   1      43.036  32.870  32.421  1.00  0.00     0.049 A 
ATOM     41  H   UNL A   1      42.139  31.348  31.265  1.00  0.00     0.167 HD
ATOM     42  C   UNL A   1      40.766  33.679  31.920  1.00  0.00     0.074 A 
ATOM     43  C   UNL A   1      39.686  34.634  32.008  1.00  0.00     0.031 C 
ATOM     44  C   UNL A   1      41.977  33.841  32.510  1.00  0.00     0.031 A 
BRANCH  31  45
ATOM     45  C   UNL A   1      45.714  29.031  31.575  1.00  0.00    -0.014 A 
ATOM     46  C   UNL A   1      45.914  28.176  32.671  1.00  0.00     0.009 A 
ATOM     47  C   UNL A   1      46.787  29.287  30.707  1.00  0.00     0.009 A 
ATOM     48  C   UNL A   1      47.174  27.628  32.918  1.00  0.00     0.001 A 
ATOM     49  C   UNL A   1      48.036  28.709  30.936  1.00  0.00     0.001 A 
ATOM     50  C   UNL A   1      48.233  27.892  32.048  1.00  0.00     0.000 A 
ENDBRANCH  31  45
BRANCH  32  51
ATOM     51  C   UNL A   1      36.756  32.741  29.680  1.00  0.00    -0.014 A 
ATOM     52  C   UNL A   1      36.509  33.540  28.548  1.00  0.00     0.009 A 
ATOM     53  C   UNL A   1      35.731  32.604  30.630  1.00  0.00     0.009 A 
ATOM     54  C   UNL A   1      35.286  34.203  28.389  1.00  0.00     0.001 A 
ATOM     55  C   UNL A   1      34.497  33.240  30.453  1.00  0.00     0.001 A 
ATOM     56  C   UNL A   1      34.278  34.047  29.339  1.00  0.00     0.000 A 
ENDBRANCH  32  51
BRANCH  44  57
ATOM     57  C   UNL A   1      42.245  35.119  33.265  1.00  0.00    -0.014 A 
ATOM     58  C   UNL A   1      41.778  35.319  34.573  1.00  0.00     0.009 A 
ATOM     59  C   UNL A   1      43.039  36.118  32.676  1.00  0.00     0.009 A 
ATOM     60  C   UNL A   1      42.075  36.500  35.262  1.00  0.00     0.001 A 
ATOM     61  C   UNL A   1      43.361  37.284  33.377  1.00  0.00     0.001 A 
ATOM     62  C   UNL A   1      42.871  37.478  34.665  1.00  0.00     0.000 A 
ENDBRANCH  44  57
ENDBRANCH  18  19
ENDBRANCH  11  13
ENDBRANCH  10  11
ENDBRANCH   9  10
ENDBRANCH   8   9
ENDBRANCH   7   8
ENDBRANCH   5   7
ENDBRANCH   1   5
BRANCH   1  63
ATOM     63  N   UNL A   1      31.410  26.245  24.706  1.00  0.00    -0.341 N 
ATOM     64  C   UNL A   1      30.910  26.997  23.698  1.00  0.00     0.242 C 
ATOM     65  H   UNL A   1      30.726  25.673  25.123  1.00  0.00     0.164 HD
ATOM     66  O   UNL A   1      29.745  26.867  23.339  1.00  0.00    -0.273 OA
BRANCH  64  67
ATOM     67  C   UNL A   1      31.895  27.852  22.988  1.00  0.00     0.168 C 
ATOM     68  C   UNL A   1      30.983  29.166  22.856  1.00  0.00     0.041 C 
BRANCH  67  69
ATOM     69  N   UNL A   1      32.427  26.727  21.843  1.00  0.00    -0.343 N 
ATOM     70  C   UNL A   1      32.868  25.489  21.385  1.00  0.00     0.240 C 
ATOM     71  H   UNL A   1      32.418  27.259  21.015  1.00  0.00     0.164 HD
ATOM     72  O   UNL A   1      32.985  25.535  20.139  1.00  0.00    -0.273 OA
BRANCH  70  73
ATOM     73  C   UNL A   1      33.091  23.939  22.026  1.00  0.00     0.219 C 
BRANCH  73  74
ATOM     74  N   UNL A   1      32.500  22.606  21.741  1.00  0.00    -0.312 N 
ATOM     75  C   UNL A   1      32.246  21.472  22.499  1.00  0.00     0.407 C 
ATOM     76  H   UNL A   1      32.227  22.503  20.801  1.00  0.00     0.167 HD
ATOM     77  O   UNL A   1      31.818  20.487  21.932  1.00  0.00    -0.225 OA
BRANCH  75  78
ATOM     78  O   UNL A   1      32.641  21.515  23.805  1.00  0.00    -0.445 OA
BRANCH  78  79
ATOM     79  C   UNL A   1      32.292  20.416  24.710  1.00  0.00     0.270 C 
BRANCH  79  80
ATOM     80  C   UNL A   1      33.031  19.101  24.654  1.00  0.00    -0.011 A 
ATOM     81  C   UNL A   1      34.426  19.089  24.559  1.00  0.00     0.007 A 
ATOM     82  C   UNL A   1      32.342  17.874  24.635  1.00  0.00     0.007 A 
ATOM     83  C   UNL A   1      35.122  17.880  24.502  1.00  0.00     0.000 A 
ATOM     84  C   UNL A   1      33.040  16.665  24.589  1.00  0.00     0.000 A 
ATOM     85  C   UNL A   1      34.431  16.669  24.535  1.00  0.00     0.000 A 
ENDBRANCH  79  80
ENDBRANCH  78  79
ENDBRANCH  75  78
ENDBRANCH  73  74
ENDBRANCH  70  73
ENDBRANCH  67  69
ENDBRANCH  64  67
ENDBRANCH   1  63
TORSDOF 20
ENDMDL
