MODEL 1
REMARK VINA RESULT:     -10.8      0.000      0.000
REMARK SMILES CC(C)CSc1cc2c(cc1Cl)C=C(C(=O)OCCOC(=O)c1ccc(-c3c4nc(c(-c5ccccc5)c5ccc([nH]5)c(-c5ccccc5)c5nc(c(-c6ccccc6)c6ccc3[nH]6)C=C5)C=C4)cc1)[C@H](C(F)(F)F)O2
REMARK SMILES IDX 18 1 17 2 15 3 16 4 14 5 6 6 7 7 11 8 8 9 10 10 12 11 9 12
REMARK SMILES IDX 76 13 13 14 71 15 5 16 4 17 2 18 1 19 3 20 72 21 73 22 74 23
REMARK SMILES IDX 75 24 19 25 20 26 21 27 22 28 23 29 24 30 70 31 25 32 69 33
REMARK SMILES IDX 26 34 27 35 28 36 63 37 29 38 68 39 62 40 64 41 30 42 67 43
REMARK SMILES IDX 61 44 60 45 31 47 53 48 38 49 52 50 39 51 42 52 51 53 65 54
REMARK SMILES IDX 40 55 41 56 50 58 66 59 43 60 32 61 33 62 37 63 34 64 36 65
REMARK SMILES IDX 35 66 54 67 55 68 59 69 56 70 58 71 57 72 44 73 45 74 49 75
REMARK SMILES IDX 46 76 48 77 47 78
REMARK H PARENT 64 46 42 57
REMARK Flexibility Score: inf
ROOT
ATOM      1  C   UNL A   1      38.159  19.773  25.024  1.00  0.00     0.275 C 
ENDROOT
BRANCH   1   2
ATOM      2  O   UNL A   1      37.289  20.746  24.409  1.00  0.00    -0.459 OA
BRANCH   2   3
ATOM      3  C   UNL A   1      35.984  20.665  24.744  1.00  0.00     0.338 C 
ATOM      4  O   UNL A   1      35.378  19.633  24.995  1.00  0.00    -0.246 OA
BRANCH   3   5
ATOM      5  C   UNL A   1      35.373  22.005  24.862  1.00  0.00     0.087 C 
ATOM      6  C   UNL A   1      33.305  26.479  23.842  1.00  0.00     0.030 A 
ATOM      7  C   UNL A   1      33.982  25.941  24.953  1.00  0.00     0.063 A 
ATOM      8  C   UNL A   1      33.193  25.681  22.684  1.00  0.00     0.055 A 
ATOM      9  C   UNL A   1      34.488  24.640  24.925  1.00  0.00     0.129 A 
ATOM     10  C   UNL A   1      33.767  24.406  22.635  1.00  0.00     0.033 A 
ATOM     11  Cl  UNL A   1      32.358  26.198  21.254  1.00  0.00    -0.083 Cl
ATOM     12  C   UNL A   1      34.428  23.897  23.750  1.00  0.00     0.019 A 
ATOM     13  O   UNL A   1      35.083  24.151  26.061  1.00  0.00    -0.475 OA
ATOM     14  C   UNL A   1      35.098  22.614  23.700  1.00  0.00     0.027 C 
ATOM     15  C   UNL A   1      35.124  22.683  26.186  1.00  0.00     0.316 C 
BRANCH   6  16
ATOM     16  S   UNL A   1      32.646  28.151  23.844  1.00  0.00    -0.124 SA
BRANCH  16  17
ATOM     17  C   UNL A   1      30.924  27.994  24.429  1.00  0.00     0.078 C 
BRANCH  17  18
ATOM     18  C   UNL A   1      29.907  27.490  23.390  1.00  0.00    -0.007 C 
ATOM     19  C   UNL A   1      28.815  26.586  23.962  1.00  0.00     0.008 C 
ATOM     20  C   UNL A   1      29.249  28.704  22.724  1.00  0.00     0.008 C 
ENDBRANCH  17  18
ENDBRANCH  16  17
ENDBRANCH   6  16
BRANCH  15  21
ATOM     21  C   UNL A   1      33.884  22.198  26.962  1.00  0.00     0.430 C 
ATOM     22  F   UNL A   1      34.123  21.069  27.664  1.00  0.00    -0.167 F 
ATOM     23  F   UNL A   1      33.411  23.133  27.817  1.00  0.00    -0.167 F 
ATOM     24  F   UNL A   1      32.865  21.926  26.105  1.00  0.00    -0.167 F 
ENDBRANCH  15  21
ENDBRANCH   3   5
ENDBRANCH   2   3
ENDBRANCH   1   2
BRANCH   1  25
ATOM     25  C   UNL A   1      39.394  20.423  25.661  1.00  0.00     0.275 C 
BRANCH  25  26
ATOM     26  O   UNL A   1      40.327  19.450  26.176  1.00  0.00    -0.458 OA
BRANCH  26  27
ATOM     27  C   UNL A   1      41.633  19.719  25.937  1.00  0.00     0.338 C 
ATOM     28  O   UNL A   1      42.409  19.048  25.278  1.00  0.00    -0.246 OA
BRANCH  27  29
ATOM     29  C   UNL A   1      41.968  21.068  26.428  1.00  0.00     0.060 A 
ATOM     30  C   UNL A   1      42.375  22.109  25.595  1.00  0.00     0.016 A 
ATOM     31  C   UNL A   1      41.793  21.297  27.792  1.00  0.00     0.016 A 
ATOM     32  C   UNL A   1      42.643  23.368  26.156  1.00  0.00     0.010 A 
ATOM     33  C   UNL A   1      42.061  22.542  28.352  1.00  0.00     0.010 A 
ATOM     34  C   UNL A   1      42.503  23.591  27.542  1.00  0.00    -0.014 A 
BRANCH  34  35
ATOM     35  C   UNL A   1      42.763  24.925  28.147  1.00  0.00     0.031 A 
ATOM     36  C   UNL A   1      44.154  25.342  28.544  1.00  0.00     0.074 A 
ATOM     37  C   UNL A   1      41.726  25.747  28.397  1.00  0.00     0.049 A 
ATOM     38  N   UNL A   1      44.565  26.498  29.004  1.00  0.00    -0.248 NA
ATOM     39  C   UNL A   1      45.216  24.329  28.438  1.00  0.00     0.031 C 
ATOM     40  C   UNL A   1      40.319  25.422  28.162  1.00  0.00     0.029 A 
ATOM     41  N   UNL A   1      41.695  27.028  28.891  1.00  0.00    -0.354 N 
ATOM     42  C   UNL A   1      45.926  26.350  29.245  1.00  0.00     0.074 A 
ATOM     43  C   UNL A   1      46.261  24.977  28.936  1.00  0.00     0.031 C 
ATOM     44  C   UNL A   1      39.569  26.497  28.449  1.00  0.00     0.029 A 
ATOM     45  C   UNL A   1      40.437  27.580  28.905  1.00  0.00     0.049 A 
ATOM     46  H   UNL A   1      42.497  27.505  29.205  1.00  0.00     0.167 HD
ATOM     47  C   UNL A   1      46.821  27.282  29.654  1.00  0.00     0.031 A 
ATOM     48  C   UNL A   1      40.027  28.826  29.214  1.00  0.00     0.031 A 
ATOM     49  C   UNL A   1      46.487  28.651  29.942  1.00  0.00     0.049 A 
ATOM     50  C   UNL A   1      41.044  29.863  29.602  1.00  0.00     0.074 A 
ATOM     51  C   UNL A   1      47.337  29.689  30.289  1.00  0.00     0.029 A 
ATOM     52  N   UNL A   1      45.205  29.175  29.914  1.00  0.00    -0.354 N 
ATOM     53  N   UNL A   1      42.344  29.739  29.715  1.00  0.00    -0.248 NA
ATOM     54  C   UNL A   1      40.543  31.218  29.878  1.00  0.00     0.031 C 
ATOM     55  C   UNL A   1      46.564  30.830  30.512  1.00  0.00     0.029 A 
ATOM     56  C   UNL A   1      45.240  30.519  30.245  1.00  0.00     0.049 A 
ATOM     57  H   UNL A   1      44.392  28.669  29.691  1.00  0.00     0.167 HD
ATOM     58  C   UNL A   1      42.818  31.000  30.052  1.00  0.00     0.074 A 
ATOM     59  C   UNL A   1      41.669  31.880  30.110  1.00  0.00     0.031 C 
ATOM     60  C   UNL A   1      44.094  31.389  30.292  1.00  0.00     0.031 A 
BRANCH  47  61
ATOM     61  C   UNL A   1      48.263  26.870  29.781  1.00  0.00    -0.014 A 
ATOM     62  C   UNL A   1      49.119  26.939  28.669  1.00  0.00     0.009 A 
ATOM     63  C   UNL A   1      48.751  26.319  30.977  1.00  0.00     0.009 A 
ATOM     64  C   UNL A   1      50.428  26.459  28.751  1.00  0.00     0.001 A 
ATOM     65  C   UNL A   1      50.070  25.869  31.064  1.00  0.00     0.001 A 
ATOM     66  C   UNL A   1      50.905  25.931  29.950  1.00  0.00     0.000 A 
ENDBRANCH  47  61
BRANCH  48  67
ATOM     67  C   UNL A   1      38.591  29.175  29.064  1.00  0.00    -0.014 A 
ATOM     68  C   UNL A   1      38.094  29.678  27.853  1.00  0.00     0.009 A 
ATOM     69  C   UNL A   1      37.723  29.067  30.162  1.00  0.00     0.009 A 
ATOM     70  C   UNL A   1      36.761  30.084  27.749  1.00  0.00     0.001 A 
ATOM     71  C   UNL A   1      36.383  29.447  30.048  1.00  0.00     0.001 A 
ATOM     72  C   UNL A   1      35.907  29.965  28.845  1.00  0.00     0.000 A 
ENDBRANCH  48  67
BRANCH  60  73
ATOM     73  C   UNL A   1      44.344  32.834  30.621  1.00  0.00    -0.014 A 
ATOM     74  C   UNL A   1      44.255  33.267  31.955  1.00  0.00     0.009 A 
ATOM     75  C   UNL A   1      44.546  33.784  29.610  1.00  0.00     0.009 A 
ATOM     76  C   UNL A   1      44.344  34.624  32.268  1.00  0.00     0.001 A 
ATOM     77  C   UNL A   1      44.661  35.139  29.928  1.00  0.00     0.001 A 
ATOM     78  C   UNL A   1      44.549  35.558  31.253  1.00  0.00     0.000 A 
ENDBRANCH  60  73
ENDBRANCH  34  35
ENDBRANCH  27  29
ENDBRANCH  26  27
ENDBRANCH  25  26
ENDBRANCH   1  25
TORSDOF 15
ENDMDL
MODEL 2
REMARK VINA RESULT:     -10.7      2.349      3.094
REMARK SMILES CC(C)CSc1cc2c(cc1Cl)C=C(C(=O)OCCOC(=O)c1ccc(-c3c4nc(c(-c5ccccc5)c5ccc([nH]5)c(-c5ccccc5)c5nc(c(-c6ccccc6)c6ccc3[nH]6)C=C5)C=C4)cc1)[C@H](C(F)(F)F)O2
REMARK SMILES IDX 18 1 17 2 15 3 16 4 14 5 6 6 7 7 11 8 8 9 10 10 12 11 9 12
REMARK SMILES IDX 76 13 13 14 71 15 5 16 4 17 2 18 1 19 3 20 72 21 73 22 74 23
REMARK SMILES IDX 75 24 19 25 20 26 21 27 22 28 23 29 24 30 70 31 25 32 69 33
REMARK SMILES IDX 26 34 27 35 28 36 63 37 29 38 68 39 62 40 64 41 30 42 67 43
REMARK SMILES IDX 61 44 60 45 31 47 53 48 38 49 52 50 39 51 42 52 51 53 65 54
REMARK SMILES IDX 40 55 41 56 50 58 66 59 43 60 32 61 33 62 37 63 34 64 36 65
REMARK SMILES IDX 35 66 54 67 55 68 59 69 56 70 58 71 57 72 44 73 45 74 49 75
REMARK SMILES IDX 46 76 48 77 47 78
REMARK H PARENT 64 46 42 57
REMARK Flexibility Score: inf
ROOT
ATOM      1  C   UNL A   1      35.326  20.510  24.989  1.00  0.00     0.275 C 
ENDROOT
BRANCH   1   2
ATOM      2  O   UNL A   1      35.081  21.909  25.250  1.00  0.00    -0.459 OA
BRANCH   2   3
ATOM      3  C   UNL A   1      34.348  22.185  26.348  1.00  0.00     0.338 C 
ATOM      4  O   UNL A   1      34.390  21.568  27.403  1.00  0.00    -0.246 OA
BRANCH   3   5
ATOM      5  C   UNL A   1      33.528  23.399  26.159  1.00  0.00     0.087 C 
ATOM      6  C   UNL A   1      31.937  28.009  24.915  1.00  0.00     0.030 A 
ATOM      7  C   UNL A   1      31.519  27.048  25.854  1.00  0.00     0.063 A 
ATOM      8  C   UNL A   1      33.094  27.735  24.155  1.00  0.00     0.055 A 
ATOM      9  C   UNL A   1      32.204  25.839  25.996  1.00  0.00     0.129 A 
ATOM     10  C   UNL A   1      33.818  26.556  24.354  1.00  0.00     0.033 A 
ATOM     11  Cl  UNL A   1      33.705  28.811  22.939  1.00  0.00    -0.083 Cl
ATOM     12  C   UNL A   1      33.380  25.619  25.288  1.00  0.00     0.019 A 
ATOM     13  O   UNL A   1      31.711  24.915  26.884  1.00  0.00    -0.475 OA
ATOM     14  C   UNL A   1      34.154  24.427  25.569  1.00  0.00     0.027 C 
ATOM     15  C   UNL A   1      32.104  23.516  26.643  1.00  0.00     0.316 C 
BRANCH   6  16
ATOM     16  S   UNL A   1      31.082  29.577  24.710  1.00  0.00    -0.124 SA
BRANCH  16  17
ATOM     17  C   UNL A   1      30.060  29.380  23.211  1.00  0.00     0.078 C 
BRANCH  17  18
ATOM     18  C   UNL A   1      28.766  30.211  23.168  1.00  0.00    -0.007 C 
ATOM     19  C   UNL A   1      28.873  31.582  23.836  1.00  0.00     0.008 C 
ATOM     20  C   UNL A   1      28.359  30.402  21.702  1.00  0.00     0.008 C 
ENDBRANCH  17  18
ENDBRANCH  16  17
ENDBRANCH   6  16
BRANCH  15  21
ATOM     21  C   UNL A   1      31.041  22.826  25.766  1.00  0.00     0.430 C 
ATOM     22  F   UNL A   1      30.928  23.399  24.548  1.00  0.00    -0.167 F 
ATOM     23  F   UNL A   1      31.292  21.509  25.591  1.00  0.00    -0.167 F 
ATOM     24  F   UNL A   1      29.820  22.899  26.356  1.00  0.00    -0.167 F 
ENDBRANCH  15  21
ENDBRANCH   3   5
ENDBRANCH   2   3
ENDBRANCH   1   2
BRANCH   1  25
ATOM     25  C   UNL A   1      36.824  20.191  24.912  1.00  0.00     0.275 C 
BRANCH  25  26
ATOM     26  O   UNL A   1      37.647  21.288  25.362  1.00  0.00    -0.458 OA
BRANCH  26  27
ATOM     27  C   UNL A   1      38.897  20.948  25.754  1.00  0.00     0.338 C 
ATOM     28  O   UNL A   1      39.436  19.863  25.622  1.00  0.00    -0.246 OA
BRANCH  27  29
ATOM     29  C   UNL A   1      39.628  22.147  26.207  1.00  0.00     0.060 A 
ATOM     30  C   UNL A   1      40.999  22.162  26.456  1.00  0.00     0.016 A 
ATOM     31  C   UNL A   1      38.888  23.324  26.314  1.00  0.00     0.016 A 
ATOM     32  C   UNL A   1      41.607  23.363  26.854  1.00  0.00     0.010 A 
ATOM     33  C   UNL A   1      39.487  24.515  26.713  1.00  0.00     0.010 A 
ATOM     34  C   UNL A   1      40.854  24.546  27.001  1.00  0.00    -0.014 A 
BRANCH  34  35
ATOM     35  C   UNL A   1      41.489  25.830  27.402  1.00  0.00     0.031 A 
ATOM     36  C   UNL A   1      42.844  26.227  26.877  1.00  0.00     0.074 A 
ATOM     37  C   UNL A   1      40.866  26.622  28.296  1.00  0.00     0.049 A 
ATOM     38  N   UNL A   1      43.499  27.346  27.059  1.00  0.00    -0.248 NA
ATOM     39  C   UNL A   1      43.568  25.234  26.067  1.00  0.00     0.031 C 
ATOM     40  C   UNL A   1      39.603  26.304  28.963  1.00  0.00     0.029 A 
ATOM     41  N   UNL A   1      41.202  27.860  28.786  1.00  0.00    -0.354 N 
ATOM     42  C   UNL A   1      44.710  27.191  26.393  1.00  0.00     0.074 A 
ATOM     43  C   UNL A   1      44.723  25.850  25.852  1.00  0.00     0.031 C 
ATOM     44  C   UNL A   1      39.238  27.347  29.725  1.00  0.00     0.029 A 
ATOM     45  C   UNL A   1      40.247  28.398  29.615  1.00  0.00     0.049 A 
ATOM     46  H   UNL A   1      42.045  28.317  28.566  1.00  0.00     0.167 HD
ATOM     47  C   UNL A   1      45.705  28.095  26.219  1.00  0.00     0.031 A 
ATOM     48  C   UNL A   1      40.170  29.612  30.194  1.00  0.00     0.031 A 
ATOM     49  C   UNL A   1      45.679  29.435  26.743  1.00  0.00     0.049 A 
ATOM     50  C   UNL A   1      41.251  30.624  29.936  1.00  0.00     0.074 A 
ATOM     51  C   UNL A   1      46.604  30.449  26.556  1.00  0.00     0.029 A 
ATOM     52  N   UNL A   1      44.679  29.949  27.552  1.00  0.00    -0.354 N 
ATOM     53  N   UNL A   1      42.335  30.503  29.210  1.00  0.00    -0.248 NA
ATOM     54  C   UNL A   1      41.087  31.949  30.553  1.00  0.00     0.031 C 
ATOM     55  C   UNL A   1      46.185  31.563  27.287  1.00  0.00     0.029 A 
ATOM     56  C   UNL A   1      44.968  31.262  27.879  1.00  0.00     0.049 A 
ATOM     57  H   UNL A   1      43.881  29.455  27.848  1.00  0.00     0.167 HD
ATOM     58  C   UNL A   1      42.969  31.738  29.263  1.00  0.00     0.074 A 
ATOM     59  C   UNL A   1      42.141  32.601  30.080  1.00  0.00     0.031 C 
ATOM     60  C   UNL A   1      44.135  32.117  28.684  1.00  0.00     0.031 A 
BRANCH  47  61
ATOM     61  C   UNL A   1      46.896  27.687  25.396  1.00  0.00    -0.014 A 
ATOM     62  C   UNL A   1      46.916  27.927  24.012  1.00  0.00     0.009 A 
ATOM     63  C   UNL A   1      47.959  26.974  25.974  1.00  0.00     0.009 A 
ATOM     64  C   UNL A   1      47.970  27.457  23.225  1.00  0.00     0.001 A 
ATOM     65  C   UNL A   1      49.026  26.531  25.190  1.00  0.00     0.001 A 
ATOM     66  C   UNL A   1      49.027  26.765  23.816  1.00  0.00     0.000 A 
ENDBRANCH  47  61
BRANCH  48  67
ATOM     67  C   UNL A   1      38.966  29.960  30.992  1.00  0.00    -0.014 A 
ATOM     68  C   UNL A   1      39.006  29.966  32.394  1.00  0.00     0.009 A 
ATOM     69  C   UNL A   1      37.748  30.225  30.347  1.00  0.00     0.009 A 
ATOM     70  C   UNL A   1      37.847  30.210  33.134  1.00  0.00     0.001 A 
ATOM     71  C   UNL A   1      36.596  30.497  31.089  1.00  0.00     0.001 A 
ATOM     72  C   UNL A   1      36.645  30.479  32.482  1.00  0.00     0.000 A 
ENDBRANCH  48  67
BRANCH  60  73
ATOM     73  C   UNL A   1      44.596  33.533  28.883  1.00  0.00    -0.014 A 
ATOM     74  C   UNL A   1      45.368  33.860  30.011  1.00  0.00     0.009 A 
ATOM     75  C   UNL A   1      44.170  34.561  28.031  1.00  0.00     0.009 A 
ATOM     76  C   UNL A   1      45.689  35.188  30.291  1.00  0.00     0.001 A 
ATOM     77  C   UNL A   1      44.514  35.888  28.298  1.00  0.00     0.001 A 
ATOM     78  C   UNL A   1      45.263  36.201  29.432  1.00  0.00     0.000 A 
ENDBRANCH  60  73
ENDBRANCH  34  35
ENDBRANCH  27  29
ENDBRANCH  26  27
ENDBRANCH  25  26
ENDBRANCH   1  25
TORSDOF 15
ENDMDL
MODEL 3
REMARK VINA RESULT:     -10.6      0.725      5.944
REMARK SMILES CC(C)CSc1cc2c(cc1Cl)C=C(C(=O)OCCOC(=O)c1ccc(-c3c4nc(c(-c5ccccc5)c5ccc([nH]5)c(-c5ccccc5)c5nc(c(-c6ccccc6)c6ccc3[nH]6)C=C5)C=C4)cc1)[C@H](C(F)(F)F)O2
REMARK SMILES IDX 18 1 17 2 15 3 16 4 14 5 6 6 7 7 11 8 8 9 10 10 12 11 9 12
REMARK SMILES IDX 76 13 13 14 71 15 5 16 4 17 2 18 1 19 3 20 72 21 73 22 74 23
REMARK SMILES IDX 75 24 19 25 20 26 21 27 22 28 23 29 24 30 70 31 25 32 69 33
REMARK SMILES IDX 26 34 27 35 28 36 63 37 29 38 68 39 62 40 64 41 30 42 67 43
REMARK SMILES IDX 61 44 60 45 31 47 53 48 38 49 52 50 39 51 42 52 51 53 65 54
REMARK SMILES IDX 40 55 41 56 50 58 66 59 43 60 32 61 33 62 37 63 34 64 36 65
REMARK SMILES IDX 35 66 54 67 55 68 59 69 56 70 58 71 57 72 44 73 45 74 49 75
REMARK SMILES IDX 46 76 48 77 47 78
REMARK H PARENT 64 46 42 57
REMARK Flexibility Score: inf
ROOT
ATOM      1  C   UNL A   1      37.773  20.059  24.938  1.00  0.00     0.275 C 
ENDROOT
BRANCH   1   2
ATOM      2  O   UNL A   1      36.798  20.878  25.618  1.00  0.00    -0.459 OA
BRANCH   2   3
ATOM      3  C   UNL A   1      35.546  20.842  25.117  1.00  0.00     0.338 C 
ATOM      4  O   UNL A   1      34.936  19.830  24.801  1.00  0.00    -0.246 OA
BRANCH   3   5
ATOM      5  C   UNL A   1      34.944  22.191  25.069  1.00  0.00     0.087 C 
ATOM      6  C   UNL A   1      33.048  26.584  23.508  1.00  0.00     0.030 A 
ATOM      7  C   UNL A   1      33.604  26.130  24.719  1.00  0.00     0.063 A 
ATOM      8  C   UNL A   1      33.041  25.699  22.409  1.00  0.00     0.055 A 
ATOM      9  C   UNL A   1      34.093  24.828  24.841  1.00  0.00     0.129 A 
ATOM     10  C   UNL A   1      33.599  24.421  22.515  1.00  0.00     0.033 A 
ATOM     11  Cl  UNL A   1      32.358  26.108  20.868  1.00  0.00    -0.083 Cl
ATOM     12  C   UNL A   1      34.140  23.997  23.727  1.00  0.00     0.019 A 
ATOM     13  O   UNL A   1      34.566  24.425  26.065  1.00  0.00    -0.475 OA
ATOM     14  C   UNL A   1      34.794  22.709  23.842  1.00  0.00     0.027 C 
ATOM     15  C   UNL A   1      34.574  22.971  26.306  1.00  0.00     0.316 C 
BRANCH   6  16
ATOM     16  S   UNL A   1      32.414  28.255  23.316  1.00  0.00    -0.124 SA
BRANCH  16  17
ATOM     17  C   UNL A   1      30.669  28.177  23.845  1.00  0.00     0.078 C 
BRANCH  17  18
ATOM     18  C   UNL A   1      29.623  28.310  22.725  1.00  0.00    -0.007 C 
ATOM     19  C   UNL A   1      28.173  28.243  23.204  1.00  0.00     0.008 C 
ATOM     20  C   UNL A   1      29.848  29.646  22.006  1.00  0.00     0.008 C 
ENDBRANCH  17  18
ENDBRANCH  16  17
ENDBRANCH   6  16
BRANCH  15  21
ATOM     21  C   UNL A   1      33.257  22.555  26.989  1.00  0.00     0.430 C 
ATOM     22  F   UNL A   1      32.553  23.615  27.442  1.00  0.00    -0.167 F 
ATOM     23  F   UNL A   1      32.456  21.836  26.172  1.00  0.00    -0.167 F 
ATOM     24  F   UNL A   1      33.510  21.758  28.061  1.00  0.00    -0.167 F 
ENDBRANCH  15  21
ENDBRANCH   3   5
ENDBRANCH   2   3
ENDBRANCH   1   2
BRANCH   1  25
ATOM     25  C   UNL A   1      39.205  20.366  25.395  1.00  0.00     0.275 C 
BRANCH  25  26
ATOM     26  O   UNL A   1      39.907  19.186  25.840  1.00  0.00    -0.458 OA
BRANCH  26  27
ATOM     27  C   UNL A   1      41.237  19.348  26.041  1.00  0.00     0.338 C 
ATOM     28  O   UNL A   1      42.125  18.584  25.704  1.00  0.00    -0.246 OA
BRANCH  27  29
ATOM     29  C   UNL A   1      41.508  20.698  26.566  1.00  0.00     0.060 A 
ATOM     30  C   UNL A   1      41.161  21.107  27.852  1.00  0.00     0.016 A 
ATOM     31  C   UNL A   1      42.212  21.563  25.728  1.00  0.00     0.016 A 
ATOM     32  C   UNL A   1      41.491  22.407  28.269  1.00  0.00     0.010 A 
ATOM     33  C   UNL A   1      42.538  22.852  26.137  1.00  0.00     0.010 A 
ATOM     34  C   UNL A   1      42.169  23.295  27.409  1.00  0.00    -0.014 A 
BRANCH  34  35
ATOM     35  C   UNL A   1      42.544  24.667  27.845  1.00  0.00     0.031 A 
ATOM     36  C   UNL A   1      41.499  25.731  28.056  1.00  0.00     0.074 A 
ATOM     37  C   UNL A   1      43.846  24.977  27.995  1.00  0.00     0.049 A 
ATOM     38  N   UNL A   1      41.647  26.949  28.514  1.00  0.00    -0.248 NA
ATOM     39  C   UNL A   1      40.115  25.398  27.680  1.00  0.00     0.031 C 
ATOM     40  C   UNL A   1      44.963  24.073  27.719  1.00  0.00     0.029 A 
ATOM     41  N   UNL A   1      44.449  26.131  28.430  1.00  0.00    -0.354 N 
ATOM     42  C   UNL A   1      40.383  27.526  28.478  1.00  0.00     0.074 A 
ATOM     43  C   UNL A   1      39.490  26.547  27.899  1.00  0.00     0.031 C 
ATOM     44  C   UNL A   1      46.111  24.683  28.052  1.00  0.00     0.029 A 
ATOM     45  C   UNL A   1      45.814  26.025  28.548  1.00  0.00     0.049 A 
ATOM     46  H   UNL A   1      43.952  26.956  28.637  1.00  0.00     0.167 HD
ATOM     47  C   UNL A   1      39.996  28.749  28.918  1.00  0.00     0.031 A 
ATOM     48  C   UNL A   1      46.725  26.893  29.033  1.00  0.00     0.031 A 
ATOM     49  C   UNL A   1      40.884  29.713  29.510  1.00  0.00     0.049 A 
ATOM     50  C   UNL A   1      46.267  28.217  29.577  1.00  0.00     0.074 A 
ATOM     51  C   UNL A   1      40.573  30.947  30.056  1.00  0.00     0.029 A 
ATOM     52  N   UNL A   1      42.254  29.552  29.638  1.00  0.00    -0.354 N 
ATOM     53  N   UNL A   1      45.052  28.705  29.642  1.00  0.00    -0.248 NA
ATOM     54  C   UNL A   1      47.299  29.100  30.140  1.00  0.00     0.031 C 
ATOM     55  C   UNL A   1      41.760  31.551  30.476  1.00  0.00     0.029 A 
ATOM     56  C   UNL A   1      42.803  30.667  30.247  1.00  0.00     0.049 A 
ATOM     57  H   UNL A   1      42.761  28.762  29.342  1.00  0.00     0.167 HD
ATOM     58  C   UNL A   1      45.169  29.937  30.272  1.00  0.00     0.074 A 
ATOM     59  C   UNL A   1      46.572  30.118  30.584  1.00  0.00     0.031 C 
ATOM     60  C   UNL A   1      44.198  30.836  30.562  1.00  0.00     0.031 A 
BRANCH  47  61
ATOM     61  C   UNL A   1      38.538  29.108  28.815  1.00  0.00    -0.014 A 
ATOM     62  C   UNL A   1      38.037  29.702  27.645  1.00  0.00     0.009 A 
ATOM     63  C   UNL A   1      37.679  28.950  29.916  1.00  0.00     0.009 A 
ATOM     64  C   UNL A   1      36.710  30.136  27.583  1.00  0.00     0.001 A 
ATOM     65  C   UNL A   1      36.346  29.356  29.839  1.00  0.00     0.001 A 
ATOM     66  C   UNL A   1      35.864  29.956  28.677  1.00  0.00     0.000 A 
ENDBRANCH  47  61
BRANCH  48  67
ATOM     67  C   UNL A   1      48.149  26.479  29.114  1.00  0.00    -0.014 A 
ATOM     68  C   UNL A   1      49.030  26.713  28.048  1.00  0.00     0.009 A 
ATOM     69  C   UNL A   1      48.616  25.785  30.242  1.00  0.00     0.009 A 
ATOM     70  C   UNL A   1      50.345  26.243  28.101  1.00  0.00     0.001 A 
ATOM     71  C   UNL A   1      49.939  25.340  30.303  1.00  0.00     0.001 A 
ATOM     72  C   UNL A   1      50.799  25.561  29.229  1.00  0.00     0.000 A 
ENDBRANCH  48  67
BRANCH  60  73
ATOM     73  C   UNL A   1      44.591  32.099  31.274  1.00  0.00    -0.014 A 
ATOM     74  C   UNL A   1      45.020  33.211  30.528  1.00  0.00     0.009 A 
ATOM     75  C   UNL A   1      44.656  32.154  32.673  1.00  0.00     0.009 A 
ATOM     76  C   UNL A   1      45.523  34.343  31.169  1.00  0.00     0.001 A 
ATOM     77  C   UNL A   1      45.135  33.298  33.313  1.00  0.00     0.001 A 
ATOM     78  C   UNL A   1      45.577  34.387  32.562  1.00  0.00     0.000 A 
ENDBRANCH  60  73
ENDBRANCH  34  35
ENDBRANCH  27  29
ENDBRANCH  26  27
ENDBRANCH  25  26
ENDBRANCH   1  25
TORSDOF 15
ENDMDL
