MODEL 1
REMARK VINA RESULT:     -10.5      0.000      0.000
REMARK SMILES CC(C)c1ccc(NC(=O)c2nccnc2C(=O)OCCOC(=O)c2ccc(-c3c4nc(c(-c5ccccc5)c5ccc([nH]5)c(-c5ccccc5)c5nc(c(-c6ccccc6)c6ccc3[nH]6)C=C5)C=C4)cc2)cc1
REMARK SMILES IDX 20 1 19 2 17 3 18 4 16 5 11 6 12 7 13 8 15 9 14 10 9 11 8 12
REMARK SMILES IDX 10 14 7 15 4 16 5 17 74 18 6 19 73 20 2 21 1 22 3 23 21 24
REMARK SMILES IDX 22 25 23 26 24 27 25 28 26 29 72 30 27 31 71 32 28 33 29 34
REMARK SMILES IDX 30 35 65 36 31 37 70 38 64 39 66 40 32 41 69 42 63 43 62 44
REMARK SMILES IDX 33 46 55 47 40 48 54 49 41 50 44 51 53 52 67 53 42 54 43 55
REMARK SMILES IDX 52 57 68 58 45 59 34 60 35 61 39 62 36 63 38 64 37 65 56 66
REMARK SMILES IDX 57 67 61 68 58 69 60 70 59 71 46 72 47 73 51 74 48 75 50 76
REMARK SMILES IDX 49 77
REMARK H PARENT 8 13 66 45 44 56
REMARK Flexibility Score: inf
ROOT
ATOM      1  C   UNL A   1      35.123  24.102  25.722  1.00  0.00     0.275 C 
ENDROOT
BRANCH   1   2
ATOM      2  O   UNL A   1      35.165  24.686  24.406  1.00  0.00    -0.457 OA
BRANCH   2   3
ATOM      3  C   UNL A   1      34.635  23.945  23.401  1.00  0.00     0.359 C 
ATOM      4  O   UNL A   1      35.271  23.227  22.646  1.00  0.00    -0.244 OA
BRANCH   3   5
ATOM      5  C   UNL A   1      33.146  24.004  23.384  1.00  0.00     0.179 A 
ATOM      6  C   UNL A   1      32.385  24.794  22.537  1.00  0.00     0.161 A 
ATOM      7  N   UNL A   1      31.012  24.733  22.532  1.00  0.00    -0.247 NA
ATOM      8  C   UNL A   1      30.441  23.921  23.447  1.00  0.00     0.132 A 
ATOM      9  N   UNL A   1      32.543  23.172  24.301  1.00  0.00    -0.245 NA
ATOM     10  C   UNL A   1      31.192  23.163  24.320  1.00  0.00     0.132 A 
BRANCH   6  11
ATOM     11  C   UNL A   1      32.980  25.698  21.527  1.00  0.00     0.276 C 
ATOM     12  N   UNL A   1      33.167  27.047  21.771  1.00  0.00    -0.321 N 
ATOM     13  H   UNL A   1      33.472  27.556  20.984  1.00  0.00     0.170 HD
ATOM     14  O   UNL A   1      33.217  25.250  20.402  1.00  0.00    -0.267 OA
BRANCH  12  15
ATOM     15  C   UNL A   1      33.006  27.832  22.930  1.00  0.00     0.041 A 
ATOM     16  C   UNL A   1      32.374  29.187  25.354  1.00  0.00    -0.045 A 
ATOM     17  C   UNL A   1      33.644  28.633  25.130  1.00  0.00     0.006 A 
ATOM     18  C   UNL A   1      31.458  29.128  24.295  1.00  0.00     0.006 A 
ATOM     19  C   UNL A   1      33.966  27.998  23.923  1.00  0.00     0.026 A 
ATOM     20  C   UNL A   1      31.773  28.465  23.099  1.00  0.00     0.026 A 
BRANCH  16  21
ATOM     21  C   UNL A   1      32.014  29.729  26.734  1.00  0.00     0.013 C 
ATOM     22  C   UNL A   1      31.583  28.629  27.716  1.00  0.00     0.012 C 
ATOM     23  C   UNL A   1      33.100  30.582  27.403  1.00  0.00     0.012 C 
ENDBRANCH  16  21
ENDBRANCH  12  15
ENDBRANCH   6  11
ENDBRANCH   3   5
ENDBRANCH   2   3
ENDBRANCH   1   2
BRANCH   1  24
ATOM     24  C   UNL A   1      36.316  23.170  25.949  1.00  0.00     0.275 C 
BRANCH  24  25
ATOM     25  O   UNL A   1      37.540  23.740  25.448  1.00  0.00    -0.458 OA
BRANCH  25  26
ATOM     26  C   UNL A   1      38.660  23.312  26.074  1.00  0.00     0.338 C 
ATOM     27  O   UNL A   1      39.162  22.197  26.019  1.00  0.00    -0.246 OA
BRANCH  26  28
ATOM     28  C   UNL A   1      39.314  24.430  26.767  1.00  0.00     0.060 A 
ATOM     29  C   UNL A   1      39.015  24.604  28.120  1.00  0.00     0.016 A 
ATOM     30  C   UNL A   1      40.124  25.350  26.096  1.00  0.00     0.016 A 
ATOM     31  C   UNL A   1      39.498  25.710  28.808  1.00  0.00     0.010 A 
ATOM     32  C   UNL A   1      40.613  26.464  26.789  1.00  0.00     0.010 A 
ATOM     33  C   UNL A   1      40.283  26.661  28.142  1.00  0.00    -0.014 A 
BRANCH  33  34
ATOM     34  C   UNL A   1      40.673  27.899  28.857  1.00  0.00     0.031 A 
ATOM     35  C   UNL A   1      39.675  29.010  29.019  1.00  0.00     0.074 A 
ATOM     36  C   UNL A   1      41.888  27.997  29.425  1.00  0.00     0.049 A 
ATOM     37  N   UNL A   1      39.819  30.174  29.602  1.00  0.00    -0.248 NA
ATOM     38  C   UNL A   1      38.335  28.780  28.454  1.00  0.00     0.031 C 
ATOM     39  C   UNL A   1      42.920  26.961  29.398  1.00  0.00     0.029 A 
ATOM     40  N   UNL A   1      42.450  29.014  30.154  1.00  0.00    -0.354 N 
ATOM     41  C   UNL A   1      38.598  30.821  29.457  1.00  0.00     0.074 A 
ATOM     42  C   UNL A   1      37.730  29.929  28.720  1.00  0.00     0.031 C 
ATOM     43  C   UNL A   1      43.983  27.387  30.100  1.00  0.00     0.029 A 
ATOM     44  C   UNL A   1      43.723  28.739  30.586  1.00  0.00     0.049 A 
ATOM     45  H   UNL A   1      41.985  29.860  30.348  1.00  0.00     0.167 HD
ATOM     46  C   UNL A   1      38.234  32.048  29.900  1.00  0.00     0.031 A 
ATOM     47  C   UNL A   1      44.589  29.497  31.285  1.00  0.00     0.031 A 
ATOM     48  C   UNL A   1      39.093  32.937  30.634  1.00  0.00     0.049 A 
ATOM     49  C   UNL A   1      44.182  30.882  31.707  1.00  0.00     0.074 A 
ATOM     50  C   UNL A   1      38.817  34.205  31.114  1.00  0.00     0.029 A 
ATOM     51  N   UNL A   1      40.398  32.646  30.998  1.00  0.00    -0.354 N 
ATOM     52  N   UNL A   1      43.034  31.493  31.540  1.00  0.00    -0.248 NA
ATOM     53  C   UNL A   1      45.196  31.681  32.410  1.00  0.00     0.031 C 
ATOM     54  C   UNL A   1      39.969  34.697  31.739  1.00  0.00     0.029 A 
ATOM     55  C   UNL A   1      40.946  33.716  31.684  1.00  0.00     0.049 A 
ATOM     56  H   UNL A   1      40.866  31.803  30.799  1.00  0.00     0.167 HD
ATOM     57  C   UNL A   1      43.181  32.741  32.131  1.00  0.00     0.074 A 
ATOM     58  C   UNL A   1      44.523  32.793  32.673  1.00  0.00     0.031 C 
ATOM     59  C   UNL A   1      42.284  33.752  32.216  1.00  0.00     0.031 A 
BRANCH  46  60
ATOM     60  C   UNL A   1      36.848  32.512  29.557  1.00  0.00    -0.014 A 
ATOM     61  C   UNL A   1      36.568  33.132  28.329  1.00  0.00     0.009 A 
ATOM     62  C   UNL A   1      35.803  32.315  30.474  1.00  0.00     0.009 A 
ATOM     63  C   UNL A   1      35.276  33.578  28.042  1.00  0.00     0.001 A 
ATOM     64  C   UNL A   1      34.508  32.742  30.175  1.00  0.00     0.001 A 
ATOM     65  C   UNL A   1      34.248  33.381  28.963  1.00  0.00     0.000 A 
ENDBRANCH  46  60
BRANCH  47  66
ATOM     66  C   UNL A   1      45.936  28.971  31.615  1.00  0.00    -0.014 A 
ATOM     67  C   UNL A   1      47.010  29.153  30.730  1.00  0.00     0.009 A 
ATOM     68  C   UNL A   1      46.154  28.280  32.817  1.00  0.00     0.009 A 
ATOM     69  C   UNL A   1      48.273  28.642  31.038  1.00  0.00     0.001 A 
ATOM     70  C   UNL A   1      47.423  27.791  33.132  1.00  0.00     0.001 A 
ATOM     71  C   UNL A   1      48.479  27.966  32.240  1.00  0.00     0.000 A 
ENDBRANCH  47  66
BRANCH  59  72
ATOM     72  C   UNL A   1      42.717  34.989  32.948  1.00  0.00    -0.014 A 
ATOM     73  C   UNL A   1      42.517  35.122  34.330  1.00  0.00     0.009 A 
ATOM     74  C   UNL A   1      43.362  36.021  32.248  1.00  0.00     0.009 A 
ATOM     75  C   UNL A   1      42.930  36.279  34.993  1.00  0.00     0.001 A 
ATOM     76  C   UNL A   1      43.794  37.166  32.918  1.00  0.00     0.001 A 
ATOM     77  C   UNL A   1      43.571  37.298  34.288  1.00  0.00     0.000 A 
ENDBRANCH  59  72
ENDBRANCH  33  34
ENDBRANCH  26  28
ENDBRANCH  25  26
ENDBRANCH  24  25
ENDBRANCH   1  24
TORSDOF 14
ENDMDL
MODEL 2
REMARK VINA RESULT:     -10.5      2.520      7.418
REMARK SMILES CC(C)c1ccc(NC(=O)c2nccnc2C(=O)OCCOC(=O)c2ccc(-c3c4nc(c(-c5ccccc5)c5ccc([nH]5)c(-c5ccccc5)c5nc(c(-c6ccccc6)c6ccc3[nH]6)C=C5)C=C4)cc2)cc1
REMARK SMILES IDX 20 1 19 2 17 3 18 4 16 5 11 6 12 7 13 8 15 9 14 10 9 11 8 12
REMARK SMILES IDX 10 14 7 15 4 16 5 17 74 18 6 19 73 20 2 21 1 22 3 23 21 24
REMARK SMILES IDX 22 25 23 26 24 27 25 28 26 29 72 30 27 31 71 32 28 33 29 34
REMARK SMILES IDX 30 35 65 36 31 37 70 38 64 39 66 40 32 41 69 42 63 43 62 44
REMARK SMILES IDX 33 46 55 47 40 48 54 49 41 50 44 51 53 52 67 53 42 54 43 55
REMARK SMILES IDX 52 57 68 58 45 59 34 60 35 61 39 62 36 63 38 64 37 65 56 66
REMARK SMILES IDX 57 67 61 68 58 69 60 70 59 71 46 72 47 73 51 74 48 75 50 76
REMARK SMILES IDX 49 77
REMARK H PARENT 8 13 66 45 44 56
REMARK Flexibility Score: inf
ROOT
ATOM      1  C   UNL A   1      32.609  31.083  26.976  1.00  0.00     0.275 C 
ENDROOT
BRANCH   1   2
ATOM      2  O   UNL A   1      31.844  30.513  25.898  1.00  0.00    -0.457 OA
BRANCH   2   3
ATOM      3  C   UNL A   1      32.438  29.515  25.199  1.00  0.00     0.359 C 
ATOM      4  O   UNL A   1      33.643  29.337  25.112  1.00  0.00    -0.244 OA
BRANCH   3   5
ATOM      5  C   UNL A   1      31.446  28.559  24.629  1.00  0.00     0.179 A 
ATOM      6  C   UNL A   1      30.949  27.440  25.277  1.00  0.00     0.161 A 
ATOM      7  N   UNL A   1      29.977  26.650  24.711  1.00  0.00    -0.247 NA
ATOM      8  C   UNL A   1      29.588  26.976  23.461  1.00  0.00     0.132 A 
ATOM      9  N   UNL A   1      31.025  28.881  23.358  1.00  0.00    -0.245 NA
ATOM     10  C   UNL A   1      30.108  28.065  22.794  1.00  0.00     0.132 A 
BRANCH   6  11
ATOM     11  C   UNL A   1      31.359  27.052  26.646  1.00  0.00     0.276 C 
ATOM     12  N   UNL A   1      32.149  25.941  26.887  1.00  0.00    -0.321 N 
ATOM     13  H   UNL A   1      32.262  25.733  27.844  1.00  0.00     0.170 HD
ATOM     14  O   UNL A   1      30.896  27.681  27.601  1.00  0.00    -0.267 OA
BRANCH  12  15
ATOM     15  C   UNL A   1      32.822  25.052  26.027  1.00  0.00     0.041 A 
ATOM     16  C   UNL A   1      34.481  23.278  24.540  1.00  0.00    -0.045 A 
ATOM     17  C   UNL A   1      33.208  22.893  24.987  1.00  0.00     0.006 A 
ATOM     18  C   UNL A   1      34.863  24.606  24.773  1.00  0.00     0.006 A 
ATOM     19  C   UNL A   1      32.377  23.777  25.688  1.00  0.00     0.026 A 
ATOM     20  C   UNL A   1      34.042  25.480  25.501  1.00  0.00     0.026 A 
BRANCH  16  21
ATOM     21  C   UNL A   1      35.415  22.242  23.920  1.00  0.00     0.013 C 
ATOM     22  C   UNL A   1      36.676  22.864  23.303  1.00  0.00     0.012 C 
ATOM     23  C   UNL A   1      35.842  21.105  24.860  1.00  0.00     0.012 C 
ENDBRANCH  16  21
ENDBRANCH  12  15
ENDBRANCH   6  11
ENDBRANCH   3   5
ENDBRANCH   2   3
ENDBRANCH   1   2
BRANCH   1  24
ATOM     24  C   UNL A   1      32.015  32.419  27.427  1.00  0.00     0.275 C 
BRANCH  24  25
ATOM     25  O   UNL A   1      32.937  33.507  27.228  1.00  0.00    -0.458 OA
BRANCH  25  26
ATOM     26  C   UNL A   1      33.213  34.224  28.341  1.00  0.00     0.338 C 
ATOM     27  O   UNL A   1      32.510  35.073  28.872  1.00  0.00    -0.246 OA
BRANCH  26  28
ATOM     28  C   UNL A   1      34.468  33.757  28.947  1.00  0.00     0.060 A 
ATOM     29  C   UNL A   1      35.654  34.073  28.281  1.00  0.00     0.016 A 
ATOM     30  C   UNL A   1      34.487  32.946  30.085  1.00  0.00     0.016 A 
ATOM     31  C   UNL A   1      36.865  33.560  28.729  1.00  0.00     0.010 A 
ATOM     32  C   UNL A   1      35.707  32.432  30.537  1.00  0.00     0.010 A 
ATOM     33  C   UNL A   1      36.900  32.717  29.847  1.00  0.00    -0.014 A 
BRANCH  33  34
ATOM     34  C   UNL A   1      38.181  32.074  30.224  1.00  0.00     0.031 A 
ATOM     35  C   UNL A   1      39.049  32.706  31.273  1.00  0.00     0.074 A 
ATOM     36  C   UNL A   1      38.527  30.892  29.684  1.00  0.00     0.049 A 
ATOM     37  N   UNL A   1      40.207  32.309  31.738  1.00  0.00    -0.248 NA
ATOM     38  C   UNL A   1      38.547  33.948  31.885  1.00  0.00     0.031 C 
ATOM     39  C   UNL A   1      37.737  30.144  28.707  1.00  0.00     0.029 A 
ATOM     40  N   UNL A   1      39.629  30.104  29.901  1.00  0.00    -0.354 N 
ATOM     41  C   UNL A   1      40.581  33.260  32.680  1.00  0.00     0.074 A 
ATOM     42  C   UNL A   1      39.535  34.260  32.711  1.00  0.00     0.031 C 
ATOM     43  C   UNL A   1      38.370  28.993  28.425  1.00  0.00     0.029 A 
ATOM     44  C   UNL A   1      39.626  28.945  29.167  1.00  0.00     0.049 A 
ATOM     45  H   UNL A   1      40.353  30.347  30.523  1.00  0.00     0.167 HD
ATOM     46  C   UNL A   1      41.693  33.295  33.451  1.00  0.00     0.031 A 
ATOM     47  C   UNL A   1      40.541  27.960  29.090  1.00  0.00     0.031 A 
ATOM     48  C   UNL A   1      42.734  32.303  33.425  1.00  0.00     0.049 A 
ATOM     49  C   UNL A   1      41.799  28.057  29.907  1.00  0.00     0.074 A 
ATOM     50  C   UNL A   1      43.906  32.260  34.160  1.00  0.00     0.029 A 
ATOM     51  N   UNL A   1      42.723  31.174  32.621  1.00  0.00    -0.354 N 
ATOM     52  N   UNL A   1      42.152  28.975  30.774  1.00  0.00    -0.248 NA
ATOM     53  C   UNL A   1      42.786  26.982  29.729  1.00  0.00     0.031 C 
ATOM     54  C   UNL A   1      44.622  31.121  33.773  1.00  0.00     0.029 A 
ATOM     55  C   UNL A   1      43.875  30.435  32.830  1.00  0.00     0.049 A 
ATOM     56  H   UNL A   1      42.003  30.933  31.994  1.00  0.00     0.167 HD
ATOM     57  C   UNL A   1      43.393  28.580  31.257  1.00  0.00     0.074 A 
ATOM     58  C   UNL A   1      43.723  27.333  30.599  1.00  0.00     0.031 C 
ATOM     59  C   UNL A   1      44.188  29.197  32.166  1.00  0.00     0.031 A 
BRANCH  46  60
ATOM     60  C   UNL A   1      41.855  34.479  34.360  1.00  0.00    -0.014 A 
ATOM     61  C   UNL A   1      42.437  35.674  33.907  1.00  0.00     0.009 A 
ATOM     62  C   UNL A   1      41.409  34.400  35.689  1.00  0.00     0.009 A 
ATOM     63  C   UNL A   1      42.600  36.753  34.778  1.00  0.00     0.001 A 
ATOM     64  C   UNL A   1      41.553  35.489  36.550  1.00  0.00     0.001 A 
ATOM     65  C   UNL A   1      42.156  36.661  36.096  1.00  0.00     0.000 A 
ENDBRANCH  46  60
BRANCH  47  66
ATOM     66  C   UNL A   1      40.310  26.803  28.191  1.00  0.00    -0.014 A 
ATOM     67  C   UNL A   1      40.849  26.786  26.897  1.00  0.00     0.009 A 
ATOM     68  C   UNL A   1      39.545  25.708  28.624  1.00  0.00     0.009 A 
ATOM     69  C   UNL A   1      40.616  25.701  26.048  1.00  0.00     0.001 A 
ATOM     70  C   UNL A   1      39.333  24.615  27.782  1.00  0.00     0.001 A 
ATOM     71  C   UNL A   1      39.863  24.615  26.493  1.00  0.00     0.000 A 
ENDBRANCH  47  66
BRANCH  59  72
ATOM     72  C   UNL A   1      45.477  28.514  32.520  1.00  0.00    -0.014 A 
ATOM     73  C   UNL A   1      45.536  27.568  33.555  1.00  0.00     0.009 A 
ATOM     74  C   UNL A   1      46.639  28.799  31.786  1.00  0.00     0.009 A 
ATOM     75  C   UNL A   1      46.744  26.942  33.866  1.00  0.00     0.001 A 
ATOM     76  C   UNL A   1      47.839  28.155  32.086  1.00  0.00     0.001 A 
ATOM     77  C   UNL A   1      47.893  27.232  33.131  1.00  0.00     0.000 A 
ENDBRANCH  59  72
ENDBRANCH  33  34
ENDBRANCH  26  28
ENDBRANCH  25  26
ENDBRANCH  24  25
ENDBRANCH   1  24
TORSDOF 14
ENDMDL
MODEL 3
REMARK VINA RESULT:     -10.4      2.411      6.983
REMARK SMILES CC(C)c1ccc(NC(=O)c2nccnc2C(=O)OCCOC(=O)c2ccc(-c3c4nc(c(-c5ccccc5)c5ccc([nH]5)c(-c5ccccc5)c5nc(c(-c6ccccc6)c6ccc3[nH]6)C=C5)C=C4)cc2)cc1
REMARK SMILES IDX 20 1 19 2 17 3 18 4 16 5 11 6 12 7 13 8 15 9 14 10 9 11 8 12
REMARK SMILES IDX 10 14 7 15 4 16 5 17 74 18 6 19 73 20 2 21 1 22 3 23 21 24
REMARK SMILES IDX 22 25 23 26 24 27 25 28 26 29 72 30 27 31 71 32 28 33 29 34
REMARK SMILES IDX 30 35 65 36 31 37 70 38 64 39 66 40 32 41 69 42 63 43 62 44
REMARK SMILES IDX 33 46 55 47 40 48 54 49 41 50 44 51 53 52 67 53 42 54 43 55
REMARK SMILES IDX 52 57 68 58 45 59 34 60 35 61 39 62 36 63 38 64 37 65 56 66
REMARK SMILES IDX 57 67 61 68 58 69 60 70 59 71 46 72 47 73 51 74 48 75 50 76
REMARK SMILES IDX 49 77
REMARK H PARENT 8 13 66 45 44 56
REMARK Flexibility Score: inf
ROOT
ATOM      1  C   UNL A   1      38.403  21.183  25.586  1.00  0.00     0.275 C 
ENDROOT
BRANCH   1   2
ATOM      2  O   UNL A   1      36.988  20.917  25.607  1.00  0.00    -0.457 OA
BRANCH   2   3
ATOM      3  C   UNL A   1      36.174  21.992  25.746  1.00  0.00     0.359 C 
ATOM      4  O   UNL A   1      36.518  23.085  26.171  1.00  0.00    -0.244 OA
BRANCH   3   5
ATOM      5  C   UNL A   1      34.809  21.739  25.204  1.00  0.00     0.179 A 
ATOM      6  C   UNL A   1      34.278  22.326  24.066  1.00  0.00     0.161 A 
ATOM      7  N   UNL A   1      33.037  21.981  23.588  1.00  0.00    -0.247 NA
ATOM      8  C   UNL A   1      32.331  21.098  24.326  1.00  0.00     0.132 A 
ATOM      9  N   UNL A   1      34.076  20.831  25.934  1.00  0.00    -0.245 NA
ATOM     10  C   UNL A   1      32.837  20.541  25.481  1.00  0.00     0.132 A 
BRANCH   6  11
ATOM     11  C   UNL A   1      35.025  23.300  23.238  1.00  0.00     0.276 C 
ATOM     12  N   UNL A   1      34.692  24.643  23.208  1.00  0.00    -0.321 N 
ATOM     13  H   UNL A   1      35.195  25.163  22.540  1.00  0.00     0.170 HD
ATOM     14  O   UNL A   1      35.901  22.879  22.478  1.00  0.00    -0.267 OA
BRANCH  12  15
ATOM     15  C   UNL A   1      33.770  25.408  23.950  1.00  0.00     0.041 A 
ATOM     16  C   UNL A   1      32.201  27.207  25.503  1.00  0.00    -0.045 A 
ATOM     17  C   UNL A   1      31.820  26.831  24.206  1.00  0.00     0.006 A 
ATOM     18  C   UNL A   1      33.337  26.585  26.039  1.00  0.00     0.006 A 
ATOM     19  C   UNL A   1      32.574  25.918  23.455  1.00  0.00     0.026 A 
ATOM     20  C   UNL A   1      34.105  25.694  25.275  1.00  0.00     0.026 A 
BRANCH  16  21
ATOM     21  C   UNL A   1      31.444  28.318  26.226  1.00  0.00     0.013 C 
ATOM     22  C   UNL A   1      31.578  28.240  27.753  1.00  0.00     0.012 C 
ATOM     23  C   UNL A   1      31.796  29.744  25.778  1.00  0.00     0.012 C 
ENDBRANCH  16  21
ENDBRANCH  12  15
ENDBRANCH   6  11
ENDBRANCH   3   5
ENDBRANCH   2   3
ENDBRANCH   1   2
BRANCH   1  24
ATOM     24  C   UNL A   1      39.200  19.905  25.315  1.00  0.00     0.275 C 
BRANCH  24  25
ATOM     25  O   UNL A   1      40.141  19.630  26.370  1.00  0.00    -0.458 OA
BRANCH  25  26
ATOM     26  C   UNL A   1      41.439  19.783  26.023  1.00  0.00     0.338 C 
ATOM     27  O   UNL A   1      42.112  19.045  25.317  1.00  0.00    -0.246 OA
BRANCH  26  28
ATOM     28  C   UNL A   1      41.947  21.071  26.515  1.00  0.00     0.060 A 
ATOM     29  C   UNL A   1      41.949  21.270  27.897  1.00  0.00     0.016 A 
ATOM     30  C   UNL A   1      42.323  22.102  25.649  1.00  0.00     0.016 A 
ATOM     31  C   UNL A   1      42.298  22.507  28.425  1.00  0.00     0.010 A 
ATOM     32  C   UNL A   1      42.677  23.347  26.181  1.00  0.00     0.010 A 
ATOM     33  C   UNL A   1      42.644  23.562  27.571  1.00  0.00    -0.014 A 
BRANCH  33  34
ATOM     34  C   UNL A   1      42.880  24.906  28.148  1.00  0.00     0.031 A 
ATOM     35  C   UNL A   1      44.279  25.333  28.490  1.00  0.00     0.074 A 
ATOM     36  C   UNL A   1      41.858  25.768  28.294  1.00  0.00     0.049 A 
ATOM     37  N   UNL A   1      44.697  26.460  29.009  1.00  0.00    -0.248 NA
ATOM     38  C   UNL A   1      45.352  24.366  28.205  1.00  0.00     0.031 C 
ATOM     39  C   UNL A   1      40.466  25.498  27.935  1.00  0.00     0.029 A 
ATOM     40  N   UNL A   1      41.841  27.056  28.765  1.00  0.00    -0.354 N 
ATOM     41  C   UNL A   1      46.074  26.331  29.132  1.00  0.00     0.074 A 
ATOM     42  C   UNL A   1      46.422  25.012  28.647  1.00  0.00     0.031 C 
ATOM     43  C   UNL A   1      39.732  26.597  28.179  1.00  0.00     0.029 A 
ATOM     44  C   UNL A   1      40.593  27.628  28.749  1.00  0.00     0.049 A 
ATOM     45  H   UNL A   1      42.645  27.525  29.085  1.00  0.00     0.167 HD
ATOM     46  C   UNL A   1      46.970  27.229  29.605  1.00  0.00     0.031 A 
ATOM     47  C   UNL A   1      40.187  28.844  29.162  1.00  0.00     0.031 A 
ATOM     48  C   UNL A   1      46.630  28.541  30.086  1.00  0.00     0.049 A 
ATOM     49  C   UNL A   1      41.192  29.799  29.745  1.00  0.00     0.074 A 
ATOM     50  C   UNL A   1      47.467  29.518  30.596  1.00  0.00     0.029 A 
ATOM     51  N   UNL A   1      45.346  29.060  30.111  1.00  0.00    -0.354 N 
ATOM     52  N   UNL A   1      42.488  29.653  29.880  1.00  0.00    -0.248 NA
ATOM     53  C   UNL A   1      40.673  31.083  30.235  1.00  0.00     0.031 C 
ATOM     54  C   UNL A   1      46.682  30.617  30.964  1.00  0.00     0.029 A 
ATOM     55  C   UNL A   1      45.364  30.339  30.642  1.00  0.00     0.049 A 
ATOM     56  H   UNL A   1      44.539  28.591  29.798  1.00  0.00     0.167 HD
ATOM     57  C   UNL A   1      42.942  30.833  30.456  1.00  0.00     0.074 A 
ATOM     58  C   UNL A   1      41.786  31.688  30.629  1.00  0.00     0.031 C 
ATOM     59  C   UNL A   1      44.204  31.176  30.808  1.00  0.00     0.031 A 
BRANCH  46  60
ATOM     60  C   UNL A   1      48.406  26.795  29.661  1.00  0.00    -0.014 A 
ATOM     61  C   UNL A   1      48.919  26.110  30.774  1.00  0.00     0.009 A 
ATOM     62  C   UNL A   1      49.257  27.069  28.578  1.00  0.00     0.009 A 
ATOM     63  C   UNL A   1      50.265  25.739  30.814  1.00  0.00     0.001 A 
ATOM     64  C   UNL A   1      50.596  26.676  28.612  1.00  0.00     0.001 A 
ATOM     65  C   UNL A   1      51.100  26.019  29.733  1.00  0.00     0.000 A 
ENDBRANCH  46  60
BRANCH  47  66
ATOM     66  C   UNL A   1      38.757  29.222  29.056  1.00  0.00    -0.014 A 
ATOM     67  C   UNL A   1      37.896  29.076  30.154  1.00  0.00     0.009 A 
ATOM     68  C   UNL A   1      38.243  29.731  27.852  1.00  0.00     0.009 A 
ATOM     69  C   UNL A   1      36.547  29.419  30.045  1.00  0.00     0.001 A 
ATOM     70  C   UNL A   1      36.899  30.094  27.754  1.00  0.00     0.001 A 
ATOM     71  C   UNL A   1      36.051  29.932  28.847  1.00  0.00     0.000 A 
ENDBRANCH  47  66
BRANCH  59  72
ATOM     72  C   UNL A   1      44.402  32.546  31.390  1.00  0.00    -0.014 A 
ATOM     73  C   UNL A   1      44.645  33.655  30.566  1.00  0.00     0.009 A 
ATOM     74  C   UNL A   1      44.313  32.731  32.778  1.00  0.00     0.009 A 
ATOM     75  C   UNL A   1      44.822  34.921  31.126  1.00  0.00     0.001 A 
ATOM     76  C   UNL A   1      44.469  34.002  33.332  1.00  0.00     0.001 A 
ATOM     77  C   UNL A   1      44.731  35.095  32.507  1.00  0.00     0.000 A 
ENDBRANCH  59  72
ENDBRANCH  33  34
ENDBRANCH  26  28
ENDBRANCH  25  26
ENDBRANCH  24  25
ENDBRANCH   1  24
TORSDOF 14
ENDMDL
