MODEL 1
REMARK VINA RESULT:     -11.5      0.000      0.000
REMARK SMILES COc1cc(/C=C2/C(=O)NN(c3ccc(Cl)c(Cl)c3)C2=O)ccc1OCC(=O)OCCOC(=O)c1ccc(-c2c3nc(c(-c4ccccc4)c4ccc([nH]4)c(-c4ccccc4)c4nc(c(-c5ccccc5)c5ccc2[nH]5)C=C4)C=C3)cc1
REMARK SMILES IDX 30 1 29 2 27 3 28 4 26 5 25 6 24 7 3 8 4 9 5 10 23 11 22 12
REMARK SMILES IDX 2 13 1 14 6 15 7 16 8 17 20 18 9 19 10 20 11 21 21 22 12 24
REMARK SMILES IDX 13 25 19 26 14 27 17 28 15 29 18 30 16 31 31 32 32 33 33 34
REMARK SMILES IDX 34 35 35 36 36 37 82 38 37 39 81 40 38 41 39 42 40 43 75 44
REMARK SMILES IDX 41 45 80 46 74 47 76 48 42 49 79 50 73 51 72 52 43 54 65 55
REMARK SMILES IDX 50 56 64 57 51 58 54 59 63 60 77 61 52 62 53 63 62 65 78 66
REMARK SMILES IDX 55 67 44 68 45 69 49 70 46 71 48 72 47 73 66 74 67 75 71 76
REMARK SMILES IDX 68 77 70 78 69 79 56 80 57 81 61 82 58 83 60 84 59 85
REMARK H PARENT 10 23 76 53 54 64
REMARK Flexibility Score: inf
ROOT
ATOM      1  C   UNL A   1      33.801  33.896  29.223  1.00  0.00     0.274 C 
ENDROOT
BRANCH   1   2
ATOM      2  O   UNL A   1      33.719  33.626  27.803  1.00  0.00    -0.460 OA
BRANCH   2   3
ATOM      3  C   UNL A   1      32.706  32.818  27.389  1.00  0.00     0.344 C 
ATOM      4  O   UNL A   1      31.577  33.206  27.108  1.00  0.00    -0.248 OA
BRANCH   3   5
ATOM      5  C   UNL A   1      33.147  31.354  27.218  1.00  0.00     0.352 C 
BRANCH   5   6
ATOM      6  O   UNL A   1      32.951  30.607  26.048  1.00  0.00    -0.478 OA
BRANCH   6   7
ATOM      7  C   UNL A   1      32.482  29.336  25.943  1.00  0.00     0.162 A 
ATOM      8  C   UNL A   1      32.132  28.508  24.868  1.00  0.00     0.161 A 
ATOM      9  C   UNL A   1      31.624  27.205  25.131  1.00  0.00     0.058 A 
ATOM     10  C   UNL A   1      31.400  26.744  26.436  1.00  0.00    -0.021 A 
ATOM     11  C   UNL A   1      32.212  28.865  27.243  1.00  0.00     0.051 A 
ATOM     12  C   UNL A   1      31.676  27.604  27.494  1.00  0.00     0.012 A 
BRANCH   8  13
ATOM     13  O   UNL A   1      31.956  28.866  23.556  1.00  0.00    -0.493 OA
ATOM     14  C   UNL A   1      33.103  29.050  22.761  1.00  0.00     0.278 C 
ENDBRANCH   8  13
BRANCH  10  15
ATOM     15  C   UNL A   1      30.758  25.461  26.754  1.00  0.00     0.028 C 
ATOM     16  C   UNL A   1      31.361  24.281  26.550  1.00  0.00     0.109 C 
ATOM     17  C   UNL A   1      30.666  22.967  26.568  1.00  0.00     0.275 C 
ATOM     18  C   UNL A   1      32.779  24.052  26.177  1.00  0.00     0.282 C 
ATOM     19  O   UNL A   1      29.529  22.734  26.909  1.00  0.00    -0.267 OA
ATOM     20  N   UNL A   1      31.608  22.069  26.092  1.00  0.00    -0.256 N 
ATOM     21  N   UNL A   1      32.847  22.679  25.923  1.00  0.00    -0.217 N 
ATOM     22  O   UNL A   1      33.662  24.883  26.109  1.00  0.00    -0.267 OA
ATOM     23  H   UNL A   1      31.424  21.122  25.899  1.00  0.00     0.192 HD
BRANCH  21  24
ATOM     24  C   UNL A   1      34.029  21.988  25.609  1.00  0.00     0.068 A 
ATOM     25  C   UNL A   1      35.278  22.605  25.723  1.00  0.00     0.030 A 
ATOM     26  C   UNL A   1      33.960  20.645  25.217  1.00  0.00     0.050 A 
ATOM     27  C   UNL A   1      36.443  21.861  25.500  1.00  0.00     0.024 A 
ATOM     28  C   UNL A   1      35.118  19.916  24.943  1.00  0.00     0.061 A 
ATOM     29  C   UNL A   1      36.367  20.520  25.106  1.00  0.00     0.059 A 
ATOM     30  Cl  UNL A   1      34.930  18.288  24.401  1.00  0.00    -0.083 Cl
ATOM     31  Cl  UNL A   1      37.844  19.665  24.848  1.00  0.00    -0.083 Cl
ENDBRANCH  21  24
ENDBRANCH  10  15
ENDBRANCH   6   7
ENDBRANCH   5   6
ENDBRANCH   3   5
ENDBRANCH   2   3
ENDBRANCH   1   2
BRANCH   1  32
ATOM     32  C   UNL A   1      33.195  35.279  29.507  1.00  0.00     0.275 C 
BRANCH  32  33
ATOM     33  O   UNL A   1      32.327  35.240  30.662  1.00  0.00    -0.458 OA
BRANCH  33  34
ATOM     34  C   UNL A   1      32.834  35.833  31.784  1.00  0.00     0.338 C 
ATOM     35  O   UNL A   1      32.391  36.841  32.312  1.00  0.00    -0.246 OA
BRANCH  34  36
ATOM     36  C   UNL A   1      33.959  35.043  32.367  1.00  0.00     0.060 A 
ATOM     37  C   UNL A   1      35.260  35.507  32.289  1.00  0.00     0.016 A 
ATOM     38  C   UNL A   1      33.751  33.769  32.904  1.00  0.00     0.016 A 
ATOM     39  C   UNL A   1      36.334  34.636  32.473  1.00  0.00     0.010 A 
ATOM     40  C   UNL A   1      34.842  32.979  33.322  1.00  0.00     0.010 A 
ATOM     41  C   UNL A   1      36.165  33.383  33.073  1.00  0.00    -0.014 A 
BRANCH  41  42
ATOM     42  C   UNL A   1      37.364  32.572  33.481  1.00  0.00     0.031 A 
ATOM     43  C   UNL A   1      38.042  32.770  34.819  1.00  0.00     0.074 A 
ATOM     44  C   UNL A   1      37.866  31.635  32.639  1.00  0.00     0.049 A 
ATOM     45  N   UNL A   1      39.198  32.314  35.240  1.00  0.00    -0.248 NA
ATOM     46  C   UNL A   1      37.344  33.608  35.807  1.00  0.00     0.031 C 
ATOM     47  C   UNL A   1      37.313  31.285  31.326  1.00  0.00     0.029 A 
ATOM     48  N   UNL A   1      38.943  30.787  32.760  1.00  0.00    -0.354 N 
ATOM     49  C   UNL A   1      39.396  32.863  36.504  1.00  0.00     0.074 A 
ATOM     50  C   UNL A   1      38.242  33.692  36.779  1.00  0.00     0.031 C 
ATOM     51  C   UNL A   1      37.980  30.245  30.816  1.00  0.00     0.029 A 
ATOM     52  C   UNL A   1      39.119  29.964  31.671  1.00  0.00     0.049 A 
ATOM     53  H   UNL A   1      39.532  30.772  33.549  1.00  0.00     0.167 HD
ATOM     54  C   UNL A   1      40.448  32.702  37.349  1.00  0.00     0.031 A 
ATOM     55  C   UNL A   1      40.117  29.126  31.331  1.00  0.00     0.031 A 
ATOM     56  C   UNL A   1      41.585  31.858  37.072  1.00  0.00     0.049 A 
ATOM     57  C   UNL A   1      41.297  29.018  32.242  1.00  0.00     0.074 A 
ATOM     58  C   UNL A   1      42.709  31.632  37.851  1.00  0.00     0.029 A 
ATOM     59  N   UNL A   1      41.739  31.090  35.926  1.00  0.00    -0.354 N 
ATOM     60  N   UNL A   1      41.503  29.608  33.394  1.00  0.00    -0.248 NA
ATOM     61  C   UNL A   1      42.391  28.148  31.798  1.00  0.00     0.031 C 
ATOM     62  C   UNL A   1      43.568  30.781  37.147  1.00  0.00     0.029 A 
ATOM     63  C   UNL A   1      42.948  30.413  35.963  1.00  0.00     0.049 A 
ATOM     64  H   UNL A   1      41.085  31.035  35.192  1.00  0.00     0.167 HD
ATOM     65  C   UNL A   1      42.746  29.171  33.823  1.00  0.00     0.074 A 
ATOM     66  C   UNL A   1      43.232  28.244  32.818  1.00  0.00     0.031 C 
ATOM     67  C   UNL A   1      43.425  29.508  34.947  1.00  0.00     0.031 A 
BRANCH  54  68
ATOM     68  C   UNL A   1      40.449  33.521  38.619  1.00  0.00    -0.014 A 
ATOM     69  C   UNL A   1      39.941  33.024  39.831  1.00  0.00     0.009 A 
ATOM     70  C   UNL A   1      40.970  34.826  38.596  1.00  0.00     0.009 A 
ATOM     71  C   UNL A   1      39.898  33.835  40.969  1.00  0.00     0.001 A 
ATOM     72  C   UNL A   1      40.958  35.623  39.744  1.00  0.00     0.001 A 
ATOM     73  C   UNL A   1      40.406  35.134  40.925  1.00  0.00     0.000 A 
ENDBRANCH  54  68
BRANCH  55  74
ATOM     74  C   UNL A   1      40.065  28.399  30.032  1.00  0.00    -0.014 A 
ATOM     75  C   UNL A   1      40.677  28.928  28.887  1.00  0.00     0.009 A 
ATOM     76  C   UNL A   1      39.436  27.143  29.941  1.00  0.00     0.009 A 
ATOM     77  C   UNL A   1      40.654  28.221  27.681  1.00  0.00     0.001 A 
ATOM     78  C   UNL A   1      39.452  26.420  28.747  1.00  0.00     0.001 A 
ATOM     79  C   UNL A   1      40.054  26.964  27.615  1.00  0.00     0.000 A 
ENDBRANCH  55  74
BRANCH  67  80
ATOM     80  C   UNL A   1      44.750  28.831  35.157  1.00  0.00    -0.014 A 
ATOM     81  C   UNL A   1      45.949  29.407  34.708  1.00  0.00     0.009 A 
ATOM     82  C   UNL A   1      44.794  27.590  35.810  1.00  0.00     0.009 A 
ATOM     83  C   UNL A   1      47.160  28.729  34.867  1.00  0.00     0.001 A 
ATOM     84  C   UNL A   1      46.009  26.933  36.002  1.00  0.00     0.001 A 
ATOM     85  C   UNL A   1      47.189  27.496  35.517  1.00  0.00     0.000 A 
ENDBRANCH  67  80
ENDBRANCH  41  42
ENDBRANCH  34  36
ENDBRANCH  33  34
ENDBRANCH  32  33
ENDBRANCH   1  32
TORSDOF 16
ENDMDL
MODEL 2
REMARK VINA RESULT:     -11.4      4.051      9.163
REMARK SMILES COc1cc(/C=C2/C(=O)NN(c3ccc(Cl)c(Cl)c3)C2=O)ccc1OCC(=O)OCCOC(=O)c1ccc(-c2c3nc(c(-c4ccccc4)c4ccc([nH]4)c(-c4ccccc4)c4nc(c(-c5ccccc5)c5ccc2[nH]5)C=C4)C=C3)cc1
REMARK SMILES IDX 30 1 29 2 27 3 28 4 26 5 25 6 24 7 3 8 4 9 5 10 23 11 22 12
REMARK SMILES IDX 2 13 1 14 6 15 7 16 8 17 20 18 9 19 10 20 11 21 21 22 12 24
REMARK SMILES IDX 13 25 19 26 14 27 17 28 15 29 18 30 16 31 31 32 32 33 33 34
REMARK SMILES IDX 34 35 35 36 36 37 82 38 37 39 81 40 38 41 39 42 40 43 75 44
REMARK SMILES IDX 41 45 80 46 74 47 76 48 42 49 79 50 73 51 72 52 43 54 65 55
REMARK SMILES IDX 50 56 64 57 51 58 54 59 63 60 77 61 52 62 53 63 62 65 78 66
REMARK SMILES IDX 55 67 44 68 45 69 49 70 46 71 48 72 47 73 66 74 67 75 71 76
REMARK SMILES IDX 68 77 70 78 69 79 56 80 57 81 61 82 58 83 60 84 59 85
REMARK H PARENT 10 23 76 53 54 64
REMARK Flexibility Score: inf
ROOT
ATOM      1  C   UNL A   1      41.106  20.744  27.080  1.00  0.00     0.274 C 
ENDROOT
BRANCH   1   2
ATOM      2  O   UNL A   1      40.161  20.663  25.987  1.00  0.00    -0.460 OA
BRANCH   2   3
ATOM      3  C   UNL A   1      39.030  21.411  26.097  1.00  0.00     0.344 C 
ATOM      4  O   UNL A   1      38.941  22.446  26.751  1.00  0.00    -0.248 OA
BRANCH   3   5
ATOM      5  C   UNL A   1      37.876  20.873  25.233  1.00  0.00     0.352 C 
BRANCH   5   6
ATOM      6  O   UNL A   1      36.520  21.050  25.537  1.00  0.00    -0.478 OA
BRANCH   6   7
ATOM      7  C   UNL A   1      35.577  21.685  24.794  1.00  0.00     0.162 A 
ATOM      8  C   UNL A   1      34.184  21.583  24.685  1.00  0.00     0.161 A 
ATOM      9  C   UNL A   1      33.497  22.403  23.747  1.00  0.00     0.058 A 
ATOM     10  C   UNL A   1      34.178  23.267  22.878  1.00  0.00    -0.021 A 
ATOM     11  C   UNL A   1      36.241  22.532  23.884  1.00  0.00     0.051 A 
ATOM     12  C   UNL A   1      35.567  23.302  22.939  1.00  0.00     0.012 A 
BRANCH   8  13
ATOM     13  O   UNL A   1      33.374  20.594  25.183  1.00  0.00    -0.493 OA
ATOM     14  C   UNL A   1      32.524  19.921  24.285  1.00  0.00     0.278 C 
ENDBRANCH   8  13
BRANCH  10  15
ATOM     15  C   UNL A   1      33.527  24.035  21.807  1.00  0.00     0.028 C 
ATOM     16  C   UNL A   1      32.948  25.225  22.021  1.00  0.00     0.109 C 
ATOM     17  C   UNL A   1      32.029  25.898  21.066  1.00  0.00     0.275 C 
ATOM     18  C   UNL A   1      33.019  26.048  23.255  1.00  0.00     0.282 C 
ATOM     19  O   UNL A   1      31.784  25.580  19.925  1.00  0.00    -0.267 OA
ATOM     20  N   UNL A   1      31.504  26.963  21.779  1.00  0.00    -0.256 N 
ATOM     21  N   UNL A   1      32.117  27.090  23.022  1.00  0.00    -0.217 N 
ATOM     22  O   UNL A   1      33.708  25.842  24.233  1.00  0.00    -0.267 OA
ATOM     23  H   UNL A   1      30.789  27.555  21.449  1.00  0.00     0.192 HD
BRANCH  21  24
ATOM     24  C   UNL A   1      31.910  28.170  23.896  1.00  0.00     0.068 A 
ATOM     25  C   UNL A   1      32.753  28.386  24.989  1.00  0.00     0.030 A 
ATOM     26  C   UNL A   1      30.866  29.071  23.645  1.00  0.00     0.050 A 
ATOM     27  C   UNL A   1      32.581  29.526  25.784  1.00  0.00     0.024 A 
ATOM     28  C   UNL A   1      30.661  30.179  24.468  1.00  0.00     0.061 A 
ATOM     29  C   UNL A   1      31.535  30.421  25.529  1.00  0.00     0.059 A 
ATOM     30  Cl  UNL A   1      29.309  31.195  24.119  1.00  0.00    -0.083 Cl
ATOM     31  Cl  UNL A   1      31.384  31.804  26.551  1.00  0.00    -0.083 Cl
ENDBRANCH  21  24
ENDBRANCH  10  15
ENDBRANCH   6   7
ENDBRANCH   5   6
ENDBRANCH   3   5
ENDBRANCH   2   3
ENDBRANCH   1   2
BRANCH   1  32
ATOM     32  C   UNL A   1      42.392  21.425  26.584  1.00  0.00     0.275 C 
BRANCH  32  33
ATOM     33  O   UNL A   1      42.126  22.265  25.438  1.00  0.00    -0.458 OA
BRANCH  33  34
ATOM     34  C   UNL A   1      42.923  23.370  25.336  1.00  0.00     0.338 C 
ATOM     35  O   UNL A   1      43.827  23.517  24.529  1.00  0.00    -0.246 OA
BRANCH  34  36
ATOM     36  C   UNL A   1      42.498  24.448  26.279  1.00  0.00     0.060 A 
ATOM     37  C   UNL A   1      43.319  25.536  26.519  1.00  0.00     0.016 A 
ATOM     38  C   UNL A   1      41.322  24.337  27.026  1.00  0.00     0.016 A 
ATOM     39  C   UNL A   1      43.124  26.331  27.649  1.00  0.00     0.010 A 
ATOM     40  C   UNL A   1      41.007  25.294  28.013  1.00  0.00     0.010 A 
ATOM     41  C   UNL A   1      41.928  26.292  28.374  1.00  0.00    -0.014 A 
BRANCH  41  42
ATOM     42  C   UNL A   1      41.650  27.325  29.432  1.00  0.00     0.031 A 
ATOM     43  C   UNL A   1      42.494  27.430  30.683  1.00  0.00     0.074 A 
ATOM     44  C   UNL A   1      40.619  28.192  29.277  1.00  0.00     0.049 A 
ATOM     45  N   UNL A   1      42.268  28.112  31.781  1.00  0.00    -0.248 NA
ATOM     46  C   UNL A   1      43.742  26.653  30.717  1.00  0.00     0.031 C 
ATOM     47  C   UNL A   1      39.727  28.258  28.114  1.00  0.00     0.029 A 
ATOM     48  N   UNL A   1      40.149  29.200  30.088  1.00  0.00    -0.354 N 
ATOM     49  C   UNL A   1      43.303  27.792  32.657  1.00  0.00     0.074 A 
ATOM     50  C   UNL A   1      44.153  26.849  31.963  1.00  0.00     0.031 C 
ATOM     51  C   UNL A   1      38.898  29.299  28.236  1.00  0.00     0.029 A 
ATOM     52  C   UNL A   1      39.069  29.870  29.560  1.00  0.00     0.049 A 
ATOM     53  H   UNL A   1      40.547  29.420  30.961  1.00  0.00     0.167 HD
ATOM     54  C   UNL A   1      43.515  28.231  33.925  1.00  0.00     0.031 A 
ATOM     55  C   UNL A   1      38.238  30.789  30.088  1.00  0.00     0.031 A 
ATOM     56  C   UNL A   1      42.670  29.186  34.601  1.00  0.00     0.049 A 
ATOM     57  C   UNL A   1      38.447  31.206  31.508  1.00  0.00     0.074 A 
ATOM     58  C   UNL A   1      42.784  29.690  35.886  1.00  0.00     0.029 A 
ATOM     59  N   UNL A   1      41.553  29.790  34.039  1.00  0.00    -0.354 N 
ATOM     60  N   UNL A   1      39.382  30.830  32.346  1.00  0.00    -0.248 NA
ATOM     61  C   UNL A   1      37.476  32.155  32.063  1.00  0.00     0.031 C 
ATOM     62  C   UNL A   1      41.704  30.547  36.121  1.00  0.00     0.029 A 
ATOM     63  C   UNL A   1      40.956  30.640  34.958  1.00  0.00     0.049 A 
ATOM     64  H   UNL A   1      41.232  29.638  33.120  1.00  0.00     0.167 HD
ATOM     65  C   UNL A   1      39.122  31.508  33.527  1.00  0.00     0.074 A 
ATOM     66  C   UNL A   1      37.958  32.338  33.284  1.00  0.00     0.031 C 
ATOM     67  C   UNL A   1      39.788  31.445  34.706  1.00  0.00     0.031 A 
BRANCH  54  68
ATOM     68  C   UNL A   1      44.665  27.618  34.689  1.00  0.00    -0.014 A 
ATOM     69  C   UNL A   1      44.623  26.303  35.179  1.00  0.00     0.009 A 
ATOM     70  C   UNL A   1      45.819  28.384  34.925  1.00  0.00     0.009 A 
ATOM     71  C   UNL A   1      45.680  25.794  35.941  1.00  0.00     0.001 A 
ATOM     72  C   UNL A   1      46.890  27.862  35.656  1.00  0.00     0.001 A 
ATOM     73  C   UNL A   1      46.813  26.573  36.178  1.00  0.00     0.000 A 
ENDBRANCH  54  68
BRANCH  55  74
ATOM     74  C   UNL A   1      37.092  31.301  29.285  1.00  0.00    -0.014 A 
ATOM     75  C   UNL A   1      37.103  32.604  28.766  1.00  0.00     0.009 A 
ATOM     76  C   UNL A   1      35.994  30.470  28.996  1.00  0.00     0.009 A 
ATOM     77  C   UNL A   1      36.040  33.063  27.983  1.00  0.00     0.001 A 
ATOM     78  C   UNL A   1      34.954  30.917  28.178  1.00  0.00     0.001 A 
ATOM     79  C   UNL A   1      34.974  32.217  27.680  1.00  0.00     0.000 A 
ENDBRANCH  55  74
BRANCH  67  80
ATOM     80  C   UNL A   1      39.283  32.337  35.806  1.00  0.00    -0.014 A 
ATOM     81  C   UNL A   1      39.650  33.690  35.882  1.00  0.00     0.009 A 
ATOM     82  C   UNL A   1      38.431  31.807  36.786  1.00  0.00     0.009 A 
ATOM     83  C   UNL A   1      39.211  34.481  36.946  1.00  0.00     0.001 A 
ATOM     84  C   UNL A   1      37.963  32.609  37.827  1.00  0.00     0.001 A 
ATOM     85  C   UNL A   1      38.365  33.941  37.914  1.00  0.00     0.000 A 
ENDBRANCH  67  80
ENDBRANCH  41  42
ENDBRANCH  34  36
ENDBRANCH  33  34
ENDBRANCH  32  33
ENDBRANCH   1  32
TORSDOF 16
ENDMDL
MODEL 3
REMARK VINA RESULT:     -11.4      3.719      5.172
REMARK SMILES COc1cc(/C=C2/C(=O)NN(c3ccc(Cl)c(Cl)c3)C2=O)ccc1OCC(=O)OCCOC(=O)c1ccc(-c2c3nc(c(-c4ccccc4)c4ccc([nH]4)c(-c4ccccc4)c4nc(c(-c5ccccc5)c5ccc2[nH]5)C=C4)C=C3)cc1
REMARK SMILES IDX 30 1 29 2 27 3 28 4 26 5 25 6 24 7 3 8 4 9 5 10 23 11 22 12
REMARK SMILES IDX 2 13 1 14 6 15 7 16 8 17 20 18 9 19 10 20 11 21 21 22 12 24
REMARK SMILES IDX 13 25 19 26 14 27 17 28 15 29 18 30 16 31 31 32 32 33 33 34
REMARK SMILES IDX 34 35 35 36 36 37 82 38 37 39 81 40 38 41 39 42 40 43 75 44
REMARK SMILES IDX 41 45 80 46 74 47 76 48 42 49 79 50 73 51 72 52 43 54 65 55
REMARK SMILES IDX 50 56 64 57 51 58 54 59 63 60 77 61 52 62 53 63 62 65 78 66
REMARK SMILES IDX 55 67 44 68 45 69 49 70 46 71 48 72 47 73 66 74 67 75 71 76
REMARK SMILES IDX 68 77 70 78 69 79 56 80 57 81 61 82 58 83 60 84 59 85
REMARK H PARENT 10 23 76 53 54 64
REMARK Flexibility Score: inf
ROOT
ATOM      1  C   UNL A   1      33.911  34.633  28.020  1.00  0.00     0.274 C 
ENDROOT
BRANCH   1   2
ATOM      2  O   UNL A   1      34.303  33.433  28.731  1.00  0.00    -0.460 OA
BRANCH   2   3
ATOM      3  C   UNL A   1      35.634  33.249  28.937  1.00  0.00     0.344 C 
ATOM      4  O   UNL A   1      36.405  34.121  29.327  1.00  0.00    -0.248 OA
BRANCH   3   5
ATOM      5  C   UNL A   1      36.073  31.792  28.714  1.00  0.00     0.352 C 
BRANCH   5   6
ATOM      6  O   UNL A   1      36.303  30.875  29.749  1.00  0.00    -0.478 OA
BRANCH   6   7
ATOM      7  C   UNL A   1      37.295  29.951  29.836  1.00  0.00     0.162 A 
ATOM      8  C   UNL A   1      37.656  28.990  30.789  1.00  0.00     0.161 A 
ATOM      9  C   UNL A   1      38.814  28.192  30.568  1.00  0.00     0.058 A 
ATOM     10  C   UNL A   1      39.645  28.382  29.455  1.00  0.00    -0.021 A 
ATOM     11  C   UNL A   1      38.167  30.148  28.747  1.00  0.00     0.051 A 
ATOM     12  C   UNL A   1      39.322  29.392  28.556  1.00  0.00     0.012 A 
BRANCH   8  13
ATOM     13  O   UNL A   1      37.194  28.868  32.074  1.00  0.00    -0.493 OA
ATOM     14  C   UNL A   1      37.948  29.456  33.107  1.00  0.00     0.278 C 
ENDBRANCH   8  13
BRANCH  10  15
ATOM     15  C   UNL A   1      40.917  27.675  29.251  1.00  0.00     0.028 C 
ATOM     16  C   UNL A   1      40.985  26.456  28.695  1.00  0.00     0.109 C 
ATOM     17  C   UNL A   1      42.185  25.578  28.736  1.00  0.00     0.275 C 
ATOM     18  C   UNL A   1      39.886  25.710  28.033  1.00  0.00     0.282 C 
ATOM     19  O   UNL A   1      43.297  25.861  29.118  1.00  0.00    -0.267 OA
ATOM     20  N   UNL A   1      41.740  24.359  28.252  1.00  0.00    -0.256 N 
ATOM     21  N   UNL A   1      40.431  24.446  27.788  1.00  0.00    -0.217 N 
ATOM     22  O   UNL A   1      38.773  26.122  27.776  1.00  0.00    -0.267 OA
ATOM     23  H   UNL A   1      42.281  23.537  28.237  1.00  0.00     0.192 HD
BRANCH  21  24
ATOM     24  C   UNL A   1      39.770  23.419  27.095  1.00  0.00     0.068 A 
ATOM     25  C   UNL A   1      38.522  23.633  26.504  1.00  0.00     0.030 A 
ATOM     26  C   UNL A   1      40.391  22.170  26.958  1.00  0.00     0.050 A 
ATOM     27  C   UNL A   1      37.935  22.619  25.736  1.00  0.00     0.024 A 
ATOM     28  C   UNL A   1      39.782  21.142  26.237  1.00  0.00     0.061 A 
ATOM     29  C   UNL A   1      38.559  21.373  25.604  1.00  0.00     0.059 A 
ATOM     30  Cl  UNL A   1      40.591  19.617  26.179  1.00  0.00    -0.083 Cl
ATOM     31  Cl  UNL A   1      37.775  20.172  24.644  1.00  0.00    -0.083 Cl
ENDBRANCH  21  24
ENDBRANCH  10  15
ENDBRANCH   6   7
ENDBRANCH   5   6
ENDBRANCH   3   5
ENDBRANCH   2   3
ENDBRANCH   1   2
BRANCH   1  32
ATOM     32  C   UNL A   1      33.208  35.589  28.998  1.00  0.00     0.275 C 
BRANCH  32  33
ATOM     33  O   UNL A   1      32.616  34.864  30.099  1.00  0.00    -0.458 OA
BRANCH  33  34
ATOM     34  C   UNL A   1      32.752  35.461  31.321  1.00  0.00     0.338 C 
ATOM     35  O   UNL A   1      31.984  36.281  31.796  1.00  0.00    -0.246 OA
BRANCH  34  36
ATOM     36  C   UNL A   1      33.921  34.916  32.075  1.00  0.00     0.060 A 
ATOM     37  C   UNL A   1      34.894  35.765  32.574  1.00  0.00     0.016 A 
ATOM     38  C   UNL A   1      34.127  33.539  32.201  1.00  0.00     0.016 A 
ATOM     39  C   UNL A   1      36.149  35.269  32.930  1.00  0.00     0.010 A 
ATOM     40  C   UNL A   1      35.307  33.042  32.793  1.00  0.00     0.010 A 
ATOM     41  C   UNL A   1      36.364  33.902  33.132  1.00  0.00    -0.014 A 
BRANCH  41  42
ATOM     42  C   UNL A   1      37.650  33.422  33.749  1.00  0.00     0.031 A 
ATOM     43  C   UNL A   1      37.825  33.324  35.249  1.00  0.00     0.074 A 
ATOM     44  C   UNL A   1      38.690  33.067  32.956  1.00  0.00     0.049 A 
ATOM     45  N   UNL A   1      38.922  33.137  35.946  1.00  0.00    -0.248 NA
ATOM     46  C   UNL A   1      36.619  33.477  36.076  1.00  0.00     0.031 C 
ATOM     47  C   UNL A   1      38.682  33.063  31.488  1.00  0.00     0.029 A 
ATOM     48  N   UNL A   1      39.957  32.622  33.261  1.00  0.00    -0.354 N 
ATOM     49  C   UNL A   1      38.549  33.221  37.285  1.00  0.00     0.074 A 
ATOM     50  C   UNL A   1      37.126  33.481  37.302  1.00  0.00     0.031 C 
ATOM     51  C   UNL A   1      39.827  32.550  31.030  1.00  0.00     0.029 A 
ATOM     52  C   UNL A   1      40.727  32.353  32.152  1.00  0.00     0.049 A 
ATOM     53  H   UNL A   1      40.280  32.507  34.184  1.00  0.00     0.167 HD
ATOM     54  C   UNL A   1      39.324  33.106  38.395  1.00  0.00     0.031 A 
ATOM     55  C   UNL A   1      42.033  32.059  32.017  1.00  0.00     0.031 A 
ATOM     56  C   UNL A   1      40.740  32.827  38.367  1.00  0.00     0.049 A 
ATOM     57  C   UNL A   1      42.882  32.006  33.247  1.00  0.00     0.074 A 
ATOM     58  C   UNL A   1      41.622  32.702  39.428  1.00  0.00     0.029 A 
ATOM     59  N   UNL A   1      41.482  32.621  37.211  1.00  0.00    -0.354 N 
ATOM     60  N   UNL A   1      42.528  32.169  34.497  1.00  0.00    -0.248 NA
ATOM     61  C   UNL A   1      44.313  31.752  33.046  1.00  0.00     0.031 C 
ATOM     62  C   UNL A   1      42.904  32.485  38.912  1.00  0.00     0.029 A 
ATOM     63  C   UNL A   1      42.812  32.396  37.531  1.00  0.00     0.049 A 
ATOM     64  H   UNL A   1      41.116  32.631  36.297  1.00  0.00     0.167 HD
ATOM     65  C   UNL A   1      43.690  32.023  35.239  1.00  0.00     0.074 A 
ATOM     66  C   UNL A   1      44.752  31.731  34.296  1.00  0.00     0.031 C 
ATOM     67  C   UNL A   1      43.860  32.125  36.580  1.00  0.00     0.031 A 
BRANCH  54  68
ATOM     68  C   UNL A   1      38.666  33.361  39.731  1.00  0.00    -0.014 A 
ATOM     69  C   UNL A   1      38.652  34.632  40.328  1.00  0.00     0.009 A 
ATOM     70  C   UNL A   1      38.048  32.295  40.408  1.00  0.00     0.009 A 
ATOM     71  C   UNL A   1      38.092  34.815  41.597  1.00  0.00     0.001 A 
ATOM     72  C   UNL A   1      37.458  32.488  41.660  1.00  0.00     0.001 A 
ATOM     73  C   UNL A   1      37.496  33.743  42.262  1.00  0.00     0.000 A 
ENDBRANCH  54  68
BRANCH  55  74
ATOM     74  C   UNL A   1      42.616  31.877  30.658  1.00  0.00    -0.014 A 
ATOM     75  C   UNL A   1      43.150  32.967  29.954  1.00  0.00     0.009 A 
ATOM     76  C   UNL A   1      42.681  30.600  30.073  1.00  0.00     0.009 A 
ATOM     77  C   UNL A   1      43.728  32.781  28.695  1.00  0.00     0.001 A 
ATOM     78  C   UNL A   1      43.298  30.410  28.834  1.00  0.00     0.001 A 
ATOM     79  C   UNL A   1      43.813  31.503  28.142  1.00  0.00     0.000 A 
ENDBRANCH  55  74
BRANCH  67  80
ATOM     80  C   UNL A   1      45.249  31.875  37.098  1.00  0.00    -0.014 A 
ATOM     81  C   UNL A   1      45.680  30.588  37.458  1.00  0.00     0.009 A 
ATOM     82  C   UNL A   1      46.138  32.952  37.233  1.00  0.00     0.009 A 
ATOM     83  C   UNL A   1      46.957  30.394  37.987  1.00  0.00     0.001 A 
ATOM     84  C   UNL A   1      47.426  32.750  37.727  1.00  0.00     0.001 A 
ATOM     85  C   UNL A   1      47.830  31.474  38.118  1.00  0.00     0.000 A 
ENDBRANCH  67  80
ENDBRANCH  41  42
ENDBRANCH  34  36
ENDBRANCH  33  34
ENDBRANCH  32  33
ENDBRANCH   1  32
TORSDOF 16
ENDMDL
