MODEL 1
REMARK VINA RESULT:      -9.8      0.000      0.000
REMARK SMILES CCC[NH2+][C@@H]1COC[C@@H]1C(=O)N[C@@](C)(CC)C(=O)OCCOC(=O)c1ccc(-c2c3nc(c(-c4ccccc4)c4ccc([nH]4)c(-c4ccccc4)c4nc(c(-c5ccccc5)c5ccc2[nH]5)C=C4)C=C3)cc1
REMARK SMILES IDX 19 1 17 2 18 3 13 4 14 5 12 6 10 7 11 8 9 10 5 11 6 12 7 13
REMARK SMILES IDX 8 14 4 15 3 18 2 19 1 20 15 21 16 22 20 23 21 24 22 25 23 26
REMARK SMILES IDX 24 27 25 28 26 29 72 30 27 31 71 32 28 33 29 34 30 35 65 36
REMARK SMILES IDX 31 37 70 38 64 39 66 40 32 41 69 42 63 43 62 44 33 46 55 47
REMARK SMILES IDX 40 48 54 49 41 50 44 51 53 52 67 53 42 54 43 55 52 57 68 58
REMARK SMILES IDX 45 59 34 60 35 61 39 62 36 63 38 64 37 65 56 66 57 67 61 68
REMARK SMILES IDX 58 69 60 70 59 71 46 72 47 73 51 74 48 75 50 76 49 77
REMARK H PARENT 12 9 4 16 4 17 66 45 44 56
REMARK Flexibility Score: inf
ROOT
ATOM      1  O   UNL A   1      31.518  30.555  25.228  1.00  0.00    -0.460 OA
ENDROOT
BRANCH   1   2
ATOM      2  C   UNL A   1      31.493  29.173  25.280  1.00  0.00     0.331 C 
ATOM      3  O   UNL A   1      30.629  28.567  24.643  1.00  0.00    -0.249 OA
BRANCH   2   4
ATOM      4  C   UNL A   1      32.855  28.327  26.021  1.00  0.00     0.135 C 
ATOM      5  C   UNL A   1      32.280  28.273  27.495  1.00  0.00     0.047 C 
BRANCH   4   6
ATOM      6  N   UNL A   1      33.130  26.805  25.819  1.00  0.00    -0.340 N 
ATOM      7  C   UNL A   1      33.085  25.856  24.846  1.00  0.00     0.232 C 
ATOM      8  O   UNL A   1      33.790  24.854  25.016  1.00  0.00    -0.274 OA
ATOM      9  H   UNL A   1      33.434  26.403  26.665  1.00  0.00     0.164 HD
BRANCH   7  10
ATOM     10  C   UNL A   1      32.217  25.905  23.612  1.00  0.00     0.164 C 
ATOM     11  C   UNL A   1      32.020  24.561  22.961  1.00  0.00     0.223 C 
ATOM     12  C   UNL A   1      33.442  24.551  22.259  1.00  0.00     0.225 C 
ATOM     13  O   UNL A   1      33.655  25.865  21.716  1.00  0.00    -0.374 OA
ATOM     14  C   UNL A   1      32.864  26.746  22.508  1.00  0.00     0.180 C 
BRANCH  11  15
ATOM     15  N   UNL A   1      31.332  23.665  23.984  1.00  0.00    -0.341 N 
ATOM     16  H   UNL A   1      31.595  24.063  24.887  1.00  0.00     0.346 HD
ATOM     17  H   UNL A   1      30.395  23.678  23.580  1.00  0.00     0.346 HD
BRANCH  15  18
ATOM     18  C   UNL A   1      31.459  22.182  24.179  1.00  0.00     0.260 C 
BRANCH  18  19
ATOM     19  C   UNL A   1      32.639  21.285  23.680  1.00  0.00     0.058 C 
ATOM     20  C   UNL A   1      33.958  21.487  24.414  1.00  0.00     0.010 C 
ENDBRANCH  18  19
ENDBRANCH  15  18
ENDBRANCH  11  15
ENDBRANCH   7  10
ENDBRANCH   4   6
BRANCH   4  21
ATOM     21  C   UNL A   1      34.251  29.058  26.297  1.00  0.00     0.037 C 
ATOM     22  C   UNL A   1      34.575  29.747  27.637  1.00  0.00     0.007 C 
ENDBRANCH   4  21
ENDBRANCH   2   4
ENDBRANCH   1   2
BRANCH   1  23
ATOM     23  C   UNL A   1      31.052  31.562  26.244  1.00  0.00     0.274 C 
BRANCH  23  24
ATOM     24  C   UNL A   1      32.169  32.333  27.222  1.00  0.00     0.275 C 
BRANCH  24  25
ATOM     25  O   UNL A   1      32.216  33.835  27.340  1.00  0.00    -0.458 OA
BRANCH  25  26
ATOM     26  C   UNL A   1      32.939  34.501  28.342  1.00  0.00     0.338 C 
ATOM     27  O   UNL A   1      32.515  35.458  28.968  1.00  0.00    -0.246 OA
BRANCH  26  28
ATOM     28  C   UNL A   1      34.211  33.759  28.827  1.00  0.00     0.060 A 
ATOM     29  C   UNL A   1      34.171  32.931  29.970  1.00  0.00     0.016 A 
ATOM     30  C   UNL A   1      35.451  33.834  28.194  1.00  0.00     0.016 A 
ATOM     31  C   UNL A   1      35.214  32.050  30.332  1.00  0.00     0.010 A 
ATOM     32  C   UNL A   1      36.562  33.047  28.644  1.00  0.00     0.010 A 
ATOM     33  C   UNL A   1      36.450  32.109  29.691  1.00  0.00    -0.014 A 
BRANCH  33  34
ATOM     34  C   UNL A   1      37.613  31.337  30.266  1.00  0.00     0.031 A 
ATOM     35  C   UNL A   1      37.997  31.570  31.716  1.00  0.00     0.074 A 
ATOM     36  C   UNL A   1      38.298  30.384  29.594  1.00  0.00     0.049 A 
ATOM     37  N   UNL A   1      38.934  31.005  32.440  1.00  0.00    -0.248 NA
ATOM     38  C   UNL A   1      37.191  32.556  32.453  1.00  0.00     0.031 C 
ATOM     39  C   UNL A   1      37.998  29.900  28.249  1.00  0.00     0.029 A 
ATOM     40  N   UNL A   1      39.395  29.630  29.971  1.00  0.00    -0.354 N 
ATOM     41  C   UNL A   1      38.808  31.544  33.716  1.00  0.00     0.074 A 
ATOM     42  C   UNL A   1      37.708  32.482  33.667  1.00  0.00     0.031 C 
ATOM     43  C   UNL A   1      38.892  28.952  27.907  1.00  0.00     0.029 A 
ATOM     44  C   UNL A   1      39.855  28.772  28.995  1.00  0.00     0.049 A 
ATOM     45  H   UNL A   1      39.810  29.700  30.861  1.00  0.00     0.167 HD
ATOM     46  C   UNL A   1      39.541  31.318  34.834  1.00  0.00     0.031 A 
ATOM     47  C   UNL A   1      40.928  27.951  28.966  1.00  0.00     0.031 A 
ATOM     48  C   UNL A   1      40.713  30.489  34.900  1.00  0.00     0.049 A 
ATOM     49  C   UNL A   1      41.849  27.858  30.163  1.00  0.00     0.074 A 
ATOM     50  C   UNL A   1      41.575  30.295  35.968  1.00  0.00     0.029 A 
ATOM     51  N   UNL A   1      41.204  29.738  33.848  1.00  0.00    -0.354 N 
ATOM     52  N   UNL A   1      41.727  28.402  31.350  1.00  0.00    -0.248 NA
ATOM     53  C   UNL A   1      43.061  27.030  30.013  1.00  0.00     0.031 C 
ATOM     54  C   UNL A   1      42.619  29.466  35.543  1.00  0.00     0.029 A 
ATOM     55  C   UNL A   1      42.370  29.095  34.232  1.00  0.00     0.049 A 
ATOM     56  H   UNL A   1      40.789  29.669  32.958  1.00  0.00     0.167 HD
ATOM     57  C   UNL A   1      42.814  27.947  32.093  1.00  0.00     0.074 A 
ATOM     58  C   UNL A   1      43.584  27.081  31.230  1.00  0.00     0.031 C 
ATOM     59  C   UNL A   1      43.135  28.221  33.382  1.00  0.00     0.031 A 
BRANCH  46  60
ATOM     60  C   UNL A   1      39.124  32.074  36.065  1.00  0.00    -0.014 A 
ATOM     61  C   UNL A   1      38.159  31.552  36.941  1.00  0.00     0.009 A 
ATOM     62  C   UNL A   1      39.666  33.342  36.321  1.00  0.00     0.009 A 
ATOM     63  C   UNL A   1      37.707  32.311  38.023  1.00  0.00     0.001 A 
ATOM     64  C   UNL A   1      39.230  34.087  37.418  1.00  0.00     0.001 A 
ATOM     65  C   UNL A   1      38.242  33.577  38.258  1.00  0.00     0.000 A 
ENDBRANCH  46  60
BRANCH  47  66
ATOM     66  C   UNL A   1      41.255  27.148  27.749  1.00  0.00    -0.014 A 
ATOM     67  C   UNL A   1      40.851  25.805  27.642  1.00  0.00     0.009 A 
ATOM     68  C   UNL A   1      42.056  27.688  26.731  1.00  0.00     0.009 A 
ATOM     69  C   UNL A   1      41.267  25.019  26.563  1.00  0.00     0.001 A 
ATOM     70  C   UNL A   1      42.448  26.908  25.639  1.00  0.00     0.001 A 
ATOM     71  C   UNL A   1      42.062  25.570  25.560  1.00  0.00     0.000 A 
ENDBRANCH  47  66
BRANCH  59  72
ATOM     72  C   UNL A   1      44.338  27.532  33.971  1.00  0.00    -0.014 A 
ATOM     73  C   UNL A   1      44.245  26.272  34.580  1.00  0.00     0.009 A 
ATOM     74  C   UNL A   1      45.599  28.142  33.868  1.00  0.00     0.009 A 
ATOM     75  C   UNL A   1      45.385  25.654  35.105  1.00  0.00     0.001 A 
ATOM     76  C   UNL A   1      46.740  27.511  34.369  1.00  0.00     0.001 A 
ATOM     77  C   UNL A   1      46.630  26.271  34.996  1.00  0.00     0.000 A 
ENDBRANCH  59  72
ENDBRANCH  33  34
ENDBRANCH  26  28
ENDBRANCH  25  26
ENDBRANCH  24  25
ENDBRANCH  23  24
ENDBRANCH   1  23
TORSDOF 17
ENDMDL
MODEL 2
REMARK VINA RESULT:      -9.6      4.606     10.104
REMARK SMILES CCC[NH2+][C@@H]1COC[C@@H]1C(=O)N[C@@](C)(CC)C(=O)OCCOC(=O)c1ccc(-c2c3nc(c(-c4ccccc4)c4ccc([nH]4)c(-c4ccccc4)c4nc(c(-c5ccccc5)c5ccc2[nH]5)C=C4)C=C3)cc1
REMARK SMILES IDX 19 1 17 2 18 3 13 4 14 5 12 6 10 7 11 8 9 10 5 11 6 12 7 13
REMARK SMILES IDX 8 14 4 15 3 18 2 19 1 20 15 21 16 22 20 23 21 24 22 25 23 26
REMARK SMILES IDX 24 27 25 28 26 29 72 30 27 31 71 32 28 33 29 34 30 35 65 36
REMARK SMILES IDX 31 37 70 38 64 39 66 40 32 41 69 42 63 43 62 44 33 46 55 47
REMARK SMILES IDX 40 48 54 49 41 50 44 51 53 52 67 53 42 54 43 55 52 57 68 58
REMARK SMILES IDX 45 59 34 60 35 61 39 62 36 63 38 64 37 65 56 66 57 67 61 68
REMARK SMILES IDX 58 69 60 70 59 71 46 72 47 73 51 74 48 75 50 76 49 77
REMARK H PARENT 12 9 4 16 4 17 66 45 44 56
REMARK Flexibility Score: inf
ROOT
ATOM      1  O   UNL A   1      37.380  20.672  24.609  1.00  0.00    -0.460 OA
ENDROOT
BRANCH   1   2
ATOM      2  C   UNL A   1      36.108  21.076  24.972  1.00  0.00     0.331 C 
ATOM      3  O   UNL A   1      35.201  20.242  24.994  1.00  0.00    -0.249 OA
BRANCH   2   4
ATOM      4  C   UNL A   1      35.894  22.691  25.655  1.00  0.00     0.135 C 
ATOM      5  C   UNL A   1      35.367  23.396  24.340  1.00  0.00     0.047 C 
BRANCH   4   6
ATOM      6  N   UNL A   1      34.720  23.067  26.612  1.00  0.00    -0.340 N 
ATOM      7  C   UNL A   1      33.362  23.028  26.663  1.00  0.00     0.232 C 
ATOM      8  O   UNL A   1      32.849  23.046  27.789  1.00  0.00    -0.274 OA
ATOM      9  H   UNL A   1      35.076  23.456  27.444  1.00  0.00     0.164 HD
BRANCH   7  10
ATOM     10  C   UNL A   1      32.438  23.013  25.470  1.00  0.00     0.164 C 
ATOM     11  C   UNL A   1      31.591  24.252  25.348  1.00  0.00     0.223 C 
ATOM     12  C   UNL A   1      30.556  23.807  26.463  1.00  0.00     0.225 C 
ATOM     13  O   UNL A   1      30.268  22.416  26.243  1.00  0.00    -0.374 OA
ATOM     14  C   UNL A   1      31.409  21.885  25.575  1.00  0.00     0.180 C 
BRANCH  11  15
ATOM     15  N   UNL A   1      32.544  25.431  25.189  1.00  0.00    -0.341 N 
ATOM     16  H   UNL A   1      33.455  25.000  25.029  1.00  0.00     0.346 HD
ATOM     17  H   UNL A   1      32.008  25.958  24.500  1.00  0.00     0.346 HD
BRANCH  15  18
ATOM     18  C   UNL A   1      32.825  26.555  26.145  1.00  0.00     0.260 C 
BRANCH  18  19
ATOM     19  C   UNL A   1      32.046  27.908  26.229  1.00  0.00     0.058 C 
ATOM     20  C   UNL A   1      31.443  28.222  27.592  1.00  0.00     0.010 C 
ENDBRANCH  18  19
ENDBRANCH  15  18
ENDBRANCH  11  15
ENDBRANCH   7  10
ENDBRANCH   4   6
BRANCH   4  21
ATOM     21  C   UNL A   1      37.141  23.634  25.994  1.00  0.00     0.037 C 
ATOM     22  C   UNL A   1      38.531  23.072  26.353  1.00  0.00     0.007 C 
ENDBRANCH   4  21
ENDBRANCH   2   4
ENDBRANCH   1   2
BRANCH   1  23
ATOM     23  C   UNL A   1      38.146  19.440  25.006  1.00  0.00     0.274 C 
BRANCH  23  24
ATOM     24  C   UNL A   1      39.514  19.583  25.959  1.00  0.00     0.275 C 
BRANCH  24  25
ATOM     25  O   UNL A   1      40.796  18.867  25.617  1.00  0.00    -0.458 OA
BRANCH  25  26
ATOM     26  C   UNL A   1      42.024  19.165  26.228  1.00  0.00     0.338 C 
ATOM     27  O   UNL A   1      42.976  18.402  26.255  1.00  0.00    -0.246 OA
BRANCH  26  28
ATOM     28  C   UNL A   1      42.211  20.654  26.617  1.00  0.00     0.060 A 
ATOM     29  C   UNL A   1      42.339  21.648  25.622  1.00  0.00     0.016 A 
ATOM     30  C   UNL A   1      42.257  21.122  27.930  1.00  0.00     0.016 A 
ATOM     31  C   UNL A   1      42.278  23.033  25.891  1.00  0.00     0.010 A 
ATOM     32  C   UNL A   1      42.340  22.525  28.214  1.00  0.00     0.010 A 
ATOM     33  C   UNL A   1      42.305  23.506  27.202  1.00  0.00    -0.014 A 
BRANCH  33  34
ATOM     34  C   UNL A   1      42.495  24.983  27.446  1.00  0.00     0.031 A 
ATOM     35  C   UNL A   1      43.749  25.655  26.918  1.00  0.00     0.074 A 
ATOM     36  C   UNL A   1      41.577  25.777  28.044  1.00  0.00     0.049 A 
ATOM     37  N   UNL A   1      44.118  26.913  26.974  1.00  0.00    -0.248 NA
ATOM     38  C   UNL A   1      44.700  24.789  26.204  1.00  0.00     0.031 C 
ATOM     39  C   UNL A   1      40.247  25.367  28.487  1.00  0.00     0.029 A 
ATOM     40  N   UNL A   1      41.624  27.122  28.365  1.00  0.00    -0.354 N 
ATOM     41  C   UNL A   1      45.322  26.990  26.281  1.00  0.00     0.074 A 
ATOM     42  C   UNL A   1      45.622  25.653  25.816  1.00  0.00     0.031 C 
ATOM     43  C   UNL A   1      39.616  26.423  29.037  1.00  0.00     0.029 A 
ATOM     44  C   UNL A   1      40.502  27.588  29.015  1.00  0.00     0.049 A 
ATOM     45  H   UNL A   1      42.394  27.696  28.148  1.00  0.00     0.167 HD
ATOM     46  C   UNL A   1      46.134  28.052  26.060  1.00  0.00     0.031 A 
ATOM     47  C   UNL A   1      40.219  28.800  29.546  1.00  0.00     0.031 A 
ATOM     48  C   UNL A   1      45.938  29.369  26.601  1.00  0.00     0.049 A 
ATOM     49  C   UNL A   1      41.227  29.924  29.456  1.00  0.00     0.074 A 
ATOM     50  C   UNL A   1      46.773  30.472  26.514  1.00  0.00     0.029 A 
ATOM     51  N   UNL A   1      44.844  29.754  27.355  1.00  0.00    -0.354 N 
ATOM     52  N   UNL A   1      42.374  29.964  28.821  1.00  0.00    -0.248 NA
ATOM     53  C   UNL A   1      40.895  31.178  30.158  1.00  0.00     0.031 C 
ATOM     54  C   UNL A   1      46.206  31.510  27.262  1.00  0.00     0.029 A 
ATOM     55  C   UNL A   1      44.990  31.071  27.759  1.00  0.00     0.049 A 
ATOM     56  H   UNL A   1      44.076  29.178  27.572  1.00  0.00     0.167 HD
ATOM     57  C   UNL A   1      42.871  31.252  29.011  1.00  0.00     0.074 A 
ATOM     58  C   UNL A   1      41.905  31.966  29.814  1.00  0.00     0.031 C 
ATOM     59  C   UNL A   1      44.026  31.792  28.548  1.00  0.00     0.031 A 
BRANCH  46  60
ATOM     60  C   UNL A   1      47.374  27.783  25.253  1.00  0.00    -0.014 A 
ATOM     61  C   UNL A   1      47.340  27.795  23.849  1.00  0.00     0.009 A 
ATOM     62  C   UNL A   1      48.574  27.464  25.905  1.00  0.00     0.009 A 
ATOM     63  C   UNL A   1      48.474  27.442  23.115  1.00  0.00     0.001 A 
ATOM     64  C   UNL A   1      49.712  27.137  25.168  1.00  0.00     0.001 A 
ATOM     65  C   UNL A   1      49.657  27.112  23.775  1.00  0.00     0.000 A 
ENDBRANCH  46  60
BRANCH  47  66
ATOM     66  C   UNL A   1      38.932  29.048  30.263  1.00  0.00    -0.014 A 
ATOM     67  C   UNL A   1      37.818  29.571  29.584  1.00  0.00     0.009 A 
ATOM     68  C   UNL A   1      38.840  28.857  31.651  1.00  0.00     0.009 A 
ATOM     69  C   UNL A   1      36.658  29.924  30.281  1.00  0.00     0.001 A 
ATOM     70  C   UNL A   1      37.669  29.184  32.342  1.00  0.00     0.001 A 
ATOM     71  C   UNL A   1      36.582  29.728  31.658  1.00  0.00     0.000 A 
ENDBRANCH  47  66
BRANCH  59  72
ATOM     72  C   UNL A   1      44.291  33.245  28.839  1.00  0.00    -0.014 A 
ATOM     73  C   UNL A   1      43.826  34.266  27.997  1.00  0.00     0.009 A 
ATOM     74  C   UNL A   1      44.983  33.597  30.010  1.00  0.00     0.009 A 
ATOM     75  C   UNL A   1      44.078  35.607  28.304  1.00  0.00     0.001 A 
ATOM     76  C   UNL A   1      45.209  34.938  30.329  1.00  0.00     0.001 A 
ATOM     77  C   UNL A   1      44.766  35.941  29.471  1.00  0.00     0.000 A 
ENDBRANCH  59  72
ENDBRANCH  33  34
ENDBRANCH  26  28
ENDBRANCH  25  26
ENDBRANCH  24  25
ENDBRANCH  23  24
ENDBRANCH   1  23
TORSDOF 17
ENDMDL
MODEL 3
REMARK VINA RESULT:      -9.6      1.286      2.130
REMARK SMILES CCC[NH2+][C@@H]1COC[C@@H]1C(=O)N[C@@](C)(CC)C(=O)OCCOC(=O)c1ccc(-c2c3nc(c(-c4ccccc4)c4ccc([nH]4)c(-c4ccccc4)c4nc(c(-c5ccccc5)c5ccc2[nH]5)C=C4)C=C3)cc1
REMARK SMILES IDX 19 1 17 2 18 3 13 4 14 5 12 6 10 7 11 8 9 10 5 11 6 12 7 13
REMARK SMILES IDX 8 14 4 15 3 18 2 19 1 20 15 21 16 22 20 23 21 24 22 25 23 26
REMARK SMILES IDX 24 27 25 28 26 29 72 30 27 31 71 32 28 33 29 34 30 35 65 36
REMARK SMILES IDX 31 37 70 38 64 39 66 40 32 41 69 42 63 43 62 44 33 46 55 47
REMARK SMILES IDX 40 48 54 49 41 50 44 51 53 52 67 53 42 54 43 55 52 57 68 58
REMARK SMILES IDX 45 59 34 60 35 61 39 62 36 63 38 64 37 65 56 66 57 67 61 68
REMARK SMILES IDX 58 69 60 70 59 71 46 72 47 73 51 74 48 75 50 76 49 77
REMARK H PARENT 12 9 4 16 4 17 66 45 44 56
REMARK Flexibility Score: inf
ROOT
ATOM      1  O   UNL A   1      31.779  30.350  25.553  1.00  0.00    -0.460 OA
ENDROOT
BRANCH   1   2
ATOM      2  C   UNL A   1      32.420  29.152  25.294  1.00  0.00     0.331 C 
ATOM      3  O   UNL A   1      33.190  28.693  26.140  1.00  0.00    -0.249 OA
BRANCH   2   4
ATOM      4  C   UNL A   1      31.902  28.195  23.903  1.00  0.00     0.135 C 
ATOM      5  C   UNL A   1      32.731  28.976  22.803  1.00  0.00     0.047 C 
BRANCH   4   6
ATOM      6  N   UNL A   1      32.423  26.754  23.613  1.00  0.00    -0.340 N 
ATOM      7  C   UNL A   1      32.563  25.551  24.231  1.00  0.00     0.232 C 
ATOM      8  O   UNL A   1      32.642  24.557  23.498  1.00  0.00    -0.274 OA
ATOM      9  H   UNL A   1      32.757  26.697  22.688  1.00  0.00     0.164 HD
BRANCH   7  10
ATOM     10  C   UNL A   1      32.678  25.336  25.720  1.00  0.00     0.164 C 
ATOM     11  C   UNL A   1      32.814  23.888  26.112  1.00  0.00     0.223 C 
ATOM     12  C   UNL A   1      31.272  23.564  25.936  1.00  0.00     0.225 C 
ATOM     13  O   UNL A   1      30.542  24.657  26.519  1.00  0.00    -0.374 OA
ATOM     14  C   UNL A   1      31.408  25.785  26.448  1.00  0.00     0.180 C 
BRANCH  11  15
ATOM     15  N   UNL A   1      34.091  23.368  25.462  1.00  0.00    -0.341 N 
ATOM     16  H   UNL A   1      34.074  22.363  25.638  1.00  0.00     0.346 HD
ATOM     17  H   UNL A   1      33.981  23.812  24.551  1.00  0.00     0.346 HD
BRANCH  15  18
ATOM     18  C   UNL A   1      35.515  23.768  25.723  1.00  0.00     0.260 C 
BRANCH  18  19
ATOM     19  C   UNL A   1      36.743  23.447  24.810  1.00  0.00     0.058 C 
ATOM     20  C   UNL A   1      36.402  23.112  23.363  1.00  0.00     0.010 C 
ENDBRANCH  18  19
ENDBRANCH  15  18
ENDBRANCH  11  15
ENDBRANCH   7  10
ENDBRANCH   4   6
BRANCH   4  21
ATOM     21  C   UNL A   1      30.431  28.331  23.289  1.00  0.00     0.037 C 
ATOM     22  C   UNL A   1      29.316  27.305  23.573  1.00  0.00     0.007 C 
ENDBRANCH   4  21
ENDBRANCH   2   4
ENDBRANCH   1   2
BRANCH   1  23
ATOM     23  C   UNL A   1      31.788  31.194  26.798  1.00  0.00     0.274 C 
BRANCH  23  24
ATOM     24  C   UNL A   1      32.555  32.682  26.786  1.00  0.00     0.275 C 
BRANCH  24  25
ATOM     25  O   UNL A   1      32.061  33.834  27.624  1.00  0.00    -0.458 OA
BRANCH  25  26
ATOM     26  C   UNL A   1      32.914  34.639  28.395  1.00  0.00     0.338 C 
ATOM     27  O   UNL A   1      32.605  35.734  28.835  1.00  0.00    -0.246 OA
BRANCH  26  28
ATOM     28  C   UNL A   1      34.187  33.923  28.915  1.00  0.00     0.060 A 
ATOM     29  C   UNL A   1      34.089  32.867  29.847  1.00  0.00     0.016 A 
ATOM     30  C   UNL A   1      35.484  34.242  28.515  1.00  0.00     0.016 A 
ATOM     31  C   UNL A   1      35.170  32.023  30.185  1.00  0.00     0.010 A 
ATOM     32  C   UNL A   1      36.608  33.476  28.968  1.00  0.00     0.010 A 
ATOM     33  C   UNL A   1      36.467  32.326  29.773  1.00  0.00    -0.014 A 
BRANCH  33  34
ATOM     34  C   UNL A   1      37.623  31.553  30.358  1.00  0.00     0.031 A 
ATOM     35  C   UNL A   1      38.026  31.821  31.797  1.00  0.00     0.074 A 
ATOM     36  C   UNL A   1      38.285  30.570  29.706  1.00  0.00     0.049 A 
ATOM     37  N   UNL A   1      38.963  31.261  32.527  1.00  0.00    -0.248 NA
ATOM     38  C   UNL A   1      37.245  32.840  32.513  1.00  0.00     0.031 C 
ATOM     39  C   UNL A   1      37.962  30.051  28.379  1.00  0.00     0.029 A 
ATOM     40  N   UNL A   1      39.373  29.809  30.094  1.00  0.00    -0.354 N 
ATOM     41  C   UNL A   1      38.859  31.839  33.788  1.00  0.00     0.074 A 
ATOM     42  C   UNL A   1      37.774  32.793  33.724  1.00  0.00     0.031 C 
ATOM     43  C   UNL A   1      38.837  29.080  28.055  1.00  0.00     0.029 A 
ATOM     44  C   UNL A   1      39.809  28.916  29.138  1.00  0.00     0.049 A 
ATOM     45  H   UNL A   1      39.800  29.897  30.977  1.00  0.00     0.167 HD
ATOM     46  C   UNL A   1      39.601  31.632  34.904  1.00  0.00     0.031 A 
ATOM     47  C   UNL A   1      40.868  28.076  29.122  1.00  0.00     0.031 A 
ATOM     48  C   UNL A   1      40.759  30.786  34.982  1.00  0.00     0.049 A 
ATOM     49  C   UNL A   1      41.801  28.003  30.311  1.00  0.00     0.074 A 
ATOM     50  C   UNL A   1      41.630  30.609  36.046  1.00  0.00     0.029 A 
ATOM     51  N   UNL A   1      41.228  29.997  33.947  1.00  0.00    -0.354 N 
ATOM     52  N   UNL A   1      41.701  28.582  31.483  1.00  0.00    -0.248 NA
ATOM     53  C   UNL A   1      42.997  27.151  30.172  1.00  0.00     0.031 C 
ATOM     54  C   UNL A   1      42.656  29.751  35.633  1.00  0.00     0.029 A 
ATOM     55  C   UNL A   1      42.387  29.347  34.337  1.00  0.00     0.049 A 
ATOM     56  H   UNL A   1      40.801  29.910  33.064  1.00  0.00     0.167 HD
ATOM     57  C   UNL A   1      42.788  28.131  32.227  1.00  0.00     0.074 A 
ATOM     58  C   UNL A   1      43.535  27.227  31.381  1.00  0.00     0.031 C 
ATOM     59  C   UNL A   1      43.128  28.436  33.504  1.00  0.00     0.031 A 
BRANCH  46  60
ATOM     60  C   UNL A   1      39.210  32.430  36.117  1.00  0.00    -0.014 A 
ATOM     61  C   UNL A   1      39.830  33.655  36.408  1.00  0.00     0.009 A 
ATOM     62  C   UNL A   1      38.248  31.923  37.004  1.00  0.00     0.009 A 
ATOM     63  C   UNL A   1      39.530  34.333  37.592  1.00  0.00     0.001 A 
ATOM     64  C   UNL A   1      37.932  32.616  38.173  1.00  0.00     0.001 A 
ATOM     65  C   UNL A   1      38.582  33.811  38.472  1.00  0.00     0.000 A 
ENDBRANCH  46  60
BRANCH  47  66
ATOM     66  C   UNL A   1      41.168  27.233  27.925  1.00  0.00    -0.014 A 
ATOM     67  C   UNL A   1      41.884  27.759  26.835  1.00  0.00     0.009 A 
ATOM     68  C   UNL A   1      40.655  25.930  27.822  1.00  0.00     0.009 A 
ATOM     69  C   UNL A   1      42.052  27.012  25.664  1.00  0.00     0.001 A 
ATOM     70  C   UNL A   1      40.848  25.175  26.661  1.00  0.00     0.001 A 
ATOM     71  C   UNL A   1      41.537  25.720  25.578  1.00  0.00     0.000 A 
ENDBRANCH  47  66
BRANCH  59  72
ATOM     72  C   UNL A   1      44.326  27.745  34.100  1.00  0.00    -0.014 A 
ATOM     73  C   UNL A   1      44.221  26.500  34.739  1.00  0.00     0.009 A 
ATOM     74  C   UNL A   1      45.594  28.335  33.974  1.00  0.00     0.009 A 
ATOM     75  C   UNL A   1      45.356  25.879  35.270  1.00  0.00     0.001 A 
ATOM     76  C   UNL A   1      46.730  27.699  34.480  1.00  0.00     0.001 A 
ATOM     77  C   UNL A   1      46.609  26.477  35.137  1.00  0.00     0.000 A 
ENDBRANCH  59  72
ENDBRANCH  33  34
ENDBRANCH  26  28
ENDBRANCH  25  26
ENDBRANCH  24  25
ENDBRANCH  23  24
ENDBRANCH   1  23
TORSDOF 17
ENDMDL
