MODEL 1
REMARK VINA RESULT:     -10.4      0.000      0.000
REMARK SMILES CS(=O)(=O)CCSCc1cc(F)cc(/C=C/C(=O)OCCOC(=O)c2ccc(-c3c4nc(c(-c5ccccc5)c5ccc([nH]5)c(-c5ccccc5)c5nc(c(-c6ccccc6)c6ccc3[nH]6)C=C5)C=C4)cc2)c1
REMARK SMILES IDX 17 1 18 2 16 3 15 4 14 5 9 6 10 7 73 8 11 9 12 10 13 11 8 12
REMARK SMILES IDX 7 13 6 14 5 15 2 16 1 17 3 18 4 19 19 20 20 21 21 22 22 23
REMARK SMILES IDX 23 24 24 25 25 26 26 27 72 28 27 29 71 30 28 31 29 32 30 33
REMARK SMILES IDX 65 34 31 35 70 36 64 37 66 38 32 39 69 40 63 41 62 42 33 44
REMARK SMILES IDX 55 45 40 46 54 47 41 48 44 49 53 50 67 51 42 52 43 53 52 55
REMARK SMILES IDX 68 56 45 57 34 58 35 59 39 60 36 61 38 62 37 63 56 64 57 65
REMARK SMILES IDX 61 66 58 67 60 68 59 69 46 70 47 71 51 72 48 73 50 74 49 75
REMARK H PARENT 66 43 44 54
REMARK Flexibility Score: inf
ROOT
ATOM      1  C   UNL A   1      33.605  34.769  29.412  1.00  0.00     0.330 C 
ATOM      2  O   UNL A   1      33.714  35.814  28.788  1.00  0.00    -0.247 OA
ENDROOT
BRANCH   1   3
ATOM      3  C   UNL A   1      34.059  33.485  28.842  1.00  0.00     0.094 C 
ATOM      4  C   UNL A   1      33.356  32.750  27.967  1.00  0.00     0.016 C 
BRANCH   4   5
ATOM      5  C   UNL A   1      33.748  31.387  27.584  1.00  0.00    -0.022 A 
ATOM      6  C   UNL A   1      33.187  29.238  26.544  1.00  0.00    -0.035 A 
ATOM      7  C   UNL A   1      34.455  28.768  26.906  1.00  0.00     0.043 A 
ATOM      8  C   UNL A   1      32.839  30.554  26.914  1.00  0.00     0.013 A 
ATOM      9  C   UNL A   1      35.339  29.577  27.601  1.00  0.00     0.124 A 
ATOM     10  F   UNL A   1      36.547  29.104  27.935  1.00  0.00    -0.207 F 
ATOM     11  C   UNL A   1      35.002  30.877  27.932  1.00  0.00     0.047 A 
BRANCH   6  12
ATOM     12  C   UNL A   1      32.274  28.442  25.647  1.00  0.00     0.105 C 
BRANCH  12  13
ATOM     13  S   UNL A   1      31.993  29.059  23.965  1.00  0.00    -0.156 SA
BRANCH  13  14
ATOM     14  C   UNL A   1      30.169  29.103  23.799  1.00  0.00     0.086 C 
BRANCH  14  15
ATOM     15  C   UNL A   1      29.506  30.465  23.649  1.00  0.00     0.147 C 
BRANCH  15  16
ATOM     16  S   UNL A   1      27.861  30.455  22.958  1.00  0.00     0.148 S 
ATOM     17  C   UNL A   1      28.116  30.694  21.213  1.00  0.00     0.158 C 
ATOM     18  O   UNL A   1      27.170  31.632  23.449  1.00  0.00    -0.229 OA
ATOM     19  O   UNL A   1      27.280  29.143  23.152  1.00  0.00    -0.229 OA
ENDBRANCH  15  16
ENDBRANCH  14  15
ENDBRANCH  13  14
ENDBRANCH  12  13
ENDBRANCH   6  12
ENDBRANCH   4   5
ENDBRANCH   1   3
BRANCH   1  20
ATOM     20  O   UNL A   1      33.174  34.635  30.688  1.00  0.00    -0.459 OA
BRANCH  20  21
ATOM     21  C   UNL A   1      34.133  34.940  31.714  1.00  0.00     0.275 C 
BRANCH  21  22
ATOM     22  C   UNL A   1      34.091  33.875  32.816  1.00  0.00     0.275 C 
BRANCH  22  23
ATOM     23  O   UNL A   1      34.824  32.690  32.447  1.00  0.00    -0.458 OA
BRANCH  23  24
ATOM     24  C   UNL A   1      35.949  32.458  33.167  1.00  0.00     0.338 C 
ATOM     25  O   UNL A   1      36.101  32.619  34.365  1.00  0.00    -0.246 OA
BRANCH  24  26
ATOM     26  C   UNL A   1      36.989  31.860  32.306  1.00  0.00     0.060 A 
ATOM     27  C   UNL A   1      38.049  31.197  32.929  1.00  0.00     0.016 A 
ATOM     28  C   UNL A   1      36.972  32.005  30.918  1.00  0.00     0.016 A 
ATOM     29  C   UNL A   1      39.101  30.682  32.174  1.00  0.00     0.010 A 
ATOM     30  C   UNL A   1      38.029  31.486  30.158  1.00  0.00     0.010 A 
ATOM     31  C   UNL A   1      39.105  30.828  30.782  1.00  0.00    -0.014 A 
BRANCH  31  32
ATOM     32  C   UNL A   1      40.249  30.317  29.986  1.00  0.00     0.031 A 
ATOM     33  C   UNL A   1      41.464  31.176  29.768  1.00  0.00     0.074 A 
ATOM     34  C   UNL A   1      40.210  29.072  29.476  1.00  0.00     0.049 A 
ATOM     35  N   UNL A   1      42.544  30.920  29.074  1.00  0.00    -0.248 NA
ATOM     36  C   UNL A   1      41.464  32.497  30.418  1.00  0.00     0.031 C 
ATOM     37  C   UNL A   1      39.110  28.123  29.647  1.00  0.00     0.029 A 
ATOM     38  N   UNL A   1      41.124  28.392  28.710  1.00  0.00    -0.354 N 
ATOM     39  C   UNL A   1      43.348  32.045  29.195  1.00  0.00     0.074 A 
ATOM     40  C   UNL A   1      42.622  32.996  30.010  1.00  0.00     0.031 C 
ATOM     41  C   UNL A   1      39.417  26.981  29.008  1.00  0.00     0.029 A 
ATOM     42  C   UNL A   1      40.712  27.133  28.352  1.00  0.00     0.049 A 
ATOM     43  H   UNL A   1      41.993  28.771  28.444  1.00  0.00     0.167 HD
ATOM     44  C   UNL A   1      44.582  32.265  28.679  1.00  0.00     0.031 A 
ATOM     45  C   UNL A   1      41.300  26.211  27.565  1.00  0.00     0.031 A 
ATOM     46  C   UNL A   1      45.306  31.325  27.864  1.00  0.00     0.049 A 
ATOM     47  C   UNL A   1      42.637  26.511  26.946  1.00  0.00     0.074 A 
ATOM     48  C   UNL A   1      46.565  31.461  27.302  1.00  0.00     0.029 A 
ATOM     49  N   UNL A   1      44.836  30.077  27.491  1.00  0.00    -0.354 N 
ATOM     50  N   UNL A   1      43.390  27.575  27.078  1.00  0.00    -0.248 NA
ATOM     51  C   UNL A   1      43.207  25.476  26.069  1.00  0.00     0.031 C 
ATOM     52  C   UNL A   1      46.836  30.314  26.550  1.00  0.00     0.029 A 
ATOM     53  C   UNL A   1      45.768  29.442  26.687  1.00  0.00     0.049 A 
ATOM     54  H   UNL A   1      43.967  29.697  27.758  1.00  0.00     0.167 HD
ATOM     55  C   UNL A   1      44.530  27.330  26.322  1.00  0.00     0.074 A 
ATOM     56  C   UNL A   1      44.377  26.009  25.748  1.00  0.00     0.031 C 
ATOM     57  C   UNL A   1      45.606  28.128  26.121  1.00  0.00     0.031 A 
BRANCH  44  58
ATOM     58  C   UNL A   1      45.223  33.595  28.959  1.00  0.00    -0.014 A 
ATOM     59  C   UNL A   1      46.111  33.762  30.034  1.00  0.00     0.009 A 
ATOM     60  C   UNL A   1      44.975  34.681  28.105  1.00  0.00     0.009 A 
ATOM     61  C   UNL A   1      46.716  35.001  30.262  1.00  0.00     0.001 A 
ATOM     62  C   UNL A   1      45.601  35.910  28.322  1.00  0.00     0.001 A 
ATOM     63  C   UNL A   1      46.464  36.071  29.404  1.00  0.00     0.000 A 
ENDBRANCH  44  58
BRANCH  45  64
ATOM     64  C   UNL A   1      40.617  24.919  27.290  1.00  0.00    -0.014 A 
ATOM     65  C   UNL A   1      39.466  24.873  26.491  1.00  0.00     0.009 A 
ATOM     66  C   UNL A   1      41.103  23.728  27.852  1.00  0.00     0.009 A 
ATOM     67  C   UNL A   1      38.799  23.664  26.282  1.00  0.00     0.001 A 
ATOM     68  C   UNL A   1      40.450  22.516  27.618  1.00  0.00     0.001 A 
ATOM     69  C   UNL A   1      39.293  22.486  26.843  1.00  0.00     0.000 A 
ENDBRANCH  45  64
BRANCH  57  70
ATOM     70  C   UNL A   1      46.718  27.582  25.271  1.00  0.00    -0.014 A 
ATOM     71  C   UNL A   1      46.895  28.002  23.944  1.00  0.00     0.009 A 
ATOM     72  C   UNL A   1      47.622  26.659  25.820  1.00  0.00     0.009 A 
ATOM     73  C   UNL A   1      47.937  27.483  23.172  1.00  0.00     0.001 A 
ATOM     74  C   UNL A   1      48.679  26.162  25.053  1.00  0.00     0.001 A 
ATOM     75  C   UNL A   1      48.830  26.568  23.728  1.00  0.00     0.000 A 
ENDBRANCH  57  70
ENDBRANCH  31  32
ENDBRANCH  24  26
ENDBRANCH  23  24
ENDBRANCH  22  23
ENDBRANCH  21  22
ENDBRANCH  20  21
ENDBRANCH   1  20
TORSDOF 17
ENDMDL
MODEL 2
REMARK VINA RESULT:     -10.3      6.802     12.205
REMARK SMILES CS(=O)(=O)CCSCc1cc(F)cc(/C=C/C(=O)OCCOC(=O)c2ccc(-c3c4nc(c(-c5ccccc5)c5ccc([nH]5)c(-c5ccccc5)c5nc(c(-c6ccccc6)c6ccc3[nH]6)C=C5)C=C4)cc2)c1
REMARK SMILES IDX 17 1 18 2 16 3 15 4 14 5 9 6 10 7 73 8 11 9 12 10 13 11 8 12
REMARK SMILES IDX 7 13 6 14 5 15 2 16 1 17 3 18 4 19 19 20 20 21 21 22 22 23
REMARK SMILES IDX 23 24 24 25 25 26 26 27 72 28 27 29 71 30 28 31 29 32 30 33
REMARK SMILES IDX 65 34 31 35 70 36 64 37 66 38 32 39 69 40 63 41 62 42 33 44
REMARK SMILES IDX 55 45 40 46 54 47 41 48 44 49 53 50 67 51 42 52 43 53 52 55
REMARK SMILES IDX 68 56 45 57 34 58 35 59 39 60 36 61 38 62 37 63 56 64 57 65
REMARK SMILES IDX 61 66 58 67 60 68 59 69 46 70 47 71 51 72 48 73 50 74 49 75
REMARK H PARENT 66 43 44 54
REMARK Flexibility Score: inf
ROOT
ATOM      1  C   UNL A   1      45.469  21.224  24.546  1.00  0.00     0.330 C 
ATOM      2  O   UNL A   1      44.830  21.180  23.505  1.00  0.00    -0.247 OA
ENDROOT
BRANCH   1   3
ATOM      3  C   UNL A   1      45.992  22.501  25.070  1.00  0.00     0.094 C 
ATOM      4  C   UNL A   1      45.490  23.710  24.770  1.00  0.00     0.016 C 
BRANCH   4   5
ATOM      5  C   UNL A   1      46.163  24.961  25.146  1.00  0.00    -0.022 A 
ATOM      6  C   UNL A   1      48.225  26.177  25.673  1.00  0.00    -0.035 A 
ATOM      7  C   UNL A   1      47.452  27.316  25.923  1.00  0.00     0.043 A 
ATOM      8  C   UNL A   1      47.557  24.992  25.304  1.00  0.00     0.013 A 
ATOM      9  C   UNL A   1      46.072  27.277  25.804  1.00  0.00     0.124 A 
ATOM     10  F   UNL A   1      45.355  28.382  26.048  1.00  0.00    -0.207 F 
ATOM     11  C   UNL A   1      45.427  26.119  25.410  1.00  0.00     0.047 A 
BRANCH   6  12
ATOM     12  C   UNL A   1      49.731  26.236  25.631  1.00  0.00     0.105 C 
BRANCH  12  13
ATOM     13  S   UNL A   1      50.503  27.816  25.189  1.00  0.00    -0.156 SA
BRANCH  13  14
ATOM     14  C   UNL A   1      50.820  27.676  23.390  1.00  0.00     0.086 C 
BRANCH  14  15
ATOM     15  C   UNL A   1      49.743  27.028  22.532  1.00  0.00     0.147 C 
BRANCH  15  16
ATOM     16  S   UNL A   1      49.114  28.026  21.194  1.00  0.00     0.148 S 
ATOM     17  C   UNL A   1      47.422  28.345  21.642  1.00  0.00     0.158 C 
ATOM     18  O   UNL A   1      49.086  27.199  20.002  1.00  0.00    -0.229 OA
ATOM     19  O   UNL A   1      49.821  29.290  21.180  1.00  0.00    -0.229 OA
ENDBRANCH  15  16
ENDBRANCH  14  15
ENDBRANCH  13  14
ENDBRANCH  12  13
ENDBRANCH   6  12
ENDBRANCH   4   5
ENDBRANCH   1   3
BRANCH   1  20
ATOM     20  O   UNL A   1      45.700  20.195  25.392  1.00  0.00    -0.459 OA
BRANCH  20  21
ATOM     21  C   UNL A   1      45.103  18.936  25.035  1.00  0.00     0.275 C 
BRANCH  21  22
ATOM     22  C   UNL A   1      43.776  18.747  25.777  1.00  0.00     0.275 C 
BRANCH  22  23
ATOM     23  O   UNL A   1      42.672  19.345  25.068  1.00  0.00    -0.458 OA
BRANCH  23  24
ATOM     24  C   UNL A   1      41.582  19.625  25.824  1.00  0.00     0.338 C 
ATOM     25  O   UNL A   1      40.635  18.891  26.046  1.00  0.00    -0.246 OA
BRANCH  24  26
ATOM     26  C   UNL A   1      41.732  20.948  26.461  1.00  0.00     0.060 A 
ATOM     27  C   UNL A   1      42.070  22.030  25.645  1.00  0.00     0.016 A 
ATOM     28  C   UNL A   1      41.619  21.120  27.842  1.00  0.00     0.016 A 
ATOM     29  C   UNL A   1      42.303  23.288  26.200  1.00  0.00     0.010 A 
ATOM     30  C   UNL A   1      41.852  22.384  28.400  1.00  0.00     0.010 A 
ATOM     31  C   UNL A   1      42.204  23.474  27.584  1.00  0.00    -0.014 A 
BRANCH  31  32
ATOM     32  C   UNL A   1      42.497  24.804  28.174  1.00  0.00     0.031 A 
ATOM     33  C   UNL A   1      43.886  25.135  28.645  1.00  0.00     0.074 A 
ATOM     34  C   UNL A   1      41.521  25.727  28.270  1.00  0.00     0.049 A 
ATOM     35  N   UNL A   1      44.327  26.226  29.220  1.00  0.00    -0.248 NA
ATOM     36  C   UNL A   1      44.915  24.103  28.441  1.00  0.00     0.031 C 
ATOM     37  C   UNL A   1      40.142  25.548  27.816  1.00  0.00     0.029 A 
ATOM     38  N   UNL A   1      41.544  27.001  28.781  1.00  0.00    -0.354 N 
ATOM     39  C   UNL A   1      45.679  26.011  29.453  1.00  0.00     0.074 A 
ATOM     40  C   UNL A   1      45.981  24.677  28.979  1.00  0.00     0.031 C 
ATOM     41  C   UNL A   1      39.452  26.674  28.064  1.00  0.00     0.029 A 
ATOM     42  C   UNL A   1      40.328  27.635  28.729  1.00  0.00     0.049 A 
ATOM     43  H   UNL A   1      42.355  27.420  29.149  1.00  0.00     0.167 HD
ATOM     44  C   UNL A   1      46.587  26.852  30.006  1.00  0.00     0.031 A 
ATOM     45  C   UNL A   1      39.953  28.846  29.186  1.00  0.00     0.031 A 
ATOM     46  C   UNL A   1      46.290  28.176  30.484  1.00  0.00     0.049 A 
ATOM     47  C   UNL A   1      40.965  29.728  29.862  1.00  0.00     0.074 A 
ATOM     48  C   UNL A   1      47.150  29.101  31.053  1.00  0.00     0.029 A 
ATOM     49  N   UNL A   1      45.037  28.766  30.449  1.00  0.00    -0.354 N 
ATOM     50  N   UNL A   1      42.242  29.516  30.066  1.00  0.00    -0.248 NA
ATOM     51  C   UNL A   1      40.482  31.022  30.369  1.00  0.00     0.031 C 
ATOM     52  C   UNL A   1      46.406  30.231  31.408  1.00  0.00     0.029 A 
ATOM     53  C   UNL A   1      45.095  30.031  31.010  1.00  0.00     0.049 A 
ATOM     54  H   UNL A   1      44.225  28.347  30.081  1.00  0.00     0.167 HD
ATOM     55  C   UNL A   1      42.719  30.655  30.702  1.00  0.00     0.074 A 
ATOM     56  C   UNL A   1      41.598  31.563  30.836  1.00  0.00     0.031 C 
ATOM     57  C   UNL A   1      43.974  30.925  31.138  1.00  0.00     0.031 A 
BRANCH  44  58
ATOM     58  C   UNL A   1      47.996  26.349  30.153  1.00  0.00    -0.014 A 
ATOM     59  C   UNL A   1      48.941  26.527  29.131  1.00  0.00     0.009 A 
ATOM     60  C   UNL A   1      48.395  25.735  31.350  1.00  0.00     0.009 A 
ATOM     61  C   UNL A   1      50.253  26.075  29.297  1.00  0.00     0.001 A 
ATOM     62  C   UNL A   1      49.712  25.306  31.523  1.00  0.00     0.001 A 
ATOM     63  C   UNL A   1      50.637  25.470  30.494  1.00  0.00     0.000 A 
ENDBRANCH  44  58
BRANCH  45  64
ATOM     64  C   UNL A   1      38.541  29.292  29.046  1.00  0.00    -0.014 A 
ATOM     65  C   UNL A   1      38.072  29.817  27.833  1.00  0.00     0.009 A 
ATOM     66  C   UNL A   1      37.664  29.219  30.139  1.00  0.00     0.009 A 
ATOM     67  C   UNL A   1      36.760  30.285  27.726  1.00  0.00     0.001 A 
ATOM     68  C   UNL A   1      36.345  29.661  30.021  1.00  0.00     0.001 A 
ATOM     69  C   UNL A   1      35.897  30.203  28.818  1.00  0.00     0.000 A 
ENDBRANCH  45  64
BRANCH  57  70
ATOM     70  C   UNL A   1      44.208  32.268  31.769  1.00  0.00    -0.014 A 
ATOM     71  C   UNL A   1      44.621  33.370  31.005  1.00  0.00     0.009 A 
ATOM     72  C   UNL A   1      43.980  32.439  33.144  1.00  0.00     0.009 A 
ATOM     73  C   UNL A   1      44.832  34.610  31.613  1.00  0.00     0.001 A 
ATOM     74  C   UNL A   1      44.165  33.686  33.742  1.00  0.00     0.001 A 
ATOM     75  C   UNL A   1      44.599  34.768  32.979  1.00  0.00     0.000 A 
ENDBRANCH  57  70
ENDBRANCH  31  32
ENDBRANCH  24  26
ENDBRANCH  23  24
ENDBRANCH  22  23
ENDBRANCH  21  22
ENDBRANCH  20  21
ENDBRANCH   1  20
TORSDOF 17
ENDMDL
MODEL 3
REMARK VINA RESULT:     -10.3      6.822     12.545
REMARK SMILES CS(=O)(=O)CCSCc1cc(F)cc(/C=C/C(=O)OCCOC(=O)c2ccc(-c3c4nc(c(-c5ccccc5)c5ccc([nH]5)c(-c5ccccc5)c5nc(c(-c6ccccc6)c6ccc3[nH]6)C=C5)C=C4)cc2)c1
REMARK SMILES IDX 17 1 18 2 16 3 15 4 14 5 9 6 10 7 73 8 11 9 12 10 13 11 8 12
REMARK SMILES IDX 7 13 6 14 5 15 2 16 1 17 3 18 4 19 19 20 20 21 21 22 22 23
REMARK SMILES IDX 23 24 24 25 25 26 26 27 72 28 27 29 71 30 28 31 29 32 30 33
REMARK SMILES IDX 65 34 31 35 70 36 64 37 66 38 32 39 69 40 63 41 62 42 33 44
REMARK SMILES IDX 55 45 40 46 54 47 41 48 44 49 53 50 67 51 42 52 43 53 52 55
REMARK SMILES IDX 68 56 45 57 34 58 35 59 39 60 36 61 38 62 37 63 56 64 57 65
REMARK SMILES IDX 61 66 58 67 60 68 59 69 46 70 47 71 51 72 48 73 50 74 49 75
REMARK H PARENT 66 43 44 54
REMARK Flexibility Score: inf
ROOT
ATOM      1  C   UNL A   1      45.257  21.546  24.498  1.00  0.00     0.330 C 
ATOM      2  O   UNL A   1      44.684  21.481  23.421  1.00  0.00    -0.247 OA
ENDROOT
BRANCH   1   3
ATOM      3  C   UNL A   1      45.910  22.792  24.946  1.00  0.00     0.094 C 
ATOM      4  C   UNL A   1      45.431  24.026  24.720  1.00  0.00     0.016 C 
BRANCH   4   5
ATOM      5  C   UNL A   1      46.210  25.240  24.999  1.00  0.00    -0.022 A 
ATOM      6  C   UNL A   1      48.383  26.347  25.246  1.00  0.00    -0.035 A 
ATOM      7  C   UNL A   1      47.708  27.524  25.592  1.00  0.00     0.043 A 
ATOM      8  C   UNL A   1      47.612  25.199  24.972  1.00  0.00     0.013 A 
ATOM      9  C   UNL A   1      46.325  27.555  25.656  1.00  0.00     0.124 A 
ATOM     10  F   UNL A   1      45.704  28.694  25.989  1.00  0.00    -0.207 F 
ATOM     11  C   UNL A   1      45.575  26.433  25.355  1.00  0.00     0.047 A 
BRANCH   6  12
ATOM     12  C   UNL A   1      49.871  26.330  25.006  1.00  0.00     0.105 C 
BRANCH  12  13
ATOM     13  S   UNL A   1      50.729  27.924  24.903  1.00  0.00    -0.156 SA
BRANCH  13  14
ATOM     14  C   UNL A   1      51.396  27.969  23.196  1.00  0.00     0.086 C 
BRANCH  14  15
ATOM     15  C   UNL A   1      50.698  27.117  22.144  1.00  0.00     0.147 C 
BRANCH  15  16
ATOM     16  S   UNL A   1      49.921  28.015  20.812  1.00  0.00     0.148 S 
ATOM     17  C   UNL A   1      51.237  28.983  20.108  1.00  0.00     0.158 C 
ATOM     18  O   UNL A   1      48.979  28.948  21.401  1.00  0.00    -0.229 OA
ATOM     19  O   UNL A   1      49.473  27.071  19.810  1.00  0.00    -0.229 OA
ENDBRANCH  15  16
ENDBRANCH  14  15
ENDBRANCH  13  14
ENDBRANCH  12  13
ENDBRANCH   6  12
ENDBRANCH   4   5
ENDBRANCH   1   3
BRANCH   1  20
ATOM     20  O   UNL A   1      45.297  20.582  25.446  1.00  0.00    -0.459 OA
BRANCH  20  21
ATOM     21  C   UNL A   1      44.946  19.256  25.016  1.00  0.00     0.275 C 
BRANCH  21  22
ATOM     22  C   UNL A   1      43.652  18.800  25.699  1.00  0.00     0.275 C 
BRANCH  22  23
ATOM     23  O   UNL A   1      42.481  19.314  25.034  1.00  0.00    -0.458 OA
BRANCH  23  24
ATOM     24  C   UNL A   1      41.450  19.645  25.849  1.00  0.00     0.338 C 
ATOM     25  O   UNL A   1      40.490  18.952  26.137  1.00  0.00    -0.246 OA
BRANCH  24  26
ATOM     26  C   UNL A   1      41.690  20.967  26.460  1.00  0.00     0.060 A 
ATOM     27  C   UNL A   1      42.000  22.032  25.610  1.00  0.00     0.016 A 
ATOM     28  C   UNL A   1      41.687  21.154  27.843  1.00  0.00     0.016 A 
ATOM     29  C   UNL A   1      42.314  23.285  26.132  1.00  0.00     0.010 A 
ATOM     30  C   UNL A   1      42.002  22.414  28.369  1.00  0.00     0.010 A 
ATOM     31  C   UNL A   1      42.326  23.486  27.517  1.00  0.00    -0.014 A 
BRANCH  31  32
ATOM     32  C   UNL A   1      42.705  24.810  28.070  1.00  0.00     0.031 A 
ATOM     33  C   UNL A   1      41.661  25.872  28.277  1.00  0.00     0.074 A 
ATOM     34  C   UNL A   1      43.984  25.056  28.409  1.00  0.00     0.049 A 
ATOM     35  N   UNL A   1      41.803  27.099  28.711  1.00  0.00    -0.248 NA
ATOM     36  C   UNL A   1      40.273  25.505  27.952  1.00  0.00     0.031 C 
ATOM     37  C   UNL A   1      45.087  24.101  28.296  1.00  0.00     0.029 A 
ATOM     38  N   UNL A   1      44.571  26.188  28.918  1.00  0.00    -0.354 N 
ATOM     39  C   UNL A   1      40.530  27.653  28.707  1.00  0.00     0.074 A 
ATOM     40  C   UNL A   1      39.630  26.637  28.203  1.00  0.00     0.031 C 
ATOM     41  C   UNL A   1      46.216  24.686  28.730  1.00  0.00     0.029 A 
ATOM     42  C   UNL A   1      45.925  26.065  29.111  1.00  0.00     0.049 A 
ATOM     43  H   UNL A   1      44.070  27.009  29.127  1.00  0.00     0.167 HD
ATOM     44  C   UNL A   1      40.144  28.894  29.092  1.00  0.00     0.031 A 
ATOM     45  C   UNL A   1      46.834  26.967  29.526  1.00  0.00     0.031 A 
ATOM     46  C   UNL A   1      41.035  29.909  29.587  1.00  0.00     0.049 A 
ATOM     47  C   UNL A   1      46.389  28.360  29.878  1.00  0.00     0.074 A 
ATOM     48  C   UNL A   1      40.731  31.194  30.007  1.00  0.00     0.029 A 
ATOM     49  N   UNL A   1      42.405  29.758  29.729  1.00  0.00    -0.354 N 
ATOM     50  N   UNL A   1      45.180  28.866  29.878  1.00  0.00    -0.248 NA
ATOM     51  C   UNL A   1      47.437  29.306  30.289  1.00  0.00     0.031 C 
ATOM     52  C   UNL A   1      41.924  31.836  30.356  1.00  0.00     0.029 A 
ATOM     53  C   UNL A   1      42.963  30.933  30.205  1.00  0.00     0.049 A 
ATOM     54  H   UNL A   1      42.907  28.937  29.522  1.00  0.00     0.167 HD
ATOM     55  C   UNL A   1      45.319  30.179  30.311  1.00  0.00     0.074 A 
ATOM     56  C   UNL A   1      46.727  30.387  30.580  1.00  0.00     0.031 C 
ATOM     57  C   UNL A   1      44.365  31.128  30.470  1.00  0.00     0.031 A 
BRANCH  44  58
ATOM     58  C   UNL A   1      38.686  29.236  28.965  1.00  0.00    -0.014 A 
ATOM     59  C   UNL A   1      38.146  29.674  27.745  1.00  0.00     0.009 A 
ATOM     60  C   UNL A   1      37.833  29.068  30.066  1.00  0.00     0.009 A 
ATOM     61  C   UNL A   1      36.783  29.963  27.641  1.00  0.00     0.001 A 
ATOM     62  C   UNL A   1      36.467  29.334  29.952  1.00  0.00     0.001 A 
ATOM     63  C   UNL A   1      35.945  29.787  28.742  1.00  0.00     0.000 A 
ENDBRANCH  44  58
BRANCH  45  64
ATOM     64  C   UNL A   1      48.272  26.595  29.609  1.00  0.00    -0.014 A 
ATOM     65  C   UNL A   1      48.756  25.841  30.688  1.00  0.00     0.009 A 
ATOM     66  C   UNL A   1      49.172  27.019  28.619  1.00  0.00     0.009 A 
ATOM     67  C   UNL A   1      50.116  25.541  30.788  1.00  0.00     0.001 A 
ATOM     68  C   UNL A   1      50.527  26.695  28.706  1.00  0.00     0.001 A 
ATOM     69  C   UNL A   1      51.000  25.966  29.795  1.00  0.00     0.000 A 
ENDBRANCH  45  64
BRANCH  57  70
ATOM     70  C   UNL A   1      44.807  32.467  30.989  1.00  0.00    -0.014 A 
ATOM     71  C   UNL A   1      45.173  33.502  30.116  1.00  0.00     0.009 A 
ATOM     72  C   UNL A   1      44.823  32.704  32.373  1.00  0.00     0.009 A 
ATOM     73  C   UNL A   1      45.579  34.740  30.620  1.00  0.00     0.001 A 
ATOM     74  C   UNL A   1      45.203  33.951  32.872  1.00  0.00     0.001 A 
ATOM     75  C   UNL A   1      45.589  34.965  31.997  1.00  0.00     0.000 A 
ENDBRANCH  57  70
ENDBRANCH  31  32
ENDBRANCH  24  26
ENDBRANCH  23  24
ENDBRANCH  22  23
ENDBRANCH  21  22
ENDBRANCH  20  21
ENDBRANCH   1  20
TORSDOF 17
ENDMDL
