MODEL 1
REMARK VINA RESULT:     -11.5      0.000      0.000
REMARK SMILES Cc1cc(C)c(C(=O)NC[C@H]2CC[C@@H](C(=O)OCCOC(=O)c3ccc(-c4c5nc(c(-c6ccccc6)c6ccc([nH]6)c(-c6ccccc6)c6nc(c(-c7ccccc7)c7ccc4[nH]7)C=C6)C=C5)cc3)O2)c(C)c1
REMARK SMILES IDX 18 1 17 2 15 3 16 4 14 5 11 6 12 7 71 8 13 9 10 10 9 11 7 12
REMARK SMILES IDX 8 13 6 15 1 16 2 17 3 18 74 19 4 20 72 21 5 22 73 23 19 24
REMARK SMILES IDX 20 25 21 26 22 27 23 28 24 29 70 30 25 31 69 32 26 33 27 34
REMARK SMILES IDX 28 35 63 36 29 37 68 38 62 39 64 40 30 41 67 42 61 43 60 44
REMARK SMILES IDX 31 46 53 47 38 48 52 49 39 50 42 51 51 52 65 53 40 54 41 55
REMARK SMILES IDX 50 57 66 58 43 59 32 60 33 61 37 62 34 63 36 64 35 65 54 66
REMARK SMILES IDX 55 67 59 68 56 69 58 70 57 71 44 72 45 73 49 74 46 75 48 76
REMARK SMILES IDX 47 77
REMARK H PARENT 9 14 64 45 42 56
REMARK Flexibility Score: inf
ROOT
ATOM      1  C   UNL A   1      32.271  29.396  24.886  1.00  0.00     0.274 C 
ENDROOT
BRANCH   1   2
ATOM      2  O   UNL A   1      31.570  29.136  23.653  1.00  0.00    -0.460 OA
BRANCH   2   3
ATOM      3  C   UNL A   1      31.956  28.031  22.957  1.00  0.00     0.335 C 
ATOM      4  O   UNL A   1      33.097  27.803  22.573  1.00  0.00    -0.249 OA
BRANCH   3   5
ATOM      5  C   UNL A   1      30.767  27.105  22.691  1.00  0.00     0.228 C 
ATOM      6  C   UNL A   1      29.969  25.817  24.468  1.00  0.00     0.138 C 
ATOM      7  C   UNL A   1      28.781  26.577  23.916  1.00  0.00     0.037 C 
ATOM      8  O   UNL A   1      30.961  25.886  23.429  1.00  0.00    -0.361 OA
ATOM      9  C   UNL A   1      29.441  27.702  23.160  1.00  0.00     0.047 C 
BRANCH   6  10
ATOM     10  C   UNL A   1      30.540  26.403  25.779  1.00  0.00     0.148 C 
BRANCH  10  11
ATOM     11  N   UNL A   1      31.047  25.364  26.644  1.00  0.00    -0.349 N 
ATOM     12  C   UNL A   1      31.853  24.267  26.576  1.00  0.00     0.251 C 
ATOM     13  O   UNL A   1      31.631  23.529  27.547  1.00  0.00    -0.269 OA
ATOM     14  H   UNL A   1      30.708  25.483  27.560  1.00  0.00     0.163 HD
BRANCH  12  15
ATOM     15  C   UNL A   1      32.895  23.832  25.552  1.00  0.00     0.045 A 
ATOM     16  C   UNL A   1      36.510  22.802  23.300  1.00  0.00     0.044 C 
ATOM     17  C   UNL A   1      35.253  23.180  24.021  1.00  0.00    -0.051 A 
ATOM     18  C   UNL A   1      35.117  24.427  24.604  1.00  0.00     0.007 A 
ATOM     19  C   UNL A   1      34.189  22.297  24.128  1.00  0.00     0.007 A 
ATOM     20  C   UNL A   1      33.955  24.779  25.326  1.00  0.00    -0.038 A 
ATOM     21  C   UNL A   1      33.008  22.598  24.860  1.00  0.00    -0.038 A 
ATOM     22  C   UNL A   1      33.942  26.209  25.832  1.00  0.00     0.045 C 
ATOM     23  C   UNL A   1      31.985  21.512  24.763  1.00  0.00     0.045 C 
ENDBRANCH  12  15
ENDBRANCH  10  11
ENDBRANCH   6  10
ENDBRANCH   3   5
ENDBRANCH   2   3
ENDBRANCH   1   2
BRANCH   1  24
ATOM     24  C   UNL A   1      31.553  30.473  25.692  1.00  0.00     0.275 C 
BRANCH  24  25
ATOM     25  O   UNL A   1      32.157  30.586  26.993  1.00  0.00    -0.458 OA
BRANCH  25  26
ATOM     26  C   UNL A   1      32.863  31.716  27.213  1.00  0.00     0.338 C 
ATOM     27  O   UNL A   1      32.469  32.868  27.177  1.00  0.00    -0.246 OA
BRANCH  26  28
ATOM     28  C   UNL A   1      34.232  31.364  27.617  1.00  0.00     0.060 A 
ATOM     29  C   UNL A   1      34.526  30.022  27.838  1.00  0.00     0.016 A 
ATOM     30  C   UNL A   1      35.156  32.350  27.950  1.00  0.00     0.016 A 
ATOM     31  C   UNL A   1      35.700  29.656  28.488  1.00  0.00     0.010 A 
ATOM     32  C   UNL A   1      36.374  31.978  28.533  1.00  0.00     0.010 A 
ATOM     33  C   UNL A   1      36.634  30.633  28.859  1.00  0.00    -0.014 A 
BRANCH  33  34
ATOM     34  C   UNL A   1      37.811  30.257  29.692  1.00  0.00     0.031 A 
ATOM     35  C   UNL A   1      38.952  29.495  29.069  1.00  0.00     0.074 A 
ATOM     36  C   UNL A   1      37.907  30.646  30.978  1.00  0.00     0.049 A 
ATOM     37  N   UNL A   1      40.005  28.966  29.640  1.00  0.00    -0.248 NA
ATOM     38  C   UNL A   1      38.899  29.295  27.611  1.00  0.00     0.031 C 
ATOM     39  C   UNL A   1      36.920  31.448  31.703  1.00  0.00     0.029 A 
ATOM     40  N   UNL A   1      38.905  30.436  31.897  1.00  0.00    -0.354 N 
ATOM     41  C   UNL A   1      40.699  28.315  28.628  1.00  0.00     0.074 A 
ATOM     42  C   UNL A   1      39.956  28.524  27.403  1.00  0.00     0.031 C 
ATOM     43  C   UNL A   1      37.386  31.706  32.937  1.00  0.00     0.029 A 
ATOM     44  C   UNL A   1      38.669  31.032  33.112  1.00  0.00     0.049 A 
ATOM     45  H   UNL A   1      39.713  29.908  31.704  1.00  0.00     0.167 HD
ATOM     46  C   UNL A   1      41.847  27.601  28.706  1.00  0.00     0.031 A 
ATOM     47  C   UNL A   1      39.394  31.024  34.246  1.00  0.00     0.031 A 
ATOM     48  C   UNL A   1      42.625  27.435  29.902  1.00  0.00     0.049 A 
ATOM     49  C   UNL A   1      40.673  30.237  34.308  1.00  0.00     0.074 A 
ATOM     50  C   UNL A   1      43.788  26.704  30.084  1.00  0.00     0.029 A 
ATOM     51  N   UNL A   1      42.338  28.039  31.114  1.00  0.00    -0.354 N 
ATOM     52  N   UNL A   1      41.260  29.542  33.366  1.00  0.00    -0.248 NA
ATOM     53  C   UNL A   1      41.378  30.224  35.599  1.00  0.00     0.031 C 
ATOM     54  C   UNL A   1      44.198  26.859  31.413  1.00  0.00     0.029 A 
ATOM     55  C   UNL A   1      43.306  27.707  32.047  1.00  0.00     0.049 A 
ATOM     56  H   UNL A   1      41.562  28.619  31.287  1.00  0.00     0.167 HD
ATOM     57  C   UNL A   1      42.402  29.008  33.948  1.00  0.00     0.074 A 
ATOM     58  C   UNL A   1      42.439  29.481  35.316  1.00  0.00     0.031 C 
ATOM     59  C   UNL A   1      43.330  28.189  33.401  1.00  0.00     0.031 A 
BRANCH  46  60
ATOM     60  C   UNL A   1      42.304  26.905  27.458  1.00  0.00    -0.014 A 
ATOM     61  C   UNL A   1      41.870  25.609  27.142  1.00  0.00     0.009 A 
ATOM     62  C   UNL A   1      43.173  27.569  26.579  1.00  0.00     0.009 A 
ATOM     63  C   UNL A   1      42.327  24.979  25.981  1.00  0.00     0.001 A 
ATOM     64  C   UNL A   1      43.612  26.945  25.411  1.00  0.00     0.001 A 
ATOM     65  C   UNL A   1      43.194  25.647  25.117  1.00  0.00     0.000 A 
ENDBRANCH  46  60
BRANCH  47  66
ATOM     66  C   UNL A   1      38.914  31.766  35.439  1.00  0.00    -0.014 A 
ATOM     67  C   UNL A   1      39.221  33.126  35.600  1.00  0.00     0.009 A 
ATOM     68  C   UNL A   1      38.156  31.117  36.426  1.00  0.00     0.009 A 
ATOM     69  C   UNL A   1      38.792  33.817  36.734  1.00  0.00     0.001 A 
ATOM     70  C   UNL A   1      37.709  31.817  37.548  1.00  0.00     0.001 A 
ATOM     71  C   UNL A   1      38.033  33.163  37.704  1.00  0.00     0.000 A 
ENDBRANCH  47  66
BRANCH  59  72
ATOM     72  C   UNL A   1      44.472  27.771  34.279  1.00  0.00    -0.014 A 
ATOM     73  C   UNL A   1      45.636  28.549  34.364  1.00  0.00     0.009 A 
ATOM     74  C   UNL A   1      44.372  26.600  35.044  1.00  0.00     0.009 A 
ATOM     75  C   UNL A   1      46.693  28.146  35.182  1.00  0.00     0.001 A 
ATOM     76  C   UNL A   1      45.425  26.208  35.873  1.00  0.00     0.001 A 
ATOM     77  C   UNL A   1      46.586  26.977  35.936  1.00  0.00     0.000 A 
ENDBRANCH  59  72
ENDBRANCH  33  34
ENDBRANCH  26  28
ENDBRANCH  25  26
ENDBRANCH  24  25
ENDBRANCH   1  24
TORSDOF 14
ENDMDL
MODEL 2
REMARK VINA RESULT:     -11.3      0.475      5.937
REMARK SMILES Cc1cc(C)c(C(=O)NC[C@H]2CC[C@@H](C(=O)OCCOC(=O)c3ccc(-c4c5nc(c(-c6ccccc6)c6ccc([nH]6)c(-c6ccccc6)c6nc(c(-c7ccccc7)c7ccc4[nH]7)C=C6)C=C5)cc3)O2)c(C)c1
REMARK SMILES IDX 18 1 17 2 15 3 16 4 14 5 11 6 12 7 71 8 13 9 10 10 9 11 7 12
REMARK SMILES IDX 8 13 6 15 1 16 2 17 3 18 74 19 4 20 72 21 5 22 73 23 19 24
REMARK SMILES IDX 20 25 21 26 22 27 23 28 24 29 70 30 25 31 69 32 26 33 27 34
REMARK SMILES IDX 28 35 63 36 29 37 68 38 62 39 64 40 30 41 67 42 61 43 60 44
REMARK SMILES IDX 31 46 53 47 38 48 52 49 39 50 42 51 51 52 65 53 40 54 41 55
REMARK SMILES IDX 50 57 66 58 43 59 32 60 33 61 37 62 34 63 36 64 35 65 54 66
REMARK SMILES IDX 55 67 59 68 56 69 58 70 57 71 44 72 45 73 49 74 46 75 48 76
REMARK SMILES IDX 47 77
REMARK H PARENT 9 14 64 45 42 56
REMARK Flexibility Score: inf
ROOT
ATOM      1  C   UNL A   1      32.073  29.473  25.330  1.00  0.00     0.274 C 
ENDROOT
BRANCH   1   2
ATOM      2  O   UNL A   1      31.327  29.294  24.109  1.00  0.00    -0.460 OA
BRANCH   2   3
ATOM      3  C   UNL A   1      31.838  28.407  23.211  1.00  0.00     0.335 C 
ATOM      4  O   UNL A   1      32.980  28.431  22.768  1.00  0.00    -0.249 OA
BRANCH   3   5
ATOM      5  C   UNL A   1      30.787  27.373  22.800  1.00  0.00     0.228 C 
ATOM      6  C   UNL A   1      30.105  25.815  24.402  1.00  0.00     0.138 C 
ATOM      7  C   UNL A   1      28.847  26.475  23.875  1.00  0.00     0.037 C 
ATOM      8  O   UNL A   1      31.112  26.117  23.420  1.00  0.00    -0.361 OA
ATOM      9  C   UNL A   1      29.380  27.747  23.267  1.00  0.00     0.047 C 
BRANCH   6  10
ATOM     10  C   UNL A   1      30.553  26.328  25.789  1.00  0.00     0.148 C 
BRANCH  10  11
ATOM     11  N   UNL A   1      31.056  25.251  26.610  1.00  0.00    -0.349 N 
ATOM     12  C   UNL A   1      31.874  24.166  26.503  1.00  0.00     0.251 C 
ATOM     13  O   UNL A   1      31.642  23.379  27.432  1.00  0.00    -0.269 OA
ATOM     14  H   UNL A   1      30.700  25.322  27.525  1.00  0.00     0.163 HD
BRANCH  12  15
ATOM     15  C   UNL A   1      32.938  23.792  25.478  1.00  0.00     0.045 A 
ATOM     16  C   UNL A   1      36.604  22.932  23.237  1.00  0.00     0.044 C 
ATOM     17  C   UNL A   1      35.329  23.253  23.954  1.00  0.00    -0.051 A 
ATOM     18  C   UNL A   1      35.154  24.477  24.575  1.00  0.00     0.007 A 
ATOM     19  C   UNL A   1      34.289  22.339  24.021  1.00  0.00     0.007 A 
ATOM     20  C   UNL A   1      33.975  24.774  25.294  1.00  0.00    -0.038 A 
ATOM     21  C   UNL A   1      33.092  22.584  24.749  1.00  0.00    -0.038 A 
ATOM     22  C   UNL A   1      33.917  26.186  25.845  1.00  0.00     0.045 C 
ATOM     23  C   UNL A   1      32.100  21.475  24.605  1.00  0.00     0.045 C 
ENDBRANCH  12  15
ENDBRANCH  10  11
ENDBRANCH   6  10
ENDBRANCH   3   5
ENDBRANCH   2   3
ENDBRANCH   1   2
BRANCH   1  24
ATOM     24  C   UNL A   1      31.763  30.832  25.950  1.00  0.00     0.275 C 
BRANCH  24  25
ATOM     25  O   UNL A   1      32.373  30.919  27.251  1.00  0.00    -0.458 OA
BRANCH  25  26
ATOM     26  C   UNL A   1      33.191  31.976  27.443  1.00  0.00     0.338 C 
ATOM     27  O   UNL A   1      32.900  33.158  27.457  1.00  0.00    -0.246 OA
BRANCH  26  28
ATOM     28  C   UNL A   1      34.546  31.495  27.744  1.00  0.00     0.060 A 
ATOM     29  C   UNL A   1      34.734  30.126  27.914  1.00  0.00     0.016 A 
ATOM     30  C   UNL A   1      35.575  32.387  28.035  1.00  0.00     0.016 A 
ATOM     31  C   UNL A   1      35.912  29.641  28.473  1.00  0.00     0.010 A 
ATOM     32  C   UNL A   1      36.791  31.894  28.524  1.00  0.00     0.010 A 
ATOM     33  C   UNL A   1      36.951  30.522  28.800  1.00  0.00    -0.014 A 
BRANCH  33  34
ATOM     34  C   UNL A   1      38.143  30.022  29.542  1.00  0.00     0.031 A 
ATOM     35  C   UNL A   1      38.302  30.348  31.005  1.00  0.00     0.074 A 
ATOM     36  C   UNL A   1      39.050  29.224  28.946  1.00  0.00     0.049 A 
ATOM     37  N   UNL A   1      39.317  30.120  31.799  1.00  0.00    -0.248 NA
ATOM     38  C   UNL A   1      37.171  31.029  31.659  1.00  0.00     0.031 C 
ATOM     39  C   UNL A   1      38.999  28.761  27.559  1.00  0.00     0.029 A 
ATOM     40  N   UNL A   1      40.186  28.639  29.451  1.00  0.00    -0.354 N 
ATOM     41  C   UNL A   1      38.977  30.687  33.022  1.00  0.00     0.074 A 
ATOM     42  C   UNL A   1      37.657  31.260  32.870  1.00  0.00     0.031 C 
ATOM     43  C   UNL A   1      40.026  27.922  27.339  1.00  0.00     0.029 A 
ATOM     44  C   UNL A   1      40.844  27.843  28.545  1.00  0.00     0.049 A 
ATOM     45  H   UNL A   1      40.498  28.777  30.374  1.00  0.00     0.167 HD
ATOM     46  C   UNL A   1      39.698  30.734  34.167  1.00  0.00     0.031 A 
ATOM     47  C   UNL A   1      41.986  27.141  28.664  1.00  0.00     0.031 A 
ATOM     48  C   UNL A   1      40.982  30.118  34.350  1.00  0.00     0.049 A 
ATOM     49  C   UNL A   1      42.763  27.196  29.949  1.00  0.00     0.074 A 
ATOM     50  C   UNL A   1      41.801  30.138  35.467  1.00  0.00     0.029 A 
ATOM     51  N   UNL A   1      41.620  29.340  33.399  1.00  0.00    -0.354 N 
ATOM     52  N   UNL A   1      42.475  27.824  31.062  1.00  0.00    -0.248 NA
ATOM     53  C   UNL A   1      44.033  26.455  29.985  1.00  0.00     0.031 C 
ATOM     54  C   UNL A   1      42.943  29.378  35.186  1.00  0.00     0.029 A 
ATOM     55  C   UNL A   1      42.818  28.865  33.906  1.00  0.00     0.049 A 
ATOM     56  H   UNL A   1      41.275  29.152  32.497  1.00  0.00     0.167 HD
ATOM     57  C   UNL A   1      43.526  27.555  31.929  1.00  0.00     0.074 A 
ATOM     58  C   UNL A   1      44.444  26.686  31.224  1.00  0.00     0.031 C 
ATOM     59  C   UNL A   1      43.718  27.999  33.194  1.00  0.00     0.031 A 
BRANCH  46  60
ATOM     60  C   UNL A   1      39.120  31.524  35.304  1.00  0.00    -0.014 A 
ATOM     61  C   UNL A   1      38.318  30.919  36.283  1.00  0.00     0.009 A 
ATOM     62  C   UNL A   1      39.396  32.897  35.399  1.00  0.00     0.009 A 
ATOM     63  C   UNL A   1      37.777  31.685  37.320  1.00  0.00     0.001 A 
ATOM     64  C   UNL A   1      38.872  33.654  36.446  1.00  0.00     0.001 A 
ATOM     65  C   UNL A   1      38.057  33.049  37.402  1.00  0.00     0.000 A 
ENDBRANCH  46  60
BRANCH  47  66
ATOM     66  C   UNL A   1      42.489  26.342  27.520  1.00  0.00    -0.014 A 
ATOM     67  C   UNL A   1      42.122  24.995  27.378  1.00  0.00     0.009 A 
ATOM     68  C   UNL A   1      43.346  26.918  26.568  1.00  0.00     0.009 A 
ATOM     69  C   UNL A   1      42.617  24.236  26.316  1.00  0.00     0.001 A 
ATOM     70  C   UNL A   1      43.820  26.163  25.495  1.00  0.00     0.001 A 
ATOM     71  C   UNL A   1      43.461  24.822  25.374  1.00  0.00     0.000 A 
ENDBRANCH  47  66
BRANCH  59  72
ATOM     72  C   UNL A   1      44.958  27.535  33.897  1.00  0.00    -0.014 A 
ATOM     73  C   UNL A   1      46.152  28.265  33.808  1.00  0.00     0.009 A 
ATOM     74  C   UNL A   1      44.924  26.368  34.675  1.00  0.00     0.009 A 
ATOM     75  C   UNL A   1      47.300  27.819  34.465  1.00  0.00     0.001 A 
ATOM     76  C   UNL A   1      46.070  25.934  35.344  1.00  0.00     0.001 A 
ATOM     77  C   UNL A   1      47.257  26.655  35.232  1.00  0.00     0.000 A 
ENDBRANCH  59  72
ENDBRANCH  33  34
ENDBRANCH  26  28
ENDBRANCH  25  26
ENDBRANCH  24  25
ENDBRANCH   1  24
TORSDOF 14
ENDMDL
MODEL 3
REMARK VINA RESULT:     -11.2      3.720      8.746
REMARK SMILES Cc1cc(C)c(C(=O)NC[C@H]2CC[C@@H](C(=O)OCCOC(=O)c3ccc(-c4c5nc(c(-c6ccccc6)c6ccc([nH]6)c(-c6ccccc6)c6nc(c(-c7ccccc7)c7ccc4[nH]7)C=C6)C=C5)cc3)O2)c(C)c1
REMARK SMILES IDX 18 1 17 2 15 3 16 4 14 5 11 6 12 7 71 8 13 9 10 10 9 11 7 12
REMARK SMILES IDX 8 13 6 15 1 16 2 17 3 18 74 19 4 20 72 21 5 22 73 23 19 24
REMARK SMILES IDX 20 25 21 26 22 27 23 28 24 29 70 30 25 31 69 32 26 33 27 34
REMARK SMILES IDX 28 35 63 36 29 37 68 38 62 39 64 40 30 41 67 42 61 43 60 44
REMARK SMILES IDX 31 46 53 47 38 48 52 49 39 50 42 51 51 52 65 53 40 54 41 55
REMARK SMILES IDX 50 57 66 58 43 59 32 60 33 61 37 62 34 63 36 64 35 65 54 66
REMARK SMILES IDX 55 67 59 68 56 69 58 70 57 71 44 72 45 73 49 74 46 75 48 76
REMARK SMILES IDX 47 77
REMARK H PARENT 9 14 64 45 42 56
REMARK Flexibility Score: inf
ROOT
ATOM      1  C   UNL A   1      35.397  20.703  25.130  1.00  0.00     0.274 C 
ENDROOT
BRANCH   1   2
ATOM      2  O   UNL A   1      35.131  21.647  24.073  1.00  0.00    -0.460 OA
BRANCH   2   3
ATOM      3  C   UNL A   1      34.396  22.743  24.411  1.00  0.00     0.335 C 
ATOM      4  O   UNL A   1      33.790  22.888  25.466  1.00  0.00    -0.249 OA
BRANCH   3   5
ATOM      5  C   UNL A   1      34.401  23.778  23.283  1.00  0.00     0.228 C 
ATOM      6  C   UNL A   1      32.343  24.434  22.395  1.00  0.00     0.138 C 
ATOM      7  C   UNL A   1      33.064  25.702  22.803  1.00  0.00     0.037 C 
ATOM      8  O   UNL A   1      33.374  23.432  22.338  1.00  0.00    -0.361 OA
ATOM      9  C   UNL A   1      34.092  25.189  23.779  1.00  0.00     0.047 C 
BRANCH   6  10
ATOM     10  C   UNL A   1      31.235  23.993  23.378  1.00  0.00     0.148 C 
BRANCH  10  11
ATOM     11  N   UNL A   1      30.125  24.916  23.368  1.00  0.00    -0.349 N 
ATOM     12  C   UNL A   1      29.762  26.101  23.935  1.00  0.00     0.251 C 
ATOM     13  O   UNL A   1      28.533  26.240  23.855  1.00  0.00    -0.269 OA
ATOM     14  H   UNL A   1      29.414  24.592  22.769  1.00  0.00     0.163 HD
BRANCH  12  15
ATOM     15  C   UNL A   1      30.577  27.192  24.622  1.00  0.00     0.045 A 
ATOM     16  C   UNL A   1      32.098  30.817  26.556  1.00  0.00     0.044 C 
ATOM     17  C   UNL A   1      31.629  29.574  25.864  1.00  0.00    -0.051 A 
ATOM     18  C   UNL A   1      31.001  29.644  24.633  1.00  0.00     0.007 A 
ATOM     19  C   UNL A   1      31.805  28.322  26.430  1.00  0.00     0.007 A 
ATOM     20  C   UNL A   1      30.512  28.484  23.991  1.00  0.00    -0.038 A 
ATOM     21  C   UNL A   1      31.314  27.128  25.833  1.00  0.00    -0.038 A 
ATOM     22  C   UNL A   1      29.922  28.732  22.616  1.00  0.00     0.045 C 
ATOM     23  C   UNL A   1      31.695  25.905  26.603  1.00  0.00     0.045 C 
ENDBRANCH  12  15
ENDBRANCH  10  11
ENDBRANCH   6  10
ENDBRANCH   3   5
ENDBRANCH   2   3
ENDBRANCH   1   2
BRANCH   1  24
ATOM     24  C   UNL A   1      36.799  20.120  24.984  1.00  0.00     0.275 C 
BRANCH  24  25
ATOM     25  O   UNL A   1      37.772  21.177  25.068  1.00  0.00    -0.458 OA
BRANCH  25  26
ATOM     26  C   UNL A   1      38.891  20.886  25.765  1.00  0.00     0.338 C 
ATOM     27  O   UNL A   1      39.491  19.828  25.815  1.00  0.00    -0.246 OA
BRANCH  26  28
ATOM     28  C   UNL A   1      39.383  22.103  26.427  1.00  0.00     0.060 A 
ATOM     29  C   UNL A   1      38.769  23.312  26.115  1.00  0.00     0.016 A 
ATOM     30  C   UNL A   1      40.542  22.080  27.197  1.00  0.00     0.016 A 
ATOM     31  C   UNL A   1      39.362  24.517  26.481  1.00  0.00     0.010 A 
ATOM     32  C   UNL A   1      41.097  23.290  27.633  1.00  0.00     0.010 A 
ATOM     33  C   UNL A   1      40.544  24.521  27.232  1.00  0.00    -0.014 A 
BRANCH  33  34
ATOM     34  C   UNL A   1      41.259  25.803  27.485  1.00  0.00     0.031 A 
ATOM     35  C   UNL A   1      40.669  26.810  28.440  1.00  0.00     0.074 A 
ATOM     36  C   UNL A   1      42.460  26.053  26.929  1.00  0.00     0.049 A 
ATOM     37  N   UNL A   1      41.062  28.031  28.704  1.00  0.00    -0.248 NA
ATOM     38  C   UNL A   1      39.474  26.391  29.192  1.00  0.00     0.031 C 
ATOM     39  C   UNL A   1      43.195  25.151  26.042  1.00  0.00     0.029 A 
ATOM     40  N   UNL A   1      43.288  27.142  27.055  1.00  0.00    -0.354 N 
ATOM     41  C   UNL A   1      40.127  28.546  29.594  1.00  0.00     0.074 A 
ATOM     42  C   UNL A   1      39.154  27.503  29.836  1.00  0.00     0.031 C 
ATOM     43  C   UNL A   1      44.385  25.699  25.747  1.00  0.00     0.029 A 
ATOM     44  C   UNL A   1      44.470  27.018  26.366  1.00  0.00     0.049 A 
ATOM     45  H   UNL A   1      43.057  27.936  27.589  1.00  0.00     0.167 HD
ATOM     46  C   UNL A   1      40.077  29.776  30.157  1.00  0.00     0.031 A 
ATOM     47  C   UNL A   1      45.498  27.875  26.230  1.00  0.00     0.031 A 
ATOM     48  C   UNL A   1      41.067  30.800  29.973  1.00  0.00     0.049 A 
ATOM     49  C   UNL A   1      45.429  29.230  26.875  1.00  0.00     0.074 A 
ATOM     50  C   UNL A   1      41.085  32.089  30.480  1.00  0.00     0.029 A 
ATOM     51  N   UNL A   1      42.237  30.638  29.250  1.00  0.00    -0.354 N 
ATOM     52  N   UNL A   1      44.486  29.737  27.631  1.00  0.00    -0.248 NA
ATOM     53  C   UNL A   1      46.561  30.137  26.632  1.00  0.00     0.031 C 
ATOM     54  C   UNL A   1      42.264  32.711  30.052  1.00  0.00     0.029 A 
ATOM     55  C   UNL A   1      42.989  31.799  29.304  1.00  0.00     0.049 A 
ATOM     56  H   UNL A   1      42.495  29.820  28.768  1.00  0.00     0.167 HD
ATOM     57  C   UNL A   1      44.911  31.020  27.953  1.00  0.00     0.074 A 
ATOM     58  C   UNL A   1      46.206  31.204  27.334  1.00  0.00     0.031 C 
ATOM     59  C   UNL A   1      44.277  31.965  28.686  1.00  0.00     0.031 A 
BRANCH  46  60
ATOM     60  C   UNL A   1      38.874  30.093  30.997  1.00  0.00    -0.014 A 
ATOM     61  C   UNL A   1      38.835  29.784  32.365  1.00  0.00     0.009 A 
ATOM     62  C   UNL A   1      37.769  30.722  30.405  1.00  0.00     0.009 A 
ATOM     63  C   UNL A   1      37.693  30.075  33.117  1.00  0.00     0.001 A 
ATOM     64  C   UNL A   1      36.639  31.029  31.163  1.00  0.00     0.001 A 
ATOM     65  C   UNL A   1      36.599  30.698  32.517  1.00  0.00     0.000 A 
ENDBRANCH  46  60
BRANCH  47  66
ATOM     66  C   UNL A   1      46.683  27.492  25.422  1.00  0.00    -0.014 A 
ATOM     67  C   UNL A   1      46.772  27.865  24.072  1.00  0.00     0.009 A 
ATOM     68  C   UNL A   1      47.724  26.744  25.993  1.00  0.00     0.009 A 
ATOM     69  C   UNL A   1      47.874  27.481  23.305  1.00  0.00     0.001 A 
ATOM     70  C   UNL A   1      48.835  26.381  25.229  1.00  0.00     0.001 A 
ATOM     71  C   UNL A   1      48.905  26.744  23.886  1.00  0.00     0.000 A 
ENDBRANCH  47  66
BRANCH  59  72
ATOM     72  C   UNL A   1      44.987  33.272  28.874  1.00  0.00    -0.014 A 
ATOM     73  C   UNL A   1      45.798  33.496  29.996  1.00  0.00     0.009 A 
ATOM     74  C   UNL A   1      44.861  34.280  27.906  1.00  0.00     0.009 A 
ATOM     75  C   UNL A   1      46.450  34.719  30.159  1.00  0.00     0.001 A 
ATOM     76  C   UNL A   1      45.527  35.496  28.065  1.00  0.00     0.001 A 
ATOM     77  C   UNL A   1      46.315  35.717  29.194  1.00  0.00     0.000 A 
ENDBRANCH  59  72
ENDBRANCH  33  34
ENDBRANCH  26  28
ENDBRANCH  25  26
ENDBRANCH  24  25
ENDBRANCH   1  24
TORSDOF 14
ENDMDL
