MODEL 1
REMARK VINA RESULT:      -9.3      0.000      0.000
REMARK SMILES C[C@]([NH2+]CCCS(C)(=O)=O)(C(=O)OCCOC(=O)c1ccc(-c2c3nc(c(-c4ccccc4)c4ccc([nH]4)c(-c4ccccc4)c4nc(c(-c5ccccc5)c5ccc2[nH]5)C=C4)C=C3)cc1)C(F)(F)F
REMARK SMILES IDX 13 1 11 2 12 3 2 4 1 5 67 6 68 7 69 8 70 9 3 10 4 13 5 14
REMARK SMILES IDX 6 15 7 16 8 17 9 18 10 19 14 20 15 21 16 22 17 23 18 24
REMARK SMILES IDX 19 25 20 26 66 27 21 28 65 29 22 30 23 31 24 32 59 33 25 34
REMARK SMILES IDX 64 35 58 36 60 37 26 38 63 39 57 40 56 41 27 43 49 44 34 45
REMARK SMILES IDX 48 46 35 47 38 48 47 49 61 50 36 51 37 52 46 54 62 55 39 56
REMARK SMILES IDX 28 57 29 58 33 59 30 60 32 61 31 62 50 63 51 64 55 65 52 66
REMARK SMILES IDX 54 67 53 68 40 69 41 70 45 71 42 72 44 73 43 74
REMARK H PARENT 3 11 3 12 60 42 38 53
REMARK Flexibility Score: inf
ROOT
ATOM      1  O   UNL A   1      36.801  21.339  25.660  1.00  0.00    -0.457 OA
ENDROOT
BRANCH   1   2
ATOM      2  C   UNL A   1      36.027  22.465  25.613  1.00  0.00     0.377 C 
ATOM      3  O   UNL A   1      36.359  23.520  26.137  1.00  0.00    -0.244 OA
BRANCH   2   4
ATOM      4  C   UNL A   1      34.676  22.211  24.914  1.00  0.00     0.287 C 
ATOM      5  C   UNL A   1      33.580  22.839  25.788  1.00  0.00     0.103 C 
BRANCH   4   6
ATOM      6  C   UNL A   1      34.688  22.997  23.573  1.00  0.00     0.455 C 
ATOM      7  F   UNL A   1      34.495  24.324  23.754  1.00  0.00    -0.164 F 
ATOM      8  F   UNL A   1      35.901  22.879  22.963  1.00  0.00    -0.164 F 
ATOM      9  F   UNL A   1      33.777  22.565  22.675  1.00  0.00    -0.164 F 
ENDBRANCH   4   6
BRANCH   4  10
ATOM     10  N   UNL A   1      34.459  20.747  24.611  1.00  0.00    -0.325 N 
ATOM     11  H   UNL A   1      35.037  20.218  25.263  1.00  0.00     0.347 HD
ATOM     12  H   UNL A   1      34.697  20.664  23.622  1.00  0.00     0.347 HD
BRANCH  10  13
ATOM     13  C   UNL A   1      33.115  20.204  24.693  1.00  0.00     0.262 C 
BRANCH  13  14
ATOM     14  C   UNL A   1      33.144  18.723  24.289  1.00  0.00     0.077 C 
BRANCH  14  15
ATOM     15  C   UNL A   1      33.884  17.779  25.232  1.00  0.00     0.142 C 
BRANCH  15  16
ATOM     16  S   UNL A   1      34.081  16.107  24.640  1.00  0.00     0.147 S 
ATOM     17  C   UNL A   1      32.688  15.242  25.317  1.00  0.00     0.158 C 
ATOM     18  O   UNL A   1      33.901  16.134  23.201  1.00  0.00    -0.229 OA
ATOM     19  O   UNL A   1      35.269  15.514  25.224  1.00  0.00    -0.229 OA
ENDBRANCH  15  16
ENDBRANCH  14  15
ENDBRANCH  13  14
ENDBRANCH  10  13
ENDBRANCH   4  10
ENDBRANCH   2   4
ENDBRANCH   1   2
BRANCH   1  20
ATOM     20  C   UNL A   1      38.214  21.475  25.394  1.00  0.00     0.274 C 
BRANCH  20  21
ATOM     21  C   UNL A   1      38.917  20.113  25.344  1.00  0.00     0.275 C 
BRANCH  21  22
ATOM     22  O   UNL A   1      39.736  19.880  26.506  1.00  0.00    -0.458 OA
BRANCH  22  23
ATOM     23  C   UNL A   1      41.054  19.760  26.245  1.00  0.00     0.338 C 
ATOM     24  O   UNL A   1      41.612  18.877  25.608  1.00  0.00    -0.246 OA
BRANCH  23  25
ATOM     25  C   UNL A   1      41.777  20.971  26.641  1.00  0.00     0.060 A 
ATOM     26  C   UNL A   1      41.858  21.194  28.011  1.00  0.00     0.016 A 
ATOM     27  C   UNL A   1      42.167  21.958  25.739  1.00  0.00     0.016 A 
ATOM     28  C   UNL A   1      42.181  22.447  28.498  1.00  0.00     0.010 A 
ATOM     29  C   UNL A   1      42.592  23.199  26.237  1.00  0.00     0.010 A 
ATOM     30  C   UNL A   1      42.554  23.469  27.618  1.00  0.00    -0.014 A 
BRANCH  30  31
ATOM     31  C   UNL A   1      42.829  24.815  28.183  1.00  0.00     0.031 A 
ATOM     32  C   UNL A   1      44.245  25.268  28.411  1.00  0.00     0.074 A 
ATOM     33  C   UNL A   1      41.812  25.676  28.381  1.00  0.00     0.049 A 
ATOM     34  N   UNL A   1      44.677  26.380  28.953  1.00  0.00    -0.248 NA
ATOM     35  C   UNL A   1      45.317  24.356  27.981  1.00  0.00     0.031 C 
ATOM     36  C   UNL A   1      40.399  25.395  28.118  1.00  0.00     0.029 A 
ATOM     37  N   UNL A   1      41.816  26.981  28.804  1.00  0.00    -0.354 N 
ATOM     38  C   UNL A   1      46.062  26.273  28.984  1.00  0.00     0.074 A 
ATOM     39  C   UNL A   1      46.401  24.995  28.398  1.00  0.00     0.031 C 
ATOM     40  C   UNL A   1      39.684  26.512  28.312  1.00  0.00     0.029 A 
ATOM     41  C   UNL A   1      40.571  27.561  28.799  1.00  0.00     0.049 A 
ATOM     42  H   UNL A   1      42.631  27.457  29.083  1.00  0.00     0.167 HD
ATOM     43  C   UNL A   1      46.967  27.158  29.467  1.00  0.00     0.031 A 
ATOM     44  C   UNL A   1      40.178  28.794  29.170  1.00  0.00     0.031 A 
ATOM     45  C   UNL A   1      46.632  28.451  30.002  1.00  0.00     0.049 A 
ATOM     46  C   UNL A   1      41.195  29.748  29.720  1.00  0.00     0.074 A 
ATOM     47  C   UNL A   1      47.475  29.411  30.535  1.00  0.00     0.029 A 
ATOM     48  N   UNL A   1      45.349  28.974  30.046  1.00  0.00    -0.354 N 
ATOM     49  N   UNL A   1      42.491  29.592  29.837  1.00  0.00    -0.248 NA
ATOM     50  C   UNL A   1      40.691  31.035  30.214  1.00  0.00     0.031 C 
ATOM     51  C   UNL A   1      46.696  30.507  30.927  1.00  0.00     0.029 A 
ATOM     52  C   UNL A   1      45.376  30.241  30.603  1.00  0.00     0.049 A 
ATOM     53  H   UNL A   1      44.540  28.513  29.729  1.00  0.00     0.167 HD
ATOM     54  C   UNL A   1      42.957  30.759  30.424  1.00  0.00     0.074 A 
ATOM     55  C   UNL A   1      41.810  31.625  30.610  1.00  0.00     0.031 C 
ATOM     56  C   UNL A   1      44.222  31.081  30.787  1.00  0.00     0.031 A 
BRANCH  43  57
ATOM     57  C   UNL A   1      48.406  26.729  29.487  1.00  0.00    -0.014 A 
ATOM     58  C   UNL A   1      49.286  27.053  28.445  1.00  0.00     0.009 A 
ATOM     59  C   UNL A   1      48.889  26.003  30.587  1.00  0.00     0.009 A 
ATOM     60  C   UNL A   1      50.618  26.632  28.492  1.00  0.00     0.001 A 
ATOM     61  C   UNL A   1      50.225  25.603  30.641  1.00  0.00     0.001 A 
ATOM     62  C   UNL A   1      51.086  25.910  29.590  1.00  0.00     0.000 A 
ENDBRANCH  43  57
BRANCH  44  63
ATOM     63  C   UNL A   1      38.745  29.171  29.081  1.00  0.00    -0.014 A 
ATOM     64  C   UNL A   1      37.892  28.998  30.181  1.00  0.00     0.009 A 
ATOM     65  C   UNL A   1      38.228  29.722  27.898  1.00  0.00     0.009 A 
ATOM     66  C   UNL A   1      36.546  29.362  30.092  1.00  0.00     0.001 A 
ATOM     67  C   UNL A   1      36.889  30.108  27.821  1.00  0.00     0.001 A 
ATOM     68  C   UNL A   1      36.048  29.922  28.916  1.00  0.00     0.000 A 
ENDBRANCH  44  63
BRANCH  56  69
ATOM     69  C   UNL A   1      44.421  32.429  31.410  1.00  0.00    -0.014 A 
ATOM     70  C   UNL A   1      44.353  32.595  32.803  1.00  0.00     0.009 A 
ATOM     71  C   UNL A   1      44.692  33.541  30.599  1.00  0.00     0.009 A 
ATOM     72  C   UNL A   1      44.524  33.859  33.369  1.00  0.00     0.001 A 
ATOM     73  C   UNL A   1      44.881  34.800  31.170  1.00  0.00     0.001 A 
ATOM     74  C   UNL A   1      44.789  34.959  32.552  1.00  0.00     0.000 A 
ENDBRANCH  56  69
ENDBRANCH  30  31
ENDBRANCH  23  25
ENDBRANCH  22  23
ENDBRANCH  21  22
ENDBRANCH  20  21
ENDBRANCH   1  20
TORSDOF 17
ENDMDL
MODEL 2
REMARK VINA RESULT:      -9.2      6.023     10.293
REMARK SMILES C[C@]([NH2+]CCCS(C)(=O)=O)(C(=O)OCCOC(=O)c1ccc(-c2c3nc(c(-c4ccccc4)c4ccc([nH]4)c(-c4ccccc4)c4nc(c(-c5ccccc5)c5ccc2[nH]5)C=C4)C=C3)cc1)C(F)(F)F
REMARK SMILES IDX 13 1 11 2 12 3 2 4 1 5 67 6 68 7 69 8 70 9 3 10 4 13 5 14
REMARK SMILES IDX 6 15 7 16 8 17 9 18 10 19 14 20 15 21 16 22 17 23 18 24
REMARK SMILES IDX 19 25 20 26 66 27 21 28 65 29 22 30 23 31 24 32 59 33 25 34
REMARK SMILES IDX 64 35 58 36 60 37 26 38 63 39 57 40 56 41 27 43 49 44 34 45
REMARK SMILES IDX 48 46 35 47 38 48 47 49 61 50 36 51 37 52 46 54 62 55 39 56
REMARK SMILES IDX 28 57 29 58 33 59 30 60 32 61 31 62 50 63 51 64 55 65 52 66
REMARK SMILES IDX 54 67 53 68 40 69 41 70 45 71 42 72 44 73 43 74
REMARK H PARENT 3 11 3 12 60 42 38 53
REMARK Flexibility Score: inf
ROOT
ATOM      1  O   UNL A   1      32.216  30.691  25.682  1.00  0.00    -0.457 OA
ENDROOT
BRANCH   1   2
ATOM      2  C   UNL A   1      32.777  29.455  25.841  1.00  0.00     0.377 C 
ATOM      3  O   UNL A   1      33.867  29.285  26.371  1.00  0.00    -0.244 OA
BRANCH   2   4
ATOM      4  C   UNL A   1      31.923  28.343  25.199  1.00  0.00     0.287 C 
ATOM      5  C   UNL A   1      32.837  27.547  24.255  1.00  0.00     0.103 C 
BRANCH   4   6
ATOM      6  C   UNL A   1      31.489  27.372  26.332  1.00  0.00     0.455 C 
ATOM      7  F   UNL A   1      32.472  26.507  26.671  1.00  0.00    -0.164 F 
ATOM      8  F   UNL A   1      31.198  28.066  27.468  1.00  0.00    -0.164 F 
ATOM      9  F   UNL A   1      30.384  26.652  26.044  1.00  0.00    -0.164 F 
ENDBRANCH   4   6
BRANCH   4  10
ATOM     10  N   UNL A   1      30.681  28.892  24.535  1.00  0.00    -0.325 N 
ATOM     11  H   UNL A   1      30.792  29.905  24.485  1.00  0.00     0.347 HD
ATOM     12  H   UNL A   1      29.919  28.547  25.118  1.00  0.00     0.347 HD
BRANCH  10  13
ATOM     13  C   UNL A   1      30.337  28.434  23.201  1.00  0.00     0.262 C 
BRANCH  13  14
ATOM     14  C   UNL A   1      30.077  29.652  22.302  1.00  0.00     0.077 C 
BRANCH  14  15
ATOM     15  C   UNL A   1      28.616  29.978  22.010  1.00  0.00     0.142 C 
BRANCH  15  16
ATOM     16  S   UNL A   1      27.957  31.385  22.888  1.00  0.00     0.147 S 
ATOM     17  C   UNL A   1      29.322  31.966  23.860  1.00  0.00     0.158 C 
ATOM     18  O   UNL A   1      27.674  32.413  21.904  1.00  0.00    -0.229 OA
ATOM     19  O   UNL A   1      26.931  30.951  23.818  1.00  0.00    -0.229 OA
ENDBRANCH  15  16
ENDBRANCH  14  15
ENDBRANCH  13  14
ENDBRANCH  10  13
ENDBRANCH   4  10
ENDBRANCH   2   4
ENDBRANCH   1   2
BRANCH   1  20
ATOM     20  C   UNL A   1      31.738  31.377  26.860  1.00  0.00     0.274 C 
BRANCH  20  21
ATOM     21  C   UNL A   1      32.030  32.881  26.800  1.00  0.00     0.275 C 
BRANCH  21  22
ATOM     22  O   UNL A   1      32.113  33.473  28.111  1.00  0.00    -0.458 OA
BRANCH  22  23
ATOM     23  C   UNL A   1      33.174  34.287  28.290  1.00  0.00     0.338 C 
ATOM     24  O   UNL A   1      33.166  35.498  28.460  1.00  0.00    -0.246 OA
BRANCH  23  25
ATOM     25  C   UNL A   1      34.401  33.509  28.484  1.00  0.00     0.060 A 
ATOM     26  C   UNL A   1      34.245  32.314  29.177  1.00  0.00     0.016 A 
ATOM     27  C   UNL A   1      35.672  34.006  28.207  1.00  0.00     0.016 A 
ATOM     28  C   UNL A   1      35.340  31.681  29.734  1.00  0.00     0.010 A 
ATOM     29  C   UNL A   1      36.790  33.307  28.687  1.00  0.00     0.010 A 
ATOM     30  C   UNL A   1      36.630  32.167  29.496  1.00  0.00    -0.014 A 
BRANCH  30  31
ATOM     31  C   UNL A   1      37.769  31.491  30.168  1.00  0.00     0.031 A 
ATOM     32  C   UNL A   1      38.021  31.706  31.636  1.00  0.00     0.074 A 
ATOM     33  C   UNL A   1      38.508  30.592  29.488  1.00  0.00     0.049 A 
ATOM     34  N   UNL A   1      39.001  31.253  32.378  1.00  0.00    -0.248 NA
ATOM     35  C   UNL A   1      37.053  32.539  32.366  1.00  0.00     0.031 C 
ATOM     36  C   UNL A   1      38.315  30.224  28.083  1.00  0.00     0.029 A 
ATOM     37  N   UNL A   1      39.539  29.787  29.901  1.00  0.00    -0.354 N 
ATOM     38  C   UNL A   1      38.800  31.795  33.642  1.00  0.00     0.074 A 
ATOM     39  C   UNL A   1      37.602  32.602  33.571  1.00  0.00     0.031 C 
ATOM     40  C   UNL A   1      39.144  29.218  27.773  1.00  0.00     0.029 A 
ATOM     41  C   UNL A   1      39.989  28.931  28.926  1.00  0.00     0.049 A 
ATOM     42  H   UNL A   1      39.920  29.820  30.809  1.00  0.00     0.167 HD
ATOM     43  C   UNL A   1      39.554  31.640  34.756  1.00  0.00     0.031 A 
ATOM     44  C   UNL A   1      40.988  28.029  28.946  1.00  0.00     0.031 A 
ATOM     45  C   UNL A   1      40.717  30.796  34.840  1.00  0.00     0.049 A 
ATOM     46  C   UNL A   1      41.821  27.892  30.185  1.00  0.00     0.074 A 
ATOM     47  C   UNL A   1      41.559  30.589  35.918  1.00  0.00     0.029 A 
ATOM     48  N   UNL A   1      41.183  29.998  33.807  1.00  0.00    -0.354 N 
ATOM     49  N   UNL A   1      41.679  28.489  31.342  1.00  0.00    -0.248 NA
ATOM     50  C   UNL A   1      42.967  26.977  30.110  1.00  0.00     0.031 C 
ATOM     51  C   UNL A   1      42.554  29.684  35.528  1.00  0.00     0.029 A 
ATOM     52  C   UNL A   1      42.306  29.301  34.220  1.00  0.00     0.049 A 
ATOM     53  H   UNL A   1      40.777  29.936  32.913  1.00  0.00     0.167 HD
ATOM     54  C   UNL A   1      42.721  28.027  32.133  1.00  0.00     0.074 A 
ATOM     55  C   UNL A   1      43.467  27.077  31.333  1.00  0.00     0.031 C 
ATOM     56  C   UNL A   1      43.038  28.369  33.405  1.00  0.00     0.031 A 
BRANCH  43  57
ATOM     57  C   UNL A   1      39.172  32.447  35.963  1.00  0.00    -0.014 A 
ATOM     58  C   UNL A   1      38.268  31.962  36.919  1.00  0.00     0.009 A 
ATOM     59  C   UNL A   1      39.749  33.713  36.152  1.00  0.00     0.009 A 
ATOM     60  C   UNL A   1      37.928  32.743  38.027  1.00  0.00     0.001 A 
ATOM     61  C   UNL A   1      39.425  34.481  37.271  1.00  0.00     0.001 A 
ATOM     62  C   UNL A   1      38.509  33.999  38.203  1.00  0.00     0.000 A 
ENDBRANCH  43  57
BRANCH  44  63
ATOM     63  C   UNL A   1      41.285  27.228  27.732  1.00  0.00    -0.014 A 
ATOM     64  C   UNL A   1      42.186  27.702  26.767  1.00  0.00     0.009 A 
ATOM     65  C   UNL A   1      40.679  25.977  27.542  1.00  0.00     0.009 A 
ATOM     66  C   UNL A   1      42.465  26.940  25.630  1.00  0.00     0.001 A 
ATOM     67  C   UNL A   1      40.981  25.206  26.419  1.00  0.00     0.001 A 
ATOM     68  C   UNL A   1      41.869  25.691  25.460  1.00  0.00     0.000 A 
ENDBRANCH  44  63
BRANCH  56  69
ATOM     69  C   UNL A   1      44.237  27.698  34.003  1.00  0.00    -0.014 A 
ATOM     70  C   UNL A   1      45.512  28.278  33.901  1.00  0.00     0.009 A 
ATOM     71  C   UNL A   1      44.090  26.481  34.686  1.00  0.00     0.009 A 
ATOM     72  C   UNL A   1      46.623  27.635  34.447  1.00  0.00     0.001 A 
ATOM     73  C   UNL A   1      45.201  25.850  35.247  1.00  0.00     0.001 A 
ATOM     74  C   UNL A   1      46.466  26.423  35.121  1.00  0.00     0.000 A 
ENDBRANCH  56  69
ENDBRANCH  30  31
ENDBRANCH  23  25
ENDBRANCH  22  23
ENDBRANCH  21  22
ENDBRANCH  20  21
ENDBRANCH   1  20
TORSDOF 17
ENDMDL
MODEL 3
REMARK VINA RESULT:      -9.2      2.559      6.286
REMARK SMILES C[C@]([NH2+]CCCS(C)(=O)=O)(C(=O)OCCOC(=O)c1ccc(-c2c3nc(c(-c4ccccc4)c4ccc([nH]4)c(-c4ccccc4)c4nc(c(-c5ccccc5)c5ccc2[nH]5)C=C4)C=C3)cc1)C(F)(F)F
REMARK SMILES IDX 13 1 11 2 12 3 2 4 1 5 67 6 68 7 69 8 70 9 3 10 4 13 5 14
REMARK SMILES IDX 6 15 7 16 8 17 9 18 10 19 14 20 15 21 16 22 17 23 18 24
REMARK SMILES IDX 19 25 20 26 66 27 21 28 65 29 22 30 23 31 24 32 59 33 25 34
REMARK SMILES IDX 64 35 58 36 60 37 26 38 63 39 57 40 56 41 27 43 49 44 34 45
REMARK SMILES IDX 48 46 35 47 38 48 47 49 61 50 36 51 37 52 46 54 62 55 39 56
REMARK SMILES IDX 28 57 29 58 33 59 30 60 32 61 31 62 50 63 51 64 55 65 52 66
REMARK SMILES IDX 54 67 53 68 40 69 41 70 45 71 42 72 44 73 43 74
REMARK H PARENT 3 11 3 12 60 42 38 53
REMARK Flexibility Score: inf
ROOT
ATOM      1  O   UNL A   1      35.555  21.895  25.672  1.00  0.00    -0.457 OA
ENDROOT
BRANCH   1   2
ATOM      2  C   UNL A   1      34.325  22.348  25.285  1.00  0.00     0.377 C 
ATOM      3  O   UNL A   1      34.149  22.997  24.263  1.00  0.00    -0.244 OA
BRANCH   2   4
ATOM      4  C   UNL A   1      33.234  22.025  26.326  1.00  0.00     0.287 C 
ATOM      5  C   UNL A   1      33.844  22.247  27.718  1.00  0.00     0.103 C 
BRANCH   4   6
ATOM      6  C   UNL A   1      32.101  23.074  26.157  1.00  0.00     0.455 C 
ATOM      7  F   UNL A   1      31.613  23.103  24.896  1.00  0.00    -0.164 F 
ATOM      8  F   UNL A   1      31.042  22.764  26.956  1.00  0.00    -0.164 F 
ATOM      9  F   UNL A   1      32.462  24.331  26.491  1.00  0.00    -0.164 F 
ENDBRANCH   4   6
BRANCH   4  10
ATOM     10  N   UNL A   1      32.647  20.647  26.124  1.00  0.00    -0.325 N 
ATOM     11  H   UNL A   1      31.862  20.560  26.769  1.00  0.00     0.347 HD
ATOM     12  H   UNL A   1      33.436  20.019  26.282  1.00  0.00     0.347 HD
BRANCH  10  13
ATOM     13  C   UNL A   1      32.162  20.276  24.807  1.00  0.00     0.262 C 
BRANCH  13  14
ATOM     14  C   UNL A   1      32.964  19.069  24.296  1.00  0.00     0.077 C 
BRANCH  14  15
ATOM     15  C   UNL A   1      32.608  17.716  24.904  1.00  0.00     0.142 C 
BRANCH  15  16
ATOM     16  S   UNL A   1      33.576  16.336  24.317  1.00  0.00     0.147 S 
ATOM     17  C   UNL A   1      35.123  16.500  25.169  1.00  0.00     0.158 C 
ATOM     18  O   UNL A   1      32.949  15.126  24.814  1.00  0.00    -0.229 OA
ATOM     19  O   UNL A   1      33.855  16.495  22.903  1.00  0.00    -0.229 OA
ENDBRANCH  15  16
ENDBRANCH  14  15
ENDBRANCH  13  14
ENDBRANCH  10  13
ENDBRANCH   4  10
ENDBRANCH   2   4
ENDBRANCH   1   2
BRANCH   1  20
ATOM     20  C   UNL A   1      35.974  20.591  25.211  1.00  0.00     0.274 C 
BRANCH  20  21
ATOM     21  C   UNL A   1      37.402  20.618  24.653  1.00  0.00     0.275 C 
BRANCH  21  22
ATOM     22  O   UNL A   1      38.157  21.745  25.141  1.00  0.00    -0.458 OA
BRANCH  22  23
ATOM     23  C   UNL A   1      39.092  21.434  26.061  1.00  0.00     0.338 C 
ATOM     24  O   UNL A   1      39.630  20.350  26.244  1.00  0.00    -0.246 OA
BRANCH  23  25
ATOM     25  C   UNL A   1      39.591  22.640  26.728  1.00  0.00     0.060 A 
ATOM     26  C   UNL A   1      39.042  23.836  26.281  1.00  0.00     0.016 A 
ATOM     27  C   UNL A   1      40.688  22.641  27.585  1.00  0.00     0.016 A 
ATOM     28  C   UNL A   1      39.667  25.038  26.555  1.00  0.00     0.010 A 
ATOM     29  C   UNL A   1      41.263  23.870  27.946  1.00  0.00     0.010 A 
ATOM     30  C   UNL A   1      40.787  25.074  27.393  1.00  0.00    -0.014 A 
BRANCH  30  31
ATOM     31  C   UNL A   1      41.463  26.379  27.606  1.00  0.00     0.031 A 
ATOM     32  C   UNL A   1      40.904  27.373  28.586  1.00  0.00     0.074 A 
ATOM     33  C   UNL A   1      42.644  26.625  27.005  1.00  0.00     0.049 A 
ATOM     34  N   UNL A   1      41.319  28.586  28.857  1.00  0.00    -0.248 NA
ATOM     35  C   UNL A   1      39.724  26.958  29.361  1.00  0.00     0.031 C 
ATOM     36  C   UNL A   1      43.342  25.710  26.098  1.00  0.00     0.029 A 
ATOM     37  N   UNL A   1      43.492  27.699  27.107  1.00  0.00    -0.354 N 
ATOM     38  C   UNL A   1      40.418  29.096  29.784  1.00  0.00     0.074 A 
ATOM     39  C   UNL A   1      39.440  28.061  30.038  1.00  0.00     0.031 C 
ATOM     40  C   UNL A   1      44.539  26.226  25.787  1.00  0.00     0.029 A 
ATOM     41  C   UNL A   1      44.657  27.545  26.397  1.00  0.00     0.049 A 
ATOM     42  H   UNL A   1      43.286  28.502  27.638  1.00  0.00     0.167 HD
ATOM     43  C   UNL A   1      40.405  30.321  30.363  1.00  0.00     0.031 A 
ATOM     44  C   UNL A   1      45.699  28.382  26.232  1.00  0.00     0.031 A 
ATOM     45  C   UNL A   1      41.407  31.331  30.149  1.00  0.00     0.049 A 
ATOM     46  C   UNL A   1      45.650  29.739  26.865  1.00  0.00     0.074 A 
ATOM     47  C   UNL A   1      41.471  32.611  30.673  1.00  0.00     0.029 A 
ATOM     48  N   UNL A   1      42.538  31.162  29.365  1.00  0.00    -0.354 N 
ATOM     49  N   UNL A   1      44.739  30.245  27.659  1.00  0.00    -0.248 NA
ATOM     50  C   UNL A   1      46.760  30.650  26.557  1.00  0.00     0.031 C 
ATOM     51  C   UNL A   1      42.629  33.226  30.182  1.00  0.00     0.029 A 
ATOM     52  C   UNL A   1      43.302  32.316  29.385  1.00  0.00     0.049 A 
ATOM     53  H   UNL A   1      42.763  30.343  28.867  1.00  0.00     0.167 HD
ATOM     54  C   UNL A   1      45.162  31.535  27.942  1.00  0.00     0.074 A 
ATOM     55  C   UNL A   1      46.426  31.723  27.260  1.00  0.00     0.031 C 
ATOM     56  C   UNL A   1      44.551  32.484  28.691  1.00  0.00     0.031 A 
BRANCH  43  57
ATOM     57  C   UNL A   1      39.235  30.653  31.243  1.00  0.00    -0.014 A 
ATOM     58  C   UNL A   1      38.062  31.222  30.726  1.00  0.00     0.009 A 
ATOM     59  C   UNL A   1      39.307  30.368  32.615  1.00  0.00     0.009 A 
ATOM     60  C   UNL A   1      36.993  31.526  31.575  1.00  0.00     0.001 A 
ATOM     61  C   UNL A   1      38.230  30.652  33.457  1.00  0.00     0.001 A 
ATOM     62  C   UNL A   1      37.078  31.238  32.937  1.00  0.00     0.000 A 
ENDBRANCH  43  57
BRANCH  44  63
ATOM     63  C   UNL A   1      46.848  27.973  25.386  1.00  0.00    -0.014 A 
ATOM     64  C   UNL A   1      47.990  27.397  25.963  1.00  0.00     0.009 A 
ATOM     65  C   UNL A   1      46.801  28.142  23.993  1.00  0.00     0.009 A 
ATOM     66  C   UNL A   1      49.065  27.009  25.160  1.00  0.00     0.001 A 
ATOM     67  C   UNL A   1      47.865  27.728  23.192  1.00  0.00     0.001 A 
ATOM     68  C   UNL A   1      48.999  27.168  23.777  1.00  0.00     0.000 A 
ENDBRANCH  44  63
BRANCH  56  69
ATOM     69  C   UNL A   1      45.255  33.801  28.813  1.00  0.00    -0.014 A 
ATOM     70  C   UNL A   1      44.971  34.853  27.927  1.00  0.00     0.009 A 
ATOM     71  C   UNL A   1      46.201  33.997  29.830  1.00  0.00     0.009 A 
ATOM     72  C   UNL A   1      45.646  36.069  28.042  1.00  0.00     0.001 A 
ATOM     73  C   UNL A   1      46.860  35.221  29.952  1.00  0.00     0.001 A 
ATOM     74  C   UNL A   1      46.589  36.252  29.054  1.00  0.00     0.000 A 
ENDBRANCH  56  69
ENDBRANCH  30  31
ENDBRANCH  23  25
ENDBRANCH  22  23
ENDBRANCH  21  22
ENDBRANCH  20  21
ENDBRANCH   1  20
TORSDOF 17
ENDMDL
