MODEL 1
REMARK VINA RESULT:     -11.5      0.000      0.000
REMARK SMILES COc1cc2c(cc1OC)[C@H](C(=O)OCCOC(=O)c1ccc(-c3c4nc(c(-c5ccccc5)c5ccc([nH]5)c(-c5ccccc5)c5nc(c(-c6ccccc6)c6ccc3[nH]6)C=C5)C=C4)cc1)[C@@H](c1ccc(SC)cc1)N(C)C2=O
REMARK SMILES IDX 15 1 14 2 12 3 13 4 11 5 3 6 4 7 8 8 5 9 7 10 6 11 79 12
REMARK SMILES IDX 77 13 80 14 68 15 78 16 2 17 1 18 9 19 10 20 69 21 70 22
REMARK SMILES IDX 76 23 71 24 75 25 72 26 73 27 74 28 16 29 17 30 18 31 19 32
REMARK SMILES IDX 20 33 21 34 67 35 22 36 66 37 23 38 24 39 25 40 60 41 26 42
REMARK SMILES IDX 65 43 59 44 61 45 27 46 64 47 58 48 57 49 28 51 50 52 35 53
REMARK SMILES IDX 49 54 36 55 39 56 48 57 62 58 37 59 38 60 47 62 63 63 40 64
REMARK SMILES IDX 29 65 30 66 34 67 31 68 33 69 32 70 51 71 52 72 56 73 53 74
REMARK SMILES IDX 55 75 54 76 41 77 42 78 46 79 43 80 45 81 44 82
REMARK H PARENT 61 50 39 61
REMARK Flexibility Score: inf
ROOT
ATOM      1  C   UNL A   1      36.422  22.842  23.766  1.00  0.00     0.274 C 
ENDROOT
BRANCH   1   2
ATOM      2  O   UNL A   1      35.815  23.723  24.737  1.00  0.00    -0.462 OA
BRANCH   2   3
ATOM      3  C   UNL A   1      34.583  24.185  24.386  1.00  0.00     0.316 C 
ATOM      4  O   UNL A   1      34.335  24.761  23.332  1.00  0.00    -0.251 OA
BRANCH   3   5
ATOM      5  C   UNL A   1      33.563  24.037  25.513  1.00  0.00     0.157 C 
ATOM      6  C   UNL A   1      32.169  28.082  26.324  1.00  0.00     0.161 A 
ATOM      7  C   UNL A   1      31.288  26.993  26.386  1.00  0.00     0.064 A 
ATOM      8  C   UNL A   1      33.531  27.848  26.099  1.00  0.00     0.161 A 
ATOM      9  C   UNL A   1      31.745  25.680  26.198  1.00  0.00     0.048 A 
ATOM     10  C   UNL A   1      33.975  26.529  25.932  1.00  0.00     0.056 A 
ATOM     11  C   UNL A   1      33.087  25.436  25.912  1.00  0.00    -0.015 A 
ATOM     12  C   UNL A   1      30.783  24.561  26.348  1.00  0.00     0.254 C 
ATOM     13  N   UNL A   1      31.209  23.297  25.940  1.00  0.00    -0.333 N 
ATOM     14  O   UNL A   1      29.683  24.781  26.845  1.00  0.00    -0.269 OA
ATOM     15  C   UNL A   1      32.364  23.179  25.007  1.00  0.00     0.134 C 
ATOM     16  C   UNL A   1      30.280  22.194  26.158  1.00  0.00     0.147 C 
BRANCH   6  17
ATOM     17  O   UNL A   1      31.705  29.367  26.405  1.00  0.00    -0.493 OA
ATOM     18  C   UNL A   1      31.340  29.950  25.159  1.00  0.00     0.278 C 
ENDBRANCH   6  17
BRANCH   8  19
ATOM     19  O   UNL A   1      34.556  28.751  26.005  1.00  0.00    -0.493 OA
ATOM     20  C   UNL A   1      35.061  29.339  27.194  1.00  0.00     0.278 C 
ENDBRANCH   8  19
BRANCH  15  21
ATOM     21  C   UNL A   1      32.669  21.729  24.612  1.00  0.00    -0.024 A 
ATOM     22  C   UNL A   1      33.390  20.835  25.409  1.00  0.00     0.007 A 
ATOM     23  C   UNL A   1      32.151  21.235  23.398  1.00  0.00     0.007 A 
ATOM     24  C   UNL A   1      33.600  19.509  24.991  1.00  0.00     0.015 A 
ATOM     25  C   UNL A   1      32.342  19.908  22.996  1.00  0.00     0.015 A 
ATOM     26  C   UNL A   1      33.070  19.026  23.788  1.00  0.00     0.007 A 
BRANCH  26  27
ATOM     27  S   UNL A   1      33.384  17.316  23.370  1.00  0.00    -0.130 SA
ATOM     28  C   UNL A   1      34.510  16.756  24.680  1.00  0.00     0.091 C 
ENDBRANCH  26  27
ENDBRANCH  15  21
ENDBRANCH   3   5
ENDBRANCH   2   3
ENDBRANCH   1   2
BRANCH   1  29
ATOM     29  C   UNL A   1      36.940  21.552  24.403  1.00  0.00     0.275 C 
BRANCH  29  30
ATOM     30  O   UNL A   1      37.345  21.808  25.756  1.00  0.00    -0.458 OA
BRANCH  30  31
ATOM     31  C   UNL A   1      38.647  21.581  26.038  1.00  0.00     0.338 C 
ATOM     32  O   UNL A   1      39.243  20.525  25.906  1.00  0.00    -0.246 OA
BRANCH  31  33
ATOM     33  C   UNL A   1      39.288  22.819  26.548  1.00  0.00     0.060 A 
ATOM     34  C   UNL A   1      38.840  24.088  26.180  1.00  0.00     0.016 A 
ATOM     35  C   UNL A   1      40.419  22.707  27.355  1.00  0.00     0.016 A 
ATOM     36  C   UNL A   1      39.561  25.230  26.530  1.00  0.00     0.010 A 
ATOM     37  C   UNL A   1      41.087  23.858  27.791  1.00  0.00     0.010 A 
ATOM     38  C   UNL A   1      40.686  25.132  27.355  1.00  0.00    -0.014 A 
BRANCH  38  39
ATOM     39  C   UNL A   1      41.457  26.344  27.748  1.00  0.00     0.031 A 
ATOM     40  C   UNL A   1      40.857  27.353  28.690  1.00  0.00     0.074 A 
ATOM     41  C   UNL A   1      42.696  26.555  27.260  1.00  0.00     0.049 A 
ATOM     42  N   UNL A   1      41.267  28.560  28.987  1.00  0.00    -0.248 NA
ATOM     43  C   UNL A   1      39.623  26.955  29.388  1.00  0.00     0.031 C 
ATOM     44  C   UNL A   1      43.440  25.642  26.389  1.00  0.00     0.029 A 
ATOM     45  N   UNL A   1      43.548  27.619  27.426  1.00  0.00    -0.354 N 
ATOM     46  C   UNL A   1      40.319  29.080  29.861  1.00  0.00     0.074 A 
ATOM     47  C   UNL A   1      39.315  28.056  30.056  1.00  0.00     0.031 C 
ATOM     48  C   UNL A   1      44.644  26.168  26.123  1.00  0.00     0.029 A 
ATOM     49  C   UNL A   1      44.719  27.496  26.719  1.00  0.00     0.049 A 
ATOM     50  H   UNL A   1      43.341  28.393  27.997  1.00  0.00     0.167 HD
ATOM     51  C   UNL A   1      40.279  30.305  30.435  1.00  0.00     0.031 A 
ATOM     52  C   UNL A   1      45.721  28.373  26.517  1.00  0.00     0.031 A 
ATOM     53  C   UNL A   1      41.282  31.319  30.254  1.00  0.00     0.049 A 
ATOM     54  C   UNL A   1      45.620  29.751  27.100  1.00  0.00     0.074 A 
ATOM     55  C   UNL A   1      41.325  32.597  30.786  1.00  0.00     0.029 A 
ATOM     56  N   UNL A   1      42.424  31.166  29.486  1.00  0.00    -0.354 N 
ATOM     57  N   UNL A   1      44.683  30.256  27.863  1.00  0.00    -0.248 NA
ATOM     58  C   UNL A   1      46.703  30.687  26.768  1.00  0.00     0.031 C 
ATOM     59  C   UNL A   1      42.478  33.231  30.307  1.00  0.00     0.029 A 
ATOM     60  C   UNL A   1      43.171  32.331  29.513  1.00  0.00     0.049 A 
ATOM     61  H   UNL A   1      42.669  30.349  28.994  1.00  0.00     0.167 HD
ATOM     62  C   UNL A   1      45.062  31.569  28.106  1.00  0.00     0.074 A 
ATOM     63  C   UNL A   1      46.325  31.774  27.427  1.00  0.00     0.031 C 
ATOM     64  C   UNL A   1      44.418  32.520  28.822  1.00  0.00     0.031 A 
BRANCH  51  65
ATOM     65  C   UNL A   1      39.079  30.637  31.273  1.00  0.00    -0.014 A 
ATOM     66  C   UNL A   1      37.918  31.186  30.708  1.00  0.00     0.009 A 
ATOM     67  C   UNL A   1      39.101  30.359  32.650  1.00  0.00     0.009 A 
ATOM     68  C   UNL A   1      36.812  31.474  31.512  1.00  0.00     0.001 A 
ATOM     69  C   UNL A   1      37.987  30.627  33.446  1.00  0.00     0.001 A 
ATOM     70  C   UNL A   1      36.846  31.191  32.878  1.00  0.00     0.000 A 
ENDBRANCH  51  65
BRANCH  52  71
ATOM     71  C   UNL A   1      46.867  27.991  25.654  1.00  0.00    -0.014 A 
ATOM     72  C   UNL A   1      48.078  27.568  26.221  1.00  0.00     0.009 A 
ATOM     73  C   UNL A   1      46.745  28.025  24.254  1.00  0.00     0.009 A 
ATOM     74  C   UNL A   1      49.145  27.193  25.403  1.00  0.00     0.001 A 
ATOM     75  C   UNL A   1      47.805  27.623  23.441  1.00  0.00     0.001 A 
ATOM     76  C   UNL A   1      49.006  27.212  24.016  1.00  0.00     0.000 A 
ENDBRANCH  52  71
BRANCH  64  77
ATOM     77  C   UNL A   1      45.081  33.861  28.917  1.00  0.00    -0.014 A 
ATOM     78  C   UNL A   1      46.014  34.135  29.929  1.00  0.00     0.009 A 
ATOM     79  C   UNL A   1      44.787  34.853  27.970  1.00  0.00     0.009 A 
ATOM     80  C   UNL A   1      46.619  35.390  30.007  1.00  0.00     0.001 A 
ATOM     81  C   UNL A   1      45.409  36.100  28.038  1.00  0.00     0.001 A 
ATOM     82  C   UNL A   1      46.319  36.370  29.061  1.00  0.00     0.000 A 
ENDBRANCH  64  77
ENDBRANCH  38  39
ENDBRANCH  31  33
ENDBRANCH  30  31
ENDBRANCH  29  30
ENDBRANCH   1  29
TORSDOF 15
ENDMDL
MODEL 2
REMARK VINA RESULT:     -11.4      3.915      8.943
REMARK SMILES COc1cc2c(cc1OC)[C@H](C(=O)OCCOC(=O)c1ccc(-c3c4nc(c(-c5ccccc5)c5ccc([nH]5)c(-c5ccccc5)c5nc(c(-c6ccccc6)c6ccc3[nH]6)C=C5)C=C4)cc1)[C@@H](c1ccc(SC)cc1)N(C)C2=O
REMARK SMILES IDX 15 1 14 2 12 3 13 4 11 5 3 6 4 7 8 8 5 9 7 10 6 11 79 12
REMARK SMILES IDX 77 13 80 14 68 15 78 16 2 17 1 18 9 19 10 20 69 21 70 22
REMARK SMILES IDX 76 23 71 24 75 25 72 26 73 27 74 28 16 29 17 30 18 31 19 32
REMARK SMILES IDX 20 33 21 34 67 35 22 36 66 37 23 38 24 39 25 40 60 41 26 42
REMARK SMILES IDX 65 43 59 44 61 45 27 46 64 47 58 48 57 49 28 51 50 52 35 53
REMARK SMILES IDX 49 54 36 55 39 56 48 57 62 58 37 59 38 60 47 62 63 63 40 64
REMARK SMILES IDX 29 65 30 66 34 67 31 68 33 69 32 70 51 71 52 72 56 73 53 74
REMARK SMILES IDX 55 75 54 76 41 77 42 78 46 79 43 80 45 81 44 82
REMARK H PARENT 61 50 39 61
REMARK Flexibility Score: inf
ROOT
ATOM      1  C   UNL A   1      31.778  28.377  26.657  1.00  0.00     0.274 C 
ENDROOT
BRANCH   1   2
ATOM      2  O   UNL A   1      32.929  27.624  26.214  1.00  0.00    -0.462 OA
BRANCH   2   3
ATOM      3  C   UNL A   1      32.635  26.405  25.683  1.00  0.00     0.316 C 
ATOM      4  O   UNL A   1      32.125  25.483  26.311  1.00  0.00    -0.251 OA
BRANCH   3   5
ATOM      5  C   UNL A   1      33.142  26.257  24.251  1.00  0.00     0.157 C 
ATOM      6  C   UNL A   1      35.594  22.657  24.281  1.00  0.00     0.161 A 
ATOM      7  C   UNL A   1      34.790  22.969  23.175  1.00  0.00     0.064 A 
ATOM      8  C   UNL A   1      35.683  23.568  25.340  1.00  0.00     0.161 A 
ATOM      9  C   UNL A   1      34.055  24.163  23.128  1.00  0.00     0.048 A 
ATOM     10  C   UNL A   1      34.957  24.766  25.269  1.00  0.00     0.056 A 
ATOM     11  C   UNL A   1      34.085  25.051  24.202  1.00  0.00    -0.015 A 
ATOM     12  C   UNL A   1      33.279  24.476  21.903  1.00  0.00     0.254 C 
ATOM     13  N   UNL A   1      32.390  25.548  21.970  1.00  0.00    -0.333 N 
ATOM     14  O   UNL A   1      33.471  23.813  20.888  1.00  0.00    -0.269 OA
ATOM     15  C   UNL A   1      31.927  26.034  23.300  1.00  0.00     0.134 C 
ATOM     16  C   UNL A   1      31.686  25.890  20.739  1.00  0.00     0.147 C 
BRANCH   6  17
ATOM     17  O   UNL A   1      36.229  21.447  24.369  1.00  0.00    -0.493 OA
ATOM     18  C   UNL A   1      35.471  20.421  25.001  1.00  0.00     0.278 C 
ENDBRANCH   6  17
BRANCH   8  19
ATOM     19  O   UNL A   1      36.402  23.471  26.501  1.00  0.00    -0.493 OA
ATOM     20  C   UNL A   1      37.786  23.783  26.477  1.00  0.00     0.278 C 
ENDBRANCH   8  19
BRANCH  15  21
ATOM     21  C   UNL A   1      30.911  27.178  23.199  1.00  0.00    -0.024 A 
ATOM     22  C   UNL A   1      31.218  28.461  22.738  1.00  0.00     0.007 A 
ATOM     23  C   UNL A   1      29.567  26.920  23.537  1.00  0.00     0.007 A 
ATOM     24  C   UNL A   1      30.221  29.448  22.643  1.00  0.00     0.015 A 
ATOM     25  C   UNL A   1      28.573  27.897  23.419  1.00  0.00     0.015 A 
ATOM     26  C   UNL A   1      28.886  29.176  22.970  1.00  0.00     0.007 A 
BRANCH  26  27
ATOM     27  S   UNL A   1      27.701  30.503  22.790  1.00  0.00    -0.130 SA
ATOM     28  C   UNL A   1      28.029  31.146  21.123  1.00  0.00     0.091 C 
ENDBRANCH  26  27
ENDBRANCH  15  21
ENDBRANCH   3   5
ENDBRANCH   2   3
ENDBRANCH   1   2
BRANCH   1  29
ATOM     29  C   UNL A   1      31.731  29.774  26.040  1.00  0.00     0.275 C 
BRANCH  29  30
ATOM     30  O   UNL A   1      33.052  30.334  26.005  1.00  0.00    -0.458 OA
BRANCH  30  31
ATOM     31  C   UNL A   1      33.336  31.243  26.964  1.00  0.00     0.338 C 
ATOM     32  O   UNL A   1      32.651  32.202  27.279  1.00  0.00    -0.246 OA
BRANCH  31  33
ATOM     33  C   UNL A   1      34.632  30.922  27.612  1.00  0.00     0.060 A 
ATOM     34  C   UNL A   1      34.975  29.618  27.973  1.00  0.00     0.016 A 
ATOM     35  C   UNL A   1      35.498  31.965  27.940  1.00  0.00     0.016 A 
ATOM     36  C   UNL A   1      36.116  29.363  28.733  1.00  0.00     0.010 A 
ATOM     37  C   UNL A   1      36.693  31.699  28.616  1.00  0.00     0.010 A 
ATOM     38  C   UNL A   1      37.001  30.398  29.051  1.00  0.00    -0.014 A 
BRANCH  38  39
ATOM     39  C   UNL A   1      38.230  30.138  29.851  1.00  0.00     0.031 A 
ATOM     40  C   UNL A   1      39.350  29.313  29.275  1.00  0.00     0.074 A 
ATOM     41  C   UNL A   1      38.352  30.632  31.100  1.00  0.00     0.049 A 
ATOM     42  N   UNL A   1      40.396  28.799  29.871  1.00  0.00    -0.248 NA
ATOM     43  C   UNL A   1      39.281  29.018  27.834  1.00  0.00     0.031 C 
ATOM     44  C   UNL A   1      37.385  31.501  31.774  1.00  0.00     0.029 A 
ATOM     45  N   UNL A   1      39.348  30.463  32.029  1.00  0.00    -0.354 N 
ATOM     46  C   UNL A   1      41.077  28.082  28.893  1.00  0.00     0.074 A 
ATOM     47  C   UNL A   1      40.333  28.232  27.662  1.00  0.00     0.031 C 
ATOM     48  C   UNL A   1      37.847  31.812  32.994  1.00  0.00     0.029 A 
ATOM     49  C   UNL A   1      39.090  31.087  33.226  1.00  0.00     0.049 A 
ATOM     50  H   UNL A   1      40.167  29.945  31.856  1.00  0.00     0.167 HD
ATOM     51  C   UNL A   1      42.209  27.350  29.016  1.00  0.00     0.031 A 
ATOM     52  C   UNL A   1      39.742  31.037  34.402  1.00  0.00     0.031 A 
ATOM     53  C   UNL A   1      42.957  27.210  30.236  1.00  0.00     0.049 A 
ATOM     54  C   UNL A   1      40.951  30.161  34.536  1.00  0.00     0.074 A 
ATOM     55  C   UNL A   1      44.112  26.481  30.462  1.00  0.00     0.029 A 
ATOM     56  N   UNL A   1      42.627  27.820  31.434  1.00  0.00    -0.354 N 
ATOM     57  N   UNL A   1      41.543  29.428  33.625  1.00  0.00    -0.248 NA
ATOM     58  C   UNL A   1      41.564  30.083  35.869  1.00  0.00     0.031 C 
ATOM     59  C   UNL A   1      44.460  26.621  31.811  1.00  0.00     0.029 A 
ATOM     60  C   UNL A   1      43.544  27.470  32.410  1.00  0.00     0.049 A 
ATOM     61  H   UNL A   1      41.854  28.415  31.571  1.00  0.00     0.167 HD
ATOM     62  C   UNL A   1      42.600  28.804  34.272  1.00  0.00     0.074 A 
ATOM     63  C   UNL A   1      42.580  29.260  35.647  1.00  0.00     0.031 C 
ATOM     64  C   UNL A   1      43.501  27.925  33.773  1.00  0.00     0.031 A 
BRANCH  51  65
ATOM     65  C   UNL A   1      42.678  26.597  27.805  1.00  0.00    -0.014 A 
ATOM     66  C   UNL A   1      43.606  27.150  26.910  1.00  0.00     0.009 A 
ATOM     67  C   UNL A   1      42.207  25.293  27.578  1.00  0.00     0.009 A 
ATOM     68  C   UNL A   1      44.034  26.420  25.798  1.00  0.00     0.001 A 
ATOM     69  C   UNL A   1      42.651  24.559  26.478  1.00  0.00     0.001 A 
ATOM     70  C   UNL A   1      43.559  25.125  25.585  1.00  0.00     0.000 A 
ENDBRANCH  51  65
BRANCH  52  71
ATOM     71  C   UNL A   1      39.208  31.786  35.568  1.00  0.00    -0.014 A 
ATOM     72  C   UNL A   1      38.261  31.200  36.420  1.00  0.00     0.009 A 
ATOM     73  C   UNL A   1      39.665  33.085  35.848  1.00  0.00     0.009 A 
ATOM     74  C   UNL A   1      37.778  31.903  37.525  1.00  0.00     0.001 A 
ATOM     75  C   UNL A   1      39.200  33.774  36.969  1.00  0.00     0.001 A 
ATOM     76  C   UNL A   1      38.253  33.184  37.803  1.00  0.00     0.000 A 
ENDBRANCH  52  71
BRANCH  64  77
ATOM     77  C   UNL A   1      44.546  27.417  34.720  1.00  0.00    -0.014 A 
ATOM     78  C   UNL A   1      45.753  28.110  34.903  1.00  0.00     0.009 A 
ATOM     79  C   UNL A   1      44.312  26.244  35.454  1.00  0.00     0.009 A 
ATOM     80  C   UNL A   1      46.718  27.621  35.784  1.00  0.00     0.001 A 
ATOM     81  C   UNL A   1      45.271  25.769  36.349  1.00  0.00     0.001 A 
ATOM     82  C   UNL A   1      46.476  26.454  36.508  1.00  0.00     0.000 A 
ENDBRANCH  64  77
ENDBRANCH  38  39
ENDBRANCH  31  33
ENDBRANCH  30  31
ENDBRANCH  29  30
ENDBRANCH   1  29
TORSDOF 15
ENDMDL
MODEL 3
REMARK VINA RESULT:     -11.3      3.220      7.259
REMARK SMILES COc1cc2c(cc1OC)[C@H](C(=O)OCCOC(=O)c1ccc(-c3c4nc(c(-c5ccccc5)c5ccc([nH]5)c(-c5ccccc5)c5nc(c(-c6ccccc6)c6ccc3[nH]6)C=C5)C=C4)cc1)[C@@H](c1ccc(SC)cc1)N(C)C2=O
REMARK SMILES IDX 15 1 14 2 12 3 13 4 11 5 3 6 4 7 8 8 5 9 7 10 6 11 79 12
REMARK SMILES IDX 77 13 80 14 68 15 78 16 2 17 1 18 9 19 10 20 69 21 70 22
REMARK SMILES IDX 76 23 71 24 75 25 72 26 73 27 74 28 16 29 17 30 18 31 19 32
REMARK SMILES IDX 20 33 21 34 67 35 22 36 66 37 23 38 24 39 25 40 60 41 26 42
REMARK SMILES IDX 65 43 59 44 61 45 27 46 64 47 58 48 57 49 28 51 50 52 35 53
REMARK SMILES IDX 49 54 36 55 39 56 48 57 62 58 37 59 38 60 47 62 63 63 40 64
REMARK SMILES IDX 29 65 30 66 34 67 31 68 33 69 32 70 51 71 52 72 56 73 53 74
REMARK SMILES IDX 55 75 54 76 41 77 42 78 46 79 43 80 45 81 44 82
REMARK H PARENT 61 50 39 61
REMARK Flexibility Score: inf
ROOT
ATOM      1  C   UNL A   1      32.916  28.051  26.700  1.00  0.00     0.274 C 
ENDROOT
BRANCH   1   2
ATOM      2  O   UNL A   1      31.791  27.252  27.129  1.00  0.00    -0.462 OA
BRANCH   2   3
ATOM      3  C   UNL A   1      31.474  26.227  26.290  1.00  0.00     0.316 C 
ATOM      4  O   UNL A   1      30.700  25.318  26.571  1.00  0.00    -0.251 OA
BRANCH   3   5
ATOM      5  C   UNL A   1      32.300  26.250  25.007  1.00  0.00     0.157 C 
ATOM      6  C   UNL A   1      34.325  22.396  24.889  1.00  0.00     0.161 A 
ATOM      7  C   UNL A   1      33.849  22.993  23.713  1.00  0.00     0.064 A 
ATOM      8  C   UNL A   1      34.237  23.098  26.097  1.00  0.00     0.161 A 
ATOM      9  C   UNL A   1      33.261  24.267  23.734  1.00  0.00     0.048 A 
ATOM     10  C   UNL A   1      33.665  24.379  26.098  1.00  0.00     0.056 A 
ATOM     11  C   UNL A   1      33.111  24.952  24.938  1.00  0.00    -0.015 A 
ATOM     12  C   UNL A   1      32.840  24.880  22.450  1.00  0.00     0.254 C 
ATOM     13  N   UNL A   1      32.065  26.036  22.522  1.00  0.00    -0.333 N 
ATOM     14  O   UNL A   1      33.212  24.373  21.396  1.00  0.00    -0.269 OA
ATOM     15  C   UNL A   1      31.339  26.354  23.784  1.00  0.00     0.134 C 
ATOM     16  C   UNL A   1      31.718  26.669  21.255  1.00  0.00     0.147 C 
BRANCH   6  17
ATOM     17  O   UNL A   1      34.804  21.113  24.882  1.00  0.00    -0.493 OA
ATOM     18  C   UNL A   1      33.804  20.104  24.786  1.00  0.00     0.278 C 
ENDBRANCH   6  17
BRANCH   8  19
ATOM     19  O   UNL A   1      34.638  22.714  27.348  1.00  0.00    -0.493 OA
ATOM     20  C   UNL A   1      33.659  22.265  28.272  1.00  0.00     0.278 C 
ENDBRANCH   8  19
BRANCH  15  21
ATOM     21  C   UNL A   1      30.488  27.626  23.681  1.00  0.00    -0.024 A 
ATOM     22  C   UNL A   1      30.988  28.920  23.859  1.00  0.00     0.007 A 
ATOM     23  C   UNL A   1      29.129  27.505  23.331  1.00  0.00     0.007 A 
ATOM     24  C   UNL A   1      30.150  30.039  23.715  1.00  0.00     0.015 A 
ATOM     25  C   UNL A   1      28.303  28.622  23.164  1.00  0.00     0.015 A 
ATOM     26  C   UNL A   1      28.802  29.906  23.355  1.00  0.00     0.007 A 
BRANCH  26  27
ATOM     27  S   UNL A   1      27.838  31.402  23.180  1.00  0.00    -0.130 SA
ATOM     28  C   UNL A   1      28.175  31.930  21.475  1.00  0.00     0.091 C 
ENDBRANCH  26  27
ENDBRANCH  15  21
ENDBRANCH   3   5
ENDBRANCH   2   3
ENDBRANCH   1   2
BRANCH   1  29
ATOM     29  C   UNL A   1      32.845  29.480  27.236  1.00  0.00     0.275 C 
BRANCH  29  30
ATOM     30  O   UNL A   1      34.085  30.157  26.980  1.00  0.00    -0.458 OA
BRANCH  30  31
ATOM     31  C   UNL A   1      34.669  30.748  28.046  1.00  0.00     0.338 C 
ATOM     32  O   UNL A   1      34.222  31.682  28.691  1.00  0.00    -0.246 OA
BRANCH  31  33
ATOM     33  C   UNL A   1      35.970  30.100  28.347  1.00  0.00     0.060 A 
ATOM     34  C   UNL A   1      36.234  29.512  29.585  1.00  0.00     0.016 A 
ATOM     35  C   UNL A   1      36.984  30.151  27.391  1.00  0.00     0.016 A 
ATOM     36  C   UNL A   1      37.516  29.065  29.906  1.00  0.00     0.010 A 
ATOM     37  C   UNL A   1      38.244  29.612  27.676  1.00  0.00     0.010 A 
ATOM     38  C   UNL A   1      38.535  29.094  28.949  1.00  0.00    -0.014 A 
BRANCH  38  39
ATOM     39  C   UNL A   1      39.905  28.607  29.273  1.00  0.00     0.031 A 
ATOM     40  C   UNL A   1      40.867  29.490  30.022  1.00  0.00     0.074 A 
ATOM     41  C   UNL A   1      40.301  27.375  28.895  1.00  0.00     0.049 A 
ATOM     42  N   UNL A   1      42.153  29.343  30.216  1.00  0.00    -0.248 NA
ATOM     43  C   UNL A   1      40.309  30.709  30.631  1.00  0.00     0.031 C 
ATOM     44  C   UNL A   1      39.468  26.378  28.220  1.00  0.00     0.029 A 
ATOM     45  N   UNL A   1      41.519  26.755  29.022  1.00  0.00    -0.354 N 
ATOM     46  C   UNL A   1      42.564  30.470  30.919  1.00  0.00     0.074 A 
ATOM     47  C   UNL A   1      41.390  31.290  31.129  1.00  0.00     0.031 C 
ATOM     48  C   UNL A   1      40.187  25.264  28.020  1.00  0.00     0.029 A 
ATOM     49  C   UNL A   1      41.556  25.502  28.459  1.00  0.00     0.049 A 
ATOM     50  H   UNL A   1      42.291  27.167  29.473  1.00  0.00     0.167 HD
ATOM     51  C   UNL A   1      43.809  30.799  31.337  1.00  0.00     0.031 A 
ATOM     52  C   UNL A   1      42.584  24.657  28.259  1.00  0.00     0.031 A 
ATOM     53  C   UNL A   1      44.973  29.979  31.142  1.00  0.00     0.049 A 
ATOM     54  C   UNL A   1      43.967  25.075  28.662  1.00  0.00     0.074 A 
ATOM     55  C   UNL A   1      46.281  30.232  31.521  1.00  0.00     0.029 A 
ATOM     56  N   UNL A   1      44.968  28.742  30.520  1.00  0.00    -0.354 N 
ATOM     57  N   UNL A   1      44.355  26.174  29.259  1.00  0.00    -0.248 NA
ATOM     58  C   UNL A   1      45.057  24.144  28.336  1.00  0.00     0.031 C 
ATOM     59  C   UNL A   1      47.075  29.162  31.093  1.00  0.00     0.029 A 
ATOM     60  C   UNL A   1      46.252  28.226  30.486  1.00  0.00     0.049 A 
ATOM     61  H   UNL A   1      44.169  28.296  30.156  1.00  0.00     0.167 HD
ATOM     62  C   UNL A   1      45.733  26.069  29.383  1.00  0.00     0.074 A 
ATOM     63  C   UNL A   1      46.110  24.789  28.819  1.00  0.00     0.031 C 
ATOM     64  C   UNL A   1      46.609  26.957  29.911  1.00  0.00     0.031 A 
BRANCH  51  65
ATOM     65  C   UNL A   1      43.983  32.134  32.002  1.00  0.00    -0.014 A 
ATOM     66  C   UNL A   1      43.923  32.273  33.396  1.00  0.00     0.009 A 
ATOM     67  C   UNL A   1      44.249  33.267  31.214  1.00  0.00     0.009 A 
ATOM     68  C   UNL A   1      44.100  33.527  33.987  1.00  0.00     0.001 A 
ATOM     69  C   UNL A   1      44.447  34.513  31.809  1.00  0.00     0.001 A 
ATOM     70  C   UNL A   1      44.366  34.644  33.194  1.00  0.00     0.000 A 
ENDBRANCH  51  65
BRANCH  52  71
ATOM     71  C   UNL A   1      42.347  23.363  27.571  1.00  0.00    -0.014 A 
ATOM     72  C   UNL A   1      42.577  23.233  26.194  1.00  0.00     0.009 A 
ATOM     73  C   UNL A   1      41.910  22.242  28.297  1.00  0.00     0.009 A 
ATOM     74  C   UNL A   1      42.369  22.008  25.557  1.00  0.00     0.001 A 
ATOM     75  C   UNL A   1      41.730  21.012  27.663  1.00  0.00     0.001 A 
ATOM     76  C   UNL A   1      41.955  20.898  26.293  1.00  0.00     0.000 A 
ENDBRANCH  52  71
BRANCH  64  77
ATOM     77  C   UNL A   1      48.054  26.562  29.915  1.00  0.00    -0.014 A 
ATOM     78  C   UNL A   1      48.604  25.846  30.989  1.00  0.00     0.009 A 
ATOM     79  C   UNL A   1      48.870  26.889  28.821  1.00  0.00     0.009 A 
ATOM     80  C   UNL A   1      49.953  25.490  30.980  1.00  0.00     0.001 A 
ATOM     81  C   UNL A   1      50.214  26.513  28.806  1.00  0.00     0.001 A 
ATOM     82  C   UNL A   1      50.756  25.821  29.889  1.00  0.00     0.000 A 
ENDBRANCH  64  77
ENDBRANCH  38  39
ENDBRANCH  31  33
ENDBRANCH  30  31
ENDBRANCH  29  30
ENDBRANCH   1  29
TORSDOF 15
ENDMDL
