MODEL 1
REMARK VINA RESULT:     -10.7      0.000      0.000
REMARK SMILES C[NH+](C)[C@H]1CCN(C(=O)C(=O)c2ccccc2)C[C@H]1CCC(=O)OCCOC(=O)c1ccc(-c2c3nc(c(-c4ccccc4)c4ccc([nH]4)c(-c4ccccc4)c4nc(c(-c5ccccc5)c5ccc2[nH]5)C=C4)C=C3)cc1
REMARK SMILES IDX 24 1 22 2 23 3 21 4 20 5 19 6 4 7 5 8 6 9 18 10 7 11 2 12
REMARK SMILES IDX 1 13 3 14 8 16 9 17 10 18 11 19 12 20 13 21 17 22 14 23
REMARK SMILES IDX 16 24 15 25 25 26 26 27 27 28 28 29 29 30 30 31 31 32 77 33
REMARK SMILES IDX 32 34 76 35 33 36 34 37 35 38 70 39 36 40 75 41 69 42 71 43
REMARK SMILES IDX 37 44 74 45 68 46 67 47 38 49 60 50 45 51 59 52 46 53 49 54
REMARK SMILES IDX 58 55 72 56 47 57 48 58 57 60 73 61 50 62 39 63 40 64 44 65
REMARK SMILES IDX 41 66 43 67 42 68 61 69 62 70 66 71 63 72 65 73 64 74 51 75
REMARK SMILES IDX 52 76 56 77 53 78 55 79 54 80
REMARK H PARENT 2 15 71 48 49 59
REMARK Flexibility Score: inf
ROOT
ATOM      1  O   UNL A   1      35.158  23.012  24.609  1.00  0.00    -0.462 OA
ENDROOT
BRANCH   1   2
ATOM      2  C   UNL A   1      34.721  23.849  23.636  1.00  0.00     0.305 C 
ATOM      3  O   UNL A   1      34.609  23.543  22.454  1.00  0.00    -0.252 OA
BRANCH   2   4
ATOM      4  C   UNL A   1      34.310  25.212  24.158  1.00  0.00     0.123 C 
BRANCH   4   5
ATOM      5  C   UNL A   1      32.913  25.344  24.762  1.00  0.00     0.023 C 
BRANCH   5   6
ATOM      6  C   UNL A   1      31.730  24.616  24.062  1.00  0.00     0.067 C 
ATOM      7  C   UNL A   1      30.553  24.172  24.986  1.00  0.00     0.190 C 
ATOM      8  C   UNL A   1      29.832  25.428  25.517  1.00  0.00     0.087 C 
ATOM      9  C   UNL A   1      29.352  26.308  24.369  1.00  0.00     0.126 C 
ATOM     10  C   UNL A   1      31.208  25.539  22.934  1.00  0.00     0.129 C 
ATOM     11  N   UNL A   1      30.430  26.664  23.458  1.00  0.00    -0.335 N 
BRANCH   7  12
ATOM     12  N   UNL A   1      31.028  23.227  26.024  1.00  0.00    -0.337 N 
ATOM     13  C   UNL A   1      31.576  21.993  25.458  1.00  0.00     0.332 C 
ATOM     14  C   UNL A   1      30.079  22.906  27.086  1.00  0.00     0.332 C 
ATOM     15  H   UNL A   1      31.774  23.760  26.473  1.00  0.00     0.347 HD
ENDBRANCH   7  12
BRANCH  11  16
ATOM     16  C   UNL A   1      30.503  27.992  23.018  1.00  0.00     0.294 C 
ATOM     17  O   UNL A   1      30.389  28.302  21.833  1.00  0.00    -0.265 OA
BRANCH  16  18
ATOM     18  C   UNL A   1      30.780  29.123  24.018  1.00  0.00     0.250 C 
ATOM     19  O   UNL A   1      30.048  30.108  24.043  1.00  0.00    -0.283 OA
BRANCH  18  20
ATOM     20  C   UNL A   1      31.848  28.958  25.049  1.00  0.00     0.028 A 
ATOM     21  C   UNL A   1      31.456  28.627  26.356  1.00  0.00     0.012 A 
ATOM     22  C   UNL A   1      33.214  29.074  24.758  1.00  0.00     0.012 A 
ATOM     23  C   UNL A   1      32.413  28.372  27.342  1.00  0.00     0.001 A 
ATOM     24  C   UNL A   1      34.169  28.817  25.748  1.00  0.00     0.001 A 
ATOM     25  C   UNL A   1      33.769  28.457  27.034  1.00  0.00     0.000 A 
ENDBRANCH  18  20
ENDBRANCH  16  18
ENDBRANCH  11  16
ENDBRANCH   5   6
ENDBRANCH   4   5
ENDBRANCH   2   4
ENDBRANCH   1   2
BRANCH   1  26
ATOM     26  C   UNL A   1      34.928  21.600  24.431  1.00  0.00     0.274 C 
BRANCH  26  27
ATOM     27  C   UNL A   1      36.116  20.803  24.969  1.00  0.00     0.275 C 
BRANCH  27  28
ATOM     28  O   UNL A   1      36.918  21.632  25.829  1.00  0.00    -0.458 OA
BRANCH  28  29
ATOM     29  C   UNL A   1      38.238  21.339  25.833  1.00  0.00     0.338 C 
ATOM     30  O   UNL A   1      38.794  20.368  25.352  1.00  0.00    -0.246 OA
BRANCH  29  31
ATOM     31  C   UNL A   1      38.968  22.490  26.374  1.00  0.00     0.060 A 
ATOM     32  C   UNL A   1      38.479  23.760  26.070  1.00  0.00     0.016 A 
ATOM     33  C   UNL A   1      40.147  22.337  27.097  1.00  0.00     0.016 A 
ATOM     34  C   UNL A   1      39.169  24.896  26.471  1.00  0.00     0.010 A 
ATOM     35  C   UNL A   1      40.840  23.479  27.512  1.00  0.00     0.010 A 
ATOM     36  C   UNL A   1      40.362  24.762  27.188  1.00  0.00    -0.014 A 
BRANCH  36  37
ATOM     37  C   UNL A   1      41.146  25.971  27.526  1.00  0.00     0.031 A 
ATOM     38  C   UNL A   1      40.565  26.988  28.464  1.00  0.00     0.074 A 
ATOM     39  C   UNL A   1      42.384  26.137  27.024  1.00  0.00     0.049 A 
ATOM     40  N   UNL A   1      41.025  28.168  28.791  1.00  0.00    -0.248 NA
ATOM     41  C   UNL A   1      39.297  26.629  29.120  1.00  0.00     0.031 C 
ATOM     42  C   UNL A   1      43.085  25.183  26.165  1.00  0.00     0.029 A 
ATOM     43  N   UNL A   1      43.270  27.173  27.170  1.00  0.00    -0.354 N 
ATOM     44  C   UNL A   1      40.083  28.709  29.657  1.00  0.00     0.074 A 
ATOM     45  C   UNL A   1      39.029  27.731  29.805  1.00  0.00     0.031 C 
ATOM     46  C   UNL A   1      44.299  25.674  25.866  1.00  0.00     0.029 A 
ATOM     47  C   UNL A   1      44.434  26.999  26.463  1.00  0.00     0.049 A 
ATOM     48  H   UNL A   1      43.090  27.963  27.728  1.00  0.00     0.167 HD
ATOM     49  C   UNL A   1      40.096  29.919  30.265  1.00  0.00     0.031 A 
ATOM     50  C   UNL A   1      45.477  27.832  26.289  1.00  0.00     0.031 A 
ATOM     51  C   UNL A   1      41.156  30.881  30.125  1.00  0.00     0.049 A 
ATOM     52  C   UNL A   1      45.444  29.189  26.932  1.00  0.00     0.074 A 
ATOM     53  C   UNL A   1      41.260  32.140  30.688  1.00  0.00     0.029 A 
ATOM     54  N   UNL A   1      42.302  30.682  29.372  1.00  0.00    -0.354 N 
ATOM     55  N   UNL A   1      44.525  29.714  27.707  1.00  0.00    -0.248 NA
ATOM     56  C   UNL A   1      46.588  30.073  26.667  1.00  0.00     0.031 C 
ATOM     57  C   UNL A   1      42.456  32.718  30.249  1.00  0.00     0.029 A 
ATOM     58  C   UNL A   1      43.116  31.800  29.447  1.00  0.00     0.049 A 
ATOM     59  H   UNL A   1      42.508  29.867  28.861  1.00  0.00     0.167 HD
ATOM     60  C   UNL A   1      44.983  30.982  28.032  1.00  0.00     0.074 A 
ATOM     61  C   UNL A   1      46.271  31.141  27.387  1.00  0.00     0.031 C 
ATOM     62  C   UNL A   1      44.391  31.934  28.794  1.00  0.00     0.031 A 
BRANCH  49  63
ATOM     63  C   UNL A   1      38.899  30.282  31.094  1.00  0.00    -0.014 A 
ATOM     64  C   UNL A   1      38.848  30.007  32.469  1.00  0.00     0.009 A 
ATOM     65  C   UNL A   1      37.808  30.922  30.486  1.00  0.00     0.009 A 
ATOM     66  C   UNL A   1      37.713  30.339  33.212  1.00  0.00     0.001 A 
ATOM     67  C   UNL A   1      36.684  31.272  31.237  1.00  0.00     0.001 A 
ATOM     68  C   UNL A   1      36.634  30.972  32.596  1.00  0.00     0.000 A 
ENDBRANCH  49  63
BRANCH  50  69
ATOM     69  C   UNL A   1      46.618  27.421  25.431  1.00  0.00    -0.014 A 
ATOM     70  C   UNL A   1      47.613  26.566  25.928  1.00  0.00     0.009 A 
ATOM     71  C   UNL A   1      46.716  27.885  24.110  1.00  0.00     0.009 A 
ATOM     72  C   UNL A   1      48.692  26.196  25.120  1.00  0.00     0.001 A 
ATOM     73  C   UNL A   1      47.782  27.492  23.298  1.00  0.00     0.001 A 
ATOM     74  C   UNL A   1      48.773  26.654  23.806  1.00  0.00     0.000 A 
ENDBRANCH  50  69
BRANCH  62  75
ATOM     75  C   UNL A   1      45.148  33.214  28.989  1.00  0.00    -0.014 A 
ATOM     76  C   UNL A   1      46.142  33.325  29.973  1.00  0.00     0.009 A 
ATOM     77  C   UNL A   1      44.881  34.313  28.159  1.00  0.00     0.009 A 
ATOM     78  C   UNL A   1      46.836  34.525  30.141  1.00  0.00     0.001 A 
ATOM     79  C   UNL A   1      45.591  35.503  28.314  1.00  0.00     0.001 A 
ATOM     80  C   UNL A   1      46.561  35.611  29.309  1.00  0.00     0.000 A 
ENDBRANCH  62  75
ENDBRANCH  36  37
ENDBRANCH  29  31
ENDBRANCH  28  29
ENDBRANCH  27  28
ENDBRANCH  26  27
ENDBRANCH   1  26
TORSDOF 17
ENDMDL
MODEL 2
REMARK VINA RESULT:     -10.5      2.418      3.252
REMARK SMILES C[NH+](C)[C@H]1CCN(C(=O)C(=O)c2ccccc2)C[C@H]1CCC(=O)OCCOC(=O)c1ccc(-c2c3nc(c(-c4ccccc4)c4ccc([nH]4)c(-c4ccccc4)c4nc(c(-c5ccccc5)c5ccc2[nH]5)C=C4)C=C3)cc1
REMARK SMILES IDX 24 1 22 2 23 3 21 4 20 5 19 6 4 7 5 8 6 9 18 10 7 11 2 12
REMARK SMILES IDX 1 13 3 14 8 16 9 17 10 18 11 19 12 20 13 21 17 22 14 23
REMARK SMILES IDX 16 24 15 25 25 26 26 27 27 28 28 29 29 30 30 31 31 32 77 33
REMARK SMILES IDX 32 34 76 35 33 36 34 37 35 38 70 39 36 40 75 41 69 42 71 43
REMARK SMILES IDX 37 44 74 45 68 46 67 47 38 49 60 50 45 51 59 52 46 53 49 54
REMARK SMILES IDX 58 55 72 56 47 57 48 58 57 60 73 61 50 62 39 63 40 64 44 65
REMARK SMILES IDX 41 66 43 67 42 68 61 69 62 70 66 71 63 72 65 73 64 74 51 75
REMARK SMILES IDX 52 76 56 77 53 78 55 79 54 80
REMARK H PARENT 2 15 71 48 49 59
REMARK Flexibility Score: inf
ROOT
ATOM      1  O   UNL A   1      38.001  22.092  25.321  1.00  0.00    -0.462 OA
ENDROOT
BRANCH   1   2
ATOM      2  C   UNL A   1      37.109  23.095  25.127  1.00  0.00     0.305 C 
ATOM      3  O   UNL A   1      36.802  23.927  25.973  1.00  0.00    -0.252 OA
BRANCH   2   4
ATOM      4  C   UNL A   1      36.556  23.139  23.716  1.00  0.00     0.123 C 
BRANCH   4   5
ATOM      5  C   UNL A   1      35.192  23.798  23.513  1.00  0.00     0.023 C 
BRANCH   5   6
ATOM      6  C   UNL A   1      34.016  22.923  22.995  1.00  0.00     0.067 C 
ATOM      7  C   UNL A   1      33.046  22.362  24.083  1.00  0.00     0.190 C 
ATOM      8  C   UNL A   1      32.266  23.536  24.710  1.00  0.00     0.087 C 
ATOM      9  C   UNL A   1      31.523  24.330  23.642  1.00  0.00     0.126 C 
ATOM     10  C   UNL A   1      33.229  23.756  21.953  1.00  0.00     0.129 C 
ATOM     11  N   UNL A   1      32.408  24.792  22.583  1.00  0.00    -0.335 N 
BRANCH   7  12
ATOM     12  N   UNL A   1      33.776  21.500  25.042  1.00  0.00    -0.337 N 
ATOM     13  C   UNL A   1      33.688  20.078  24.706  1.00  0.00     0.332 C 
ATOM     14  C   UNL A   1      33.459  21.696  26.454  1.00  0.00     0.332 C 
ATOM     15  H   UNL A   1      34.738  21.821  24.929  1.00  0.00     0.347 HD
ENDBRANCH   7  12
BRANCH  11  16
ATOM     16  C   UNL A   1      32.257  26.111  22.133  1.00  0.00     0.294 C 
ATOM     17  O   UNL A   1      31.316  26.463  21.425  1.00  0.00    -0.265 OA
BRANCH  16  18
ATOM     18  C   UNL A   1      33.313  27.169  22.479  1.00  0.00     0.250 C 
ATOM     19  O   UNL A   1      34.020  27.639  21.593  1.00  0.00    -0.283 OA
BRANCH  18  20
ATOM     20  C   UNL A   1      33.381  27.726  23.864  1.00  0.00     0.028 A 
ATOM     21  C   UNL A   1      32.964  29.052  24.062  1.00  0.00     0.012 A 
ATOM     22  C   UNL A   1      33.797  26.973  24.970  1.00  0.00     0.012 A 
ATOM     23  C   UNL A   1      32.920  29.599  25.347  1.00  0.00     0.001 A 
ATOM     24  C   UNL A   1      33.751  27.523  26.256  1.00  0.00     0.001 A 
ATOM     25  C   UNL A   1      33.304  28.830  26.444  1.00  0.00     0.000 A 
ENDBRANCH  18  20
ENDBRANCH  16  18
ENDBRANCH  11  16
ENDBRANCH   5   6
ENDBRANCH   4   5
ENDBRANCH   2   4
ENDBRANCH   1   2
BRANCH   1  26
ATOM     26  C   UNL A   1      37.582  20.751  24.997  1.00  0.00     0.274 C 
BRANCH  26  27
ATOM     27  C   UNL A   1      38.784  19.807  25.012  1.00  0.00     0.275 C 
BRANCH  27  28
ATOM     28  O   UNL A   1      39.510  19.953  26.246  1.00  0.00    -0.458 OA
BRANCH  28  29
ATOM     29  C   UNL A   1      40.855  19.886  26.126  1.00  0.00     0.338 C 
ATOM     30  O   UNL A   1      41.519  19.020  25.588  1.00  0.00    -0.246 OA
BRANCH  29  31
ATOM     31  C   UNL A   1      41.428  21.148  26.607  1.00  0.00     0.060 A 
ATOM     32  C   UNL A   1      41.599  21.291  27.984  1.00  0.00     0.016 A 
ATOM     33  C   UNL A   1      41.719  22.198  25.742  1.00  0.00     0.016 A 
ATOM     34  C   UNL A   1      42.051  22.490  28.517  1.00  0.00     0.010 A 
ATOM     35  C   UNL A   1      42.184  23.405  26.275  1.00  0.00     0.010 A 
ATOM     36  C   UNL A   1      42.337  23.561  27.665  1.00  0.00    -0.014 A 
BRANCH  36  37
ATOM     37  C   UNL A   1      42.721  24.868  28.244  1.00  0.00     0.031 A 
ATOM     38  C   UNL A   1      41.666  25.909  28.476  1.00  0.00     0.074 A 
ATOM     39  C   UNL A   1      43.999  25.104  28.593  1.00  0.00     0.049 A 
ATOM     40  N   UNL A   1      41.803  27.155  28.851  1.00  0.00    -0.248 NA
ATOM     41  C   UNL A   1      40.272  25.493  28.254  1.00  0.00     0.031 C 
ATOM     42  C   UNL A   1      45.098  24.144  28.490  1.00  0.00     0.029 A 
ATOM     43  N   UNL A   1      44.585  26.231  29.110  1.00  0.00    -0.354 N 
ATOM     44  C   UNL A   1      40.519  27.683  28.868  1.00  0.00     0.074 A 
ATOM     45  C   UNL A   1      39.617  26.625  28.469  1.00  0.00     0.031 C 
ATOM     46  C   UNL A   1      46.226  24.721  28.937  1.00  0.00     0.029 A 
ATOM     47  C   UNL A   1      45.938  26.104  29.301  1.00  0.00     0.049 A 
ATOM     48  H   UNL A   1      44.084  27.051  29.323  1.00  0.00     0.167 HD
ATOM     49  C   UNL A   1      40.131  28.941  29.183  1.00  0.00     0.031 A 
ATOM     50  C   UNL A   1      46.849  27.014  29.693  1.00  0.00     0.031 A 
ATOM     51  C   UNL A   1      41.031  29.985  29.594  1.00  0.00     0.049 A 
ATOM     52  C   UNL A   1      46.401  28.418  29.986  1.00  0.00     0.074 A 
ATOM     53  C   UNL A   1      40.741  31.297  29.922  1.00  0.00     0.029 A 
ATOM     54  N   UNL A   1      42.400  29.827  29.742  1.00  0.00    -0.354 N 
ATOM     55  N   UNL A   1      45.192  28.923  29.950  1.00  0.00    -0.248 NA
ATOM     56  C   UNL A   1      47.447  29.379  30.363  1.00  0.00     0.031 C 
ATOM     57  C   UNL A   1      41.942  31.943  30.238  1.00  0.00     0.029 A 
ATOM     58  C   UNL A   1      42.972  31.020  30.147  1.00  0.00     0.049 A 
ATOM     59  H   UNL A   1      42.893  28.989  29.583  1.00  0.00     0.167 HD
ATOM     60  C   UNL A   1      45.327  30.256  30.311  1.00  0.00     0.074 A 
ATOM     61  C   UNL A   1      46.734  30.476  30.581  1.00  0.00     0.031 C 
ATOM     62  C   UNL A   1      44.374  31.215  30.407  1.00  0.00     0.031 A 
BRANCH  49  63
ATOM     63  C   UNL A   1      38.672  29.265  29.039  1.00  0.00    -0.014 A 
ATOM     64  C   UNL A   1      38.126  29.657  27.807  1.00  0.00     0.009 A 
ATOM     65  C   UNL A   1      37.830  29.163  30.157  1.00  0.00     0.009 A 
ATOM     66  C   UNL A   1      36.769  29.970  27.707  1.00  0.00     0.001 A 
ATOM     67  C   UNL A   1      36.470  29.457  30.048  1.00  0.00     0.001 A 
ATOM     68  C   UNL A   1      35.942  29.868  28.826  1.00  0.00     0.000 A 
ENDBRANCH  49  63
BRANCH  50  69
ATOM     69  C   UNL A   1      48.283  26.636  29.786  1.00  0.00    -0.014 A 
ATOM     70  C   UNL A   1      49.143  26.820  28.693  1.00  0.00     0.009 A 
ATOM     71  C   UNL A   1      48.797  26.088  30.972  1.00  0.00     0.009 A 
ATOM     72  C   UNL A   1      50.487  26.448  28.783  1.00  0.00     0.001 A 
ATOM     73  C   UNL A   1      50.146  25.742  31.066  1.00  0.00     0.001 A 
ATOM     74  C   UNL A   1      50.988  25.916  29.970  1.00  0.00     0.000 A 
ENDBRANCH  50  69
BRANCH  62  75
ATOM     75  C   UNL A   1      44.824  32.576  30.848  1.00  0.00    -0.014 A 
ATOM     76  C   UNL A   1      45.202  33.552  29.914  1.00  0.00     0.009 A 
ATOM     77  C   UNL A   1      44.841  32.892  32.215  1.00  0.00     0.009 A 
ATOM     78  C   UNL A   1      45.618  34.813  30.344  1.00  0.00     0.001 A 
ATOM     79  C   UNL A   1      45.236  34.161  32.640  1.00  0.00     0.001 A 
ATOM     80  C   UNL A   1      45.632  35.117  31.706  1.00  0.00     0.000 A 
ENDBRANCH  62  75
ENDBRANCH  36  37
ENDBRANCH  29  31
ENDBRANCH  28  29
ENDBRANCH  27  28
ENDBRANCH  26  27
ENDBRANCH   1  26
TORSDOF 17
ENDMDL
MODEL 3
REMARK VINA RESULT:     -10.5      2.653      4.758
REMARK SMILES C[NH+](C)[C@H]1CCN(C(=O)C(=O)c2ccccc2)C[C@H]1CCC(=O)OCCOC(=O)c1ccc(-c2c3nc(c(-c4ccccc4)c4ccc([nH]4)c(-c4ccccc4)c4nc(c(-c5ccccc5)c5ccc2[nH]5)C=C4)C=C3)cc1
REMARK SMILES IDX 24 1 22 2 23 3 21 4 20 5 19 6 4 7 5 8 6 9 18 10 7 11 2 12
REMARK SMILES IDX 1 13 3 14 8 16 9 17 10 18 11 19 12 20 13 21 17 22 14 23
REMARK SMILES IDX 16 24 15 25 25 26 26 27 27 28 28 29 29 30 30 31 31 32 77 33
REMARK SMILES IDX 32 34 76 35 33 36 34 37 35 38 70 39 36 40 75 41 69 42 71 43
REMARK SMILES IDX 37 44 74 45 68 46 67 47 38 49 60 50 45 51 59 52 46 53 49 54
REMARK SMILES IDX 58 55 72 56 47 57 48 58 57 60 73 61 50 62 39 63 40 64 44 65
REMARK SMILES IDX 41 66 43 67 42 68 61 69 62 70 66 71 63 72 65 73 64 74 51 75
REMARK SMILES IDX 52 76 56 77 53 78 55 79 54 80
REMARK H PARENT 2 15 71 48 49 59
REMARK Flexibility Score: inf
ROOT
ATOM      1  O   UNL A   1      36.949  21.167  24.639  1.00  0.00    -0.462 OA
ENDROOT
BRANCH   1   2
ATOM      2  C   UNL A   1      36.459  22.382  24.287  1.00  0.00     0.305 C 
ATOM      3  O   UNL A   1      36.298  22.758  23.131  1.00  0.00    -0.252 OA
BRANCH   2   4
ATOM      4  C   UNL A   1      36.058  23.233  25.475  1.00  0.00     0.123 C 
BRANCH   4   5
ATOM      5  C   UNL A   1      35.351  24.558  25.187  1.00  0.00     0.023 C 
BRANCH   5   6
ATOM      6  C   UNL A   1      33.970  24.821  25.851  1.00  0.00     0.067 C 
ATOM      7  C   UNL A   1      33.142  26.009  25.267  1.00  0.00     0.190 C 
ATOM      8  C   UNL A   1      32.699  25.653  23.833  1.00  0.00     0.087 C 
ATOM      9  C   UNL A   1      31.912  24.348  23.814  1.00  0.00     0.126 C 
ATOM     10  C   UNL A   1      33.151  23.509  25.777  1.00  0.00     0.129 C 
ATOM     11  N   UNL A   1      32.646  23.251  24.427  1.00  0.00    -0.335 N 
BRANCH   7  12
ATOM     12  N   UNL A   1      33.886  27.283  25.403  1.00  0.00    -0.337 N 
ATOM     13  C   UNL A   1      33.570  27.995  26.643  1.00  0.00     0.332 C 
ATOM     14  C   UNL A   1      33.802  28.202  24.271  1.00  0.00     0.332 C 
ATOM     15  H   UNL A   1      34.855  26.965  25.427  1.00  0.00     0.347 HD
ENDBRANCH   7  12
BRANCH  11  16
ATOM     16  C   UNL A   1      32.634  22.010  23.775  1.00  0.00     0.294 C 
ATOM     17  O   UNL A   1      32.852  21.896  22.570  1.00  0.00    -0.265 OA
BRANCH  16  18
ATOM     18  C   UNL A   1      32.294  20.732  24.553  1.00  0.00     0.250 C 
ATOM     19  O   UNL A   1      31.401  20.749  25.395  1.00  0.00    -0.283 OA
BRANCH  18  20
ATOM     20  C   UNL A   1      32.952  19.442  24.187  1.00  0.00     0.028 A 
ATOM     21  C   UNL A   1      32.328  18.636  23.221  1.00  0.00     0.012 A 
ATOM     22  C   UNL A   1      34.177  19.028  24.728  1.00  0.00     0.012 A 
ATOM     23  C   UNL A   1      32.939  17.462  22.772  1.00  0.00     0.001 A 
ATOM     24  C   UNL A   1      34.787  17.853  24.275  1.00  0.00     0.001 A 
ATOM     25  C   UNL A   1      34.173  17.077  23.292  1.00  0.00     0.000 A 
ENDBRANCH  18  20
ENDBRANCH  16  18
ENDBRANCH  11  16
ENDBRANCH   5   6
ENDBRANCH   4   5
ENDBRANCH   2   4
ENDBRANCH   1   2
BRANCH   1  26
ATOM     26  C   UNL A   1      38.190  21.133  25.371  1.00  0.00     0.274 C 
BRANCH  26  27
ATOM     27  C   UNL A   1      39.013  19.914  24.953  1.00  0.00     0.275 C 
BRANCH  27  28
ATOM     28  O   UNL A   1      39.814  19.458  26.057  1.00  0.00    -0.458 OA
BRANCH  28  29
ATOM     29  C   UNL A   1      41.131  19.752  25.964  1.00  0.00     0.338 C 
ATOM     30  O   UNL A   1      41.996  19.146  25.359  1.00  0.00    -0.246 OA
BRANCH  29  31
ATOM     31  C   UNL A   1      41.358  21.063  26.581  1.00  0.00     0.060 A 
ATOM     32  C   UNL A   1      41.846  22.081  25.762  1.00  0.00     0.016 A 
ATOM     33  C   UNL A   1      41.174  21.274  27.945  1.00  0.00     0.016 A 
ATOM     34  C   UNL A   1      42.171  23.321  26.296  1.00  0.00     0.010 A 
ATOM     35  C   UNL A   1      41.490  22.525  28.485  1.00  0.00     0.010 A 
ATOM     36  C   UNL A   1      42.004  23.548  27.666  1.00  0.00    -0.014 A 
BRANCH  36  37
ATOM     37  C   UNL A   1      42.445  24.835  28.248  1.00  0.00     0.031 A 
ATOM     38  C   UNL A   1      41.435  25.916  28.497  1.00  0.00     0.074 A 
ATOM     39  C   UNL A   1      43.736  25.019  28.584  1.00  0.00     0.049 A 
ATOM     40  N   UNL A   1      41.625  27.153  28.878  1.00  0.00    -0.248 NA
ATOM     41  C   UNL A   1      40.023  25.557  28.289  1.00  0.00     0.031 C 
ATOM     42  C   UNL A   1      44.794  24.016  28.462  1.00  0.00     0.029 A 
ATOM     43  N   UNL A   1      44.372  26.118  29.101  1.00  0.00    -0.354 N 
ATOM     44  C   UNL A   1      40.363  27.732  28.914  1.00  0.00     0.074 A 
ATOM     45  C   UNL A   1      39.416  26.713  28.518  1.00  0.00     0.031 C 
ATOM     46  C   UNL A   1      45.948  24.545  28.900  1.00  0.00     0.029 A 
ATOM     47  C   UNL A   1      45.720  25.936  29.276  1.00  0.00     0.049 A 
ATOM     48  H   UNL A   1      43.905  26.956  29.325  1.00  0.00     0.167 HD
ATOM     49  C   UNL A   1      40.029  29.002  29.240  1.00  0.00     0.031 A 
ATOM     50  C   UNL A   1      46.671  26.807  29.663  1.00  0.00     0.031 A 
ATOM     51  C   UNL A   1      40.974  30.007  29.647  1.00  0.00     0.049 A 
ATOM     52  C   UNL A   1      46.282  28.226  29.969  1.00  0.00     0.074 A 
ATOM     53  C   UNL A   1      40.740  31.327  29.986  1.00  0.00     0.029 A 
ATOM     54  N   UNL A   1      42.337  29.794  29.779  1.00  0.00    -0.354 N 
ATOM     55  N   UNL A   1      45.093  28.778  29.950  1.00  0.00    -0.248 NA
ATOM     56  C   UNL A   1      47.369  29.143  30.340  1.00  0.00     0.031 C 
ATOM     57  C   UNL A   1      41.969  31.923  30.293  1.00  0.00     0.029 A 
ATOM     58  C   UNL A   1      42.961  30.961  30.184  1.00  0.00     0.049 A 
ATOM     59  H   UNL A   1      42.795  28.938  29.610  1.00  0.00     0.167 HD
ATOM     60  C   UNL A   1      45.285  30.103  30.317  1.00  0.00     0.074 A 
ATOM     61  C   UNL A   1      46.702  30.266  30.572  1.00  0.00     0.031 C 
ATOM     62  C   UNL A   1      44.372  31.098  30.429  1.00  0.00     0.031 A 
BRANCH  49  63
ATOM     63  C   UNL A   1      38.583  29.384  29.115  1.00  0.00    -0.014 A 
ATOM     64  C   UNL A   1      37.715  29.338  30.217  1.00  0.00     0.009 A 
ATOM     65  C   UNL A   1      38.086  29.809  27.873  1.00  0.00     0.009 A 
ATOM     66  C   UNL A   1      36.369  29.680  30.068  1.00  0.00     0.001 A 
ATOM     67  C   UNL A   1      36.746  30.171  27.733  1.00  0.00     0.001 A 
ATOM     68  C   UNL A   1      35.886  30.098  28.828  1.00  0.00     0.000 A 
ENDBRANCH  49  63
BRANCH  50  69
ATOM     69  C   UNL A   1      48.089  26.372  29.737  1.00  0.00    -0.014 A 
ATOM     70  C   UNL A   1      48.928  26.473  28.617  1.00  0.00     0.009 A 
ATOM     71  C   UNL A   1      48.610  25.853  30.933  1.00  0.00     0.009 A 
ATOM     72  C   UNL A   1      50.257  26.048  28.690  1.00  0.00     0.001 A 
ATOM     73  C   UNL A   1      49.947  25.454  31.009  1.00  0.00     0.001 A 
ATOM     74  C   UNL A   1      50.766  25.545  29.886  1.00  0.00     0.000 A 
ENDBRANCH  50  69
BRANCH  62  75
ATOM     75  C   UNL A   1      44.880  32.437  30.874  1.00  0.00    -0.014 A 
ATOM     76  C   UNL A   1      45.271  33.410  29.941  1.00  0.00     0.009 A 
ATOM     77  C   UNL A   1      44.941  32.738  32.243  1.00  0.00     0.009 A 
ATOM     78  C   UNL A   1      45.742  34.651  30.374  1.00  0.00     0.001 A 
ATOM     79  C   UNL A   1      45.390  33.987  32.671  1.00  0.00     0.001 A 
ATOM     80  C   UNL A   1      45.799  34.939  31.738  1.00  0.00     0.000 A 
ENDBRANCH  62  75
ENDBRANCH  36  37
ENDBRANCH  29  31
ENDBRANCH  28  29
ENDBRANCH  27  28
ENDBRANCH  26  27
ENDBRANCH   1  26
TORSDOF 17
ENDMDL
