MODEL 1
REMARK VINA RESULT:      -9.1      0.000      0.000
REMARK SMILES O=C(CCCC[C@@H]1CCSS1)OCCOC(=O)c1ccc(-c2c3nc(c(-c4ccccc4)c4ccc([nH]4)c(-c4ccccc4)c4nc(c(-c5ccccc5)c5ccc2[nH]5)C=C4)C=C3)cc1
REMARK SMILES IDX 13 1 12 2 2 3 1 4 3 5 4 6 5 7 6 8 7 9 8 10 11 11 9 12 10 13
REMARK SMILES IDX 14 14 15 15 16 16 17 17 18 18 19 19 65 20 20 21 64 22 21 23
REMARK SMILES IDX 22 24 23 25 58 26 24 27 63 28 57 29 59 30 25 31 62 32 56 33
REMARK SMILES IDX 55 34 26 36 48 37 33 38 47 39 34 40 37 41 46 42 60 43 35 44
REMARK SMILES IDX 36 45 45 47 61 48 38 49 27 50 28 51 32 52 29 53 31 54 30 55
REMARK SMILES IDX 49 56 50 57 54 58 51 59 53 60 52 61 39 62 40 63 44 64 41 65
REMARK SMILES IDX 43 66 42 67
REMARK H PARENT 59 35 37 46
REMARK Flexibility Score: inf
ROOT
ATOM      1  C   UNL A   1      34.285  34.593  32.667  1.00  0.00     0.274 C 
ENDROOT
BRANCH   1   2
ATOM      2  O   UNL A   1      32.958  34.863  32.179  1.00  0.00    -0.462 OA
BRANCH   2   3
ATOM      3  C   UNL A   1      32.698  35.971  31.439  1.00  0.00     0.305 C 
ATOM      4  O   UNL A   1      31.829  36.767  31.783  1.00  0.00    -0.252 OA
BRANCH   3   5
ATOM      5  C   UNL A   1      33.389  36.096  30.098  1.00  0.00     0.123 C 
BRANCH   5   6
ATOM      6  C   UNL A   1      33.109  34.954  29.122  1.00  0.00     0.012 C 
BRANCH   6   7
ATOM      7  C   UNL A   1      34.183  33.858  29.032  1.00  0.00     0.002 C 
BRANCH   7   8
ATOM      8  C   UNL A   1      34.119  32.887  27.841  1.00  0.00     0.015 C 
BRANCH   8   9
ATOM      9  C   UNL A   1      34.300  31.394  28.129  1.00  0.00     0.059 C 
ATOM     10  C   UNL A   1      35.661  30.809  27.748  1.00  0.00     0.027 C 
ATOM     11  S   UNL A   1      33.033  30.473  27.170  1.00  0.00    -0.091 SA
ATOM     12  C   UNL A   1      35.584  29.288  27.672  1.00  0.00     0.083 C 
ATOM     13  S   UNL A   1      34.229  28.939  26.536  1.00  0.00    -0.094 SA
ENDBRANCH   8   9
ENDBRANCH   7   8
ENDBRANCH   6   7
ENDBRANCH   5   6
ENDBRANCH   3   5
ENDBRANCH   2   3
ENDBRANCH   1   2
BRANCH   1  14
ATOM     14  C   UNL A   1      34.342  33.391  33.615  1.00  0.00     0.275 C 
BRANCH  14  15
ATOM     15  O   UNL A   1      35.128  32.324  33.062  1.00  0.00    -0.458 OA
BRANCH  15  16
ATOM     16  C   UNL A   1      36.394  32.254  33.549  1.00  0.00     0.338 C 
ATOM     17  O   UNL A   1      36.770  32.599  34.652  1.00  0.00    -0.246 OA
BRANCH  16  18
ATOM     18  C   UNL A   1      37.267  31.537  32.591  1.00  0.00     0.060 A 
ATOM     19  C   UNL A   1      38.288  30.743  33.127  1.00  0.00     0.016 A 
ATOM     20  C   UNL A   1      37.121  31.653  31.205  1.00  0.00     0.016 A 
ATOM     21  C   UNL A   1      39.204  30.116  32.284  1.00  0.00     0.010 A 
ATOM     22  C   UNL A   1      38.042  31.024  30.358  1.00  0.00     0.010 A 
ATOM     23  C   UNL A   1      39.112  30.287  30.897  1.00  0.00    -0.014 A 
BRANCH  23  24
ATOM     24  C   UNL A   1      40.235  29.837  30.040  1.00  0.00     0.031 A 
ATOM     25  C   UNL A   1      41.378  30.780  29.788  1.00  0.00     0.074 A 
ATOM     26  C   UNL A   1      40.274  28.590  29.537  1.00  0.00     0.049 A 
ATOM     27  N   UNL A   1      42.502  30.570  29.149  1.00  0.00    -0.248 NA
ATOM     28  C   UNL A   1      41.241  32.140  30.335  1.00  0.00     0.031 C 
ATOM     29  C   UNL A   1      39.253  27.564  29.730  1.00  0.00     0.029 A 
ATOM     30  N   UNL A   1      41.230  27.978  28.765  1.00  0.00    -0.354 N 
ATOM     31  C   UNL A   1      43.207  31.764  29.227  1.00  0.00     0.074 A 
ATOM     32  C   UNL A   1      42.370  32.706  29.938  1.00  0.00     0.031 C 
ATOM     33  C   UNL A   1      39.639  26.443  29.096  1.00  0.00     0.029 A 
ATOM     34  C   UNL A   1      40.926  26.679  28.443  1.00  0.00     0.049 A 
ATOM     35  H   UNL A   1      42.054  28.428  28.469  1.00  0.00     0.167 HD
ATOM     36  C   UNL A   1      44.447  32.052  28.764  1.00  0.00     0.031 A 
ATOM     37  C   UNL A   1      41.610  25.781  27.708  1.00  0.00     0.031 A 
ATOM     38  C   UNL A   1      45.278  31.137  28.033  1.00  0.00     0.049 A 
ATOM     39  C   UNL A   1      42.949  26.152  27.127  1.00  0.00     0.074 A 
ATOM     40  C   UNL A   1      46.555  31.336  27.538  1.00  0.00     0.029 A 
ATOM     41  N   UNL A   1      44.906  29.850  27.676  1.00  0.00    -0.354 N 
ATOM     42  N   UNL A   1      43.627  27.266  27.256  1.00  0.00    -0.248 NA
ATOM     43  C   UNL A   1      43.620  25.131  26.309  1.00  0.00     0.031 C 
ATOM     44  C   UNL A   1      46.936  30.186  26.837  1.00  0.00     0.029 A 
ATOM     45  C   UNL A   1      45.916  29.254  26.940  1.00  0.00     0.049 A 
ATOM     46  H   UNL A   1      44.051  29.423  27.912  1.00  0.00     0.167 HD
ATOM     47  C   UNL A   1      44.818  27.068  26.565  1.00  0.00     0.074 A 
ATOM     48  C   UNL A   1      44.770  25.726  26.023  1.00  0.00     0.031 C 
ATOM     49  C   UNL A   1      45.860  27.920  26.403  1.00  0.00     0.031 A 
BRANCH  36  50
ATOM     50  C   UNL A   1      44.960  33.441  29.016  1.00  0.00    -0.014 A 
ATOM     51  C   UNL A   1      45.624  33.762  30.211  1.00  0.00     0.009 A 
ATOM     52  C   UNL A   1      44.780  34.438  28.047  1.00  0.00     0.009 A 
ATOM     53  C   UNL A   1      46.064  35.066  30.446  1.00  0.00     0.001 A 
ATOM     54  C   UNL A   1      45.243  35.735  28.274  1.00  0.00     0.001 A 
ATOM     55  C   UNL A   1      45.874  36.051  29.475  1.00  0.00     0.000 A 
ENDBRANCH  36  50
BRANCH  37  56
ATOM     56  C   UNL A   1      41.048  24.427  27.481  1.00  0.00    -0.014 A 
ATOM     57  C   UNL A   1      39.948  24.244  26.628  1.00  0.00     0.009 A 
ATOM     58  C   UNL A   1      41.594  23.311  28.135  1.00  0.00     0.009 A 
ATOM     59  C   UNL A   1      39.395  22.974  26.452  1.00  0.00     0.001 A 
ATOM     60  C   UNL A   1      41.053  22.040  27.939  1.00  0.00     0.001 A 
ATOM     61  C   UNL A   1      39.949  21.873  27.105  1.00  0.00     0.000 A 
ENDBRANCH  37  56
BRANCH  49  62
ATOM     62  C   UNL A   1      47.051  27.419  25.636  1.00  0.00    -0.014 A 
ATOM     63  C   UNL A   1      47.158  27.605  24.250  1.00  0.00     0.009 A 
ATOM     64  C   UNL A   1      48.105  26.794  26.322  1.00  0.00     0.009 A 
ATOM     65  C   UNL A   1      48.285  27.149  23.562  1.00  0.00     0.001 A 
ATOM     66  C   UNL A   1      49.240  26.361  25.636  1.00  0.00     0.001 A 
ATOM     67  C   UNL A   1      49.325  26.532  24.256  1.00  0.00     0.000 A 
ENDBRANCH  49  62
ENDBRANCH  23  24
ENDBRANCH  16  18
ENDBRANCH  15  16
ENDBRANCH  14  15
ENDBRANCH   1  14
TORSDOF 15
ENDMDL
MODEL 2
REMARK VINA RESULT:      -8.7      3.739      4.846
REMARK SMILES O=C(CCCC[C@@H]1CCSS1)OCCOC(=O)c1ccc(-c2c3nc(c(-c4ccccc4)c4ccc([nH]4)c(-c4ccccc4)c4nc(c(-c5ccccc5)c5ccc2[nH]5)C=C4)C=C3)cc1
REMARK SMILES IDX 13 1 12 2 2 3 1 4 3 5 4 6 5 7 6 8 7 9 8 10 11 11 9 12 10 13
REMARK SMILES IDX 14 14 15 15 16 16 17 17 18 18 19 19 65 20 20 21 64 22 21 23
REMARK SMILES IDX 22 24 23 25 58 26 24 27 63 28 57 29 59 30 25 31 62 32 56 33
REMARK SMILES IDX 55 34 26 36 48 37 33 38 47 39 34 40 37 41 46 42 60 43 35 44
REMARK SMILES IDX 36 45 45 47 61 48 38 49 27 50 28 51 32 52 29 53 31 54 30 55
REMARK SMILES IDX 49 56 50 57 54 58 51 59 53 60 52 61 39 62 40 63 44 64 41 65
REMARK SMILES IDX 43 66 42 67
REMARK H PARENT 59 35 37 46
REMARK Flexibility Score: inf
ROOT
ATOM      1  C   UNL A   1      33.452  34.566  28.699  1.00  0.00     0.274 C 
ENDROOT
BRANCH   1   2
ATOM      2  O   UNL A   1      32.697  35.205  29.745  1.00  0.00    -0.462 OA
BRANCH   2   3
ATOM      3  C   UNL A   1      32.974  36.476  30.129  1.00  0.00     0.305 C 
ATOM      4  O   UNL A   1      33.209  37.348  29.297  1.00  0.00    -0.252 OA
BRANCH   3   5
ATOM      5  C   UNL A   1      33.155  36.738  31.609  1.00  0.00     0.123 C 
BRANCH   5   6
ATOM      6  C   UNL A   1      32.990  35.511  32.504  1.00  0.00     0.012 C 
BRANCH   6   7
ATOM      7  C   UNL A   1      34.273  34.960  33.148  1.00  0.00     0.002 C 
BRANCH   7   8
ATOM      8  C   UNL A   1      34.704  33.532  32.778  1.00  0.00     0.015 C 
BRANCH   8   9
ATOM      9  C   UNL A   1      36.174  33.155  32.988  1.00  0.00     0.059 C 
ATOM     10  C   UNL A   1      36.472  31.654  33.015  1.00  0.00     0.027 C 
ATOM     11  S   UNL A   1      36.708  33.837  34.608  1.00  0.00    -0.091 SA
ATOM     12  C   UNL A   1      37.837  31.395  33.644  1.00  0.00     0.083 C 
ATOM     13  S   UNL A   1      37.783  32.217  35.247  1.00  0.00    -0.094 SA
ENDBRANCH   8   9
ENDBRANCH   7   8
ENDBRANCH   6   7
ENDBRANCH   5   6
ENDBRANCH   3   5
ENDBRANCH   2   3
ENDBRANCH   1   2
BRANCH   1  14
ATOM     14  C   UNL A   1      34.222  33.332  29.182  1.00  0.00     0.275 C 
BRANCH  14  15
ATOM     15  O   UNL A   1      34.814  32.621  28.084  1.00  0.00    -0.458 OA
BRANCH  15  16
ATOM     16  C   UNL A   1      34.530  31.293  28.062  1.00  0.00     0.338 C 
ATOM     17  O   UNL A   1      33.457  30.783  27.805  1.00  0.00    -0.246 OA
BRANCH  16  18
ATOM     18  C   UNL A   1      35.771  30.507  28.244  1.00  0.00     0.060 A 
ATOM     19  C   UNL A   1      35.958  29.886  29.485  1.00  0.00     0.016 A 
ATOM     20  C   UNL A   1      36.747  30.395  27.248  1.00  0.00     0.016 A 
ATOM     21  C   UNL A   1      37.146  29.209  29.758  1.00  0.00     0.010 A 
ATOM     22  C   UNL A   1      37.940  29.715  27.523  1.00  0.00     0.010 A 
ATOM     23  C   UNL A   1      38.161  29.155  28.794  1.00  0.00    -0.014 A 
BRANCH  23  24
ATOM     24  C   UNL A   1      39.503  28.667  29.189  1.00  0.00     0.031 A 
ATOM     25  C   UNL A   1      40.322  29.488  30.146  1.00  0.00     0.074 A 
ATOM     26  C   UNL A   1      39.972  27.484  28.754  1.00  0.00     0.049 A 
ATOM     27  N   UNL A   1      41.479  29.213  30.697  1.00  0.00    -0.248 NA
ATOM     28  C   UNL A   1      39.760  30.790  30.541  1.00  0.00     0.031 C 
ATOM     29  C   UNL A   1      39.271  26.572  27.853  1.00  0.00     0.029 A 
ATOM     30  N   UNL A   1      41.156  26.846  29.030  1.00  0.00    -0.354 N 
ATOM     31  C   UNL A   1      41.775  30.300  31.510  1.00  0.00     0.074 A 
ATOM     32  C   UNL A   1      40.700  31.256  31.349  1.00  0.00     0.031 C 
ATOM     33  C   UNL A   1      40.038  25.485  27.653  1.00  0.00     0.029 A 
ATOM     34  C   UNL A   1      41.286  25.634  28.402  1.00  0.00     0.049 A 
ATOM     35  H   UNL A   1      41.846  27.223  29.623  1.00  0.00     0.167 HD
ATOM     36  C   UNL A   1      42.837  30.485  32.329  1.00  0.00     0.031 A 
ATOM     37  C   UNL A   1      42.296  24.742  28.429  1.00  0.00     0.031 A 
ATOM     38  C   UNL A   1      43.924  29.559  32.477  1.00  0.00     0.049 A 
ATOM     39  C   UNL A   1      43.509  25.010  29.280  1.00  0.00     0.074 A 
ATOM     40  C   UNL A   1      45.035  29.655  33.296  1.00  0.00     0.029 A 
ATOM     41  N   UNL A   1      44.045  28.370  31.775  1.00  0.00    -0.354 N 
ATOM     42  N   UNL A   1      43.750  26.015  30.085  1.00  0.00    -0.248 NA
ATOM     43  C   UNL A   1      44.584  24.007  29.232  1.00  0.00     0.031 C 
ATOM     44  C   UNL A   1      45.855  28.547  33.052  1.00  0.00     0.029 A 
ATOM     45  C   UNL A   1      45.228  27.738  32.118  1.00  0.00     0.049 A 
ATOM     46  H   UNL A   1      43.388  28.026  31.129  1.00  0.00     0.167 HD
ATOM     47  C   UNL A   1      44.986  25.750  30.665  1.00  0.00     0.074 A 
ATOM     48  C   UNL A   1      45.441  24.487  30.122  1.00  0.00     0.031 C 
ATOM     49  C   UNL A   1      45.675  26.484  31.572  1.00  0.00     0.031 A 
BRANCH  36  50
ATOM     50  C   UNL A   1      42.878  31.769  33.108  1.00  0.00    -0.014 A 
ATOM     51  C   UNL A   1      43.504  32.913  32.588  1.00  0.00     0.009 A 
ATOM     52  C   UNL A   1      42.280  31.835  34.375  1.00  0.00     0.009 A 
ATOM     53  C   UNL A   1      43.565  34.088  33.339  1.00  0.00     0.001 A 
ATOM     54  C   UNL A   1      42.321  33.019  35.114  1.00  0.00     0.001 A 
ATOM     55  C   UNL A   1      42.971  34.139  34.601  1.00  0.00     0.000 A 
ENDBRANCH  36  50
BRANCH  37  56
ATOM     56  C   UNL A   1      42.206  23.495  27.628  1.00  0.00    -0.014 A 
ATOM     57  C   UNL A   1      41.631  22.337  28.174  1.00  0.00     0.009 A 
ATOM     58  C   UNL A   1      42.717  23.451  26.322  1.00  0.00     0.009 A 
ATOM     59  C   UNL A   1      41.589  21.154  27.433  1.00  0.00     0.001 A 
ATOM     60  C   UNL A   1      42.653  22.273  25.576  1.00  0.00     0.001 A 
ATOM     61  C   UNL A   1      42.097  21.124  26.135  1.00  0.00     0.000 A 
ENDBRANCH  37  56
BRANCH  49  62
ATOM     62  C   UNL A   1      46.982  25.927  32.064  1.00  0.00    -0.014 A 
ATOM     63  C   UNL A   1      48.173  26.119  31.348  1.00  0.00     0.009 A 
ATOM     64  C   UNL A   1      47.026  25.242  33.289  1.00  0.00     0.009 A 
ATOM     65  C   UNL A   1      49.378  25.609  31.836  1.00  0.00     0.001 A 
ATOM     66  C   UNL A   1      48.237  24.756  33.786  1.00  0.00     0.001 A 
ATOM     67  C   UNL A   1      49.410  24.933  33.055  1.00  0.00     0.000 A 
ENDBRANCH  49  62
ENDBRANCH  23  24
ENDBRANCH  16  18
ENDBRANCH  15  16
ENDBRANCH  14  15
ENDBRANCH   1  14
TORSDOF 15
ENDMDL
MODEL 3
REMARK VINA RESULT:      -8.7      5.386     10.334
REMARK SMILES O=C(CCCC[C@@H]1CCSS1)OCCOC(=O)c1ccc(-c2c3nc(c(-c4ccccc4)c4ccc([nH]4)c(-c4ccccc4)c4nc(c(-c5ccccc5)c5ccc2[nH]5)C=C4)C=C3)cc1
REMARK SMILES IDX 13 1 12 2 2 3 1 4 3 5 4 6 5 7 6 8 7 9 8 10 11 11 9 12 10 13
REMARK SMILES IDX 14 14 15 15 16 16 17 17 18 18 19 19 65 20 20 21 64 22 21 23
REMARK SMILES IDX 22 24 23 25 58 26 24 27 63 28 57 29 59 30 25 31 62 32 56 33
REMARK SMILES IDX 55 34 26 36 48 37 33 38 47 39 34 40 37 41 46 42 60 43 35 44
REMARK SMILES IDX 36 45 45 47 61 48 38 49 27 50 28 51 32 52 29 53 31 54 30 55
REMARK SMILES IDX 49 56 50 57 54 58 51 59 53 60 52 61 39 62 40 63 44 64 41 65
REMARK SMILES IDX 43 66 42 67
REMARK H PARENT 59 35 37 46
REMARK Flexibility Score: inf
ROOT
ATOM      1  C   UNL A   1      41.898  19.187  26.526  1.00  0.00     0.274 C 
ENDROOT
BRANCH   1   2
ATOM      2  O   UNL A   1      42.231  20.051  27.627  1.00  0.00    -0.462 OA
BRANCH   2   3
ATOM      3  C   UNL A   1      42.259  21.399  27.474  1.00  0.00     0.305 C 
ATOM      4  O   UNL A   1      42.782  22.118  28.321  1.00  0.00    -0.252 OA
BRANCH   3   5
ATOM      5  C   UNL A   1      41.475  21.990  26.321  1.00  0.00     0.123 C 
BRANCH   5   6
ATOM      6  C   UNL A   1      40.158  22.656  26.713  1.00  0.00     0.012 C 
BRANCH   6   7
ATOM      7  C   UNL A   1      38.881  22.043  26.115  1.00  0.00     0.002 C 
BRANCH   7   8
ATOM      8  C   UNL A   1      37.738  22.998  25.735  1.00  0.00     0.015 C 
BRANCH   8   9
ATOM      9  C   UNL A   1      36.777  22.554  24.627  1.00  0.00     0.059 C 
ATOM     10  C   UNL A   1      35.709  23.576  24.232  1.00  0.00     0.027 C 
ATOM     11  S   UNL A   1      35.893  21.053  25.211  1.00  0.00    -0.091 SA
ATOM     12  C   UNL A   1      34.581  22.896  23.465  1.00  0.00     0.083 C 
ATOM     13  S   UNL A   1      34.029  21.550  24.530  1.00  0.00    -0.094 SA
ENDBRANCH   8   9
ENDBRANCH   7   8
ENDBRANCH   6   7
ENDBRANCH   5   6
ENDBRANCH   3   5
ENDBRANCH   2   3
ENDBRANCH   1   2
BRANCH   1  14
ATOM     14  C   UNL A   1      43.127  18.697  25.754  1.00  0.00     0.275 C 
BRANCH  14  15
ATOM     15  O   UNL A   1      43.384  19.516  24.602  1.00  0.00    -0.458 OA
BRANCH  15  16
ATOM     16  C   UNL A   1      44.701  19.735  24.356  1.00  0.00     0.338 C 
ATOM     17  O   UNL A   1      45.474  18.975  23.806  1.00  0.00    -0.246 OA
BRANCH  16  18
ATOM     18  C   UNL A   1      45.059  21.126  24.714  1.00  0.00     0.060 A 
ATOM     19  C   UNL A   1      45.600  21.340  25.988  1.00  0.00     0.016 A 
ATOM     20  C   UNL A   1      44.850  22.205  23.849  1.00  0.00     0.016 A 
ATOM     21  C   UNL A   1      45.872  22.636  26.425  1.00  0.00     0.010 A 
ATOM     22  C   UNL A   1      45.122  23.507  24.289  1.00  0.00     0.010 A 
ATOM     23  C   UNL A   1      45.595  23.729  25.595  1.00  0.00    -0.014 A 
BRANCH  23  24
ATOM     24  C   UNL A   1      45.640  25.096  26.167  1.00  0.00     0.031 A 
ATOM     25  C   UNL A   1      46.947  25.840  26.168  1.00  0.00     0.074 A 
ATOM     26  C   UNL A   1      44.529  25.698  26.627  1.00  0.00     0.049 A 
ATOM     27  N   UNL A   1      47.200  27.073  26.532  1.00  0.00    -0.248 NA
ATOM     28  C   UNL A   1      48.125  25.098  25.689  1.00  0.00     0.031 C 
ATOM     29  C   UNL A   1      43.193  25.108  26.654  1.00  0.00     0.029 A 
ATOM     30  N   UNL A   1      44.357  26.954  27.152  1.00  0.00    -0.354 N 
ATOM     31  C   UNL A   1      48.560  27.256  26.315  1.00  0.00     0.074 A 
ATOM     32  C   UNL A   1      49.086  25.998  25.828  1.00  0.00     0.031 C 
ATOM     33  C   UNL A   1      42.332  26.006  27.166  1.00  0.00     0.029 A 
ATOM     34  C   UNL A   1      43.061  27.226  27.513  1.00  0.00     0.049 A 
ATOM     35  H   UNL A   1      45.093  27.599  27.261  1.00  0.00     0.167 HD
ATOM     36  C   UNL A   1      49.307  28.372  26.489  1.00  0.00     0.031 A 
ATOM     37  C   UNL A   1      42.523  28.333  28.059  1.00  0.00     0.031 A 
ATOM     38  C   UNL A   1      48.805  29.618  26.997  1.00  0.00     0.049 A 
ATOM     39  C   UNL A   1      43.390  29.535  28.327  1.00  0.00     0.074 A 
ATOM     40  C   UNL A   1      49.484  30.808  27.193  1.00  0.00     0.029 A 
ATOM     41  N   UNL A   1      47.498  29.830  27.408  1.00  0.00    -0.354 N 
ATOM     42  N   UNL A   1      44.662  29.713  28.065  1.00  0.00    -0.248 NA
ATOM     43  C   UNL A   1      42.738  30.694  28.954  1.00  0.00     0.031 C 
ATOM     44  C   UNL A   1      48.600  31.726  27.770  1.00  0.00     0.029 A 
ATOM     45  C   UNL A   1      47.358  31.122  27.885  1.00  0.00     0.049 A 
ATOM     46  H   UNL A   1      46.777  29.163  27.366  1.00  0.00     0.167 HD
ATOM     47  C   UNL A   1      44.954  31.012  28.464  1.00  0.00     0.074 A 
ATOM     48  C   UNL A   1      43.726  31.578  28.981  1.00  0.00     0.031 C 
ATOM     49  C   UNL A   1      46.133  31.677  28.399  1.00  0.00     0.031 A 
BRANCH  36  50
ATOM     50  C   UNL A   1      50.766  28.272  26.150  1.00  0.00    -0.014 A 
ATOM     51  C   UNL A   1      51.711  27.887  27.115  1.00  0.00     0.009 A 
ATOM     52  C   UNL A   1      51.201  28.565  24.849  1.00  0.00     0.009 A 
ATOM     53  C   UNL A   1      53.068  27.833  26.792  1.00  0.00     0.001 A 
ATOM     54  C   UNL A   1      52.556  28.487  24.523  1.00  0.00     0.001 A 
ATOM     55  C   UNL A   1      53.488  28.132  25.495  1.00  0.00     0.000 A 
ENDBRANCH  36  50
BRANCH  37  56
ATOM     56  C   UNL A   1      41.075  28.371  28.386  1.00  0.00    -0.014 A 
ATOM     57  C   UNL A   1      40.600  27.822  29.587  1.00  0.00     0.009 A 
ATOM     58  C   UNL A   1      40.158  28.935  27.485  1.00  0.00     0.009 A 
ATOM     59  C   UNL A   1      39.233  27.820  29.870  1.00  0.00     0.001 A 
ATOM     60  C   UNL A   1      38.794  28.951  27.782  1.00  0.00     0.001 A 
ATOM     61  C   UNL A   1      38.332  28.386  28.969  1.00  0.00     0.000 A 
ENDBRANCH  37  56
BRANCH  49  62
ATOM     62  C   UNL A   1      46.149  33.106  28.867  1.00  0.00    -0.014 A 
ATOM     63  C   UNL A   1      45.849  34.162  27.994  1.00  0.00     0.009 A 
ATOM     64  C   UNL A   1      46.422  33.392  30.214  1.00  0.00     0.009 A 
ATOM     65  C   UNL A   1      45.850  35.480  28.457  1.00  0.00     0.001 A 
ATOM     66  C   UNL A   1      46.397  34.707  30.679  1.00  0.00     0.001 A 
ATOM     67  C   UNL A   1      46.119  35.751  29.798  1.00  0.00     0.000 A 
ENDBRANCH  49  62
ENDBRANCH  23  24
ENDBRANCH  16  18
ENDBRANCH  15  16
ENDBRANCH  14  15
ENDBRANCH   1  14
TORSDOF 15
ENDMDL
