MODEL 1
REMARK VINA RESULT:     -10.5      0.000      0.000
REMARK SMILES NC(=O)[C@@H]1CCCCN1c1cncc(C(=O)OCCOC(=O)c2ccc(-c3c4nc(c(-c5ccccc5)c5ccc([nH]5)c(-c5ccccc5)c5nc(c(-c6ccccc6)c6ccc3[nH]6)C=C5)C=C4)cc2)n1
REMARK SMILES IDX 18 1 17 2 15 3 16 4 14 5 10 6 11 7 71 8 12 9 13 10 9 11 4 12
REMARK SMILES IDX 5 13 6 14 8 15 7 16 2 17 1 18 3 21 19 22 20 23 21 24 22 25
REMARK SMILES IDX 23 26 24 27 70 28 25 29 69 30 26 31 27 32 28 33 63 34 29 35
REMARK SMILES IDX 68 36 62 37 64 38 30 39 67 40 61 41 60 42 31 44 53 45 38 46
REMARK SMILES IDX 52 47 39 48 42 49 51 50 65 51 40 52 41 53 50 55 66 56 43 57
REMARK SMILES IDX 32 58 33 59 37 60 34 61 36 62 35 63 54 64 55 65 59 66 56 67
REMARK SMILES IDX 58 68 57 69 44 70 45 71 49 72 46 73 48 74 47 75
REMARK H PARENT 1 19 1 20 64 43 42 54
REMARK Flexibility Score: inf
ROOT
ATOM      1  C   UNL A   1      34.987  22.042  26.016  1.00  0.00     0.275 C 
ENDROOT
BRANCH   1   2
ATOM      2  O   UNL A   1      33.585  21.774  25.797  1.00  0.00    -0.457 OA
BRANCH   2   3
ATOM      3  C   UNL A   1      33.179  21.764  24.500  1.00  0.00     0.358 C 
ATOM      4  O   UNL A   1      32.807  20.789  23.869  1.00  0.00    -0.244 OA
BRANCH   3   5
ATOM      5  C   UNL A   1      33.131  23.138  23.947  1.00  0.00     0.169 A 
ATOM      6  C   UNL A   1      32.749  25.391  24.181  1.00  0.00     0.148 A 
ATOM      7  C   UNL A   1      33.073  25.542  22.823  1.00  0.00     0.157 A 
ATOM      8  N   UNL A   1      32.729  24.162  24.745  1.00  0.00    -0.220 NA
ATOM      9  N   UNL A   1      33.465  24.529  22.018  1.00  0.00    -0.258 NA
ATOM     10  C   UNL A   1      33.528  23.329  22.631  1.00  0.00     0.147 A 
BRANCH   6  11
ATOM     11  N   UNL A   1      32.537  26.494  24.972  1.00  0.00    -0.343 N 
ATOM     12  C   UNL A   1      31.190  27.052  25.187  1.00  0.00     0.172 C 
ATOM     13  C   UNL A   1      31.100  28.416  24.499  1.00  0.00     0.035 C 
ATOM     14  C   UNL A   1      32.224  29.332  24.994  1.00  0.00     0.004 C 
ATOM     15  C   UNL A   1      33.666  27.290  25.429  1.00  0.00     0.119 C 
ATOM     16  C   UNL A   1      33.596  28.680  24.791  1.00  0.00     0.022 C 
BRANCH  12  17
ATOM     17  C   UNL A   1      30.019  26.090  24.878  1.00  0.00     0.240 C 
ATOM     18  N   UNL A   1      29.789  25.062  25.746  1.00  0.00    -0.368 N 
ATOM     19  H   UNL A   1      29.051  24.432  25.579  1.00  0.00     0.159 HD
ATOM     20  H   UNL A   1      30.360  24.952  26.540  1.00  0.00     0.159 HD
ATOM     21  O   UNL A   1      29.281  26.232  23.903  1.00  0.00    -0.273 OA
ENDBRANCH  12  17
ENDBRANCH   6  11
ENDBRANCH   3   5
ENDBRANCH   2   3
ENDBRANCH   1   2
BRANCH   1  22
ATOM     22  C   UNL A   1      35.856  20.902  25.485  1.00  0.00     0.275 C 
BRANCH  22  23
ATOM     23  O   UNL A   1      37.034  21.442  24.856  1.00  0.00    -0.458 OA
BRANCH  23  24
ATOM     24  C   UNL A   1      38.218  21.072  25.392  1.00  0.00     0.338 C 
ATOM     25  O   UNL A   1      38.731  19.962  25.370  1.00  0.00    -0.246 OA
BRANCH  24  26
ATOM     26  C   UNL A   1      38.871  22.237  26.011  1.00  0.00     0.060 A 
ATOM     27  C   UNL A   1      38.374  23.513  25.761  1.00  0.00     0.016 A 
ATOM     28  C   UNL A   1      40.054  22.084  26.729  1.00  0.00     0.016 A 
ATOM     29  C   UNL A   1      39.105  24.640  26.129  1.00  0.00     0.010 A 
ATOM     30  C   UNL A   1      40.731  23.218  27.197  1.00  0.00     0.010 A 
ATOM     31  C   UNL A   1      40.289  24.512  26.866  1.00  0.00    -0.014 A 
BRANCH  31  32
ATOM     32  C   UNL A   1      41.081  25.718  27.249  1.00  0.00     0.031 A 
ATOM     33  C   UNL A   1      40.519  26.718  28.230  1.00  0.00     0.074 A 
ATOM     34  C   UNL A   1      42.312  25.929  26.736  1.00  0.00     0.049 A 
ATOM     35  N   UNL A   1      40.966  27.909  28.545  1.00  0.00    -0.248 NA
ATOM     36  C   UNL A   1      39.284  26.338  28.934  1.00  0.00     0.031 C 
ATOM     37  C   UNL A   1      43.015  25.037  25.811  1.00  0.00     0.029 A 
ATOM     38  N   UNL A   1      43.198  26.962  26.932  1.00  0.00    -0.354 N 
ATOM     39  C   UNL A   1      40.031  28.446  29.424  1.00  0.00     0.074 A 
ATOM     40  C   UNL A   1      38.996  27.449  29.598  1.00  0.00     0.031 C 
ATOM     41  C   UNL A   1      44.234  25.535  25.558  1.00  0.00     0.029 A 
ATOM     42  C   UNL A   1      44.368  26.825  26.225  1.00  0.00     0.049 A 
ATOM     43  H   UNL A   1      43.011  27.727  27.522  1.00  0.00     0.167 HD
ATOM     44  C   UNL A   1      40.031  29.659  30.025  1.00  0.00     0.031 A 
ATOM     45  C   UNL A   1      45.418  27.657  26.086  1.00  0.00     0.031 A 
ATOM     46  C   UNL A   1      41.089  30.627  29.912  1.00  0.00     0.049 A 
ATOM     47  C   UNL A   1      45.394  28.997  26.761  1.00  0.00     0.074 A 
ATOM     48  C   UNL A   1      41.185  31.873  30.510  1.00  0.00     0.029 A 
ATOM     49  N   UNL A   1      42.244  30.449  29.169  1.00  0.00    -0.354 N 
ATOM     50  N   UNL A   1      44.474  29.512  27.540  1.00  0.00    -0.248 NA
ATOM     51  C   UNL A   1      46.545  29.878  26.522  1.00  0.00     0.031 C 
ATOM     52  C   UNL A   1      42.385  32.463  30.100  1.00  0.00     0.029 A 
ATOM     53  C   UNL A   1      43.054  31.568  29.283  1.00  0.00     0.049 A 
ATOM     54  H   UNL A   1      42.459  29.647  28.640  1.00  0.00     0.167 HD
ATOM     55  C   UNL A   1      44.935  30.774  27.883  1.00  0.00     0.074 A 
ATOM     56  C   UNL A   1      46.228  30.938  27.253  1.00  0.00     0.031 C 
ATOM     57  C   UNL A   1      44.335  31.718  28.647  1.00  0.00     0.031 A 
BRANCH  44  58
ATOM     58  C   UNL A   1      38.820  30.036  30.832  1.00  0.00    -0.014 A 
ATOM     59  C   UNL A   1      38.751  29.804  32.213  1.00  0.00     0.009 A 
ATOM     60  C   UNL A   1      37.748  30.684  30.197  1.00  0.00     0.009 A 
ATOM     61  C   UNL A   1      37.619  30.190  32.937  1.00  0.00     0.001 A 
ATOM     62  C   UNL A   1      36.629  31.090  30.926  1.00  0.00     0.001 A 
ATOM     63  C   UNL A   1      36.563  30.836  32.295  1.00  0.00     0.000 A 
ENDBRANCH  44  58
BRANCH  45  64
ATOM     64  C   UNL A   1      46.559  27.268  25.217  1.00  0.00    -0.014 A 
ATOM     65  C   UNL A   1      47.512  26.337  25.659  1.00  0.00     0.009 A 
ATOM     66  C   UNL A   1      46.697  27.825  23.935  1.00  0.00     0.009 A 
ATOM     67  C   UNL A   1      48.586  25.985  24.839  1.00  0.00     0.001 A 
ATOM     68  C   UNL A   1      47.753  27.447  23.107  1.00  0.00     0.001 A 
ATOM     69  C   UNL A   1      48.702  26.533  23.562  1.00  0.00     0.000 A 
ENDBRANCH  45  64
BRANCH  57  70
ATOM     70  C   UNL A   1      45.083  33.003  28.857  1.00  0.00    -0.014 A 
ATOM     71  C   UNL A   1      45.992  33.146  29.917  1.00  0.00     0.009 A 
ATOM     72  C   UNL A   1      44.894  34.072  27.969  1.00  0.00     0.009 A 
ATOM     73  C   UNL A   1      46.676  34.348  30.099  1.00  0.00     0.001 A 
ATOM     74  C   UNL A   1      45.598  35.265  28.140  1.00  0.00     0.001 A 
ATOM     75  C   UNL A   1      46.481  35.405  29.210  1.00  0.00     0.000 A 
ENDBRANCH  57  70
ENDBRANCH  31  32
ENDBRANCH  24  26
ENDBRANCH  23  24
ENDBRANCH  22  23
ENDBRANCH   1  22
TORSDOF 13
ENDMDL
MODEL 2
REMARK VINA RESULT:     -10.4      3.922      7.611
REMARK SMILES NC(=O)[C@@H]1CCCCN1c1cncc(C(=O)OCCOC(=O)c2ccc(-c3c4nc(c(-c5ccccc5)c5ccc([nH]5)c(-c5ccccc5)c5nc(c(-c6ccccc6)c6ccc3[nH]6)C=C5)C=C4)cc2)n1
REMARK SMILES IDX 18 1 17 2 15 3 16 4 14 5 10 6 11 7 71 8 12 9 13 10 9 11 4 12
REMARK SMILES IDX 5 13 6 14 8 15 7 16 2 17 1 18 3 21 19 22 20 23 21 24 22 25
REMARK SMILES IDX 23 26 24 27 70 28 25 29 69 30 26 31 27 32 28 33 63 34 29 35
REMARK SMILES IDX 68 36 62 37 64 38 30 39 67 40 61 41 60 42 31 44 53 45 38 46
REMARK SMILES IDX 52 47 39 48 42 49 51 50 65 51 40 52 41 53 50 55 66 56 43 57
REMARK SMILES IDX 32 58 33 59 37 60 34 61 36 62 35 63 54 64 55 65 59 66 56 67
REMARK SMILES IDX 58 68 57 69 44 70 45 71 49 72 46 73 48 74 47 75
REMARK H PARENT 1 19 1 20 64 43 42 54
REMARK Flexibility Score: inf
ROOT
ATOM      1  C   UNL A   1      39.927  21.209  26.474  1.00  0.00     0.275 C 
ENDROOT
BRANCH   1   2
ATOM      2  O   UNL A   1      38.845  21.876  25.790  1.00  0.00    -0.457 OA
BRANCH   2   3
ATOM      3  C   UNL A   1      37.964  21.066  25.144  1.00  0.00     0.358 C 
ATOM      4  O   UNL A   1      38.059  19.857  25.015  1.00  0.00    -0.244 OA
BRANCH   3   5
ATOM      5  C   UNL A   1      36.774  21.826  24.694  1.00  0.00     0.169 A 
ATOM      6  C   UNL A   1      34.636  22.599  25.021  1.00  0.00     0.148 A 
ATOM      7  C   UNL A   1      34.710  23.208  23.759  1.00  0.00     0.157 A 
ATOM      8  N   UNL A   1      35.666  21.852  25.480  1.00  0.00    -0.220 NA
ATOM      9  N   UNL A   1      35.804  23.180  22.964  1.00  0.00    -0.258 NA
ATOM     10  C   UNL A   1      36.850  22.510  23.489  1.00  0.00     0.147 A 
BRANCH   6  11
ATOM     11  N   UNL A   1      33.556  22.826  25.840  1.00  0.00    -0.343 N 
ATOM     12  C   UNL A   1      32.405  21.907  25.885  1.00  0.00     0.172 C 
ATOM     13  C   UNL A   1      31.185  22.606  25.280  1.00  0.00     0.035 C 
ATOM     14  C   UNL A   1      30.931  23.936  25.996  1.00  0.00     0.004 C 
ATOM     15  C   UNL A   1      33.409  24.108  26.511  1.00  0.00     0.119 C 
ATOM     16  C   UNL A   1      32.176  24.829  25.960  1.00  0.00     0.022 C 
BRANCH  12  17
ATOM     17  C   UNL A   1      32.674  20.483  25.343  1.00  0.00     0.240 C 
ATOM     18  N   UNL A   1      33.266  19.581  26.179  1.00  0.00    -0.368 N 
ATOM     19  H   UNL A   1      33.451  18.667  25.865  1.00  0.00     0.159 HD
ATOM     20  H   UNL A   1      33.509  19.846  27.095  1.00  0.00     0.159 HD
ATOM     21  O   UNL A   1      32.351  20.132  24.207  1.00  0.00    -0.273 OA
ENDBRANCH  12  17
ENDBRANCH   6  11
ENDBRANCH   3   5
ENDBRANCH   2   3
ENDBRANCH   1   2
BRANCH   1  22
ATOM     22  C   UNL A   1      41.267  21.491  25.794  1.00  0.00     0.275 C 
BRANCH  22  23
ATOM     23  O   UNL A   1      42.048  22.383  26.610  1.00  0.00    -0.458 OA
BRANCH  23  24
ATOM     24  C   UNL A   1      42.430  23.542  26.029  1.00  0.00     0.338 C 
ATOM     25  O   UNL A   1      43.007  23.686  24.961  1.00  0.00    -0.246 OA
BRANCH  24  26
ATOM     26  C   UNL A   1      42.015  24.680  26.867  1.00  0.00     0.060 A 
ATOM     27  C   UNL A   1      42.733  25.871  26.809  1.00  0.00     0.016 A 
ATOM     28  C   UNL A   1      41.001  24.528  27.810  1.00  0.00     0.016 A 
ATOM     29  C   UNL A   1      42.520  26.871  27.755  1.00  0.00     0.010 A 
ATOM     30  C   UNL A   1      40.711  25.580  28.689  1.00  0.00     0.010 A 
ATOM     31  C   UNL A   1      41.495  26.748  28.703  1.00  0.00    -0.014 A 
BRANCH  31  32
ATOM     32  C   UNL A   1      41.274  27.813  29.726  1.00  0.00     0.031 A 
ATOM     33  C   UNL A   1      42.159  27.892  30.946  1.00  0.00     0.074 A 
ATOM     34  C   UNL A   1      40.293  28.727  29.572  1.00  0.00     0.049 A 
ATOM     35  N   UNL A   1      42.015  28.619  32.027  1.00  0.00    -0.248 NA
ATOM     36  C   UNL A   1      43.351  27.028  30.961  1.00  0.00     0.031 C 
ATOM     37  C   UNL A   1      39.380  28.815  28.429  1.00  0.00     0.029 A 
ATOM     38  N   UNL A   1      39.905  29.768  30.382  1.00  0.00    -0.354 N 
ATOM     39  C   UNL A   1      43.051  28.246  32.876  1.00  0.00     0.074 A 
ATOM     40  C   UNL A   1      43.820  27.235  32.184  1.00  0.00     0.031 C 
ATOM     41  C   UNL A   1      38.574  29.875  28.588  1.00  0.00     0.029 A 
ATOM     42  C   UNL A   1      38.847  30.489  29.884  1.00  0.00     0.049 A 
ATOM     43  H   UNL A   1      40.344  29.977  31.237  1.00  0.00     0.167 HD
ATOM     44  C   UNL A   1      43.332  28.699  34.121  1.00  0.00     0.031 A 
ATOM     45  C   UNL A   1      38.137  31.501  30.418  1.00  0.00     0.031 A 
ATOM     46  C   UNL A   1      42.614  29.752  34.789  1.00  0.00     0.049 A 
ATOM     47  C   UNL A   1      38.467  31.985  31.800  1.00  0.00     0.074 A 
ATOM     48  C   UNL A   1      42.848  30.294  36.041  1.00  0.00     0.029 A 
ATOM     49  N   UNL A   1      41.538  30.437  34.250  1.00  0.00    -0.354 N 
ATOM     50  N   UNL A   1      39.412  31.579  32.612  1.00  0.00    -0.248 NA
ATOM     51  C   UNL A   1      37.618  33.053  32.346  1.00  0.00     0.031 C 
ATOM     52  C   UNL A   1      41.890  31.287  36.274  1.00  0.00     0.029 A 
ATOM     53  C   UNL A   1      41.088  31.390  35.149  1.00  0.00     0.049 A 
ATOM     54  H   UNL A   1      41.151  30.272  33.360  1.00  0.00     0.167 HD
ATOM     55  C   UNL A   1      39.273  32.343  33.762  1.00  0.00     0.074 A 
ATOM     56  C   UNL A   1      38.171  33.254  33.535  1.00  0.00     0.031 C 
ATOM     57  C   UNL A   1      39.990  32.286  34.911  1.00  0.00     0.031 A 
BRANCH  44  58
ATOM     58  C   UNL A   1      44.446  28.024  34.873  1.00  0.00    -0.014 A 
ATOM     59  C   UNL A   1      44.218  26.901  35.680  1.00  0.00     0.009 A 
ATOM     60  C   UNL A   1      45.759  28.498  34.722  1.00  0.00     0.009 A 
ATOM     61  C   UNL A   1      45.281  26.283  36.345  1.00  0.00     0.001 A 
ATOM     62  C   UNL A   1      46.823  27.865  35.366  1.00  0.00     0.001 A 
ATOM     63  C   UNL A   1      46.582  26.762  36.183  1.00  0.00     0.000 A 
ENDBRANCH  44  58
BRANCH  45  64
ATOM     64  C   UNL A   1      36.998  32.085  29.663  1.00  0.00    -0.014 A 
ATOM     65  C   UNL A   1      37.195  33.170  28.795  1.00  0.00     0.009 A 
ATOM     66  C   UNL A   1      35.706  31.554  29.806  1.00  0.00     0.009 A 
ATOM     67  C   UNL A   1      36.117  33.719  28.098  1.00  0.00     0.001 A 
ATOM     68  C   UNL A   1      34.638  32.085  29.083  1.00  0.00     0.001 A 
ATOM     69  C   UNL A   1      34.842  33.171  28.235  1.00  0.00     0.000 A 
ENDBRANCH  45  64
BRANCH  57  70
ATOM     70  C   UNL A   1      39.614  33.251  35.997  1.00  0.00    -0.014 A 
ATOM     71  C   UNL A   1      38.695  32.894  36.996  1.00  0.00     0.009 A 
ATOM     72  C   UNL A   1      40.208  34.522  36.036  1.00  0.00     0.009 A 
ATOM     73  C   UNL A   1      38.356  33.805  37.997  1.00  0.00     0.001 A 
ATOM     74  C   UNL A   1      39.883  35.422  37.052  1.00  0.00     0.001 A 
ATOM     75  C   UNL A   1      38.951  35.066  38.026  1.00  0.00     0.000 A 
ENDBRANCH  57  70
ENDBRANCH  31  32
ENDBRANCH  24  26
ENDBRANCH  23  24
ENDBRANCH  22  23
ENDBRANCH   1  22
TORSDOF 13
ENDMDL
MODEL 3
REMARK VINA RESULT:     -10.4      3.804      8.691
REMARK SMILES NC(=O)[C@@H]1CCCCN1c1cncc(C(=O)OCCOC(=O)c2ccc(-c3c4nc(c(-c5ccccc5)c5ccc([nH]5)c(-c5ccccc5)c5nc(c(-c6ccccc6)c6ccc3[nH]6)C=C5)C=C4)cc2)n1
REMARK SMILES IDX 18 1 17 2 15 3 16 4 14 5 10 6 11 7 71 8 12 9 13 10 9 11 4 12
REMARK SMILES IDX 5 13 6 14 8 15 7 16 2 17 1 18 3 21 19 22 20 23 21 24 22 25
REMARK SMILES IDX 23 26 24 27 70 28 25 29 69 30 26 31 27 32 28 33 63 34 29 35
REMARK SMILES IDX 68 36 62 37 64 38 30 39 67 40 61 41 60 42 31 44 53 45 38 46
REMARK SMILES IDX 52 47 39 48 42 49 51 50 65 51 40 52 41 53 50 55 66 56 43 57
REMARK SMILES IDX 32 58 33 59 37 60 34 61 36 62 35 63 54 64 55 65 59 66 56 67
REMARK SMILES IDX 58 68 57 69 44 70 45 71 49 72 46 73 48 74 47 75
REMARK H PARENT 1 19 1 20 64 43 42 54
REMARK Flexibility Score: inf
ROOT
ATOM      1  C   UNL A   1      32.318  28.942  24.431  1.00  0.00     0.275 C 
ENDROOT
BRANCH   1   2
ATOM      2  O   UNL A   1      31.944  29.046  23.040  1.00  0.00    -0.457 OA
BRANCH   2   3
ATOM      3  C   UNL A   1      31.221  28.008  22.542  1.00  0.00     0.358 C 
ATOM      4  O   UNL A   1      30.127  28.082  22.009  1.00  0.00    -0.244 OA
BRANCH   3   5
ATOM      5  C   UNL A   1      31.986  26.741  22.620  1.00  0.00     0.169 A 
ATOM      6  C   UNL A   1      32.184  24.543  23.258  1.00  0.00     0.148 A 
ATOM      7  C   UNL A   1      33.473  24.543  22.702  1.00  0.00     0.157 A 
ATOM      8  N   UNL A   1      31.442  25.674  23.263  1.00  0.00    -0.220 NA
ATOM      9  N   UNL A   1      34.028  25.602  22.069  1.00  0.00    -0.258 NA
ATOM     10  C   UNL A   1      33.229  26.687  22.005  1.00  0.00     0.147 A 
BRANCH   6  11
ATOM     11  N   UNL A   1      31.627  23.375  23.721  1.00  0.00    -0.343 N 
ATOM     12  C   UNL A   1      31.224  23.209  25.128  1.00  0.00     0.172 C 
ATOM     13  C   UNL A   1      32.152  22.191  25.795  1.00  0.00     0.035 C 
ATOM     14  C   UNL A   1      32.154  20.880  25.003  1.00  0.00     0.004 C 
ATOM     15  C   UNL A   1      31.639  22.182  22.888  1.00  0.00     0.119 C 
ATOM     16  C   UNL A   1      32.531  21.121  23.538  1.00  0.00     0.022 C 
BRANCH  12  17
ATOM     17  C   UNL A   1      31.025  24.523  25.920  1.00  0.00     0.240 C 
ATOM     18  N   UNL A   1      29.782  25.086  25.923  1.00  0.00    -0.368 N 
ATOM     19  H   UNL A   1      29.621  25.922  26.417  1.00  0.00     0.159 HD
ATOM     20  H   UNL A   1      29.045  24.655  25.432  1.00  0.00     0.159 HD
ATOM     21  O   UNL A   1      31.931  25.058  26.560  1.00  0.00    -0.273 OA
ENDBRANCH  12  17
ENDBRANCH   6  11
ENDBRANCH   3   5
ENDBRANCH   2   3
ENDBRANCH   1   2
BRANCH   1  22
ATOM     22  C   UNL A   1      31.409  29.799  25.312  1.00  0.00     0.275 C 
BRANCH  22  23
ATOM     23  O   UNL A   1      31.972  29.903  26.633  1.00  0.00    -0.458 OA
BRANCH  23  24
ATOM     24  C   UNL A   1      32.507  31.100  26.960  1.00  0.00     0.338 C 
ATOM     25  O   UNL A   1      31.987  32.202  26.858  1.00  0.00    -0.246 OA
BRANCH  24  26
ATOM     26  C   UNL A   1      33.857  30.907  27.515  1.00  0.00     0.060 A 
ATOM     27  C   UNL A   1      34.398  29.626  27.571  1.00  0.00     0.016 A 
ATOM     28  C   UNL A   1      34.535  31.971  28.106  1.00  0.00     0.016 A 
ATOM     29  C   UNL A   1      35.556  29.380  28.305  1.00  0.00     0.010 A 
ATOM     30  C   UNL A   1      35.759  31.741  28.747  1.00  0.00     0.010 A 
ATOM     31  C   UNL A   1      36.265  30.435  28.893  1.00  0.00    -0.014 A 
BRANCH  31  32
ATOM     32  C   UNL A   1      37.499  30.171  29.691  1.00  0.00     0.031 A 
ATOM     33  C   UNL A   1      38.654  29.416  29.079  1.00  0.00     0.074 A 
ATOM     34  C   UNL A   1      37.608  30.612  30.962  1.00  0.00     0.049 A 
ATOM     35  N   UNL A   1      39.724  28.930  29.658  1.00  0.00    -0.248 NA
ATOM     36  C   UNL A   1      38.588  29.157  27.632  1.00  0.00     0.031 C 
ATOM     37  C   UNL A   1      36.601  31.393  31.684  1.00  0.00     0.029 A 
ATOM     38  N   UNL A   1      38.628  30.471  31.873  1.00  0.00    -0.354 N 
ATOM     39  C   UNL A   1      40.418  28.248  28.665  1.00  0.00     0.074 A 
ATOM     40  C   UNL A   1      39.652  28.388  27.445  1.00  0.00     0.031 C 
ATOM     41  C   UNL A   1      37.070  31.701  32.902  1.00  0.00     0.029 A 
ATOM     42  C   UNL A   1      38.369  31.063  33.085  1.00  0.00     0.049 A 
ATOM     43  H   UNL A   1      39.464  29.992  31.675  1.00  0.00     0.167 HD
ATOM     44  C   UNL A   1      41.581  27.562  28.761  1.00  0.00     0.031 A 
ATOM     45  C   UNL A   1      39.069  31.063  34.236  1.00  0.00     0.031 A 
ATOM     46  C   UNL A   1      42.383  27.476  29.952  1.00  0.00     0.049 A 
ATOM     47  C   UNL A   1      40.355  30.294  34.318  1.00  0.00     0.074 A 
ATOM     48  C   UNL A   1      43.592  26.825  30.132  1.00  0.00     0.029 A 
ATOM     49  N   UNL A   1      42.068  28.077  31.159  1.00  0.00    -0.354 N 
ATOM     50  N   UNL A   1      40.965  29.605  33.385  1.00  0.00    -0.248 NA
ATOM     51  C   UNL A   1      41.039  30.287  35.619  1.00  0.00     0.031 C 
ATOM     52  C   UNL A   1      43.992  27.005  31.461  1.00  0.00     0.029 A 
ATOM     53  C   UNL A   1      43.054  27.802  32.094  1.00  0.00     0.049 A 
ATOM     54  H   UNL A   1      41.265  28.620  31.329  1.00  0.00     0.167 HD
ATOM     55  C   UNL A   1      42.103  29.085  33.985  1.00  0.00     0.074 A 
ATOM     56  C   UNL A   1      42.115  29.559  35.353  1.00  0.00     0.031 C 
ATOM     57  C   UNL A   1      43.051  28.278  33.451  1.00  0.00     0.031 A 
BRANCH  44  58
ATOM     58  C   UNL A   1      42.044  26.804  27.548  1.00  0.00    -0.014 A 
ATOM     59  C   UNL A   1      41.728  25.451  27.357  1.00  0.00     0.009 A 
ATOM     60  C   UNL A   1      42.769  27.480  26.553  1.00  0.00     0.009 A 
ATOM     61  C   UNL A   1      42.155  24.784  26.204  1.00  0.00     0.001 A 
ATOM     62  C   UNL A   1      43.173  26.818  25.392  1.00  0.00     0.001 A 
ATOM     63  C   UNL A   1      42.871  25.468  25.222  1.00  0.00     0.000 A 
ENDBRANCH  44  58
BRANCH  45  64
ATOM     64  C   UNL A   1      38.531  31.767  35.429  1.00  0.00    -0.014 A 
ATOM     65  C   UNL A   1      38.614  33.164  35.534  1.00  0.00     0.009 A 
ATOM     66  C   UNL A   1      37.926  31.042  36.468  1.00  0.00     0.009 A 
ATOM     67  C   UNL A   1      38.115  33.817  36.663  1.00  0.00     0.001 A 
ATOM     68  C   UNL A   1      37.399  31.701  37.579  1.00  0.00     0.001 A 
ATOM     69  C   UNL A   1      37.501  33.087  37.680  1.00  0.00     0.000 A 
ENDBRANCH  45  64
BRANCH  57  70
ATOM     70  C   UNL A   1      44.187  27.875  34.345  1.00  0.00    -0.014 A 
ATOM     71  C   UNL A   1      44.125  26.699  35.108  1.00  0.00     0.009 A 
ATOM     72  C   UNL A   1      45.343  28.668  34.402  1.00  0.00     0.009 A 
ATOM     73  C   UNL A   1      45.190  26.341  35.936  1.00  0.00     0.001 A 
ATOM     74  C   UNL A   1      46.415  28.295  35.214  1.00  0.00     0.001 A 
ATOM     75  C   UNL A   1      46.334  27.137  35.986  1.00  0.00     0.000 A 
ENDBRANCH  57  70
ENDBRANCH  31  32
ENDBRANCH  24  26
ENDBRANCH  23  24
ENDBRANCH  22  23
ENDBRANCH   1  22
TORSDOF 13
ENDMDL
