MODEL 1
REMARK VINA RESULT:      -8.6      0.000      0.000
REMARK SMILES CC(C)(C(=O)OCCOC(=O)c1ccc(-c2c3nc(c(-c4ccccc4)c4ccc([nH]4)c(-c4ccccc4)c4nc(c(-c5ccccc5)c5ccc2[nH]5)C=C4)C=C3)cc1)c1ccc(C(=O)CCCCl)cc1
REMARK SMILES IDX 6 1 4 2 5 3 2 4 1 5 3 6 60 7 61 8 71 9 62 10 70 11 63 12
REMARK SMILES IDX 64 13 65 14 66 15 67 16 68 17 69 18 7 19 8 20 9 21 10 22
REMARK SMILES IDX 11 23 12 24 13 25 59 26 14 27 58 28 15 29 16 30 17 31 52 32
REMARK SMILES IDX 18 33 57 34 51 35 53 36 19 37 56 38 50 39 49 40 20 42 42 43
REMARK SMILES IDX 27 44 41 45 28 46 31 47 40 48 54 49 29 50 30 51 39 53 55 54
REMARK SMILES IDX 32 55 21 56 22 57 26 58 23 59 25 60 24 61 43 62 44 63 48 64
REMARK SMILES IDX 45 65 47 66 46 67 33 68 34 69 38 70 35 71 37 72 36 73
REMARK H PARENT 53 41 31 52
REMARK Flexibility Score: inf
ROOT
ATOM      1  O   UNL A   1      43.244  20.368  25.360  1.00  0.00    -0.461 OA
ENDROOT
BRANCH   1   2
ATOM      2  C   UNL A   1      43.508  21.692  25.183  1.00  0.00     0.316 C 
ATOM      3  O   UNL A   1      42.629  22.540  25.060  1.00  0.00    -0.251 OA
BRANCH   2   4
ATOM      4  C   UNL A   1      45.028  21.993  25.075  1.00  0.00     0.087 C 
ATOM      5  C   UNL A   1      45.839  20.680  24.995  1.00  0.00     0.028 C 
ATOM      6  C   UNL A   1      45.235  22.738  23.737  1.00  0.00     0.028 C 
BRANCH   4   7
ATOM      7  C   UNL A   1      45.490  22.907  26.239  1.00  0.00    -0.031 A 
ATOM      8  C   UNL A   1      44.847  22.950  27.487  1.00  0.00     0.005 A 
ATOM      9  C   UNL A   1      46.599  23.758  26.065  1.00  0.00     0.005 A 
ATOM     10  C   UNL A   1      45.303  23.794  28.511  1.00  0.00     0.012 A 
ATOM     11  C   UNL A   1      47.029  24.630  27.068  1.00  0.00     0.012 A 
ATOM     12  C   UNL A   1      46.398  24.640  28.310  1.00  0.00     0.018 A 
BRANCH  12  13
ATOM     13  C   UNL A   1      46.853  25.504  29.437  1.00  0.00     0.162 C 
ATOM     14  O   UNL A   1      48.030  25.864  29.471  1.00  0.00    -0.294 OA
BRANCH  13  15
ATOM     15  C   UNL A   1      45.878  25.951  30.511  1.00  0.00     0.082 C 
BRANCH  15  16
ATOM     16  C   UNL A   1      44.731  26.786  29.938  1.00  0.00     0.024 C 
BRANCH  16  17
ATOM     17  C   UNL A   1      43.514  26.930  30.846  1.00  0.00     0.110 C 
ATOM     18  Cl  UNL A   1      43.504  28.497  31.692  1.00  0.00    -0.127 Cl
ENDBRANCH  16  17
ENDBRANCH  15  16
ENDBRANCH  13  15
ENDBRANCH  12  13
ENDBRANCH   4   7
ENDBRANCH   2   4
ENDBRANCH   1   2
BRANCH   1  19
ATOM     19  C   UNL A   1      42.470  20.030  26.528  1.00  0.00     0.274 C 
BRANCH  19  20
ATOM     20  C   UNL A   1      41.032  19.701  26.142  1.00  0.00     0.275 C 
BRANCH  20  21
ATOM     21  O   UNL A   1      40.112  20.422  26.983  1.00  0.00    -0.458 OA
BRANCH  21  22
ATOM     22  C   UNL A   1      39.378  21.372  26.362  1.00  0.00     0.338 C 
ATOM     23  O   UNL A   1      38.561  21.215  25.471  1.00  0.00    -0.246 OA
BRANCH  22  24
ATOM     24  C   UNL A   1      39.696  22.705  26.907  1.00  0.00     0.060 A 
ATOM     25  C   UNL A   1      39.097  23.839  26.367  1.00  0.00     0.016 A 
ATOM     26  C   UNL A   1      40.729  22.836  27.837  1.00  0.00     0.016 A 
ATOM     27  C   UNL A   1      39.615  25.100  26.666  1.00  0.00     0.010 A 
ATOM     28  C   UNL A   1      41.194  24.109  28.191  1.00  0.00     0.010 A 
ATOM     29  C   UNL A   1      40.693  25.255  27.553  1.00  0.00    -0.014 A 
BRANCH  29  30
ATOM     30  C   UNL A   1      41.376  26.580  27.674  1.00  0.00     0.031 A 
ATOM     31  C   UNL A   1      40.887  27.589  28.692  1.00  0.00     0.074 A 
ATOM     32  C   UNL A   1      42.492  26.866  26.973  1.00  0.00     0.049 A 
ATOM     33  N   UNL A   1      41.283  28.823  28.892  1.00  0.00    -0.248 NA
ATOM     34  C   UNL A   1      39.799  27.164  29.588  1.00  0.00     0.031 C 
ATOM     35  C   UNL A   1      43.144  25.981  26.009  1.00  0.00     0.029 A 
ATOM     36  N   UNL A   1      43.318  27.965  27.023  1.00  0.00    -0.354 N 
ATOM     37  C   UNL A   1      40.431  29.344  29.860  1.00  0.00     0.074 A 
ATOM     38  C   UNL A   1      39.516  28.288  30.230  1.00  0.00     0.031 C 
ATOM     39  C   UNL A   1      44.329  26.511  25.660  1.00  0.00     0.029 A 
ATOM     40  C   UNL A   1      44.483  27.809  26.310  1.00  0.00     0.049 A 
ATOM     41  H   UNL A   1      43.096  28.785  27.521  1.00  0.00     0.167 HD
ATOM     42  C   UNL A   1      40.398  30.594  30.382  1.00  0.00     0.031 A 
ATOM     43  C   UNL A   1      45.561  28.611  26.211  1.00  0.00     0.031 A 
ATOM     44  C   UNL A   1      41.358  31.626  30.100  1.00  0.00     0.049 A 
ATOM     45  C   UNL A   1      45.550  29.966  26.861  1.00  0.00     0.074 A 
ATOM     46  C   UNL A   1      41.372  32.940  30.535  1.00  0.00     0.029 A 
ATOM     47  N   UNL A   1      42.507  31.439  29.353  1.00  0.00    -0.354 N 
ATOM     48  N   UNL A   1      44.653  30.497  27.653  1.00  0.00    -0.248 NA
ATOM     49  C   UNL A   1      46.691  30.847  26.567  1.00  0.00     0.031 C 
ATOM     50  C   UNL A   1      42.527  33.555  30.037  1.00  0.00     0.029 A 
ATOM     51  C   UNL A   1      43.243  32.611  29.319  1.00  0.00     0.049 A 
ATOM     52  H   UNL A   1      42.764  30.597  28.911  1.00  0.00     0.167 HD
ATOM     53  C   UNL A   1      45.113  31.777  27.938  1.00  0.00     0.074 A 
ATOM     54  C   UNL A   1      46.391  31.926  27.277  1.00  0.00     0.031 C 
ATOM     55  C   UNL A   1      44.511  32.754  28.660  1.00  0.00     0.031 A 
BRANCH  42  56
ATOM     56  C   UNL A   1      39.229  30.939  31.262  1.00  0.00    -0.014 A 
ATOM     57  C   UNL A   1      39.276  30.787  32.654  1.00  0.00     0.009 A 
ATOM     58  C   UNL A   1      38.063  31.448  30.668  1.00  0.00     0.009 A 
ATOM     59  C   UNL A   1      38.161  31.111  33.432  1.00  0.00     0.001 A 
ATOM     60  C   UNL A   1      36.960  31.792  31.450  1.00  0.00     0.001 A 
ATOM     61  C   UNL A   1      37.007  31.614  32.831  1.00  0.00     0.000 A 
ENDBRANCH  42  56
BRANCH  43  62
ATOM     62  C   UNL A   1      46.776  28.154  25.486  1.00  0.00    -0.014 A 
ATOM     63  C   UNL A   1      46.758  28.082  24.083  1.00  0.00     0.009 A 
ATOM     64  C   UNL A   1      47.934  27.761  26.172  1.00  0.00     0.009 A 
ATOM     65  C   UNL A   1      47.869  27.608  23.383  1.00  0.00     0.001 A 
ATOM     66  C   UNL A   1      49.053  27.313  25.467  1.00  0.00     0.001 A 
ATOM     67  C   UNL A   1      49.017  27.230  24.075  1.00  0.00     0.000 A 
ENDBRANCH  43  62
BRANCH  55  68
ATOM     68  C   UNL A   1      45.221  34.071  28.759  1.00  0.00    -0.014 A 
ATOM     69  C   UNL A   1      44.969  35.092  27.829  1.00  0.00     0.009 A 
ATOM     70  C   UNL A   1      46.119  34.312  29.810  1.00  0.00     0.009 A 
ATOM     71  C   UNL A   1      45.627  36.320  27.931  1.00  0.00     0.001 A 
ATOM     72  C   UNL A   1      46.761  35.547  29.921  1.00  0.00     0.001 A 
ATOM     73  C   UNL A   1      46.520  36.546  28.978  1.00  0.00     0.000 A 
ENDBRANCH  55  68
ENDBRANCH  29  30
ENDBRANCH  22  24
ENDBRANCH  21  22
ENDBRANCH  20  21
ENDBRANCH  19  20
ENDBRANCH   1  19
TORSDOF 16
ENDMDL
MODEL 2
REMARK VINA RESULT:      -8.2      1.224      6.262
REMARK SMILES CC(C)(C(=O)OCCOC(=O)c1ccc(-c2c3nc(c(-c4ccccc4)c4ccc([nH]4)c(-c4ccccc4)c4nc(c(-c5ccccc5)c5ccc2[nH]5)C=C4)C=C3)cc1)c1ccc(C(=O)CCCCl)cc1
REMARK SMILES IDX 6 1 4 2 5 3 2 4 1 5 3 6 60 7 61 8 71 9 62 10 70 11 63 12
REMARK SMILES IDX 64 13 65 14 66 15 67 16 68 17 69 18 7 19 8 20 9 21 10 22
REMARK SMILES IDX 11 23 12 24 13 25 59 26 14 27 58 28 15 29 16 30 17 31 52 32
REMARK SMILES IDX 18 33 57 34 51 35 53 36 19 37 56 38 50 39 49 40 20 42 42 43
REMARK SMILES IDX 27 44 41 45 28 46 31 47 40 48 54 49 29 50 30 51 39 53 55 54
REMARK SMILES IDX 32 55 21 56 22 57 26 58 23 59 25 60 24 61 43 62 44 63 48 64
REMARK SMILES IDX 45 65 47 66 46 67 33 68 34 69 38 70 35 71 37 72 36 73
REMARK H PARENT 53 41 31 52
REMARK Flexibility Score: inf
ROOT
ATOM      1  O   UNL A   1      43.262  20.429  25.287  1.00  0.00    -0.461 OA
ENDROOT
BRANCH   1   2
ATOM      2  C   UNL A   1      43.547  21.757  25.193  1.00  0.00     0.316 C 
ATOM      3  O   UNL A   1      42.689  22.616  25.012  1.00  0.00    -0.251 OA
BRANCH   2   4
ATOM      4  C   UNL A   1      45.071  22.051  25.259  1.00  0.00     0.087 C 
ATOM      5  C   UNL A   1      45.880  20.734  25.276  1.00  0.00     0.028 C 
ATOM      6  C   UNL A   1      45.434  22.791  23.952  1.00  0.00     0.028 C 
BRANCH   4   7
ATOM      7  C   UNL A   1      45.401  22.967  26.466  1.00  0.00    -0.031 A 
ATOM      8  C   UNL A   1      46.495  23.848  26.489  1.00  0.00     0.005 A 
ATOM      9  C   UNL A   1      44.589  22.930  27.617  1.00  0.00     0.005 A 
ATOM     10  C   UNL A   1      46.752  24.658  27.605  1.00  0.00     0.012 A 
ATOM     11  C   UNL A   1      44.869  23.705  28.745  1.00  0.00     0.012 A 
ATOM     12  C   UNL A   1      45.940  24.594  28.742  1.00  0.00     0.018 A 
BRANCH  12  13
ATOM     13  C   UNL A   1      46.248  25.490  29.893  1.00  0.00     0.162 C 
ATOM     14  O   UNL A   1      45.691  25.282  30.972  1.00  0.00    -0.294 OA
BRANCH  13  15
ATOM     15  C   UNL A   1      47.246  26.624  29.746  1.00  0.00     0.082 C 
BRANCH  15  16
ATOM     16  C   UNL A   1      48.683  26.115  29.619  1.00  0.00     0.024 C 
BRANCH  16  17
ATOM     17  C   UNL A   1      49.502  26.149  30.906  1.00  0.00     0.110 C 
ATOM     18  Cl  UNL A   1      51.247  26.009  30.581  1.00  0.00    -0.127 Cl
ENDBRANCH  16  17
ENDBRANCH  15  16
ENDBRANCH  13  15
ENDBRANCH  12  13
ENDBRANCH   4   7
ENDBRANCH   2   4
ENDBRANCH   1   2
BRANCH   1  19
ATOM     19  C   UNL A   1      42.528  20.023  26.458  1.00  0.00     0.274 C 
BRANCH  19  20
ATOM     20  C   UNL A   1      41.056  19.806  26.120  1.00  0.00     0.275 C 
BRANCH  20  21
ATOM     21  O   UNL A   1      40.223  20.602  26.984  1.00  0.00    -0.458 OA
BRANCH  21  22
ATOM     22  C   UNL A   1      39.530  21.591  26.375  1.00  0.00     0.338 C 
ATOM     23  O   UNL A   1      38.757  21.488  25.439  1.00  0.00    -0.246 OA
BRANCH  22  24
ATOM     24  C   UNL A   1      39.836  22.892  26.999  1.00  0.00     0.060 A 
ATOM     25  C   UNL A   1      39.318  24.063  26.456  1.00  0.00     0.016 A 
ATOM     26  C   UNL A   1      40.787  22.955  28.020  1.00  0.00     0.016 A 
ATOM     27  C   UNL A   1      39.842  25.295  26.850  1.00  0.00     0.010 A 
ATOM     28  C   UNL A   1      41.254  24.198  28.464  1.00  0.00     0.010 A 
ATOM     29  C   UNL A   1      40.843  25.383  27.831  1.00  0.00    -0.014 A 
BRANCH  29  30
ATOM     30  C   UNL A   1      41.549  26.681  28.065  1.00  0.00     0.031 A 
ATOM     31  C   UNL A   1      42.798  27.011  27.276  1.00  0.00     0.074 A 
ATOM     32  C   UNL A   1      41.042  27.622  28.887  1.00  0.00     0.049 A 
ATOM     33  N   UNL A   1      43.604  28.039  27.393  1.00  0.00    -0.248 NA
ATOM     34  C   UNL A   1      43.205  26.055  26.234  1.00  0.00     0.031 C 
ATOM     35  C   UNL A   1      39.809  27.503  29.664  1.00  0.00     0.029 A 
ATOM     36  N   UNL A   1      41.473  28.903  29.148  1.00  0.00    -0.354 N 
ATOM     37  C   UNL A   1      44.657  27.800  26.515  1.00  0.00     0.074 A 
ATOM     38  C   UNL A   1      44.375  26.547  25.851  1.00  0.00     0.031 C 
ATOM     39  C   UNL A   1      39.515  28.697  30.205  1.00  0.00     0.029 A 
ATOM     40  C   UNL A   1      40.578  29.643  29.883  1.00  0.00     0.049 A 
ATOM     41  H   UNL A   1      42.338  29.254  28.839  1.00  0.00     0.167 HD
ATOM     42  C   UNL A   1      45.768  28.542  26.294  1.00  0.00     0.031 A 
ATOM     43  C   UNL A   1      40.602  30.943  30.237  1.00  0.00     0.031 A 
ATOM     44  C   UNL A   1      46.017  29.835  26.870  1.00  0.00     0.049 A 
ATOM     45  C   UNL A   1      41.807  31.785  29.917  1.00  0.00     0.074 A 
ATOM     46  C   UNL A   1      47.141  30.635  26.752  1.00  0.00     0.029 A 
ATOM     47  N   UNL A   1      45.102  30.540  27.631  1.00  0.00    -0.354 N 
ATOM     48  N   UNL A   1      42.865  31.481  29.211  1.00  0.00    -0.248 NA
ATOM     49  C   UNL A   1      41.829  33.143  30.484  1.00  0.00     0.031 C 
ATOM     50  C   UNL A   1      46.909  31.824  27.456  1.00  0.00     0.029 A 
ATOM     51  C   UNL A   1      45.630  31.771  27.983  1.00  0.00     0.049 A 
ATOM     52  H   UNL A   1      44.207  30.216  27.884  1.00  0.00     0.167 HD
ATOM     53  C   UNL A   1      43.686  32.601  29.259  1.00  0.00     0.074 A 
ATOM     54  C   UNL A   1      42.981  33.609  30.022  1.00  0.00     0.031 C 
ATOM     55  C   UNL A   1      44.927  32.767  28.742  1.00  0.00     0.031 A 
BRANCH  42  56
ATOM     56  C   UNL A   1      46.842  27.931  25.440  1.00  0.00    -0.014 A 
ATOM     57  C   UNL A   1      46.800  27.984  24.040  1.00  0.00     0.009 A 
ATOM     58  C   UNL A   1      47.931  27.306  26.068  1.00  0.00     0.009 A 
ATOM     59  C   UNL A   1      47.817  27.392  23.286  1.00  0.00     0.001 A 
ATOM     60  C   UNL A   1      48.956  26.737  25.312  1.00  0.00     0.001 A 
ATOM     61  C   UNL A   1      48.894  26.773  23.921  1.00  0.00     0.000 A 
ENDBRANCH  42  56
BRANCH  43  62
ATOM     62  C   UNL A   1      39.435  31.561  30.918  1.00  0.00    -0.014 A 
ATOM     63  C   UNL A   1      39.346  31.513  32.320  1.00  0.00     0.009 A 
ATOM     64  C   UNL A   1      38.398  32.164  30.193  1.00  0.00     0.009 A 
ATOM     65  C   UNL A   1      38.235  32.041  32.979  1.00  0.00     0.001 A 
ATOM     66  C   UNL A   1      37.300  32.715  30.858  1.00  0.00     0.001 A 
ATOM     67  C   UNL A   1      37.216  32.646  32.248  1.00  0.00     0.000 A 
ENDBRANCH  43  62
BRANCH  55  68
ATOM     68  C   UNL A   1      45.608  34.079  28.998  1.00  0.00    -0.014 A 
ATOM     69  C   UNL A   1      46.415  34.257  30.132  1.00  0.00     0.009 A 
ATOM     70  C   UNL A   1      45.476  35.133  28.082  1.00  0.00     0.009 A 
ATOM     71  C   UNL A   1      47.054  35.479  30.360  1.00  0.00     0.001 A 
ATOM     72  C   UNL A   1      46.131  36.346  28.302  1.00  0.00     0.001 A 
ATOM     73  C   UNL A   1      46.913  36.520  29.445  1.00  0.00     0.000 A 
ENDBRANCH  55  68
ENDBRANCH  29  30
ENDBRANCH  22  24
ENDBRANCH  21  22
ENDBRANCH  20  21
ENDBRANCH  19  20
ENDBRANCH   1  19
TORSDOF 16
ENDMDL
MODEL 3
REMARK VINA RESULT:      -8.0      3.681      6.681
REMARK SMILES CC(C)(C(=O)OCCOC(=O)c1ccc(-c2c3nc(c(-c4ccccc4)c4ccc([nH]4)c(-c4ccccc4)c4nc(c(-c5ccccc5)c5ccc2[nH]5)C=C4)C=C3)cc1)c1ccc(C(=O)CCCCl)cc1
REMARK SMILES IDX 6 1 4 2 5 3 2 4 1 5 3 6 60 7 61 8 71 9 62 10 70 11 63 12
REMARK SMILES IDX 64 13 65 14 66 15 67 16 68 17 69 18 7 19 8 20 9 21 10 22
REMARK SMILES IDX 11 23 12 24 13 25 59 26 14 27 58 28 15 29 16 30 17 31 52 32
REMARK SMILES IDX 18 33 57 34 51 35 53 36 19 37 56 38 50 39 49 40 20 42 42 43
REMARK SMILES IDX 27 44 41 45 28 46 31 47 40 48 54 49 29 50 30 51 39 53 55 54
REMARK SMILES IDX 32 55 21 56 22 57 26 58 23 59 25 60 24 61 43 62 44 63 48 64
REMARK SMILES IDX 45 65 47 66 46 67 33 68 34 69 38 70 35 71 37 72 36 73
REMARK H PARENT 53 41 31 52
REMARK Flexibility Score: inf
ROOT
ATOM      1  O   UNL A   1      33.513  20.989  25.709  1.00  0.00    -0.461 OA
ENDROOT
BRANCH   1   2
ATOM      2  C   UNL A   1      32.671  21.903  25.152  1.00  0.00     0.316 C 
ATOM      3  O   UNL A   1      32.456  21.968  23.946  1.00  0.00    -0.251 OA
BRANCH   2   4
ATOM      4  C   UNL A   1      32.084  22.893  26.195  1.00  0.00     0.087 C 
ATOM      5  C   UNL A   1      30.564  22.668  26.365  1.00  0.00     0.028 C 
ATOM      6  C   UNL A   1      32.748  22.552  27.548  1.00  0.00     0.028 C 
BRANCH   4   7
ATOM      7  C   UNL A   1      32.429  24.356  25.818  1.00  0.00    -0.031 A 
ATOM      8  C   UNL A   1      33.740  24.862  25.814  1.00  0.00     0.005 A 
ATOM      9  C   UNL A   1      31.400  25.252  25.467  1.00  0.00     0.005 A 
ATOM     10  C   UNL A   1      34.003  26.195  25.463  1.00  0.00     0.012 A 
ATOM     11  C   UNL A   1      31.656  26.590  25.159  1.00  0.00     0.012 A 
ATOM     12  C   UNL A   1      32.963  27.070  25.132  1.00  0.00     0.018 A 
BRANCH  12  13
ATOM     13  C   UNL A   1      33.300  28.471  24.750  1.00  0.00     0.162 C 
ATOM     14  O   UNL A   1      33.941  28.666  23.717  1.00  0.00    -0.294 OA
BRANCH  13  15
ATOM     15  C   UNL A   1      32.842  29.638  25.606  1.00  0.00     0.082 C 
BRANCH  15  16
ATOM     16  C   UNL A   1      33.323  29.517  27.053  1.00  0.00     0.024 C 
BRANCH  16  17
ATOM     17  C   UNL A   1      34.546  30.357  27.405  1.00  0.00     0.110 C 
ATOM     18  Cl  UNL A   1      35.829  29.374  28.154  1.00  0.00    -0.127 Cl
ENDBRANCH  16  17
ENDBRANCH  15  16
ENDBRANCH  13  15
ENDBRANCH  12  13
ENDBRANCH   4   7
ENDBRANCH   2   4
ENDBRANCH   1   2
BRANCH   1  19
ATOM     19  C   UNL A   1      34.765  20.786  25.024  1.00  0.00     0.274 C 
BRANCH  19  20
ATOM     20  C   UNL A   1      35.917  21.388  25.822  1.00  0.00     0.275 C 
BRANCH  20  21
ATOM     21  O   UNL A   1      37.067  21.572  24.975  1.00  0.00    -0.458 OA
BRANCH  21  22
ATOM     22  C   UNL A   1      38.261  21.289  25.543  1.00  0.00     0.338 C 
ATOM     23  O   UNL A   1      38.864  20.231  25.515  1.00  0.00    -0.246 OA
BRANCH  22  24
ATOM     24  C   UNL A   1      38.785  22.471  26.253  1.00  0.00     0.060 A 
ATOM     25  C   UNL A   1      38.142  23.699  26.130  1.00  0.00     0.016 A 
ATOM     26  C   UNL A   1      40.022  22.390  26.896  1.00  0.00     0.016 A 
ATOM     27  C   UNL A   1      38.794  24.861  26.543  1.00  0.00     0.010 A 
ATOM     28  C   UNL A   1      40.637  23.553  27.376  1.00  0.00     0.010 A 
ATOM     29  C   UNL A   1      40.066  24.813  27.138  1.00  0.00    -0.014 A 
BRANCH  29  30
ATOM     30  C   UNL A   1      40.838  26.076  27.354  1.00  0.00     0.031 A 
ATOM     31  C   UNL A   1      40.403  27.050  28.429  1.00  0.00     0.074 A 
ATOM     32  C   UNL A   1      41.983  26.326  26.686  1.00  0.00     0.049 A 
ATOM     33  N   UNL A   1      40.882  28.238  28.714  1.00  0.00    -0.248 NA
ATOM     34  C   UNL A   1      39.274  26.646  29.282  1.00  0.00     0.031 C 
ATOM     35  C   UNL A   1      42.587  25.461  25.674  1.00  0.00     0.029 A 
ATOM     36  N   UNL A   1      42.883  27.359  26.818  1.00  0.00    -0.354 N 
ATOM     37  C   UNL A   1      40.053  28.755  29.703  1.00  0.00     0.074 A 
ATOM     38  C   UNL A   1      39.060  27.745  29.993  1.00  0.00     0.031 C 
ATOM     39  C   UNL A   1      43.812  25.927  25.375  1.00  0.00     0.029 A 
ATOM     40  C   UNL A   1      44.046  27.166  26.111  1.00  0.00     0.049 A 
ATOM     41  H   UNL A   1      42.711  28.158  27.365  1.00  0.00     0.167 HD
ATOM     42  C   UNL A   1      40.098  29.968  30.305  1.00  0.00     0.031 A 
ATOM     43  C   UNL A   1      45.179  27.894  26.077  1.00  0.00     0.031 A 
ATOM     44  C   UNL A   1      41.133  30.945  30.102  1.00  0.00     0.049 A 
ATOM     45  C   UNL A   1      45.252  29.203  26.814  1.00  0.00     0.074 A 
ATOM     46  C   UNL A   1      41.232  32.224  30.622  1.00  0.00     0.029 A 
ATOM     47  N   UNL A   1      42.279  30.725  29.358  1.00  0.00    -0.354 N 
ATOM     48  N   UNL A   1      44.381  29.744  27.627  1.00  0.00    -0.248 NA
ATOM     49  C   UNL A   1      46.457  30.017  26.591  1.00  0.00     0.031 C 
ATOM     50  C   UNL A   1      42.435  32.786  30.179  1.00  0.00     0.029 A 
ATOM     51  C   UNL A   1      43.095  31.842  29.410  1.00  0.00     0.049 A 
ATOM     52  H   UNL A   1      42.483  29.897  28.866  1.00  0.00     0.167 HD
ATOM     53  C   UNL A   1      44.925  30.967  28.001  1.00  0.00     0.074 A 
ATOM     54  C   UNL A   1      46.222  31.066  27.366  1.00  0.00     0.031 C 
ATOM     55  C   UNL A   1      44.382  31.936  28.777  1.00  0.00     0.031 A 
BRANCH  42  56
ATOM     56  C   UNL A   1      38.942  30.338  31.191  1.00  0.00    -0.014 A 
ATOM     57  C   UNL A   1      38.993  30.184  32.583  1.00  0.00     0.009 A 
ATOM     58  C   UNL A   1      37.784  30.872  30.604  1.00  0.00     0.009 A 
ATOM     59  C   UNL A   1      37.889  30.532  33.367  1.00  0.00     0.001 A 
ATOM     60  C   UNL A   1      36.694  31.240  31.392  1.00  0.00     0.001 A 
ATOM     61  C   UNL A   1      36.744  31.061  32.772  1.00  0.00     0.000 A 
ENDBRANCH  42  56
BRANCH  43  62
ATOM     62  C   UNL A   1      46.371  27.400  25.339  1.00  0.00    -0.014 A 
ATOM     63  C   UNL A   1      46.645  27.899  24.054  1.00  0.00     0.009 A 
ATOM     64  C   UNL A   1      47.213  26.420  25.880  1.00  0.00     0.009 A 
ATOM     65  C   UNL A   1      47.729  27.414  23.321  1.00  0.00     0.001 A 
ATOM     66  C   UNL A   1      48.312  25.955  25.154  1.00  0.00     0.001 A 
ATOM     67  C   UNL A   1      48.565  26.447  23.873  1.00  0.00     0.000 A 
ENDBRANCH  43  62
BRANCH  55  68
ATOM     68  C   UNL A   1      45.180  33.190  28.971  1.00  0.00    -0.014 A 
ATOM     69  C   UNL A   1      46.092  33.302  30.032  1.00  0.00     0.009 A 
ATOM     70  C   UNL A   1      45.051  34.255  28.067  1.00  0.00     0.009 A 
ATOM     71  C   UNL A   1      46.839  34.470  30.202  1.00  0.00     0.001 A 
ATOM     72  C   UNL A   1      45.813  35.414  28.228  1.00  0.00     0.001 A 
ATOM     73  C   UNL A   1      46.700  35.523  29.299  1.00  0.00     0.000 A 
ENDBRANCH  55  68
ENDBRANCH  29  30
ENDBRANCH  22  24
ENDBRANCH  21  22
ENDBRANCH  20  21
ENDBRANCH  19  20
ENDBRANCH   1  19
TORSDOF 16
ENDMDL
