MODEL 1
REMARK VINA RESULT:      -9.7      0.000      0.000
REMARK SMILES O=C(Cc1cccnc1Cl)OCCOC(=O)c1ccc(-c2c3nc(c(-c4ccccc4)c4ccc([nH]4)c(-c4ccccc4)c4nc(c(-c5ccccc5)c5ccc2[nH]5)C=C4)C=C3)cc1
REMARK SMILES IDX 13 1 12 2 11 3 2 4 1 5 3 6 4 7 5 8 9 9 6 10 8 11 10 12 7 13
REMARK SMILES IDX 14 14 15 15 16 16 17 17 18 18 64 19 19 20 63 21 20 22 21 23
REMARK SMILES IDX 22 24 57 25 23 26 62 27 56 28 58 29 24 30 61 31 55 32 54 33
REMARK SMILES IDX 25 35 47 36 32 37 46 38 33 39 36 40 45 41 59 42 34 43 35 44
REMARK SMILES IDX 44 46 60 47 37 48 26 49 27 50 31 51 28 52 30 53 29 54 48 55
REMARK SMILES IDX 49 56 53 57 50 58 52 59 51 60 38 61 39 62 43 63 40 64 42 65
REMARK SMILES IDX 41 66
REMARK H PARENT 58 34 36 45
REMARK Flexibility Score: inf
ROOT
ATOM      1  C   UNL A   1      44.460  22.619  24.259  1.00  0.00     0.275 C 
ENDROOT
BRANCH   1   2
ATOM      2  C   UNL A   1      43.987  21.491  25.177  1.00  0.00     0.274 C 
BRANCH   2   3
ATOM      3  O   UNL A   1      42.597  21.614  25.535  1.00  0.00    -0.462 OA
BRANCH   3   4
ATOM      4  C   UNL A   1      41.838  20.566  25.944  1.00  0.00     0.310 C 
ATOM      5  O   UNL A   1      41.940  19.480  25.376  1.00  0.00    -0.252 OA
BRANCH   4   6
ATOM      6  C   UNL A   1      40.761  20.814  26.982  1.00  0.00     0.161 C 
BRANCH   6   7
ATOM      7  C   UNL A   1      39.703  21.796  26.548  1.00  0.00     0.001 A 
ATOM      8  C   UNL A   1      39.754  23.122  27.000  1.00  0.00     0.009 A 
ATOM      9  C   UNL A   1      38.645  21.466  25.705  1.00  0.00     0.132 A 
ATOM     10  C   UNL A   1      38.771  24.028  26.618  1.00  0.00     0.020 A 
ATOM     11  N   UNL A   1      37.675  22.324  25.319  1.00  0.00    -0.244 NA
ATOM     12  Cl  UNL A   1      38.404  19.891  25.059  1.00  0.00    -0.062 Cl
ATOM     13  C   UNL A   1      37.759  23.585  25.784  1.00  0.00     0.113 A 
ENDBRANCH   6   7
ENDBRANCH   4   6
ENDBRANCH   3   4
ENDBRANCH   2   3
ENDBRANCH   1   2
BRANCH   1  14
ATOM     14  O   UNL A   1      43.791  23.852  24.568  1.00  0.00    -0.458 OA
BRANCH  14  15
ATOM     15  C   UNL A   1      44.594  24.818  25.087  1.00  0.00     0.338 C 
ATOM     16  O   UNL A   1      45.643  25.224  24.627  1.00  0.00    -0.246 OA
BRANCH  15  17
ATOM     17  C   UNL A   1      43.911  25.453  26.234  1.00  0.00     0.060 A 
ATOM     18  C   UNL A   1      44.135  26.818  26.453  1.00  0.00     0.016 A 
ATOM     19  C   UNL A   1      43.051  24.736  27.072  1.00  0.00     0.016 A 
ATOM     20  C   UNL A   1      43.507  27.468  27.516  1.00  0.00     0.010 A 
ATOM     21  C   UNL A   1      42.430  25.387  28.142  1.00  0.00     0.010 A 
ATOM     22  C   UNL A   1      42.664  26.753  28.376  1.00  0.00    -0.014 A 
BRANCH  22  23
ATOM     23  C   UNL A   1      42.076  27.411  29.566  1.00  0.00     0.031 A 
ATOM     24  C   UNL A   1      40.797  28.188  29.427  1.00  0.00     0.074 A 
ATOM     25  C   UNL A   1      42.692  27.339  30.761  1.00  0.00     0.049 A 
ATOM     26  N   UNL A   1      40.145  28.872  30.333  1.00  0.00    -0.248 NA
ATOM     27  C   UNL A   1      40.173  28.197  28.095  1.00  0.00     0.031 C 
ATOM     28  C   UNL A   1      43.925  26.603  31.037  1.00  0.00     0.029 A 
ATOM     29  N   UNL A   1      42.364  27.911  31.964  1.00  0.00    -0.354 N 
ATOM     30  C   UNL A   1      39.034  29.393  29.682  1.00  0.00     0.074 A 
ATOM     31  C   UNL A   1      39.110  28.963  28.302  1.00  0.00     0.031 C 
ATOM     32  C   UNL A   1      44.263  26.789  32.325  1.00  0.00     0.029 A 
ATOM     33  C   UNL A   1      43.285  27.675  32.955  1.00  0.00     0.049 A 
ATOM     34  H   UNL A   1      41.546  28.442  32.104  1.00  0.00     0.167 HD
ATOM     35  C   UNL A   1      38.040  30.158  30.188  1.00  0.00     0.031 A 
ATOM     36  C   UNL A   1      43.349  28.143  34.215  1.00  0.00     0.031 A 
ATOM     37  C   UNL A   1      37.962  30.599  31.554  1.00  0.00     0.049 A 
ATOM     38  C   UNL A   1      42.274  29.067  34.725  1.00  0.00     0.074 A 
ATOM     39  C   UNL A   1      36.957  31.329  32.166  1.00  0.00     0.029 A 
ATOM     40  N   UNL A   1      38.933  30.370  32.513  1.00  0.00    -0.354 N 
ATOM     41  N   UNL A   1      41.191  29.489  34.121  1.00  0.00    -0.248 NA
ATOM     42  C   UNL A   1      42.438  29.582  36.094  1.00  0.00     0.031 C 
ATOM     43  C   UNL A   1      37.349  31.594  33.482  1.00  0.00     0.029 A 
ATOM     44  C   UNL A   1      38.575  30.987  33.700  1.00  0.00     0.049 A 
ATOM     45  H   UNL A   1      39.755  29.846  32.373  1.00  0.00     0.167 HD
ATOM     46  C   UNL A   1      40.536  30.301  35.040  1.00  0.00     0.074 A 
ATOM     47  C   UNL A   1      41.334  30.301  36.247  1.00  0.00     0.031 C 
ATOM     48  C   UNL A   1      39.378  30.987  34.894  1.00  0.00     0.031 A 
BRANCH  35  49
ATOM     49  C   UNL A   1      36.954  30.595  29.252  1.00  0.00    -0.014 A 
ATOM     50  C   UNL A   1      35.934  29.712  28.864  1.00  0.00     0.009 A 
ATOM     51  C   UNL A   1      36.911  31.926  28.812  1.00  0.00     0.009 A 
ATOM     52  C   UNL A   1      34.900  30.154  28.038  1.00  0.00     0.001 A 
ATOM     53  C   UNL A   1      35.866  32.368  28.001  1.00  0.00     0.001 A 
ATOM     54  C   UNL A   1      34.863  31.481  27.612  1.00  0.00     0.000 A 
ENDBRANCH  35  49
BRANCH  36  55
ATOM     55  C   UNL A   1      44.499  27.794  35.088  1.00  0.00    -0.014 A 
ATOM     56  C   UNL A   1      45.634  28.617  35.143  1.00  0.00     0.009 A 
ATOM     57  C   UNL A   1      44.487  26.600  35.826  1.00  0.00     0.009 A 
ATOM     58  C   UNL A   1      46.746  28.234  35.895  1.00  0.00     0.001 A 
ATOM     59  C   UNL A   1      45.592  26.232  36.596  1.00  0.00     0.001 A 
ATOM     60  C   UNL A   1      46.724  27.043  36.621  1.00  0.00     0.000 A 
ENDBRANCH  36  55
BRANCH  48  61
ATOM     61  C   UNL A   1      38.892  31.785  36.069  1.00  0.00    -0.014 A 
ATOM     62  C   UNL A   1      39.277  33.123  36.241  1.00  0.00     0.009 A 
ATOM     63  C   UNL A   1      37.998  31.208  36.985  1.00  0.00     0.009 A 
ATOM     64  C   UNL A   1      38.792  33.862  37.322  1.00  0.00     0.001 A 
ATOM     65  C   UNL A   1      37.496  31.958  38.051  1.00  0.00     0.001 A 
ATOM     66  C   UNL A   1      37.899  33.282  38.222  1.00  0.00     0.000 A 
ENDBRANCH  48  61
ENDBRANCH  22  23
ENDBRANCH  15  17
ENDBRANCH  14  15
ENDBRANCH   1  14
TORSDOF 12
ENDMDL
MODEL 2
REMARK VINA RESULT:      -9.5      5.429     10.390
REMARK SMILES O=C(Cc1cccnc1Cl)OCCOC(=O)c1ccc(-c2c3nc(c(-c4ccccc4)c4ccc([nH]4)c(-c4ccccc4)c4nc(c(-c5ccccc5)c5ccc2[nH]5)C=C4)C=C3)cc1
REMARK SMILES IDX 13 1 12 2 11 3 2 4 1 5 3 6 4 7 5 8 9 9 6 10 8 11 10 12 7 13
REMARK SMILES IDX 14 14 15 15 16 16 17 17 18 18 64 19 19 20 63 21 20 22 21 23
REMARK SMILES IDX 22 24 57 25 23 26 62 27 56 28 58 29 24 30 61 31 55 32 54 33
REMARK SMILES IDX 25 35 47 36 32 37 46 38 33 39 36 40 45 41 59 42 34 43 35 44
REMARK SMILES IDX 44 46 60 47 37 48 26 49 27 50 31 51 28 52 30 53 29 54 48 55
REMARK SMILES IDX 49 56 53 57 50 58 52 59 51 60 38 61 39 62 43 63 40 64 42 65
REMARK SMILES IDX 41 66
REMARK H PARENT 58 34 36 45
REMARK Flexibility Score: inf
ROOT
ATOM      1  C   UNL A   1      33.134  36.050  30.744  1.00  0.00     0.275 C 
ENDROOT
BRANCH   1   2
ATOM      2  C   UNL A   1      33.448  36.116  32.239  1.00  0.00     0.274 C 
BRANCH   2   3
ATOM      3  O   UNL A   1      34.120  34.934  32.716  1.00  0.00    -0.462 OA
BRANCH   3   4
ATOM      4  C   UNL A   1      35.383  34.945  33.210  1.00  0.00     0.310 C 
ATOM      5  O   UNL A   1      36.308  35.362  32.514  1.00  0.00    -0.252 OA
BRANCH   4   6
ATOM      6  C   UNL A   1      35.643  34.284  34.550  1.00  0.00     0.161 C 
BRANCH   6   7
ATOM      7  C   UNL A   1      36.690  33.201  34.507  1.00  0.00     0.001 A 
ATOM      8  C   UNL A   1      36.493  32.071  33.701  1.00  0.00     0.009 A 
ATOM      9  C   UNL A   1      37.875  33.244  35.238  1.00  0.00     0.132 A 
ATOM     10  C   UNL A   1      37.447  31.059  33.671  1.00  0.00     0.020 A 
ATOM     11  N   UNL A   1      38.818  32.276  35.231  1.00  0.00    -0.244 NA
ATOM     12  Cl  UNL A   1      38.289  34.538  36.293  1.00  0.00    -0.062 Cl
ATOM     13  C   UNL A   1      38.582  31.206  34.448  1.00  0.00     0.113 A 
ENDBRANCH   6   7
ENDBRANCH   4   6
ENDBRANCH   3   4
ENDBRANCH   2   3
ENDBRANCH   1   2
BRANCH   1  14
ATOM     14  O   UNL A   1      32.753  34.721  30.354  1.00  0.00    -0.458 OA
BRANCH  14  15
ATOM     15  C   UNL A   1      33.279  34.305  29.171  1.00  0.00     0.338 C 
ATOM     16  O   UNL A   1      32.816  34.479  28.061  1.00  0.00    -0.246 OA
BRANCH  15  17
ATOM     17  C   UNL A   1      34.625  33.741  29.411  1.00  0.00     0.060 A 
ATOM     18  C   UNL A   1      34.729  32.649  30.281  1.00  0.00     0.016 A 
ATOM     19  C   UNL A   1      35.765  34.254  28.783  1.00  0.00     0.016 A 
ATOM     20  C   UNL A   1      35.974  32.072  30.533  1.00  0.00     0.010 A 
ATOM     21  C   UNL A   1      37.012  33.680  29.044  1.00  0.00     0.010 A 
ATOM     22  C   UNL A   1      37.125  32.594  29.929  1.00  0.00    -0.014 A 
BRANCH  22  23
ATOM     23  C   UNL A   1      38.462  32.054  30.272  1.00  0.00     0.031 A 
ATOM     24  C   UNL A   1      38.889  30.727  29.713  1.00  0.00     0.074 A 
ATOM     25  C   UNL A   1      39.280  32.731  31.098  1.00  0.00     0.049 A 
ATOM     26  N   UNL A   1      39.996  30.061  29.926  1.00  0.00    -0.248 NA
ATOM     27  C   UNL A   1      37.949  30.063  28.797  1.00  0.00     0.031 C 
ATOM     28  C   UNL A   1      38.996  34.036  31.693  1.00  0.00     0.029 A 
ATOM     29  N   UNL A   1      40.518  32.399  31.590  1.00  0.00    -0.354 N 
ATOM     30  C   UNL A   1      39.886  28.900  29.171  1.00  0.00     0.074 A 
ATOM     31  C   UNL A   1      38.599  28.942  28.511  1.00  0.00     0.031 C 
ATOM     32  C   UNL A   1      40.021  34.383  32.491  1.00  0.00     0.029 A 
ATOM     33  C   UNL A   1      41.019  33.314  32.481  1.00  0.00     0.049 A 
ATOM     34  H   UNL A   1      40.999  31.580  31.330  1.00  0.00     0.167 HD
ATOM     35  C   UNL A   1      40.778  27.891  29.038  1.00  0.00     0.031 A 
ATOM     36  C   UNL A   1      42.140  33.281  33.227  1.00  0.00     0.031 A 
ATOM     37  C   UNL A   1      42.054  27.835  29.697  1.00  0.00     0.049 A 
ATOM     38  C   UNL A   1      43.071  32.102  33.126  1.00  0.00     0.074 A 
ATOM     39  C   UNL A   1      43.045  26.876  29.573  1.00  0.00     0.029 A 
ATOM     40  N   UNL A   1      42.506  28.763  30.619  1.00  0.00    -0.354 N 
ATOM     41  N   UNL A   1      42.990  31.049  32.351  1.00  0.00    -0.248 NA
ATOM     42  C   UNL A   1      44.248  32.109  34.009  1.00  0.00     0.031 C 
ATOM     43  C   UNL A   1      44.073  27.192  30.466  1.00  0.00     0.029 A 
ATOM     44  C   UNL A   1      43.742  28.373  31.109  1.00  0.00     0.049 A 
ATOM     45  H   UNL A   1      42.023  29.578  30.886  1.00  0.00     0.167 HD
ATOM     46  C   UNL A   1      44.112  30.280  32.639  1.00  0.00     0.074 A 
ATOM     47  C   UNL A   1      44.866  30.993  33.647  1.00  0.00     0.031 C 
ATOM     48  C   UNL A   1      44.481  29.087  32.116  1.00  0.00     0.031 A 
BRANCH  35  49
ATOM     49  C   UNL A   1      40.397  26.739  28.157  1.00  0.00    -0.014 A 
ATOM     50  C   UNL A   1      39.543  25.727  28.619  1.00  0.00     0.009 A 
ATOM     51  C   UNL A   1      40.841  26.708  26.827  1.00  0.00     0.009 A 
ATOM     52  C   UNL A   1      39.153  24.694  27.765  1.00  0.00     0.001 A 
ATOM     53  C   UNL A   1      40.435  25.683  25.971  1.00  0.00     0.001 A 
ATOM     54  C   UNL A   1      39.594  24.675  26.442  1.00  0.00     0.000 A 
ENDBRANCH  35  49
BRANCH  36  55
ATOM     55  C   UNL A   1      42.437  34.378  34.184  1.00  0.00    -0.014 A 
ATOM     56  C   UNL A   1      41.857  34.392  35.461  1.00  0.00     0.009 A 
ATOM     57  C   UNL A   1      43.259  35.448  33.798  1.00  0.00     0.009 A 
ATOM     58  C   UNL A   1      42.069  35.473  36.320  1.00  0.00     0.001 A 
ATOM     59  C   UNL A   1      43.489  36.516  34.668  1.00  0.00     0.001 A 
ATOM     60  C   UNL A   1      42.884  36.532  35.923  1.00  0.00     0.000 A 
ENDBRANCH  36  55
BRANCH  48  61
ATOM     61  C   UNL A   1      45.763  28.480  32.609  1.00  0.00    -0.014 A 
ATOM     62  C   UNL A   1      45.768  27.579  33.685  1.00  0.00     0.009 A 
ATOM     63  C   UNL A   1      46.972  28.773  31.958  1.00  0.00     0.009 A 
ATOM     64  C   UNL A   1      46.963  26.998  34.112  1.00  0.00     0.001 A 
ATOM     65  C   UNL A   1      48.162  28.172  32.374  1.00  0.00     0.001 A 
ATOM     66  C   UNL A   1      48.158  27.291  33.454  1.00  0.00     0.000 A 
ENDBRANCH  48  61
ENDBRANCH  22  23
ENDBRANCH  15  17
ENDBRANCH  14  15
ENDBRANCH   1  14
TORSDOF 12
ENDMDL
MODEL 3
REMARK VINA RESULT:      -9.4      5.703     11.138
REMARK SMILES O=C(Cc1cccnc1Cl)OCCOC(=O)c1ccc(-c2c3nc(c(-c4ccccc4)c4ccc([nH]4)c(-c4ccccc4)c4nc(c(-c5ccccc5)c5ccc2[nH]5)C=C4)C=C3)cc1
REMARK SMILES IDX 13 1 12 2 11 3 2 4 1 5 3 6 4 7 5 8 9 9 6 10 8 11 10 12 7 13
REMARK SMILES IDX 14 14 15 15 16 16 17 17 18 18 64 19 19 20 63 21 20 22 21 23
REMARK SMILES IDX 22 24 57 25 23 26 62 27 56 28 58 29 24 30 61 31 55 32 54 33
REMARK SMILES IDX 25 35 47 36 32 37 46 38 33 39 36 40 45 41 59 42 34 43 35 44
REMARK SMILES IDX 44 46 60 47 37 48 26 49 27 50 31 51 28 52 30 53 29 54 48 55
REMARK SMILES IDX 49 56 53 57 50 58 52 59 51 60 38 61 39 62 43 63 40 64 42 65
REMARK SMILES IDX 41 66
REMARK H PARENT 58 34 36 45
REMARK Flexibility Score: inf
ROOT
ATOM      1  C   UNL A   1      32.924  36.287  31.211  1.00  0.00     0.275 C 
ENDROOT
BRANCH   1   2
ATOM      2  C   UNL A   1      33.938  36.520  32.333  1.00  0.00     0.274 C 
BRANCH   2   3
ATOM      3  O   UNL A   1      34.246  35.314  33.059  1.00  0.00    -0.462 OA
BRANCH   3   4
ATOM      4  C   UNL A   1      35.505  34.972  33.433  1.00  0.00     0.310 C 
ATOM      5  O   UNL A   1      36.459  35.276  32.717  1.00  0.00    -0.252 OA
BRANCH   4   6
ATOM      6  C   UNL A   1      35.683  34.075  34.642  1.00  0.00     0.161 C 
BRANCH   6   7
ATOM      7  C   UNL A   1      36.854  33.131  34.539  1.00  0.00     0.001 A 
ATOM      8  C   UNL A   1      36.711  31.915  33.858  1.00  0.00     0.009 A 
ATOM      9  C   UNL A   1      38.104  33.391  35.094  1.00  0.00     0.132 A 
ATOM     10  C   UNL A   1      37.782  31.031  33.776  1.00  0.00     0.020 A 
ATOM     11  N   UNL A   1      39.161  32.551  35.032  1.00  0.00    -0.244 NA
ATOM     12  Cl  UNL A   1      38.470  34.821  35.978  1.00  0.00    -0.062 Cl
ATOM     13  C   UNL A   1      38.976  31.390  34.375  1.00  0.00     0.113 A 
ENDBRANCH   6   7
ENDBRANCH   4   6
ENDBRANCH   3   4
ENDBRANCH   2   3
ENDBRANCH   1   2
BRANCH   1  14
ATOM     14  O   UNL A   1      32.847  34.895  30.866  1.00  0.00    -0.458 OA
BRANCH  14  15
ATOM     15  C   UNL A   1      33.313  34.592  29.625  1.00  0.00     0.338 C 
ATOM     16  O   UNL A   1      32.827  34.918  28.560  1.00  0.00    -0.246 OA
BRANCH  15  17
ATOM     17  C   UNL A   1      34.631  33.934  29.749  1.00  0.00     0.060 A 
ATOM     18  C   UNL A   1      34.755  32.891  30.675  1.00  0.00     0.016 A 
ATOM     19  C   UNL A   1      35.724  34.314  28.964  1.00  0.00     0.016 A 
ATOM     20  C   UNL A   1      35.974  32.230  30.824  1.00  0.00     0.010 A 
ATOM     21  C   UNL A   1      36.948  33.656  29.121  1.00  0.00     0.010 A 
ATOM     22  C   UNL A   1      37.082  32.619  30.060  1.00  0.00    -0.014 A 
BRANCH  22  23
ATOM     23  C   UNL A   1      38.406  31.992  30.286  1.00  0.00     0.031 A 
ATOM     24  C   UNL A   1      39.462  32.746  31.043  1.00  0.00     0.074 A 
ATOM     25  C   UNL A   1      38.673  30.767  29.797  1.00  0.00     0.049 A 
ATOM     26  N   UNL A   1      40.695  32.394  31.307  1.00  0.00    -0.248 NA
ATOM     27  C   UNL A   1      39.083  34.067  31.567  1.00  0.00     0.031 C 
ATOM     28  C   UNL A   1      37.732  29.922  29.064  1.00  0.00     0.029 A 
ATOM     29  N   UNL A   1      39.830  30.030  29.835  1.00  0.00    -0.354 N 
ATOM     30  C   UNL A   1      41.239  33.449  32.029  1.00  0.00     0.074 A 
ATOM     31  C   UNL A   1      40.211  34.461  32.144  1.00  0.00     0.031 C 
ATOM     32  C   UNL A   1      38.358  28.789  28.699  1.00  0.00     0.029 A 
ATOM     33  C   UNL A   1      39.748  28.842  29.151  1.00  0.00     0.049 A 
ATOM     34  H   UNL A   1      40.643  30.326  30.306  1.00  0.00     0.167 HD
ATOM     35  C   UNL A   1      42.482  33.564  32.551  1.00  0.00     0.031 A 
ATOM     36  C   UNL A   1      40.692  27.918  28.894  1.00  0.00     0.031 A 
ATOM     37  C   UNL A   1      43.514  32.570  32.433  1.00  0.00     0.049 A 
ATOM     38  C   UNL A   1      42.093  28.115  29.411  1.00  0.00     0.074 A 
ATOM     39  C   UNL A   1      44.785  32.580  32.983  1.00  0.00     0.029 A 
ATOM     40  N   UNL A   1      43.401  31.400  31.702  1.00  0.00    -0.354 N 
ATOM     41  N   UNL A   1      42.571  29.081  30.156  1.00  0.00    -0.248 NA
ATOM     42  C   UNL A   1      43.084  27.091  29.046  1.00  0.00     0.031 C 
ATOM     43  C   UNL A   1      45.463  31.443  32.533  1.00  0.00     0.029 A 
ATOM     44  C   UNL A   1      44.598  30.704  31.744  1.00  0.00     0.049 A 
ATOM     45  H   UNL A   1      42.592  31.107  31.223  1.00  0.00     0.167 HD
ATOM     46  C   UNL A   1      43.910  28.772  30.363  1.00  0.00     0.074 A 
ATOM     47  C   UNL A   1      44.166  27.522  29.680  1.00  0.00     0.031 C 
ATOM     48  C   UNL A   1      44.844  29.464  31.057  1.00  0.00     0.031 A 
BRANCH  35  49
ATOM     49  C   UNL A   1      42.813  34.828  33.286  1.00  0.00    -0.014 A 
ATOM     50  C   UNL A   1      42.631  34.927  34.673  1.00  0.00     0.009 A 
ATOM     51  C   UNL A   1      43.383  35.905  32.591  1.00  0.00     0.009 A 
ATOM     52  C   UNL A   1      42.999  36.092  35.349  1.00  0.00     0.001 A 
ATOM     53  C   UNL A   1      43.767  37.060  33.272  1.00  0.00     0.001 A 
ATOM     54  C   UNL A   1      43.572  37.155  34.649  1.00  0.00     0.000 A 
ENDBRANCH  35  49
BRANCH  36  55
ATOM     55  C   UNL A   1      40.372  26.731  28.060  1.00  0.00    -0.014 A 
ATOM     56  C   UNL A   1      40.773  26.668  26.718  1.00  0.00     0.009 A 
ATOM     57  C   UNL A   1      39.610  25.679  28.593  1.00  0.00     0.009 A 
ATOM     58  C   UNL A   1      40.388  25.590  25.917  1.00  0.00     0.001 A 
ATOM     59  C   UNL A   1      39.248  24.591  27.797  1.00  0.00     0.001 A 
ATOM     60  C   UNL A   1      39.628  24.553  26.457  1.00  0.00     0.000 A 
ENDBRANCH  36  55
BRANCH  48  61
ATOM     61  C   UNL A   1      46.227  28.884  31.126  1.00  0.00    -0.014 A 
ATOM     62  C   UNL A   1      46.575  27.967  32.129  1.00  0.00     0.009 A 
ATOM     63  C   UNL A   1      47.177  29.218  30.148  1.00  0.00     0.009 A 
ATOM     64  C   UNL A   1      47.856  27.411  32.163  1.00  0.00     0.001 A 
ATOM     65  C   UNL A   1      48.449  28.643  30.170  1.00  0.00     0.001 A 
ATOM     66  C   UNL A   1      48.789  27.745  31.182  1.00  0.00     0.000 A 
ENDBRANCH  48  61
ENDBRANCH  22  23
ENDBRANCH  15  17
ENDBRANCH  14  15
ENDBRANCH   1  14
TORSDOF 12
ENDMDL
