MODEL 1
REMARK VINA RESULT:     -10.4      0.000      0.000
REMARK SMILES COc1cccc(CC(=O)N[C@@](C)(C(=O)OCCOC(=O)c2ccc(-c3c4nc(c(-c5ccccc5)c5ccc([nH]5)c(-c5ccccc5)c5nc(c(-c6ccccc6)c6ccc3[nH]6)C=C5)C=C4)cc2)C(F)(F)F)c1
REMARK SMILES IDX 17 1 16 2 14 3 15 4 12 5 13 6 11 7 9 8 10 9 8 11 7 12 3 13
REMARK SMILES IDX 4 14 74 15 5 16 6 17 2 18 1 19 70 20 71 21 72 22 73 23 18 24
REMARK SMILES IDX 19 25 20 26 21 27 22 28 23 29 69 30 24 31 68 32 25 33 26 34
REMARK SMILES IDX 27 35 62 36 28 37 67 38 61 39 63 40 29 41 66 42 60 43 59 44
REMARK SMILES IDX 30 46 52 47 37 48 51 49 38 50 41 51 50 52 64 53 39 54 40 55
REMARK SMILES IDX 49 57 65 58 42 59 31 60 32 61 36 62 33 63 35 64 34 65 53 66
REMARK SMILES IDX 54 67 58 68 55 69 57 70 56 71 43 72 44 73 48 74 45 75 47 76
REMARK SMILES IDX 46 77
REMARK H PARENT 11 10 63 45 41 56
REMARK Flexibility Score: inf
ROOT
ATOM      1  C   UNL A   1      31.168  29.070  24.250  1.00  0.00     0.274 C 
ENDROOT
BRANCH   1   2
ATOM      2  O   UNL A   1      30.929  27.650  24.367  1.00  0.00    -0.460 OA
BRANCH   2   3
ATOM      3  C   UNL A   1      31.779  26.854  23.649  1.00  0.00     0.341 C 
ATOM      4  O   UNL A   1      31.891  26.916  22.432  1.00  0.00    -0.249 OA
BRANCH   3   5
ATOM      5  C   UNL A   1      32.393  25.751  24.519  1.00  0.00     0.231 C 
ATOM      6  C   UNL A   1      32.866  24.653  23.540  1.00  0.00     0.058 C 
BRANCH   5   7
ATOM      7  N   UNL A   1      31.367  25.075  25.398  1.00  0.00    -0.333 N 
ATOM      8  C   UNL A   1      31.341  24.198  26.432  1.00  0.00     0.225 C 
ATOM      9  O   UNL A   1      30.219  23.953  26.891  1.00  0.00    -0.275 OA
ATOM     10  H   UNL A   1      30.455  25.348  25.147  1.00  0.00     0.164 HD
BRANCH   8  11
ATOM     11  C   UNL A   1      32.559  23.538  27.042  1.00  0.00     0.135 C 
BRANCH  11  12
ATOM     12  C   UNL A   1      33.168  22.408  26.249  1.00  0.00    -0.035 A 
ATOM     13  C   UNL A   1      32.856  20.224  25.211  1.00  0.00     0.119 A 
ATOM     14  C   UNL A   1      34.228  20.147  24.981  1.00  0.00     0.046 A 
ATOM     15  C   UNL A   1      32.328  21.381  25.780  1.00  0.00     0.050 A 
ATOM     16  C   UNL A   1      35.065  21.204  25.346  1.00  0.00     0.004 A 
ATOM     17  C   UNL A   1      34.539  22.332  25.979  1.00  0.00     0.004 A 
BRANCH  13  18
ATOM     18  O   UNL A   1      32.129  19.118  24.865  1.00  0.00    -0.497 OA
ATOM     19  C   UNL A   1      32.721  17.861  25.189  1.00  0.00     0.278 C 
ENDBRANCH  13  18
ENDBRANCH  11  12
ENDBRANCH   8  11
ENDBRANCH   5   7
BRANCH   5  20
ATOM     20  C   UNL A   1      33.654  26.357  25.145  1.00  0.00     0.422 C 
ATOM     21  F   UNL A   1      33.477  26.667  26.447  1.00  0.00    -0.168 F 
ATOM     22  F   UNL A   1      34.695  25.504  25.042  1.00  0.00    -0.168 F 
ATOM     23  F   UNL A   1      34.054  27.490  24.521  1.00  0.00    -0.168 F 
ENDBRANCH   5  20
ENDBRANCH   3   5
ENDBRANCH   2   3
ENDBRANCH   1   2
BRANCH   1  24
ATOM     24  C   UNL A   1      31.404  29.711  25.612  1.00  0.00     0.275 C 
BRANCH  24  25
ATOM     25  O   UNL A   1      32.794  30.054  25.754  1.00  0.00    -0.458 OA
BRANCH  25  26
ATOM     26  C   UNL A   1      33.073  30.946  26.721  1.00  0.00     0.338 C 
ATOM     27  O   UNL A   1      32.353  31.843  27.147  1.00  0.00    -0.246 OA
BRANCH  26  28
ATOM     28  C   UNL A   1      34.417  30.700  27.261  1.00  0.00     0.060 A 
ATOM     29  C   UNL A   1      34.870  29.391  27.420  1.00  0.00     0.016 A 
ATOM     30  C   UNL A   1      35.174  31.767  27.744  1.00  0.00     0.016 A 
ATOM     31  C   UNL A   1      36.032  29.143  28.150  1.00  0.00     0.010 A 
ATOM     32  C   UNL A   1      36.384  31.517  28.399  1.00  0.00     0.010 A 
ATOM     33  C   UNL A   1      36.804  30.200  28.655  1.00  0.00    -0.014 A 
BRANCH  33  34
ATOM     34  C   UNL A   1      38.004  29.932  29.502  1.00  0.00     0.031 A 
ATOM     35  C   UNL A   1      39.188  29.192  28.928  1.00  0.00     0.074 A 
ATOM     36  C   UNL A   1      38.064  30.365  30.777  1.00  0.00     0.049 A 
ATOM     37  N   UNL A   1      40.234  28.701  29.546  1.00  0.00    -0.248 NA
ATOM     38  C   UNL A   1      39.190  28.960  27.474  1.00  0.00     0.031 C 
ATOM     39  C   UNL A   1      37.028  31.134  31.469  1.00  0.00     0.029 A 
ATOM     40  N   UNL A   1      39.056  30.227  31.718  1.00  0.00    -0.354 N 
ATOM     41  C   UNL A   1      40.977  28.042  28.573  1.00  0.00     0.074 A 
ATOM     42  C   UNL A   1      40.271  28.207  27.320  1.00  0.00     0.031 C 
ATOM     43  C   UNL A   1      37.461  31.447  32.701  1.00  0.00     0.029 A 
ATOM     44  C   UNL A   1      38.764  30.827  32.918  1.00  0.00     0.049 A 
ATOM     45  H   UNL A   1      39.896  29.744  31.547  1.00  0.00     0.167 HD
ATOM     46  C   UNL A   1      42.136  27.354  28.708  1.00  0.00     0.031 A 
ATOM     47  C   UNL A   1      39.443  30.848  34.081  1.00  0.00     0.031 A 
ATOM     48  C   UNL A   1      42.881  27.238  29.932  1.00  0.00     0.049 A 
ATOM     49  C   UNL A   1      40.729  30.084  34.206  1.00  0.00     0.074 A 
ATOM     50  C   UNL A   1      44.066  26.557  30.160  1.00  0.00     0.029 A 
ATOM     51  N   UNL A   1      42.534  27.845  31.126  1.00  0.00    -0.354 N 
ATOM     52  N   UNL A   1      41.366  29.385  33.299  1.00  0.00    -0.248 NA
ATOM     53  C   UNL A   1      41.373  30.087  35.528  1.00  0.00     0.031 C 
ATOM     54  C   UNL A   1      44.424  26.734  31.502  1.00  0.00     0.029 A 
ATOM     55  C   UNL A   1      43.478  27.552  32.096  1.00  0.00     0.049 A 
ATOM     56  H   UNL A   1      41.734  28.403  31.266  1.00  0.00     0.167 HD
ATOM     57  C   UNL A   1      42.480  28.861  33.942  1.00  0.00     0.074 A 
ATOM     58  C   UNL A   1      42.450  29.347  35.305  1.00  0.00     0.031 C 
ATOM     59  C   UNL A   1      43.432  28.035  33.449  1.00  0.00     0.031 A 
BRANCH  46  60
ATOM     60  C   UNL A   1      42.656  26.626  27.502  1.00  0.00    -0.014 A 
ATOM     61  C   UNL A   1      43.573  27.221  26.624  1.00  0.00     0.009 A 
ATOM     62  C   UNL A   1      42.256  25.299  27.278  1.00  0.00     0.009 A 
ATOM     63  C   UNL A   1      44.063  26.505  25.530  1.00  0.00     0.001 A 
ATOM     64  C   UNL A   1      42.765  24.578  26.196  1.00  0.00     0.001 A 
ATOM     65  C   UNL A   1      43.663  25.184  25.320  1.00  0.00     0.000 A 
ENDBRANCH  46  60
BRANCH  47  66
ATOM     66  C   UNL A   1      38.890  31.579  35.249  1.00  0.00    -0.014 A 
ATOM     67  C   UNL A   1      38.189  30.892  36.250  1.00  0.00     0.009 A 
ATOM     68  C   UNL A   1      39.053  32.968  35.361  1.00  0.00     0.009 A 
ATOM     69  C   UNL A   1      37.651  31.585  37.336  1.00  0.00     0.001 A 
ATOM     70  C   UNL A   1      38.538  33.654  36.461  1.00  0.00     0.001 A 
ATOM     71  C   UNL A   1      37.830  32.963  37.444  1.00  0.00     0.000 A 
ENDBRANCH  47  66
BRANCH  59  72
ATOM     72  C   UNL A   1      44.521  27.611  34.390  1.00  0.00    -0.014 A 
ATOM     73  C   UNL A   1      45.682  28.386  34.538  1.00  0.00     0.009 A 
ATOM     74  C   UNL A   1      44.375  26.445  35.153  1.00  0.00     0.009 A 
ATOM     75  C   UNL A   1      46.690  27.982  35.414  1.00  0.00     0.001 A 
ATOM     76  C   UNL A   1      45.378  26.053  36.041  1.00  0.00     0.001 A 
ATOM     77  C   UNL A   1      46.537  26.817  36.166  1.00  0.00     0.000 A 
ENDBRANCH  59  72
ENDBRANCH  33  34
ENDBRANCH  26  28
ENDBRANCH  25  26
ENDBRANCH  24  25
ENDBRANCH   1  24
TORSDOF 16
ENDMDL
MODEL 2
REMARK VINA RESULT:     -10.2      3.613      8.669
REMARK SMILES COc1cccc(CC(=O)N[C@@](C)(C(=O)OCCOC(=O)c2ccc(-c3c4nc(c(-c5ccccc5)c5ccc([nH]5)c(-c5ccccc5)c5nc(c(-c6ccccc6)c6ccc3[nH]6)C=C5)C=C4)cc2)C(F)(F)F)c1
REMARK SMILES IDX 17 1 16 2 14 3 15 4 12 5 13 6 11 7 9 8 10 9 8 11 7 12 3 13
REMARK SMILES IDX 4 14 74 15 5 16 6 17 2 18 1 19 70 20 71 21 72 22 73 23 18 24
REMARK SMILES IDX 19 25 20 26 21 27 22 28 23 29 69 30 24 31 68 32 25 33 26 34
REMARK SMILES IDX 27 35 62 36 28 37 67 38 61 39 63 40 29 41 66 42 60 43 59 44
REMARK SMILES IDX 30 46 52 47 37 48 51 49 38 50 41 51 50 52 64 53 39 54 40 55
REMARK SMILES IDX 49 57 65 58 42 59 31 60 32 61 36 62 33 63 35 64 34 65 53 66
REMARK SMILES IDX 54 67 58 68 55 69 57 70 56 71 43 72 44 73 48 74 45 75 47 76
REMARK SMILES IDX 46 77
REMARK H PARENT 11 10 63 45 41 56
REMARK Flexibility Score: inf
ROOT
ATOM      1  C   UNL A   1      34.614  21.494  25.227  1.00  0.00     0.274 C 
ENDROOT
BRANCH   1   2
ATOM      2  O   UNL A   1      34.101  22.043  23.993  1.00  0.00    -0.460 OA
BRANCH   2   3
ATOM      3  C   UNL A   1      34.406  23.358  23.768  1.00  0.00     0.341 C 
ATOM      4  O   UNL A   1      35.553  23.772  23.662  1.00  0.00    -0.249 OA
BRANCH   3   5
ATOM      5  C   UNL A   1      33.169  24.255  23.887  1.00  0.00     0.231 C 
ATOM      6  C   UNL A   1      33.671  25.699  23.662  1.00  0.00     0.058 C 
BRANCH   5   7
ATOM      7  N   UNL A   1      32.590  24.255  25.281  1.00  0.00    -0.333 N 
ATOM      8  C   UNL A   1      31.443  24.628  25.901  1.00  0.00     0.225 C 
ATOM      9  O   UNL A   1      31.390  24.382  27.112  1.00  0.00    -0.275 OA
ATOM     10  H   UNL A   1      33.229  23.876  25.927  1.00  0.00     0.164 HD
BRANCH   8  11
ATOM     11  C   UNL A   1      30.264  25.290  25.220  1.00  0.00     0.135 C 
BRANCH  11  12
ATOM     12  C   UNL A   1      30.457  26.729  24.811  1.00  0.00    -0.035 A 
ATOM     13  C   UNL A   1      30.129  28.442  23.107  1.00  0.00     0.119 A 
ATOM     14  C   UNL A   1      30.945  29.308  23.833  1.00  0.00     0.046 A 
ATOM     15  C   UNL A   1      29.836  27.186  23.633  1.00  0.00     0.050 A 
ATOM     16  C   UNL A   1      31.485  28.908  25.056  1.00  0.00     0.004 A 
ATOM     17  C   UNL A   1      31.244  27.622  25.546  1.00  0.00     0.004 A 
BRANCH  13  18
ATOM     18  O   UNL A   1      29.690  28.907  21.897  1.00  0.00    -0.497 OA
ATOM     19  C   UNL A   1      29.136  30.221  21.903  1.00  0.00     0.278 C 
ENDBRANCH  13  18
ENDBRANCH  11  12
ENDBRANCH   8  11
ENDBRANCH   5   7
BRANCH   5  20
ATOM     20  C   UNL A   1      32.278  23.907  22.689  1.00  0.00     0.422 C 
ATOM     21  F   UNL A   1      32.986  23.403  21.657  1.00  0.00    -0.168 F 
ATOM     22  F   UNL A   1      31.332  23.010  23.043  1.00  0.00    -0.168 F 
ATOM     23  F   UNL A   1      31.599  24.978  22.215  1.00  0.00    -0.168 F 
ENDBRANCH   5  20
ENDBRANCH   3   5
ENDBRANCH   2   3
ENDBRANCH   1   2
BRANCH   1  24
ATOM     24  C   UNL A   1      35.942  20.779  25.012  1.00  0.00     0.275 C 
BRANCH  24  25
ATOM     25  O   UNL A   1      36.862  21.138  26.058  1.00  0.00    -0.458 OA
BRANCH  25  26
ATOM     26  C   UNL A   1      38.155  21.207  25.692  1.00  0.00     0.338 C 
ATOM     27  O   UNL A   1      38.764  20.453  24.940  1.00  0.00    -0.246 OA
BRANCH  26  28
ATOM     28  C   UNL A   1      38.795  22.372  26.317  1.00  0.00     0.060 A 
ATOM     29  C   UNL A   1      38.228  23.637  26.165  1.00  0.00     0.016 A 
ATOM     30  C   UNL A   1      40.037  22.231  26.934  1.00  0.00     0.016 A 
ATOM     31  C   UNL A   1      38.948  24.769  26.542  1.00  0.00     0.010 A 
ATOM     32  C   UNL A   1      40.716  23.364  27.391  1.00  0.00     0.010 A 
ATOM     33  C   UNL A   1      40.205  24.653  27.155  1.00  0.00    -0.014 A 
BRANCH  33  34
ATOM     34  C   UNL A   1      41.009  25.866  27.487  1.00  0.00     0.031 A 
ATOM     35  C   UNL A   1      40.483  26.878  28.477  1.00  0.00     0.074 A 
ATOM     36  C   UNL A   1      42.221  26.068  26.933  1.00  0.00     0.049 A 
ATOM     37  N   UNL A   1      40.936  28.075  28.755  1.00  0.00    -0.248 NA
ATOM     38  C   UNL A   1      39.284  26.501  29.244  1.00  0.00     0.031 C 
ATOM     39  C   UNL A   1      42.894  25.167  25.996  1.00  0.00     0.029 A 
ATOM     40  N   UNL A   1      43.112  27.102  27.095  1.00  0.00    -0.354 N 
ATOM     41  C   UNL A   1      40.041  28.619  29.668  1.00  0.00     0.074 A 
ATOM     42  C   UNL A   1      39.025  27.617  29.911  1.00  0.00     0.031 C 
ATOM     43  C   UNL A   1      44.111  25.657  25.710  1.00  0.00     0.029 A 
ATOM     44  C   UNL A   1      44.269  26.949  26.372  1.00  0.00     0.049 A 
ATOM     45  H   UNL A   1      42.937  27.877  27.675  1.00  0.00     0.167 HD
ATOM     46  C   UNL A   1      40.055  29.844  30.247  1.00  0.00     0.031 A 
ATOM     47  C   UNL A   1      45.328  27.768  26.220  1.00  0.00     0.031 A 
ATOM     48  C   UNL A   1      41.093  30.823  30.066  1.00  0.00     0.049 A 
ATOM     49  C   UNL A   1      45.325  29.118  26.876  1.00  0.00     0.074 A 
ATOM     50  C   UNL A   1      41.186  32.092  30.613  1.00  0.00     0.029 A 
ATOM     51  N   UNL A   1      42.233  30.631  29.307  1.00  0.00    -0.354 N 
ATOM     52  N   UNL A   1      44.421  29.654  27.659  1.00  0.00    -0.248 NA
ATOM     53  C   UNL A   1      46.478  29.989  26.601  1.00  0.00     0.031 C 
ATOM     54  C   UNL A   1      42.376  32.678  30.165  1.00  0.00     0.029 A 
ATOM     55  C   UNL A   1      43.035  31.758  29.367  1.00  0.00     0.049 A 
ATOM     56  H   UNL A   1      42.444  29.813  28.800  1.00  0.00     0.167 HD
ATOM     57  C   UNL A   1      44.892  30.924  27.962  1.00  0.00     0.074 A 
ATOM     58  C   UNL A   1      46.175  31.069  27.307  1.00  0.00     0.031 C 
ATOM     59  C   UNL A   1      44.303  31.892  28.705  1.00  0.00     0.031 A 
BRANCH  46  60
ATOM     60  C   UNL A   1      38.882  30.220  31.105  1.00  0.00    -0.014 A 
ATOM     61  C   UNL A   1      38.889  30.012  32.492  1.00  0.00     0.009 A 
ATOM     62  C   UNL A   1      37.772  30.844  30.513  1.00  0.00     0.009 A 
ATOM     63  C   UNL A   1      37.795  30.404  33.266  1.00  0.00     0.001 A 
ATOM     64  C   UNL A   1      36.690  31.255  31.292  1.00  0.00     0.001 A 
ATOM     65  C   UNL A   1      36.700  31.028  32.668  1.00  0.00     0.000 A 
ENDBRANCH  46  60
BRANCH  47  66
ATOM     66  C   UNL A   1      46.465  27.356  25.359  1.00  0.00    -0.014 A 
ATOM     67  C   UNL A   1      47.394  26.410  25.815  1.00  0.00     0.009 A 
ATOM     68  C   UNL A   1      46.629  27.913  24.081  1.00  0.00     0.009 A 
ATOM     69  C   UNL A   1      48.475  26.040  25.012  1.00  0.00     0.001 A 
ATOM     70  C   UNL A   1      47.695  27.522  23.271  1.00  0.00     0.001 A 
ATOM     71  C   UNL A   1      48.622  26.591  23.739  1.00  0.00     0.000 A 
ENDBRANCH  47  66
BRANCH  59  72
ATOM     72  C   UNL A   1      45.046  33.187  28.849  1.00  0.00    -0.014 A 
ATOM     73  C   UNL A   1      45.923  33.394  29.925  1.00  0.00     0.009 A 
ATOM     74  C   UNL A   1      44.889  34.197  27.890  1.00  0.00     0.009 A 
ATOM     75  C   UNL A   1      46.608  34.603  30.052  1.00  0.00     0.001 A 
ATOM     76  C   UNL A   1      45.588  35.399  28.011  1.00  0.00     0.001 A 
ATOM     77  C   UNL A   1      46.441  35.604  29.094  1.00  0.00     0.000 A 
ENDBRANCH  59  72
ENDBRANCH  33  34
ENDBRANCH  26  28
ENDBRANCH  25  26
ENDBRANCH  24  25
ENDBRANCH   1  24
TORSDOF 16
ENDMDL
MODEL 3
REMARK VINA RESULT:     -10.1      1.757      4.202
REMARK SMILES COc1cccc(CC(=O)N[C@@](C)(C(=O)OCCOC(=O)c2ccc(-c3c4nc(c(-c5ccccc5)c5ccc([nH]5)c(-c5ccccc5)c5nc(c(-c6ccccc6)c6ccc3[nH]6)C=C5)C=C4)cc2)C(F)(F)F)c1
REMARK SMILES IDX 17 1 16 2 14 3 15 4 12 5 13 6 11 7 9 8 10 9 8 11 7 12 3 13
REMARK SMILES IDX 4 14 74 15 5 16 6 17 2 18 1 19 70 20 71 21 72 22 73 23 18 24
REMARK SMILES IDX 19 25 20 26 21 27 22 28 23 29 69 30 24 31 68 32 25 33 26 34
REMARK SMILES IDX 27 35 62 36 28 37 67 38 61 39 63 40 29 41 66 42 60 43 59 44
REMARK SMILES IDX 30 46 52 47 37 48 51 49 38 50 41 51 50 52 64 53 39 54 40 55
REMARK SMILES IDX 49 57 65 58 42 59 31 60 32 61 36 62 33 63 35 64 34 65 53 66
REMARK SMILES IDX 54 67 58 68 55 69 57 70 56 71 43 72 44 73 48 74 45 75 47 76
REMARK SMILES IDX 46 77
REMARK H PARENT 11 10 63 45 41 56
REMARK Flexibility Score: inf
ROOT
ATOM      1  C   UNL A   1      31.473  28.392  26.987  1.00  0.00     0.274 C 
ENDROOT
BRANCH   1   2
ATOM      2  O   UNL A   1      32.242  27.314  26.409  1.00  0.00    -0.460 OA
BRANCH   2   3
ATOM      3  C   UNL A   1      31.528  26.432  25.643  1.00  0.00     0.341 C 
ATOM      4  O   UNL A   1      30.341  26.193  25.826  1.00  0.00    -0.249 OA
BRANCH   3   5
ATOM      5  C   UNL A   1      32.435  25.639  24.697  1.00  0.00     0.231 C 
ATOM      6  C   UNL A   1      33.815  26.332  24.752  1.00  0.00     0.058 C 
BRANCH   5   7
ATOM      7  N   UNL A   1      32.000  25.749  23.255  1.00  0.00    -0.333 N 
ATOM      8  C   UNL A   1      31.635  26.718  22.380  1.00  0.00     0.225 C 
ATOM      9  O   UNL A   1      31.395  26.331  21.230  1.00  0.00    -0.275 OA
ATOM     10  H   UNL A   1      31.972  24.863  22.828  1.00  0.00     0.164 HD
BRANCH   8  11
ATOM     11  C   UNL A   1      31.522  28.190  22.711  1.00  0.00     0.135 C 
BRANCH  11  12
ATOM     12  C   UNL A   1      30.137  28.784  22.633  1.00  0.00    -0.035 A 
ATOM     13  C   UNL A   1      28.764  30.737  22.139  1.00  0.00     0.119 A 
ATOM     14  C   UNL A   1      27.653  30.076  22.660  1.00  0.00     0.046 A 
ATOM     15  C   UNL A   1      29.981  30.063  22.067  1.00  0.00     0.050 A 
ATOM     16  C   UNL A   1      27.768  28.767  23.132  1.00  0.00     0.004 A 
ATOM     17  C   UNL A   1      29.005  28.120  23.120  1.00  0.00     0.004 A 
BRANCH  13  18
ATOM     18  O   UNL A   1      28.561  32.033  21.751  1.00  0.00    -0.497 OA
ATOM     19  C   UNL A   1      28.777  33.022  22.757  1.00  0.00     0.278 C 
ENDBRANCH  13  18
ENDBRANCH  11  12
ENDBRANCH   8  11
ENDBRANCH   5   7
BRANCH   5  20
ATOM     20  C   UNL A   1      32.610  24.257  25.338  1.00  0.00     0.422 C 
ATOM     21  F   UNL A   1      31.464  23.544  25.329  1.00  0.00    -0.168 F 
ATOM     22  F   UNL A   1      33.564  23.550  24.694  1.00  0.00    -0.168 F 
ATOM     23  F   UNL A   1      33.021  24.327  26.626  1.00  0.00    -0.168 F 
ENDBRANCH   5  20
ENDBRANCH   3   5
ENDBRANCH   2   3
ENDBRANCH   1   2
BRANCH   1  24
ATOM     24  C   UNL A   1      31.467  29.621  26.086  1.00  0.00     0.275 C 
BRANCH  24  25
ATOM     25  O   UNL A   1      32.803  30.143  25.969  1.00  0.00    -0.458 OA
BRANCH  25  26
ATOM     26  C   UNL A   1      33.137  31.081  26.872  1.00  0.00     0.338 C 
ATOM     27  O   UNL A   1      32.463  32.032  27.252  1.00  0.00    -0.246 OA
BRANCH  26  28
ATOM     28  C   UNL A   1      34.480  30.814  27.404  1.00  0.00     0.060 A 
ATOM     29  C   UNL A   1      34.904  29.498  27.583  1.00  0.00     0.016 A 
ATOM     30  C   UNL A   1      35.266  31.871  27.860  1.00  0.00     0.016 A 
ATOM     31  C   UNL A   1      36.067  29.236  28.306  1.00  0.00     0.010 A 
ATOM     32  C   UNL A   1      36.476  31.605  28.508  1.00  0.00     0.010 A 
ATOM     33  C   UNL A   1      36.869  30.283  28.785  1.00  0.00    -0.014 A 
BRANCH  33  34
ATOM     34  C   UNL A   1      38.070  30.003  29.625  1.00  0.00     0.031 A 
ATOM     35  C   UNL A   1      39.225  29.213  29.058  1.00  0.00     0.074 A 
ATOM     36  C   UNL A   1      38.158  30.467  30.887  1.00  0.00     0.049 A 
ATOM     37  N   UNL A   1      40.264  28.708  29.677  1.00  0.00    -0.248 NA
ATOM     38  C   UNL A   1      39.203  28.942  27.611  1.00  0.00     0.031 C 
ATOM     39  C   UNL A   1      37.154  31.285  31.569  1.00  0.00     0.029 A 
ATOM     40  N   UNL A   1      39.157  30.326  31.820  1.00  0.00    -0.354 N 
ATOM     41  C   UNL A   1      40.975  28.002  28.714  1.00  0.00     0.074 A 
ATOM     42  C   UNL A   1      40.260  28.155  27.465  1.00  0.00     0.031 C 
ATOM     43  C   UNL A   1      37.610  31.619  32.787  1.00  0.00     0.029 A 
ATOM     44  C   UNL A   1      38.897  30.966  33.007  1.00  0.00     0.049 A 
ATOM     45  H   UNL A   1      39.981  29.814  31.653  1.00  0.00     0.167 HD
ATOM     46  C   UNL A   1      42.115  27.284  28.855  1.00  0.00     0.031 A 
ATOM     47  C   UNL A   1      39.590  30.998  34.161  1.00  0.00     0.031 A 
ATOM     48  C   UNL A   1      42.872  27.179  30.073  1.00  0.00     0.049 A 
ATOM     49  C   UNL A   1      40.855  30.200  34.293  1.00  0.00     0.074 A 
ATOM     50  C   UNL A   1      44.039  26.470  30.306  1.00  0.00     0.029 A 
ATOM     51  N   UNL A   1      42.557  27.827  31.254  1.00  0.00    -0.354 N 
ATOM     52  N   UNL A   1      41.460  29.458  33.398  1.00  0.00    -0.248 NA
ATOM     53  C   UNL A   1      41.515  30.220  35.606  1.00  0.00     0.031 C 
ATOM     54  C   UNL A   1      44.417  26.672  31.639  1.00  0.00     0.029 A 
ATOM     55  C   UNL A   1      43.503  27.533  32.221  1.00  0.00     0.049 A 
ATOM     56  H   UNL A   1      41.775  28.412  31.387  1.00  0.00     0.167 HD
ATOM     57  C   UNL A   1      42.565  28.919  34.042  1.00  0.00     0.074 A 
ATOM     58  C   UNL A   1      42.567  29.442  35.392  1.00  0.00     0.031 C 
ATOM     59  C   UNL A   1      43.488  28.052  33.560  1.00  0.00     0.031 A 
BRANCH  46  60
ATOM     60  C   UNL A   1      42.599  26.509  27.663  1.00  0.00    -0.014 A 
ATOM     61  C   UNL A   1      42.234  25.171  27.459  1.00  0.00     0.009 A 
ATOM     62  C   UNL A   1      43.392  27.156  26.701  1.00  0.00     0.009 A 
ATOM     63  C   UNL A   1      42.672  24.489  26.322  1.00  0.00     0.001 A 
ATOM     64  C   UNL A   1      43.811  26.479  25.555  1.00  0.00     0.001 A 
ATOM     65  C   UNL A   1      43.455  25.144  25.370  1.00  0.00     0.000 A 
ENDBRANCH  46  60
BRANCH  47  66
ATOM     66  C   UNL A   1      39.072  31.776  35.315  1.00  0.00    -0.014 A 
ATOM     67  C   UNL A   1      39.400  33.130  35.463  1.00  0.00     0.009 A 
ATOM     68  C   UNL A   1      38.253  31.163  36.276  1.00  0.00     0.009 A 
ATOM     69  C   UNL A   1      38.929  33.854  36.560  1.00  0.00     0.001 A 
ATOM     70  C   UNL A   1      37.762  31.895  37.357  1.00  0.00     0.001 A 
ATOM     71  C   UNL A   1      38.106  33.238  37.503  1.00  0.00     0.000 A 
ENDBRANCH  47  66
BRANCH  59  72
ATOM     72  C   UNL A   1      44.575  27.623  34.501  1.00  0.00    -0.014 A 
ATOM     73  C   UNL A   1      45.763  28.361  34.608  1.00  0.00     0.009 A 
ATOM     74  C   UNL A   1      44.401  26.486  35.303  1.00  0.00     0.009 A 
ATOM     75  C   UNL A   1      46.769  27.952  35.484  1.00  0.00     0.001 A 
ATOM     76  C   UNL A   1      45.402  26.089  36.190  1.00  0.00     0.001 A 
ATOM     77  C   UNL A   1      46.588  26.817  36.275  1.00  0.00     0.000 A 
ENDBRANCH  59  72
ENDBRANCH  33  34
ENDBRANCH  26  28
ENDBRANCH  25  26
ENDBRANCH  24  25
ENDBRANCH   1  24
TORSDOF 16
ENDMDL
