MODEL 1
REMARK VINA RESULT:     -11.8      0.000      0.000
REMARK SMILES COc1cccc(-c2cc(OCC(=O)OCCOC(=O)c3ccc(-c4c5nc(c(-c6ccccc6)c6ccc([nH]6)c(-c6ccccc6)c6nc(c(-c7ccccc7)c7ccc4[nH]7)C=C6)C=C5)cc3)nc(Nc3ccccc3Br)n2)c1
REMARK SMILES IDX 16 1 15 2 13 3 14 4 12 5 11 6 10 7 8 8 9 9 79 10 70 11 69 12
REMARK SMILES IDX 7 13 3 14 4 15 80 16 5 17 6 18 2 19 1 20 71 21 72 23 73 24
REMARK SMILES IDX 77 25 74 26 76 27 78 28 75 29 17 30 18 31 19 32 20 33 21 34
REMARK SMILES IDX 22 35 68 36 23 37 67 38 24 39 25 40 26 41 61 42 27 43 66 44
REMARK SMILES IDX 60 45 62 46 28 47 65 48 59 49 58 50 29 52 51 53 36 54 50 55
REMARK SMILES IDX 37 56 40 57 49 58 63 59 38 60 39 61 48 63 64 64 41 65 30 66
REMARK SMILES IDX 31 67 35 68 32 69 34 70 33 71 52 72 53 73 57 74 54 75 56 76
REMARK SMILES IDX 55 77 42 78 43 79 47 80 44 81 46 82 45 83
REMARK H PARENT 71 22 62 51 40 62
REMARK Flexibility Score: inf
ROOT
ATOM      1  C   UNL A   1      42.518  20.689  26.116  1.00  0.00     0.274 C 
ENDROOT
BRANCH   1   2
ATOM      2  O   UNL A   1      41.161  21.046  25.771  1.00  0.00    -0.460 OA
BRANCH   2   3
ATOM      3  C   UNL A   1      40.378  21.443  26.807  1.00  0.00     0.344 C 
ATOM      4  O   UNL A   1      40.551  21.111  27.976  1.00  0.00    -0.248 OA
BRANCH   3   5
ATOM      5  C   UNL A   1      39.241  22.382  26.400  1.00  0.00     0.353 C 
BRANCH   5   6
ATOM      6  O   UNL A   1      38.348  21.966  25.388  1.00  0.00    -0.466 OA
BRANCH   6   7
ATOM      7  C   UNL A   1      37.012  22.199  25.552  1.00  0.00     0.219 A 
ATOM      8  C   UNL A   1      35.043  23.464  25.553  1.00  0.00     0.080 A 
ATOM      9  C   UNL A   1      36.421  23.439  25.536  1.00  0.00     0.097 A 
ATOM     10  N   UNL A   1      34.320  22.345  25.654  1.00  0.00    -0.212 NA
ATOM     11  C   UNL A   1      34.970  21.175  25.661  1.00  0.00     0.231 A 
ATOM     12  N   UNL A   1      36.302  21.062  25.639  1.00  0.00    -0.177 NA
BRANCH   8  13
ATOM     13  C   UNL A   1      34.250  24.679  25.336  1.00  0.00     0.004 A 
ATOM     14  C   UNL A   1      32.564  26.252  26.153  1.00  0.00     0.119 A 
ATOM     15  C   UNL A   1      32.705  26.998  24.985  1.00  0.00     0.046 A 
ATOM     16  C   UNL A   1      33.361  25.122  26.332  1.00  0.00     0.056 A 
ATOM     17  C   UNL A   1      33.635  26.623  24.015  1.00  0.00     0.005 A 
ATOM     18  C   UNL A   1      34.400  25.465  24.188  1.00  0.00     0.010 A 
BRANCH  14  19
ATOM     19  O   UNL A   1      31.621  26.718  27.030  1.00  0.00    -0.497 OA
ATOM     20  C   UNL A   1      31.530  28.130  27.185  1.00  0.00     0.278 C 
ENDBRANCH  14  19
ENDBRANCH   8  13
BRANCH  11  21
ATOM     21  N   UNL A   1      34.223  20.002  25.710  1.00  0.00    -0.323 N 
ATOM     22  H   UNL A   1      33.898  19.714  26.593  1.00  0.00     0.170 HD
BRANCH  21  23
ATOM     23  C   UNL A   1      33.895  19.196  24.613  1.00  0.00     0.055 A 
ATOM     24  C   UNL A   1      34.514  17.943  24.501  1.00  0.00     0.027 A 
ATOM     25  C   UNL A   1      32.873  19.518  23.695  1.00  0.00     0.041 A 
ATOM     26  C   UNL A   1      34.107  17.024  23.531  1.00  0.00     0.002 A 
ATOM     27  C   UNL A   1      32.471  18.599  22.721  1.00  0.00     0.018 A 
ATOM     28  Br  UNL A   1      32.041  21.233  23.654  1.00  0.00    -0.049 Br
ATOM     29  C   UNL A   1      33.080  17.349  22.647  1.00  0.00     0.001 A 
ENDBRANCH  21  23
ENDBRANCH  11  21
ENDBRANCH   6   7
ENDBRANCH   5   6
ENDBRANCH   3   5
ENDBRANCH   2   3
ENDBRANCH   1   2
BRANCH   1  30
ATOM     30  C   UNL A   1      43.569  21.497  25.348  1.00  0.00     0.275 C 
BRANCH  30  31
ATOM     31  O   UNL A   1      43.006  22.674  24.733  1.00  0.00    -0.458 OA
BRANCH  31  32
ATOM     32  C   UNL A   1      43.785  23.762  24.887  1.00  0.00     0.338 C 
ATOM     33  O   UNL A   1      44.801  24.002  24.246  1.00  0.00    -0.246 OA
BRANCH  32  34
ATOM     34  C   UNL A   1      43.283  24.712  25.887  1.00  0.00     0.060 A 
ATOM     35  C   UNL A   1      43.717  26.041  25.872  1.00  0.00     0.016 A 
ATOM     36  C   UNL A   1      42.561  24.220  26.977  1.00  0.00     0.016 A 
ATOM     37  C   UNL A   1      43.447  26.872  26.962  1.00  0.00     0.010 A 
ATOM     38  C   UNL A   1      42.258  25.063  28.048  1.00  0.00     0.010 A 
ATOM     39  C   UNL A   1      42.706  26.393  28.053  1.00  0.00    -0.014 A 
BRANCH  39  40
ATOM     40  C   UNL A   1      42.283  27.307  29.140  1.00  0.00     0.031 A 
ATOM     41  C   UNL A   1      43.019  27.392  30.442  1.00  0.00     0.074 A 
ATOM     42  C   UNL A   1      41.165  28.031  28.953  1.00  0.00     0.049 A 
ATOM     43  N   UNL A   1      42.678  28.003  31.548  1.00  0.00    -0.248 NA
ATOM     44  C   UNL A   1      44.310  26.698  30.512  1.00  0.00     0.031 C 
ATOM     45  C   UNL A   1      40.371  28.051  27.724  1.00  0.00     0.029 A 
ATOM     46  N   UNL A   1      40.497  28.871  29.803  1.00  0.00    -0.354 N 
ATOM     47  C   UNL A   1      43.692  27.736  32.460  1.00  0.00     0.074 A 
ATOM     48  C   UNL A   1      44.666  26.912  31.773  1.00  0.00     0.031 C 
ATOM     49  C   UNL A   1      39.316  28.859  27.900  1.00  0.00     0.029 A 
ATOM     50  C   UNL A   1      39.338  29.370  29.267  1.00  0.00     0.049 A 
ATOM     51  H   UNL A   1      40.817  29.094  30.707  1.00  0.00     0.167 HD
ATOM     52  C   UNL A   1      43.795  28.141  33.749  1.00  0.00     0.031 A 
ATOM     53  C   UNL A   1      38.375  30.125  29.823  1.00  0.00     0.031 A 
ATOM     54  C   UNL A   1      42.840  28.989  34.415  1.00  0.00     0.049 A 
ATOM     55  C   UNL A   1      38.499  30.546  31.252  1.00  0.00     0.074 A 
ATOM     56  C   UNL A   1      42.880  29.487  35.707  1.00  0.00     0.029 A 
ATOM     57  N   UNL A   1      41.676  29.471  33.837  1.00  0.00    -0.354 N 
ATOM     58  N   UNL A   1      39.449  30.266  32.110  1.00  0.00    -0.248 NA
ATOM     59  C   UNL A   1      37.420  31.383  31.789  1.00  0.00     0.031 C 
ATOM     60  C   UNL A   1      41.724  30.250  35.919  1.00  0.00     0.029 A 
ATOM     61  C   UNL A   1      40.984  30.251  34.748  1.00  0.00     0.049 A 
ATOM     62  H   UNL A   1      41.385  29.285  32.916  1.00  0.00     0.167 HD
ATOM     63  C   UNL A   1      39.088  30.900  33.289  1.00  0.00     0.074 A 
ATOM     64  C   UNL A   1      37.837  31.587  33.031  1.00  0.00     0.031 C 
ATOM     65  C   UNL A   1      39.737  30.914  34.478  1.00  0.00     0.031 A 
BRANCH  52  66
ATOM     66  C   UNL A   1      44.973  27.655  34.545  1.00  0.00    -0.014 A 
ATOM     67  C   UNL A   1      46.159  28.402  34.625  1.00  0.00     0.009 A 
ATOM     68  C   UNL A   1      44.865  26.469  35.289  1.00  0.00     0.009 A 
ATOM     69  C   UNL A   1      47.219  27.959  35.419  1.00  0.00     0.001 A 
ATOM     70  C   UNL A   1      45.921  26.038  36.096  1.00  0.00     0.001 A 
ATOM     71  C   UNL A   1      47.098  26.782  36.158  1.00  0.00     0.000 A 
ENDBRANCH  52  66
BRANCH  53  72
ATOM     72  C   UNL A   1      37.198  30.497  29.003  1.00  0.00    -0.014 A 
ATOM     73  C   UNL A   1      36.221  29.543  28.695  1.00  0.00     0.009 A 
ATOM     74  C   UNL A   1      37.014  31.828  28.598  1.00  0.00     0.009 A 
ATOM     75  C   UNL A   1      35.075  29.916  27.990  1.00  0.00     0.001 A 
ATOM     76  C   UNL A   1      35.859  32.201  27.911  1.00  0.00     0.001 A 
ATOM     77  C   UNL A   1      34.892  31.245  27.606  1.00  0.00     0.000 A 
ENDBRANCH  53  72
BRANCH  65  78
ATOM     78  C   UNL A   1      39.105  31.714  35.576  1.00  0.00    -0.014 A 
ATOM     79  C   UNL A   1      39.417  33.071  35.749  1.00  0.00     0.009 A 
ATOM     80  C   UNL A   1      38.188  31.103  36.444  1.00  0.00     0.009 A 
ATOM     81  C   UNL A   1      38.840  33.796  36.793  1.00  0.00     0.001 A 
ATOM     82  C   UNL A   1      37.602  31.835  37.478  1.00  0.00     0.001 A 
ATOM     83  C   UNL A   1      37.934  33.179  37.656  1.00  0.00     0.000 A 
ENDBRANCH  65  78
ENDBRANCH  39  40
ENDBRANCH  32  34
ENDBRANCH  31  32
ENDBRANCH  30  31
ENDBRANCH   1  30
TORSDOF 17
ENDMDL
MODEL 2
REMARK VINA RESULT:     -11.6      4.172      6.263
REMARK SMILES COc1cccc(-c2cc(OCC(=O)OCCOC(=O)c3ccc(-c4c5nc(c(-c6ccccc6)c6ccc([nH]6)c(-c6ccccc6)c6nc(c(-c7ccccc7)c7ccc4[nH]7)C=C6)C=C5)cc3)nc(Nc3ccccc3Br)n2)c1
REMARK SMILES IDX 16 1 15 2 13 3 14 4 12 5 11 6 10 7 8 8 9 9 79 10 70 11 69 12
REMARK SMILES IDX 7 13 3 14 4 15 80 16 5 17 6 18 2 19 1 20 71 21 72 23 73 24
REMARK SMILES IDX 77 25 74 26 76 27 78 28 75 29 17 30 18 31 19 32 20 33 21 34
REMARK SMILES IDX 22 35 68 36 23 37 67 38 24 39 25 40 26 41 61 42 27 43 66 44
REMARK SMILES IDX 60 45 62 46 28 47 65 48 59 49 58 50 29 52 51 53 36 54 50 55
REMARK SMILES IDX 37 56 40 57 49 58 63 59 38 60 39 61 48 63 64 64 41 65 30 66
REMARK SMILES IDX 31 67 35 68 32 69 34 70 33 71 52 72 53 73 57 74 54 75 56 76
REMARK SMILES IDX 55 77 42 78 43 79 47 80 44 81 46 82 45 83
REMARK H PARENT 71 22 62 51 40 62
REMARK Flexibility Score: inf
ROOT
ATOM      1  C   UNL A   1      42.343  19.626  26.423  1.00  0.00     0.274 C 
ENDROOT
BRANCH   1   2
ATOM      2  O   UNL A   1      40.933  19.581  26.114  1.00  0.00    -0.460 OA
BRANCH   2   3
ATOM      3  C   UNL A   1      40.196  20.621  26.583  1.00  0.00     0.344 C 
ATOM      4  O   UNL A   1      40.455  21.251  27.605  1.00  0.00    -0.248 OA
BRANCH   3   5
ATOM      5  C   UNL A   1      38.994  20.974  25.707  1.00  0.00     0.353 C 
BRANCH   5   6
ATOM      6  O   UNL A   1      38.523  22.306  25.707  1.00  0.00    -0.466 OA
BRANCH   6   7
ATOM      7  C   UNL A   1      37.178  22.529  25.629  1.00  0.00     0.219 A 
ATOM      8  C   UNL A   1      35.231  23.721  25.112  1.00  0.00     0.080 A 
ATOM      9  C   UNL A   1      36.596  23.731  25.300  1.00  0.00     0.097 A 
ATOM     10  N   UNL A   1      34.501  22.620  25.309  1.00  0.00    -0.212 NA
ATOM     11  C   UNL A   1      35.141  21.488  25.624  1.00  0.00     0.231 A 
ATOM     12  N   UNL A   1      36.462  21.409  25.817  1.00  0.00    -0.177 NA
BRANCH   8  13
ATOM     13  C   UNL A   1      34.480  24.855  24.563  1.00  0.00     0.004 A 
ATOM     14  C   UNL A   1      33.448  27.047  24.909  1.00  0.00     0.119 A 
ATOM     15  C   UNL A   1      33.049  27.061  23.574  1.00  0.00     0.046 A 
ATOM     16  C   UNL A   1      34.188  25.963  25.380  1.00  0.00     0.056 A 
ATOM     17  C   UNL A   1      33.391  26.010  22.724  1.00  0.00     0.005 A 
ATOM     18  C   UNL A   1      34.099  24.910  23.217  1.00  0.00     0.010 A 
BRANCH  14  19
ATOM     19  O   UNL A   1      33.055  28.132  25.645  1.00  0.00    -0.497 OA
ATOM     20  C   UNL A   1      33.568  28.230  26.969  1.00  0.00     0.278 C 
ENDBRANCH  14  19
ENDBRANCH   8  13
BRANCH  11  21
ATOM     21  N   UNL A   1      34.395  20.324  25.777  1.00  0.00    -0.323 N 
ATOM     22  H   UNL A   1      34.121  20.083  26.691  1.00  0.00     0.170 HD
BRANCH  21  23
ATOM     23  C   UNL A   1      34.000  19.465  24.744  1.00  0.00     0.055 A 
ATOM     24  C   UNL A   1      34.683  18.249  24.594  1.00  0.00     0.027 A 
ATOM     25  C   UNL A   1      32.864  19.694  23.939  1.00  0.00     0.041 A 
ATOM     26  C   UNL A   1      34.231  17.277  23.698  1.00  0.00     0.002 A 
ATOM     27  C   UNL A   1      32.417  18.722  23.039  1.00  0.00     0.018 A 
ATOM     28  Br  UNL A   1      31.924  21.353  23.950  1.00  0.00    -0.049 Br
ATOM     29  C   UNL A   1      33.094  17.510  22.928  1.00  0.00     0.001 A 
ENDBRANCH  21  23
ENDBRANCH  11  21
ENDBRANCH   6   7
ENDBRANCH   5   6
ENDBRANCH   3   5
ENDBRANCH   2   3
ENDBRANCH   1   2
BRANCH   1  30
ATOM     30  C   UNL A   1      43.182  18.684  25.555  1.00  0.00     0.275 C 
BRANCH  30  31
ATOM     31  O   UNL A   1      43.556  19.289  24.301  1.00  0.00    -0.458 OA
BRANCH  31  32
ATOM     32  C   UNL A   1      44.863  19.612  24.250  1.00  0.00     0.338 C 
ATOM     33  O   UNL A   1      45.765  18.858  23.906  1.00  0.00    -0.246 OA
BRANCH  32  34
ATOM     34  C   UNL A   1      45.141  21.010  24.600  1.00  0.00     0.060 A 
ATOM     35  C   UNL A   1      45.645  21.329  25.864  1.00  0.00     0.016 A 
ATOM     36  C   UNL A   1      44.679  22.018  23.751  1.00  0.00     0.016 A 
ATOM     37  C   UNL A   1      45.664  22.660  26.287  1.00  0.00     0.010 A 
ATOM     38  C   UNL A   1      44.735  23.352  24.161  1.00  0.00     0.010 A 
ATOM     39  C   UNL A   1      45.221  23.683  25.434  1.00  0.00    -0.014 A 
BRANCH  39  40
ATOM     40  C   UNL A   1      45.381  25.106  25.813  1.00  0.00     0.031 A 
ATOM     41  C   UNL A   1      46.708  25.801  25.760  1.00  0.00     0.074 A 
ATOM     42  C   UNL A   1      44.301  25.760  26.274  1.00  0.00     0.049 A 
ATOM     43  N   UNL A   1      47.046  26.978  26.222  1.00  0.00    -0.248 NA
ATOM     44  C   UNL A   1      47.801  25.077  25.100  1.00  0.00     0.031 C 
ATOM     45  C   UNL A   1      42.951  25.201  26.356  1.00  0.00     0.029 A 
ATOM     46  N   UNL A   1      44.175  27.027  26.777  1.00  0.00    -0.354 N 
ATOM     47  C   UNL A   1      48.401  27.122  25.945  1.00  0.00     0.074 A 
ATOM     48  C   UNL A   1      48.820  25.912  25.267  1.00  0.00     0.031 C 
ATOM     49  C   UNL A   1      42.131  26.120  26.885  1.00  0.00     0.029 A 
ATOM     50  C   UNL A   1      42.909  27.308  27.223  1.00  0.00     0.049 A 
ATOM     51  H   UNL A   1      44.918  27.672  26.814  1.00  0.00     0.167 HD
ATOM     52  C   UNL A   1      49.214  28.167  26.234  1.00  0.00     0.031 A 
ATOM     53  C   UNL A   1      42.430  28.385  27.868  1.00  0.00     0.031 A 
ATOM     54  C   UNL A   1      48.782  29.381  26.878  1.00  0.00     0.049 A 
ATOM     55  C   UNL A   1      43.348  29.519  28.193  1.00  0.00     0.074 A 
ATOM     56  C   UNL A   1      49.524  30.513  27.175  1.00  0.00     0.029 A 
ATOM     57  N   UNL A   1      47.490  29.624  27.317  1.00  0.00    -0.354 N 
ATOM     58  N   UNL A   1      44.631  29.633  27.948  1.00  0.00    -0.248 NA
ATOM     59  C   UNL A   1      42.755  30.671  28.883  1.00  0.00     0.031 C 
ATOM     60  C   UNL A   1      48.684  31.431  27.818  1.00  0.00     0.029 A 
ATOM     61  C   UNL A   1      47.415  30.882  27.892  1.00  0.00     0.049 A 
ATOM     62  H   UNL A   1      46.738  28.996  27.233  1.00  0.00     0.167 HD
ATOM     63  C   UNL A   1      44.999  30.873  28.447  1.00  0.00     0.074 A 
ATOM     64  C   UNL A   1      43.801  31.477  28.998  1.00  0.00     0.031 C 
ATOM     65  C   UNL A   1      46.220  31.459  28.445  1.00  0.00     0.031 A 
BRANCH  52  66
ATOM     66  C   UNL A   1      50.668  28.043  25.879  1.00  0.00    -0.014 A 
ATOM     67  C   UNL A   1      51.158  28.481  24.639  1.00  0.00     0.009 A 
ATOM     68  C   UNL A   1      51.575  27.551  26.832  1.00  0.00     0.009 A 
ATOM     69  C   UNL A   1      52.524  28.410  24.355  1.00  0.00     0.001 A 
ATOM     70  C   UNL A   1      52.942  27.498  26.552  1.00  0.00     0.001 A 
ATOM     71  C   UNL A   1      53.415  27.924  25.312  1.00  0.00     0.000 A 
ENDBRANCH  52  66
BRANCH  53  72
ATOM     72  C   UNL A   1      41.003  28.404  28.262  1.00  0.00    -0.014 A 
ATOM     73  C   UNL A   1      40.605  27.888  29.502  1.00  0.00     0.009 A 
ATOM     74  C   UNL A   1      40.049  29.012  27.432  1.00  0.00     0.009 A 
ATOM     75  C   UNL A   1      39.272  27.979  29.905  1.00  0.00     0.001 A 
ATOM     76  C   UNL A   1      38.722  29.118  27.845  1.00  0.00     0.001 A 
ATOM     77  C   UNL A   1      38.334  28.602  29.080  1.00  0.00     0.000 A 
ENDBRANCH  53  72
BRANCH  65  78
ATOM     78  C   UNL A   1      46.305  32.830  29.045  1.00  0.00    -0.014 A 
ATOM     79  C   UNL A   1      46.088  33.973  28.261  1.00  0.00     0.009 A 
ATOM     80  C   UNL A   1      46.604  32.978  30.407  1.00  0.00     0.009 A 
ATOM     81  C   UNL A   1      46.197  35.244  28.828  1.00  0.00     0.001 A 
ATOM     82  C   UNL A   1      46.698  34.250  30.974  1.00  0.00     0.001 A 
ATOM     83  C   UNL A   1      46.501  35.381  30.182  1.00  0.00     0.000 A 
ENDBRANCH  65  78
ENDBRANCH  39  40
ENDBRANCH  32  34
ENDBRANCH  31  32
ENDBRANCH  30  31
ENDBRANCH   1  30
TORSDOF 17
ENDMDL
MODEL 3
REMARK VINA RESULT:     -11.3      3.976      8.625
REMARK SMILES COc1cccc(-c2cc(OCC(=O)OCCOC(=O)c3ccc(-c4c5nc(c(-c6ccccc6)c6ccc([nH]6)c(-c6ccccc6)c6nc(c(-c7ccccc7)c7ccc4[nH]7)C=C6)C=C5)cc3)nc(Nc3ccccc3Br)n2)c1
REMARK SMILES IDX 16 1 15 2 13 3 14 4 12 5 11 6 10 7 8 8 9 9 79 10 70 11 69 12
REMARK SMILES IDX 7 13 3 14 4 15 80 16 5 17 6 18 2 19 1 20 71 21 72 23 73 24
REMARK SMILES IDX 77 25 74 26 76 27 78 28 75 29 17 30 18 31 19 32 20 33 21 34
REMARK SMILES IDX 22 35 68 36 23 37 67 38 24 39 25 40 26 41 61 42 27 43 66 44
REMARK SMILES IDX 60 45 62 46 28 47 65 48 59 49 58 50 29 52 51 53 36 54 50 55
REMARK SMILES IDX 37 56 40 57 49 58 63 59 38 60 39 61 48 63 64 64 41 65 30 66
REMARK SMILES IDX 31 67 35 68 32 69 34 70 33 71 52 72 53 73 57 74 54 75 56 76
REMARK SMILES IDX 55 77 42 78 43 79 47 80 44 81 46 82 45 83
REMARK H PARENT 71 22 62 51 40 62
REMARK Flexibility Score: inf
ROOT
ATOM      1  C   UNL A   1      34.500  21.573  24.603  1.00  0.00     0.274 C 
ENDROOT
BRANCH   1   2
ATOM      2  O   UNL A   1      34.676  22.974  24.302  1.00  0.00    -0.460 OA
BRANCH   2   3
ATOM      3  C   UNL A   1      34.035  23.838  25.132  1.00  0.00     0.344 C 
ATOM      4  O   UNL A   1      33.823  23.629  26.323  1.00  0.00    -0.248 OA
BRANCH   3   5
ATOM      5  C   UNL A   1      33.602  25.140  24.457  1.00  0.00     0.353 C 
BRANCH   5   6
ATOM      6  O   UNL A   1      34.170  26.355  24.902  1.00  0.00    -0.466 OA
BRANCH   6   7
ATOM      7  C   UNL A   1      33.364  27.449  25.033  1.00  0.00     0.219 A 
ATOM      8  C   UNL A   1      31.507  28.805  24.598  1.00  0.00     0.080 A 
ATOM      9  C   UNL A   1      32.303  27.749  24.212  1.00  0.00     0.097 A 
ATOM     10  N   UNL A   1      31.791  29.545  25.673  1.00  0.00    -0.212 NA
ATOM     11  C   UNL A   1      32.839  29.187  26.423  1.00  0.00     0.231 A 
ATOM     12  N   UNL A   1      33.658  28.173  26.125  1.00  0.00    -0.177 NA
BRANCH   8  13
ATOM     13  C   UNL A   1      30.227  29.133  23.960  1.00  0.00     0.004 A 
ATOM     14  C   UNL A   1      28.569  30.822  23.337  1.00  0.00     0.119 A 
ATOM     15  C   UNL A   1      27.789  29.828  22.750  1.00  0.00     0.046 A 
ATOM     16  C   UNL A   1      29.794  30.470  23.905  1.00  0.00     0.056 A 
ATOM     17  C   UNL A   1      28.232  28.506  22.724  1.00  0.00     0.005 A 
ATOM     18  C   UNL A   1      29.443  28.159  23.330  1.00  0.00     0.010 A 
BRANCH  14  19
ATOM     19  O   UNL A   1      28.032  32.080  23.302  1.00  0.00    -0.497 OA
ATOM     20  C   UNL A   1      28.911  33.144  22.951  1.00  0.00     0.278 C 
ENDBRANCH  14  19
ENDBRANCH   8  13
BRANCH  11  21
ATOM     21  N   UNL A   1      33.111  29.919  27.576  1.00  0.00    -0.323 N 
ATOM     22  H   UNL A   1      32.790  29.547  28.429  1.00  0.00     0.170 HD
BRANCH  21  23
ATOM     23  C   UNL A   1      33.800  31.136  27.628  1.00  0.00     0.055 A 
ATOM     24  C   UNL A   1      33.053  32.322  27.669  1.00  0.00     0.027 A 
ATOM     25  C   UNL A   1      35.200  31.226  27.782  1.00  0.00     0.041 A 
ATOM     26  C   UNL A   1      33.671  33.554  27.893  1.00  0.00     0.002 A 
ATOM     27  C   UNL A   1      35.818  32.462  28.000  1.00  0.00     0.018 A 
ATOM     28  Br  UNL A   1      36.345  29.711  27.616  1.00  0.00    -0.049 Br
ATOM     29  C   UNL A   1      35.051  33.623  28.067  1.00  0.00     0.001 A 
ENDBRANCH  21  23
ENDBRANCH  11  21
ENDBRANCH   6   7
ENDBRANCH   5   6
ENDBRANCH   3   5
ENDBRANCH   2   3
ENDBRANCH   1   2
BRANCH   1  30
ATOM     30  C   UNL A   1      35.784  20.894  25.092  1.00  0.00     0.275 C 
BRANCH  30  31
ATOM     31  O   UNL A   1      36.602  21.783  25.879  1.00  0.00    -0.458 OA
BRANCH  31  32
ATOM     32  C   UNL A   1      37.917  21.512  25.768  1.00  0.00     0.338 C 
ATOM     33  O   UNL A   1      38.390  20.458  25.361  1.00  0.00    -0.246 OA
BRANCH  32  34
ATOM     34  C   UNL A   1      38.786  22.637  26.135  1.00  0.00     0.060 A 
ATOM     35  C   UNL A   1      39.945  22.412  26.883  1.00  0.00     0.016 A 
ATOM     36  C   UNL A   1      38.321  23.938  25.931  1.00  0.00     0.016 A 
ATOM     37  C   UNL A   1      40.626  23.492  27.449  1.00  0.00     0.010 A 
ATOM     38  C   UNL A   1      39.025  25.019  26.464  1.00  0.00     0.010 A 
ATOM     39  C   UNL A   1      40.178  24.805  27.233  1.00  0.00    -0.014 A 
BRANCH  39  40
ATOM     40  C   UNL A   1      40.979  25.963  27.697  1.00  0.00     0.031 A 
ATOM     41  C   UNL A   1      40.424  26.990  28.637  1.00  0.00     0.074 A 
ATOM     42  C   UNL A   1      42.219  26.109  27.200  1.00  0.00     0.049 A 
ATOM     43  N   UNL A   1      40.929  28.144  28.994  1.00  0.00    -0.248 NA
ATOM     44  C   UNL A   1      39.132  26.681  29.258  1.00  0.00     0.031 C 
ATOM     45  C   UNL A   1      42.879  25.167  26.295  1.00  0.00     0.029 A 
ATOM     46  N   UNL A   1      43.134  27.113  27.373  1.00  0.00    -0.354 N 
ATOM     47  C   UNL A   1      39.998  28.719  29.851  1.00  0.00     0.074 A 
ATOM     48  C   UNL A   1      38.900  27.780  29.966  1.00  0.00     0.031 C 
ATOM     49  C   UNL A   1      44.094  25.642  25.983  1.00  0.00     0.029 A 
ATOM     50  C   UNL A   1      44.273  26.939  26.628  1.00  0.00     0.049 A 
ATOM     51  H   UNL A   1      42.990  27.881  27.971  1.00  0.00     0.167 HD
ATOM     52  C   UNL A   1      40.058  29.918  30.479  1.00  0.00     0.031 A 
ATOM     53  C   UNL A   1      45.330  27.749  26.450  1.00  0.00     0.031 A 
ATOM     54  C   UNL A   1      41.168  30.831  30.388  1.00  0.00     0.049 A 
ATOM     55  C   UNL A   1      45.368  29.075  27.138  1.00  0.00     0.074 A 
ATOM     56  C   UNL A   1      41.339  32.051  31.020  1.00  0.00     0.029 A 
ATOM     57  N   UNL A   1      42.303  30.618  29.619  1.00  0.00    -0.354 N 
ATOM     58  N   UNL A   1      44.471  29.618  27.925  1.00  0.00    -0.248 NA
ATOM     59  C   UNL A   1      46.560  29.901  26.912  1.00  0.00     0.031 C 
ATOM     60  C   UNL A   1      42.567  32.588  30.614  1.00  0.00     0.029 A 
ATOM     61  C   UNL A   1      43.172  31.687  29.753  1.00  0.00     0.049 A 
ATOM     62  H   UNL A   1      42.465  29.824  29.061  1.00  0.00     0.167 HD
ATOM     63  C   UNL A   1      44.993  30.847  28.297  1.00  0.00     0.074 A 
ATOM     64  C   UNL A   1      46.290  30.964  27.657  1.00  0.00     0.031 C 
ATOM     65  C   UNL A   1      44.449  31.792  29.099  1.00  0.00     0.031 A 
BRANCH  52  66
ATOM     66  C   UNL A   1      38.877  30.335  31.309  1.00  0.00    -0.014 A 
ATOM     67  C   UNL A   1      38.895  30.231  32.708  1.00  0.00     0.009 A 
ATOM     68  C   UNL A   1      37.760  30.913  30.684  1.00  0.00     0.009 A 
ATOM     69  C   UNL A   1      37.808  30.681  33.463  1.00  0.00     0.001 A 
ATOM     70  C   UNL A   1      36.683  31.377  31.442  1.00  0.00     0.001 A 
ATOM     71  C   UNL A   1      36.706  31.258  32.831  1.00  0.00     0.000 A 
ENDBRANCH  52  66
BRANCH  53  72
ATOM     72  C   UNL A   1      46.422  27.309  25.550  1.00  0.00    -0.014 A 
ATOM     73  C   UNL A   1      46.516  27.822  24.250  1.00  0.00     0.009 A 
ATOM     74  C   UNL A   1      47.416  26.437  26.020  1.00  0.00     0.009 A 
ATOM     75  C   UNL A   1      47.590  27.467  23.432  1.00  0.00     0.001 A 
ATOM     76  C   UNL A   1      48.497  26.100  25.207  1.00  0.00     0.001 A 
ATOM     77  C   UNL A   1      48.583  26.614  23.914  1.00  0.00     0.000 A 
ENDBRANCH  53  72
BRANCH  65  78
ATOM     78  C   UNL A   1      45.269  33.023  29.337  1.00  0.00    -0.014 A 
ATOM     79  C   UNL A   1      45.142  34.145  28.504  1.00  0.00     0.009 A 
ATOM     80  C   UNL A   1      46.176  33.061  30.407  1.00  0.00     0.009 A 
ATOM     81  C   UNL A   1      45.932  35.275  28.722  1.00  0.00     0.001 A 
ATOM     82  C   UNL A   1      46.953  34.198  30.631  1.00  0.00     0.001 A 
ATOM     83  C   UNL A   1      46.836  35.300  29.784  1.00  0.00     0.000 A 
ENDBRANCH  65  78
ENDBRANCH  39  40
ENDBRANCH  32  34
ENDBRANCH  31  32
ENDBRANCH  30  31
ENDBRANCH   1  30
TORSDOF 17
ENDMDL
