MODEL 1
REMARK VINA RESULT:     -12.2      0.000      0.000
REMARK SMILES CC(C)n1c2c(c3ccccc31)[C@@H](c1ccccc1)N(CC(=O)OCCOC(=O)c1ccc(-c3c4nc(c(-c5ccccc5)c5ccc([nH]5)c(-c5ccccc5)c5nc(c(-c6ccccc6)c6ccc3[nH]6)C=C5)C=C4)cc1)C2=O
REMARK SMILES IDX 25 1 24 2 22 3 23 4 21 5 20 6 4 7 5 8 12 9 6 10 78 11 7 12
REMARK SMILES IDX 11 13 13 14 79 15 8 16 10 17 9 18 2 19 1 20 3 21 14 22 15 23
REMARK SMILES IDX 19 24 16 25 18 26 17 27 26 28 27 29 28 30 29 31 30 32 31 33
REMARK SMILES IDX 77 34 32 35 76 36 33 37 34 38 35 39 70 40 36 41 75 42 69 43
REMARK SMILES IDX 71 44 37 45 74 46 68 47 67 48 38 50 60 51 45 52 59 53 46 54
REMARK SMILES IDX 49 55 58 56 72 57 47 58 48 59 57 61 73 62 50 63 39 64 40 65
REMARK SMILES IDX 44 66 41 67 43 68 42 69 61 70 62 71 66 72 63 73 65 74 64 75
REMARK SMILES IDX 51 76 52 77 56 78 53 79 55 80 54 81
REMARK H PARENT 71 49 49 60
REMARK Flexibility Score: inf
ROOT
ATOM      1  C   UNL A   1      33.606  32.857  27.767  1.00  0.00     0.274 C 
ENDROOT
BRANCH   1   2
ATOM      2  O   UNL A   1      33.800  31.478  28.187  1.00  0.00    -0.461 OA
BRANCH   2   3
ATOM      3  C   UNL A   1      33.561  30.512  27.254  1.00  0.00     0.325 C 
ATOM      4  O   UNL A   1      34.426  29.768  26.800  1.00  0.00    -0.250 OA
BRANCH   3   5
ATOM      5  C   UNL A   1      32.075  30.342  26.881  1.00  0.00     0.243 C 
BRANCH   5   6
ATOM      6  N   UNL A   1      31.653  29.203  26.092  1.00  0.00    -0.315 N 
ATOM      7  N   UNL A   1      31.889  25.672  25.506  1.00  0.00    -0.334 N 
ATOM      8  C   UNL A   1      31.759  27.015  25.681  1.00  0.00     0.114 A 
ATOM      9  C   UNL A   1      32.148  25.464  24.139  1.00  0.00     0.049 A 
ATOM     10  C   UNL A   1      31.859  27.660  24.475  1.00  0.00     0.018 A 
ATOM     11  C   UNL A   1      31.618  27.964  26.737  1.00  0.00     0.272 C 
ATOM     12  C   UNL A   1      32.213  26.719  23.502  1.00  0.00     0.006 A 
ATOM     13  C   UNL A   1      32.343  24.286  23.397  1.00  0.00     0.027 A 
ATOM     14  C   UNL A   1      31.631  29.128  24.604  1.00  0.00     0.150 C 
ATOM     15  O   UNL A   1      31.598  27.801  27.937  1.00  0.00    -0.267 OA
ATOM     16  C   UNL A   1      32.546  26.802  22.138  1.00  0.00     0.011 A 
ATOM     17  C   UNL A   1      32.689  24.392  22.046  1.00  0.00     0.002 A 
ATOM     18  C   UNL A   1      32.803  25.630  21.425  1.00  0.00     0.001 A 
BRANCH   7  19
ATOM     19  C   UNL A   1      31.763  24.605  26.507  1.00  0.00     0.082 C 
ATOM     20  C   UNL A   1      30.527  23.725  26.276  1.00  0.00     0.031 C 
ATOM     21  C   UNL A   1      32.962  23.662  26.659  1.00  0.00     0.031 C 
ENDBRANCH   7  19
BRANCH  14  22
ATOM     22  C   UNL A   1      30.277  29.470  23.943  1.00  0.00    -0.021 A 
ATOM     23  C   UNL A   1      29.498  28.457  23.354  1.00  0.00     0.006 A 
ATOM     24  C   UNL A   1      29.686  30.749  23.933  1.00  0.00     0.006 A 
ATOM     25  C   UNL A   1      28.213  28.671  22.837  1.00  0.00     0.000 A 
ATOM     26  C   UNL A   1      28.398  30.977  23.418  1.00  0.00     0.000 A 
ATOM     27  C   UNL A   1      27.657  29.937  22.876  1.00  0.00     0.000 A 
ENDBRANCH  14  22
ENDBRANCH   5   6
ENDBRANCH   3   5
ENDBRANCH   2   3
ENDBRANCH   1   2
BRANCH   1  28
ATOM     28  C   UNL A   1      34.733  33.771  28.271  1.00  0.00     0.275 C 
BRANCH  28  29
ATOM     29  O   UNL A   1      35.670  32.978  29.019  1.00  0.00    -0.458 OA
BRANCH  29  30
ATOM     30  C   UNL A   1      36.942  33.434  29.003  1.00  0.00     0.338 C 
ATOM     31  O   UNL A   1      37.322  34.588  29.107  1.00  0.00    -0.246 OA
BRANCH  30  32
ATOM     32  C   UNL A   1      37.763  32.269  29.359  1.00  0.00     0.060 A 
ATOM     33  C   UNL A   1      38.991  32.323  30.000  1.00  0.00     0.016 A 
ATOM     34  C   UNL A   1      37.304  31.073  28.821  1.00  0.00     0.016 A 
ATOM     35  C   UNL A   1      39.778  31.169  30.018  1.00  0.00     0.010 A 
ATOM     36  C   UNL A   1      38.070  29.921  28.857  1.00  0.00     0.010 A 
ATOM     37  C   UNL A   1      39.338  29.984  29.393  1.00  0.00    -0.014 A 
BRANCH  37  38
ATOM     38  C   UNL A   1      40.115  28.763  29.520  1.00  0.00     0.031 A 
ATOM     39  C   UNL A   1      40.448  28.445  30.921  1.00  0.00     0.074 A 
ATOM     40  C   UNL A   1      40.479  27.861  28.588  1.00  0.00     0.049 A 
ATOM     41  N   UNL A   1      41.563  28.713  31.503  1.00  0.00    -0.248 NA
ATOM     42  C   UNL A   1      39.410  27.891  31.796  1.00  0.00     0.031 C 
ATOM     43  C   UNL A   1      40.036  27.667  27.210  1.00  0.00     0.029 A 
ATOM     44  N   UNL A   1      41.392  26.860  28.766  1.00  0.00    -0.354 N 
ATOM     45  C   UNL A   1      41.439  28.254  32.802  1.00  0.00     0.074 A 
ATOM     46  C   UNL A   1      40.058  27.859  32.963  1.00  0.00     0.031 C 
ATOM     47  C   UNL A   1      40.564  26.509  26.730  1.00  0.00     0.029 A 
ATOM     48  C   UNL A   1      41.513  25.985  27.702  1.00  0.00     0.049 A 
ATOM     49  H   UNL A   1      41.922  26.767  29.590  1.00  0.00     0.167 HD
ATOM     50  C   UNL A   1      42.531  28.101  33.594  1.00  0.00     0.031 A 
ATOM     51  C   UNL A   1      42.353  24.922  27.647  1.00  0.00     0.031 A 
ATOM     52  C   UNL A   1      43.701  28.722  33.020  1.00  0.00     0.049 A 
ATOM     53  C   UNL A   1      43.469  25.176  28.590  1.00  0.00     0.074 A 
ATOM     54  C   UNL A   1      44.030  30.015  32.658  1.00  0.00     0.029 A 
ATOM     55  N   UNL A   1      44.589  27.909  32.355  1.00  0.00    -0.354 N 
ATOM     56  N   UNL A   1      44.376  26.092  28.411  1.00  0.00    -0.248 NA
ATOM     57  C   UNL A   1      43.402  24.621  29.931  1.00  0.00     0.031 C 
ATOM     58  C   UNL A   1      44.776  29.885  31.449  1.00  0.00     0.029 A 
ATOM     59  C   UNL A   1      44.896  28.522  31.165  1.00  0.00     0.049 A 
ATOM     60  H   UNL A   1      44.940  27.046  32.673  1.00  0.00     0.167 HD
ATOM     61  C   UNL A   1      44.689  26.536  29.687  1.00  0.00     0.074 A 
ATOM     62  C   UNL A   1      44.167  25.505  30.577  1.00  0.00     0.031 C 
ATOM     63  C   UNL A   1      45.095  27.822  29.909  1.00  0.00     0.031 A 
BRANCH  50  64
ATOM     64  C   UNL A   1      42.613  27.139  34.740  1.00  0.00    -0.014 A 
ATOM     65  C   UNL A   1      42.125  27.428  36.027  1.00  0.00     0.009 A 
ATOM     66  C   UNL A   1      42.979  25.808  34.480  1.00  0.00     0.009 A 
ATOM     67  C   UNL A   1      42.012  26.442  37.011  1.00  0.00     0.001 A 
ATOM     68  C   UNL A   1      42.827  24.811  35.449  1.00  0.00     0.001 A 
ATOM     69  C   UNL A   1      42.344  25.129  36.714  1.00  0.00     0.000 A 
ENDBRANCH  50  64
BRANCH  51  70
ATOM     70  C   UNL A   1      42.164  23.592  27.036  1.00  0.00    -0.014 A 
ATOM     71  C   UNL A   1      41.164  22.737  27.526  1.00  0.00     0.009 A 
ATOM     72  C   UNL A   1      43.164  23.036  26.218  1.00  0.00     0.009 A 
ATOM     73  C   UNL A   1      41.197  21.362  27.262  1.00  0.00     0.001 A 
ATOM     74  C   UNL A   1      43.197  21.660  25.955  1.00  0.00     0.001 A 
ATOM     75  C   UNL A   1      42.224  20.822  26.494  1.00  0.00     0.000 A 
ENDBRANCH  51  70
BRANCH  63  76
ATOM     76  C   UNL A   1      45.500  28.665  28.717  1.00  0.00    -0.014 A 
ATOM     77  C   UNL A   1      46.869  28.822  28.443  1.00  0.00     0.009 A 
ATOM     78  C   UNL A   1      44.587  29.412  27.950  1.00  0.00     0.009 A 
ATOM     79  C   UNL A   1      47.310  29.692  27.440  1.00  0.00     0.001 A 
ATOM     80  C   UNL A   1      45.026  30.257  26.925  1.00  0.00     0.001 A 
ATOM     81  C   UNL A   1      46.388  30.403  26.677  1.00  0.00     0.000 A 
ENDBRANCH  63  76
ENDBRANCH  37  38
ENDBRANCH  30  32
ENDBRANCH  29  30
ENDBRANCH  28  29
ENDBRANCH   1  28
TORSDOF 14
ENDMDL
MODEL 2
REMARK VINA RESULT:     -12.0      1.328      1.629
REMARK SMILES CC(C)n1c2c(c3ccccc31)[C@@H](c1ccccc1)N(CC(=O)OCCOC(=O)c1ccc(-c3c4nc(c(-c5ccccc5)c5ccc([nH]5)c(-c5ccccc5)c5nc(c(-c6ccccc6)c6ccc3[nH]6)C=C5)C=C4)cc1)C2=O
REMARK SMILES IDX 25 1 24 2 22 3 23 4 21 5 20 6 4 7 5 8 12 9 6 10 78 11 7 12
REMARK SMILES IDX 11 13 13 14 79 15 8 16 10 17 9 18 2 19 1 20 3 21 14 22 15 23
REMARK SMILES IDX 19 24 16 25 18 26 17 27 26 28 27 29 28 30 29 31 30 32 31 33
REMARK SMILES IDX 77 34 32 35 76 36 33 37 34 38 35 39 70 40 36 41 75 42 69 43
REMARK SMILES IDX 71 44 37 45 74 46 68 47 67 48 38 50 60 51 45 52 59 53 46 54
REMARK SMILES IDX 49 55 58 56 72 57 47 58 48 59 57 61 73 62 50 63 39 64 40 65
REMARK SMILES IDX 44 66 41 67 43 68 42 69 61 70 62 71 66 72 63 73 65 74 64 75
REMARK SMILES IDX 51 76 52 77 56 78 53 79 55 80 54 81
REMARK H PARENT 71 49 49 60
REMARK Flexibility Score: inf
ROOT
ATOM      1  C   UNL A   1      34.506  32.390  27.818  1.00  0.00     0.274 C 
ENDROOT
BRANCH   1   2
ATOM      2  O   UNL A   1      33.655  31.248  28.110  1.00  0.00    -0.461 OA
BRANCH   2   3
ATOM      3  C   UNL A   1      33.442  30.363  27.094  1.00  0.00     0.325 C 
ATOM      4  O   UNL A   1      34.334  29.732  26.535  1.00  0.00    -0.250 OA
BRANCH   3   5
ATOM      5  C   UNL A   1      31.956  30.124  26.761  1.00  0.00     0.243 C 
BRANCH   5   6
ATOM      6  N   UNL A   1      31.563  28.954  26.002  1.00  0.00    -0.315 N 
ATOM      7  N   UNL A   1      31.899  25.418  25.504  1.00  0.00    -0.334 N 
ATOM      8  C   UNL A   1      31.731  26.761  25.645  1.00  0.00     0.114 A 
ATOM      9  C   UNL A   1      32.158  25.184  24.140  1.00  0.00     0.049 A 
ATOM     10  C   UNL A   1      31.806  27.378  24.424  1.00  0.00     0.018 A 
ATOM     11  C   UNL A   1      31.567  27.731  26.678  1.00  0.00     0.272 C 
ATOM     12  C   UNL A   1      32.184  26.424  23.472  1.00  0.00     0.006 A 
ATOM     13  C   UNL A   1      32.384  23.994  23.427  1.00  0.00     0.027 A 
ATOM     14  C   UNL A   1      31.537  28.841  24.517  1.00  0.00     0.150 C 
ATOM     15  O   UNL A   1      31.557  27.598  27.882  1.00  0.00    -0.267 OA
ATOM     16  C   UNL A   1      32.508  26.482  22.105  1.00  0.00     0.011 A 
ATOM     17  C   UNL A   1      32.721  24.076  22.072  1.00  0.00     0.002 A 
ATOM     18  C   UNL A   1      32.796  25.301  21.420  1.00  0.00     0.001 A 
BRANCH   7  19
ATOM     19  C   UNL A   1      31.809  24.373  26.531  1.00  0.00     0.082 C 
ATOM     20  C   UNL A   1      30.575  23.478  26.353  1.00  0.00     0.031 C 
ATOM     21  C   UNL A   1      33.019  23.444  26.673  1.00  0.00     0.031 C 
ENDBRANCH   7  19
BRANCH  14  22
ATOM     22  C   UNL A   1      30.170  29.127  23.855  1.00  0.00    -0.021 A 
ATOM     23  C   UNL A   1      29.309  28.067  23.516  1.00  0.00     0.006 A 
ATOM     24  C   UNL A   1      29.648  30.413  23.608  1.00  0.00     0.006 A 
ATOM     25  C   UNL A   1      28.012  28.253  23.018  1.00  0.00     0.000 A 
ATOM     26  C   UNL A   1      28.349  30.612  23.109  1.00  0.00     0.000 A 
ATOM     27  C   UNL A   1      27.528  29.532  22.821  1.00  0.00     0.000 A 
ENDBRANCH  14  22
ENDBRANCH   5   6
ENDBRANCH   3   5
ENDBRANCH   2   3
ENDBRANCH   1   2
BRANCH   1  28
ATOM     28  C   UNL A   1      34.157  33.602  28.695  1.00  0.00     0.275 C 
BRANCH  28  29
ATOM     29  O   UNL A   1      35.263  33.870  29.573  1.00  0.00    -0.458 OA
BRANCH  29  30
ATOM     30  C   UNL A   1      35.235  33.195  30.744  1.00  0.00     0.338 C 
ATOM     31  O   UNL A   1      34.271  32.977  31.457  1.00  0.00    -0.246 OA
BRANCH  30  32
ATOM     32  C   UNL A   1      36.439  32.353  30.720  1.00  0.00     0.060 A 
ATOM     33  C   UNL A   1      37.716  32.794  30.407  1.00  0.00     0.016 A 
ATOM     34  C   UNL A   1      36.178  30.995  30.847  1.00  0.00     0.016 A 
ATOM     35  C   UNL A   1      38.701  31.837  30.151  1.00  0.00     0.010 A 
ATOM     36  C   UNL A   1      37.156  30.043  30.617  1.00  0.00     0.010 A 
ATOM     37  C   UNL A   1      38.402  30.461  30.199  1.00  0.00    -0.014 A 
BRANCH  37  38
ATOM     38  C   UNL A   1      39.462  29.479  30.043  1.00  0.00     0.031 A 
ATOM     39  C   UNL A   1      39.876  28.883  31.327  1.00  0.00     0.074 A 
ATOM     40  C   UNL A   1      40.033  28.983  28.929  1.00  0.00     0.049 A 
ATOM     41  N   UNL A   1      40.894  29.247  32.026  1.00  0.00    -0.248 NA
ATOM     42  C   UNL A   1      39.018  27.876  31.960  1.00  0.00     0.031 C 
ATOM     43  C   UNL A   1      39.641  29.069  27.525  1.00  0.00     0.029 A 
ATOM     44  N   UNL A   1      41.169  28.225  28.890  1.00  0.00    -0.354 N 
ATOM     45  C   UNL A   1      40.900  28.436  33.147  1.00  0.00     0.074 A 
ATOM     46  C   UNL A   1      39.664  27.687  33.113  1.00  0.00     0.031 C 
ATOM     47  C   UNL A   1      40.439  28.251  26.787  1.00  0.00     0.029 A 
ATOM     48  C   UNL A   1      41.498  27.730  27.641  1.00  0.00     0.049 A 
ATOM     49  H   UNL A   1      41.713  28.044  29.690  1.00  0.00     0.167 HD
ATOM     50  C   UNL A   1      42.002  28.345  33.934  1.00  0.00     0.031 A 
ATOM     51  C   UNL A   1      42.577  26.961  27.356  1.00  0.00     0.031 A 
ATOM     52  C   UNL A   1      42.973  29.365  33.617  1.00  0.00     0.049 A 
ATOM     53  C   UNL A   1      43.601  27.213  28.399  1.00  0.00     0.074 A 
ATOM     54  C   UNL A   1      42.963  30.747  33.632  1.00  0.00     0.029 A 
ATOM     55  N   UNL A   1      44.031  29.006  32.815  1.00  0.00    -0.354 N 
ATOM     56  N   UNL A   1      44.247  28.335  28.524  1.00  0.00    -0.248 NA
ATOM     57  C   UNL A   1      43.688  26.316  29.538  1.00  0.00     0.031 C 
ATOM     58  C   UNL A   1      43.707  31.137  32.479  1.00  0.00     0.029 A 
ATOM     59  C   UNL A   1      44.164  29.975  31.851  1.00  0.00     0.049 A 
ATOM     60  H   UNL A   1      44.590  28.202  32.913  1.00  0.00     0.167 HD
ATOM     61  C   UNL A   1      44.450  28.478  29.889  1.00  0.00     0.074 A 
ATOM     62  C   UNL A   1      44.212  27.149  30.440  1.00  0.00     0.031 C 
ATOM     63  C   UNL A   1      44.522  29.714  30.469  1.00  0.00     0.031 A 
BRANCH  50  64
ATOM     64  C   UNL A   1      42.333  27.157  34.786  1.00  0.00    -0.014 A 
ATOM     65  C   UNL A   1      41.796  26.954  36.069  1.00  0.00     0.009 A 
ATOM     66  C   UNL A   1      43.025  26.081  34.206  1.00  0.00     0.009 A 
ATOM     67  C   UNL A   1      41.943  25.741  36.747  1.00  0.00     0.001 A 
ATOM     68  C   UNL A   1      43.138  24.851  34.863  1.00  0.00     0.001 A 
ATOM     69  C   UNL A   1      42.597  24.682  36.133  1.00  0.00     0.000 A 
ENDBRANCH  50  64
BRANCH  51  70
ATOM     70  C   UNL A   1      42.723  25.843  26.404  1.00  0.00    -0.014 A 
ATOM     71  C   UNL A   1      42.018  24.648  26.620  1.00  0.00     0.009 A 
ATOM     72  C   UNL A   1      43.793  25.821  25.491  1.00  0.00     0.009 A 
ATOM     73  C   UNL A   1      42.407  23.458  25.994  1.00  0.00     0.001 A 
ATOM     74  C   UNL A   1      44.182  24.629  24.866  1.00  0.00     0.001 A 
ATOM     75  C   UNL A   1      43.502  23.444  25.134  1.00  0.00     0.000 A 
ENDBRANCH  51  70
BRANCH  63  76
ATOM     76  C   UNL A   1      44.691  30.922  29.570  1.00  0.00    -0.014 A 
ATOM     77  C   UNL A   1      45.979  31.457  29.404  1.00  0.00     0.009 A 
ATOM     78  C   UNL A   1      43.612  31.622  29.001  1.00  0.00     0.009 A 
ATOM     79  C   UNL A   1      46.183  32.646  28.696  1.00  0.00     0.001 A 
ATOM     80  C   UNL A   1      43.818  32.794  28.265  1.00  0.00     0.001 A 
ATOM     81  C   UNL A   1      45.103  33.310  28.120  1.00  0.00     0.000 A 
ENDBRANCH  63  76
ENDBRANCH  37  38
ENDBRANCH  30  32
ENDBRANCH  29  30
ENDBRANCH  28  29
ENDBRANCH   1  28
TORSDOF 14
ENDMDL
MODEL 3
REMARK VINA RESULT:     -12.0      3.654      8.728
REMARK SMILES CC(C)n1c2c(c3ccccc31)[C@@H](c1ccccc1)N(CC(=O)OCCOC(=O)c1ccc(-c3c4nc(c(-c5ccccc5)c5ccc([nH]5)c(-c5ccccc5)c5nc(c(-c6ccccc6)c6ccc3[nH]6)C=C5)C=C4)cc1)C2=O
REMARK SMILES IDX 25 1 24 2 22 3 23 4 21 5 20 6 4 7 5 8 12 9 6 10 78 11 7 12
REMARK SMILES IDX 11 13 13 14 79 15 8 16 10 17 9 18 2 19 1 20 3 21 14 22 15 23
REMARK SMILES IDX 19 24 16 25 18 26 17 27 26 28 27 29 28 30 29 31 30 32 31 33
REMARK SMILES IDX 77 34 32 35 76 36 33 37 34 38 35 39 70 40 36 41 75 42 69 43
REMARK SMILES IDX 71 44 37 45 74 46 68 47 67 48 38 50 60 51 45 52 59 53 46 54
REMARK SMILES IDX 49 55 58 56 72 57 47 58 48 59 57 61 73 62 50 63 39 64 40 65
REMARK SMILES IDX 44 66 41 67 43 68 42 69 61 70 62 71 66 72 63 73 65 74 64 75
REMARK SMILES IDX 51 76 52 77 56 78 53 79 55 80 54 81
REMARK H PARENT 71 49 49 60
REMARK Flexibility Score: inf
ROOT
ATOM      1  C   UNL A   1      39.893  20.537  26.141  1.00  0.00     0.274 C 
ENDROOT
BRANCH   1   2
ATOM      2  O   UNL A   1      39.549  21.898  25.760  1.00  0.00    -0.461 OA
BRANCH   2   3
ATOM      3  C   UNL A   1      38.220  22.202  25.699  1.00  0.00     0.325 C 
ATOM      4  O   UNL A   1      37.704  23.146  26.289  1.00  0.00    -0.250 OA
BRANCH   3   5
ATOM      5  C   UNL A   1      37.411  21.319  24.728  1.00  0.00     0.243 C 
BRANCH   5   6
ATOM      6  N   UNL A   1      36.030  21.644  24.435  1.00  0.00    -0.315 N 
ATOM      7  N   UNL A   1      33.605  24.189  23.725  1.00  0.00    -0.334 N 
ATOM      8  C   UNL A   1      34.479  23.181  23.990  1.00  0.00     0.114 A 
ATOM      9  C   UNL A   1      32.506  24.010  24.586  1.00  0.00     0.049 A 
ATOM     10  C   UNL A   1      33.954  22.336  24.932  1.00  0.00     0.018 A 
ATOM     11  C   UNL A   1      35.799  22.769  23.640  1.00  0.00     0.272 C 
ATOM     12  C   UNL A   1      32.761  22.893  25.406  1.00  0.00     0.006 A 
ATOM     13  C   UNL A   1      31.310  24.734  24.731  1.00  0.00     0.027 A 
ATOM     14  C   UNL A   1      34.838  21.163  25.189  1.00  0.00     0.150 C 
ATOM     15  O   UNL A   1      36.622  23.301  22.926  1.00  0.00    -0.267 OA
ATOM     16  C   UNL A   1      31.853  22.542  26.422  1.00  0.00     0.011 A 
ATOM     17  C   UNL A   1      30.429  24.378  25.758  1.00  0.00     0.002 A 
ATOM     18  C   UNL A   1      30.700  23.306  26.602  1.00  0.00     0.001 A 
BRANCH   7  19
ATOM     19  C   UNL A   1      33.722  25.261  22.728  1.00  0.00     0.082 C 
ATOM     20  C   UNL A   1      32.678  25.140  21.609  1.00  0.00     0.031 C 
ATOM     21  C   UNL A   1      33.650  26.699  23.253  1.00  0.00     0.031 C 
ENDBRANCH   7  19
BRANCH  14  22
ATOM     22  C   UNL A   1      34.154  19.903  24.613  1.00  0.00    -0.021 A 
ATOM     23  C   UNL A   1      32.912  20.005  23.959  1.00  0.00     0.006 A 
ATOM     24  C   UNL A   1      34.712  18.609  24.621  1.00  0.00     0.006 A 
ATOM     25  C   UNL A   1      32.287  18.928  23.315  1.00  0.00     0.000 A 
ATOM     26  C   UNL A   1      34.095  17.522  23.979  1.00  0.00     0.000 A 
ATOM     27  C   UNL A   1      32.885  17.682  23.319  1.00  0.00     0.000 A 
ENDBRANCH  14  22
ENDBRANCH   5   6
ENDBRANCH   3   5
ENDBRANCH   2   3
ENDBRANCH   1   2
BRANCH   1  28
ATOM     28  C   UNL A   1      41.121  20.496  27.065  1.00  0.00     0.275 C 
BRANCH  28  29
ATOM     29  O   UNL A   1      41.288  21.791  27.665  1.00  0.00    -0.458 OA
BRANCH  29  30
ATOM     30  C   UNL A   1      42.495  22.363  27.456  1.00  0.00     0.338 C 
ATOM     31  O   UNL A   1      43.401  21.957  26.749  1.00  0.00    -0.246 OA
BRANCH  30  32
ATOM     32  C   UNL A   1      42.306  23.777  27.809  1.00  0.00     0.060 A 
ATOM     33  C   UNL A   1      43.122  24.503  28.662  1.00  0.00     0.016 A 
ATOM     34  C   UNL A   1      41.102  24.310  27.367  1.00  0.00     0.016 A 
ATOM     35  C   UNL A   1      42.664  25.740  29.121  1.00  0.00     0.010 A 
ATOM     36  C   UNL A   1      40.653  25.546  27.801  1.00  0.00     0.010 A 
ATOM     37  C   UNL A   1      41.401  26.232  28.733  1.00  0.00    -0.014 A 
BRANCH  37  38
ATOM     38  C   UNL A   1      40.988  27.569  29.126  1.00  0.00     0.031 A 
ATOM     39  C   UNL A   1      41.771  28.624  28.456  1.00  0.00     0.074 A 
ATOM     40  C   UNL A   1      39.969  27.971  29.910  1.00  0.00     0.049 A 
ATOM     41  N   UNL A   1      42.778  29.244  28.965  1.00  0.00    -0.248 NA
ATOM     42  C   UNL A   1      41.496  28.937  27.051  1.00  0.00     0.031 C 
ATOM     43  C   UNL A   1      38.810  27.250  30.430  1.00  0.00     0.029 A 
ATOM     44  N   UNL A   1      39.793  29.236  30.395  1.00  0.00    -0.354 N 
ATOM     45  C   UNL A   1      43.211  30.132  27.997  1.00  0.00     0.074 A 
ATOM     46  C   UNL A   1      42.461  29.826  26.800  1.00  0.00     0.031 C 
ATOM     47  C   UNL A   1      37.965  28.134  31.025  1.00  0.00     0.029 A 
ATOM     48  C   UNL A   1      38.608  29.439  31.080  1.00  0.00     0.049 A 
ATOM     49  H   UNL A   1      40.457  29.951  30.266  1.00  0.00     0.167 HD
ATOM     50  C   UNL A   1      44.054  31.149  28.312  1.00  0.00     0.031 A 
ATOM     51  C   UNL A   1      38.217  30.604  31.651  1.00  0.00     0.031 A 
ATOM     52  C   UNL A   1      44.613  30.991  29.633  1.00  0.00     0.049 A 
ATOM     53  C   UNL A   1      39.435  31.404  31.928  1.00  0.00     0.074 A 
ATOM     54  C   UNL A   1      45.397  30.030  30.243  1.00  0.00     0.029 A 
ATOM     55  N   UNL A   1      44.038  31.710  30.655  1.00  0.00    -0.354 N 
ATOM     56  N   UNL A   1      40.322  31.088  32.826  1.00  0.00    -0.248 NA
ATOM     57  C   UNL A   1      39.854  32.411  30.969  1.00  0.00     0.031 C 
ATOM     58  C   UNL A   1      44.887  29.920  31.570  1.00  0.00     0.029 A 
ATOM     59  C   UNL A   1      43.851  30.848  31.709  1.00  0.00     0.049 A 
ATOM     60  H   UNL A   1      43.802  32.665  30.636  1.00  0.00     0.167 HD
ATOM     61  C   UNL A   1      41.531  31.514  32.296  1.00  0.00     0.074 A 
ATOM     62  C   UNL A   1      41.163  32.437  31.229  1.00  0.00     0.031 C 
ATOM     63  C   UNL A   1      42.700  30.870  32.593  1.00  0.00     0.031 A 
BRANCH  50  64
ATOM     64  C   UNL A   1      44.143  32.436  27.550  1.00  0.00    -0.014 A 
ATOM     65  C   UNL A   1      43.732  33.674  28.074  1.00  0.00     0.009 A 
ATOM     66  C   UNL A   1      44.874  32.462  26.350  1.00  0.00     0.009 A 
ATOM     67  C   UNL A   1      44.028  34.881  27.435  1.00  0.00     0.001 A 
ATOM     68  C   UNL A   1      45.209  33.670  25.730  1.00  0.00     0.001 A 
ATOM     69  C   UNL A   1      44.786  34.878  26.273  1.00  0.00     0.000 A 
ENDBRANCH  50  64
BRANCH  51  70
ATOM     70  C   UNL A   1      36.873  31.204  31.765  1.00  0.00    -0.014 A 
ATOM     71  C   UNL A   1      36.158  31.534  30.603  1.00  0.00     0.009 A 
ATOM     72  C   UNL A   1      36.442  31.757  32.984  1.00  0.00     0.009 A 
ATOM     73  C   UNL A   1      35.088  32.435  30.646  1.00  0.00     0.001 A 
ATOM     74  C   UNL A   1      35.371  32.660  33.026  1.00  0.00     0.001 A 
ATOM     75  C   UNL A   1      34.709  33.014  31.853  1.00  0.00     0.000 A 
ENDBRANCH  51  70
BRANCH  63  76
ATOM     76  C   UNL A   1      42.707  29.885  33.745  1.00  0.00    -0.014 A 
ATOM     77  C   UNL A   1      42.266  28.574  33.505  1.00  0.00     0.009 A 
ATOM     78  C   UNL A   1      43.002  30.247  35.071  1.00  0.00     0.009 A 
ATOM     79  C   UNL A   1      42.124  27.656  34.552  1.00  0.00     0.001 A 
ATOM     80  C   UNL A   1      42.891  29.321  36.115  1.00  0.00     0.001 A 
ATOM     81  C   UNL A   1      42.444  28.029  35.855  1.00  0.00     0.000 A 
ENDBRANCH  63  76
ENDBRANCH  37  38
ENDBRANCH  30  32
ENDBRANCH  29  30
ENDBRANCH  28  29
ENDBRANCH   1  28
TORSDOF 14
ENDMDL
