MODEL 1
REMARK VINA RESULT:      -8.8      0.000      0.000
REMARK SMILES COCc1nc2ccccc2n1CC(=O)OCCOC(=O)c1ccc(-c2c3nc(c(-c4ccccc4)c4ccc([nH]4)c(-c4ccccc4)c4nc(c(-c5ccccc5)c5ccc2[nH]5)C=C4)C=C3)cc1
REMARK SMILES IDX 17 1 16 2 14 3 15 4 13 5 12 6 4 7 5 8 6 9 11 10 7 11 10 12
REMARK SMILES IDX 8 13 9 14 3 15 2 16 1 17 18 18 19 19 20 20 21 21 22 22 23 23
REMARK SMILES IDX 69 24 24 25 68 26 25 27 26 28 27 29 62 30 28 31 67 32 61 33
REMARK SMILES IDX 63 34 29 35 66 36 60 37 59 38 30 40 52 41 37 42 51 43 38 44
REMARK SMILES IDX 41 45 50 46 64 47 39 48 40 49 49 51 65 52 42 53 31 54 32 55
REMARK SMILES IDX 36 56 33 57 35 58 34 59 53 60 54 61 58 62 55 63 57 64 56 65
REMARK SMILES IDX 43 66 44 67 48 68 45 69 47 70 46 71
REMARK H PARENT 63 39 41 50
REMARK Flexibility Score: inf
ROOT
ATOM      1  C   UNL A   1      34.395  34.476  30.866  1.00  0.00     0.274 C 
ENDROOT
BRANCH   1   2
ATOM      2  O   UNL A   1      34.477  33.306  31.721  1.00  0.00    -0.461 OA
BRANCH   2   3
ATOM      3  C   UNL A   1      34.948  33.506  32.978  1.00  0.00     0.326 C 
ATOM      4  O   UNL A   1      34.397  33.085  33.994  1.00  0.00    -0.250 OA
BRANCH   3   5
ATOM      5  C   UNL A   1      36.276  34.213  33.059  1.00  0.00     0.246 C 
BRANCH   5   6
ATOM      6  N   UNL A   1      37.488  33.462  32.768  1.00  0.00    -0.315 N 
ATOM      7  C   UNL A   1      38.173  32.600  33.612  1.00  0.00     0.136 A 
ATOM      8  N   UNL A   1      39.321  32.244  33.067  1.00  0.00    -0.231 NA
ATOM      9  C   UNL A   1      39.464  33.008  31.946  1.00  0.00     0.089 A 
ATOM     10  C   UNL A   1      38.333  33.782  31.722  1.00  0.00     0.069 A 
ATOM     11  C   UNL A   1      40.562  33.115  31.085  1.00  0.00     0.030 A 
ATOM     12  C   UNL A   1      38.243  34.687  30.655  1.00  0.00     0.028 A 
ATOM     13  C   UNL A   1      40.496  34.019  30.021  1.00  0.00     0.002 A 
ATOM     14  C   UNL A   1      39.355  34.794  29.813  1.00  0.00     0.002 A 
BRANCH   7  15
ATOM     15  C   UNL A   1      37.703  32.139  34.954  1.00  0.00     0.235 C 
BRANCH  15  16
ATOM     16  O   UNL A   1      38.009  33.139  35.936  1.00  0.00    -0.377 OA
ATOM     17  C   UNL A   1      39.280  32.925  36.549  1.00  0.00     0.195 C 
ENDBRANCH  15  16
ENDBRANCH   7  15
ENDBRANCH   5   6
ENDBRANCH   3   5
ENDBRANCH   2   3
ENDBRANCH   1   2
BRANCH   1  18
ATOM     18  C   UNL A   1      34.493  34.080  29.387  1.00  0.00     0.275 C 
BRANCH  18  19
ATOM     19  O   UNL A   1      35.443  33.013  29.249  1.00  0.00    -0.458 OA
BRANCH  19  20
ATOM     20  C   UNL A   1      35.094  32.000  28.419  1.00  0.00     0.338 C 
ATOM     21  O   UNL A   1      34.141  31.968  27.659  1.00  0.00    -0.246 OA
BRANCH  20  22
ATOM     22  C   UNL A   1      36.298  31.154  28.294  1.00  0.00     0.060 A 
ATOM     23  C   UNL A   1      36.209  29.771  28.117  1.00  0.00     0.016 A 
ATOM     24  C   UNL A   1      37.511  31.745  28.647  1.00  0.00     0.016 A 
ATOM     25  C   UNL A   1      37.301  28.976  28.448  1.00  0.00     0.010 A 
ATOM     26  C   UNL A   1      38.563  30.948  29.067  1.00  0.00     0.010 A 
ATOM     27  C   UNL A   1      38.447  29.562  29.002  1.00  0.00    -0.014 A 
BRANCH  27  28
ATOM     28  C   UNL A   1      39.644  28.756  29.191  1.00  0.00     0.031 A 
ATOM     29  C   UNL A   1      39.947  28.556  30.624  1.00  0.00     0.074 A 
ATOM     30  C   UNL A   1      40.406  28.132  28.275  1.00  0.00     0.049 A 
ATOM     31  N   UNL A   1      40.781  29.242  31.327  1.00  0.00    -0.248 NA
ATOM     32  C   UNL A   1      39.117  27.621  31.398  1.00  0.00     0.031 C 
ATOM     33  C   UNL A   1      40.139  27.874  26.862  1.00  0.00     0.029 A 
ATOM     34  N   UNL A   1      41.614  27.524  28.485  1.00  0.00    -0.354 N 
ATOM     35  C   UNL A   1      40.711  28.713  32.607  1.00  0.00     0.074 A 
ATOM     36  C   UNL A   1      39.544  27.871  32.636  1.00  0.00     0.031 C 
ATOM     37  C   UNL A   1      41.069  27.007  26.386  1.00  0.00     0.029 A 
ATOM     38  C   UNL A   1      42.083  26.789  27.409  1.00  0.00     0.049 A 
ATOM     39  H   UNL A   1      42.110  27.605  29.332  1.00  0.00     0.167 HD
ATOM     40  C   UNL A   1      41.760  28.818  33.464  1.00  0.00     0.031 A 
ATOM     41  C   UNL A   1      43.227  26.063  27.381  1.00  0.00     0.031 A 
ATOM     42  C   UNL A   1      42.767  29.712  32.950  1.00  0.00     0.049 A 
ATOM     43  C   UNL A   1      44.144  26.608  28.406  1.00  0.00     0.074 A 
ATOM     44  C   UNL A   1      42.879  31.070  32.748  1.00  0.00     0.029 A 
ATOM     45  N   UNL A   1      43.733  29.105  32.186  1.00  0.00    -0.354 N 
ATOM     46  N   UNL A   1      44.713  27.775  28.314  1.00  0.00    -0.248 NA
ATOM     47  C   UNL A   1      44.264  25.958  29.704  1.00  0.00     0.031 C 
ATOM     48  C   UNL A   1      43.764  31.228  31.642  1.00  0.00     0.029 A 
ATOM     49  C   UNL A   1      44.189  29.966  31.221  1.00  0.00     0.049 A 
ATOM     50  H   UNL A   1      44.053  28.183  32.313  1.00  0.00     0.167 HD
ATOM     51  C   UNL A   1      44.863  28.189  29.623  1.00  0.00     0.074 A 
ATOM     52  C   UNL A   1      44.760  26.973  30.417  1.00  0.00     0.031 C 
ATOM     53  C   UNL A   1      44.737  29.505  29.958  1.00  0.00     0.031 A 
BRANCH  40  54
ATOM     54  C   UNL A   1      42.090  27.800  34.526  1.00  0.00    -0.014 A 
ATOM     55  C   UNL A   1      41.675  27.894  35.867  1.00  0.00     0.009 A 
ATOM     56  C   UNL A   1      42.618  26.562  34.118  1.00  0.00     0.009 A 
ATOM     57  C   UNL A   1      41.763  26.815  36.750  1.00  0.00     0.001 A 
ATOM     58  C   UNL A   1      42.672  25.466  34.987  1.00  0.00     0.001 A 
ATOM     59  C   UNL A   1      42.240  25.594  36.303  1.00  0.00     0.000 A 
ENDBRANCH  40  54
BRANCH  41  60
ATOM     60  C   UNL A   1      43.594  24.842  26.637  1.00  0.00    -0.014 A 
ATOM     61  C   UNL A   1      44.651  24.880  25.713  1.00  0.00     0.009 A 
ATOM     62  C   UNL A   1      42.705  23.754  26.579  1.00  0.00     0.009 A 
ATOM     63  C   UNL A   1      44.770  23.902  24.719  1.00  0.00     0.001 A 
ATOM     64  C   UNL A   1      42.823  22.779  25.583  1.00  0.00     0.001 A 
ATOM     65  C   UNL A   1      43.843  22.866  24.639  1.00  0.00     0.000 A 
ENDBRANCH  41  60
BRANCH  53  66
ATOM     66  C   UNL A   1      44.962  30.533  28.877  1.00  0.00    -0.014 A 
ATOM     67  C   UNL A   1      43.850  30.946  28.125  1.00  0.00     0.009 A 
ATOM     68  C   UNL A   1      46.225  31.038  28.523  1.00  0.00     0.009 A 
ATOM     69  C   UNL A   1      43.992  31.825  27.050  1.00  0.00     0.001 A 
ATOM     70  C   UNL A   1      46.362  31.947  27.467  1.00  0.00     0.001 A 
ATOM     71  C   UNL A   1      45.247  32.332  26.727  1.00  0.00     0.000 A 
ENDBRANCH  53  66
ENDBRANCH  27  28
ENDBRANCH  20  22
ENDBRANCH  19  20
ENDBRANCH  18  19
ENDBRANCH   1  18
TORSDOF 14
ENDMDL
MODEL 2
REMARK VINA RESULT:      -8.8      6.609     11.335
REMARK SMILES COCc1nc2ccccc2n1CC(=O)OCCOC(=O)c1ccc(-c2c3nc(c(-c4ccccc4)c4ccc([nH]4)c(-c4ccccc4)c4nc(c(-c5ccccc5)c5ccc2[nH]5)C=C4)C=C3)cc1
REMARK SMILES IDX 17 1 16 2 14 3 15 4 13 5 12 6 4 7 5 8 6 9 11 10 7 11 10 12
REMARK SMILES IDX 8 13 9 14 3 15 2 16 1 17 18 18 19 19 20 20 21 21 22 22 23 23
REMARK SMILES IDX 69 24 24 25 68 26 25 27 26 28 27 29 62 30 28 31 67 32 61 33
REMARK SMILES IDX 63 34 29 35 66 36 60 37 59 38 30 40 52 41 37 42 51 43 38 44
REMARK SMILES IDX 41 45 50 46 64 47 39 48 40 49 49 51 65 52 42 53 31 54 32 55
REMARK SMILES IDX 36 56 33 57 35 58 34 59 53 60 54 61 58 62 55 63 57 64 56 65
REMARK SMILES IDX 43 66 44 67 48 68 45 69 47 70 46 71
REMARK H PARENT 63 39 41 50
REMARK Flexibility Score: inf
ROOT
ATOM      1  C   UNL A   1      37.222  34.419  32.879  1.00  0.00     0.274 C 
ENDROOT
BRANCH   1   2
ATOM      2  O   UNL A   1      36.451  33.196  32.752  1.00  0.00    -0.461 OA
BRANCH   2   3
ATOM      3  C   UNL A   1      35.441  33.208  31.844  1.00  0.00     0.326 C 
ATOM      4  O   UNL A   1      34.284  32.877  32.099  1.00  0.00    -0.250 OA
BRANCH   3   5
ATOM      5  C   UNL A   1      35.805  33.757  30.490  1.00  0.00     0.246 C 
BRANCH   5   6
ATOM      6  N   UNL A   1      35.101  33.256  29.319  1.00  0.00    -0.315 N 
ATOM      7  C   UNL A   1      33.977  33.796  28.711  1.00  0.00     0.136 A 
ATOM      8  N   UNL A   1      33.516  32.973  27.788  1.00  0.00    -0.231 NA
ATOM      9  C   UNL A   1      34.237  31.821  27.911  1.00  0.00     0.089 A 
ATOM     10  C   UNL A   1      35.243  31.960  28.858  1.00  0.00     0.069 A 
ATOM     11  C   UNL A   1      34.058  30.594  27.261  1.00  0.00     0.030 A 
ATOM     12  C   UNL A   1      36.100  30.905  29.203  1.00  0.00     0.028 A 
ATOM     13  C   UNL A   1      34.895  29.527  27.599  1.00  0.00     0.002 A 
ATOM     14  C   UNL A   1      35.898  29.682  28.556  1.00  0.00     0.002 A 
BRANCH   7  15
ATOM     15  C   UNL A   1      33.352  35.112  29.048  1.00  0.00     0.235 C 
BRANCH  15  16
ATOM     16  O   UNL A   1      32.544  34.969  30.225  1.00  0.00    -0.377 OA
ATOM     17  C   UNL A   1      32.761  36.022  31.162  1.00  0.00     0.195 C 
ENDBRANCH  15  16
ENDBRANCH   7  15
ENDBRANCH   5   6
ENDBRANCH   3   5
ENDBRANCH   2   3
ENDBRANCH   1   2
BRANCH   1  18
ATOM     18  C   UNL A   1      38.725  34.115  32.913  1.00  0.00     0.275 C 
BRANCH  18  19
ATOM     19  O   UNL A   1      39.323  34.568  31.689  1.00  0.00    -0.458 OA
BRANCH  19  20
ATOM     20  C   UNL A   1      39.793  33.607  30.857  1.00  0.00     0.338 C 
ATOM     21  O   UNL A   1      39.276  32.531  30.609  1.00  0.00    -0.246 OA
BRANCH  20  22
ATOM     22  C   UNL A   1      40.795  34.274  30.001  1.00  0.00     0.060 A 
ATOM     23  C   UNL A   1      42.048  34.651  30.491  1.00  0.00     0.016 A 
ATOM     24  C   UNL A   1      40.335  34.770  28.780  1.00  0.00     0.016 A 
ATOM     25  C   UNL A   1      42.763  35.641  29.827  1.00  0.00     0.010 A 
ATOM     26  C   UNL A   1      41.002  35.822  28.175  1.00  0.00     0.010 A 
ATOM     27  C   UNL A   1      42.198  36.283  28.717  1.00  0.00    -0.014 A 
BRANCH  27  28
ATOM     28  C   UNL A   1      43.011  37.197  27.928  1.00  0.00     0.031 A 
ATOM     29  C   UNL A   1      44.287  36.575  27.514  1.00  0.00     0.074 A 
ATOM     30  C   UNL A   1      42.717  38.431  27.480  1.00  0.00     0.049 A 
ATOM     31  N   UNL A   1      45.424  36.708  28.106  1.00  0.00    -0.248 NA
ATOM     32  C   UNL A   1      44.268  35.568  26.444  1.00  0.00     0.031 C 
ATOM     33  C   UNL A   1      41.431  39.124  27.439  1.00  0.00     0.029 A 
ATOM     34  N   UNL A   1      43.573  39.316  26.884  1.00  0.00    -0.354 N 
ATOM     35  C   UNL A   1      46.313  35.930  27.381  1.00  0.00     0.074 A 
ATOM     36  C   UNL A   1      45.517  35.107  26.509  1.00  0.00     0.031 C 
ATOM     37  C   UNL A   1      41.557  40.248  26.687  1.00  0.00     0.029 A 
ATOM     38  C   UNL A   1      42.960  40.434  26.342  1.00  0.00     0.049 A 
ATOM     39  H   UNL A   1      44.546  39.171  26.846  1.00  0.00     0.167 HD
ATOM     40  C   UNL A   1      47.643  36.207  27.382  1.00  0.00     0.031 A 
ATOM     41  C   UNL A   1      43.580  41.430  25.665  1.00  0.00     0.031 A 
ATOM     42  C   UNL A   1      47.970  37.197  28.376  1.00  0.00     0.049 A 
ATOM     43  C   UNL A   1      45.003  41.447  26.071  1.00  0.00     0.074 A 
ATOM     44  C   UNL A   1      48.025  37.243  29.752  1.00  0.00     0.029 A 
ATOM     45  N   UNL A   1      47.923  38.495  27.927  1.00  0.00    -0.354 N 
ATOM     46  N   UNL A   1      45.410  41.803  27.254  1.00  0.00    -0.248 NA
ATOM     47  C   UNL A   1      46.014  40.821  25.227  1.00  0.00     0.031 C 
ATOM     48  C   UNL A   1      47.742  38.593  30.109  1.00  0.00     0.029 A 
ATOM     49  C   UNL A   1      47.553  39.337  28.943  1.00  0.00     0.049 A 
ATOM     50  H   UNL A   1      48.126  38.778  27.007  1.00  0.00     0.167 HD
ATOM     51  C   UNL A   1      46.557  41.064  27.461  1.00  0.00     0.074 A 
ATOM     52  C   UNL A   1      46.980  40.644  26.133  1.00  0.00     0.031 C 
ATOM     53  C   UNL A   1      46.874  40.598  28.703  1.00  0.00     0.031 A 
BRANCH  40  54
ATOM     54  C   UNL A   1      48.565  35.934  26.220  1.00  0.00    -0.014 A 
ATOM     55  C   UNL A   1      48.970  36.906  25.287  1.00  0.00     0.009 A 
ATOM     56  C   UNL A   1      49.267  34.715  26.201  1.00  0.00     0.009 A 
ATOM     57  C   UNL A   1      50.024  36.688  24.396  1.00  0.00     0.001 A 
ATOM     58  C   UNL A   1      50.349  34.507  25.339  1.00  0.00     0.001 A 
ATOM     59  C   UNL A   1      50.729  35.496  24.439  1.00  0.00     0.000 A 
ENDBRANCH  40  54
BRANCH  41  60
ATOM     60  C   UNL A   1      43.110  42.324  24.588  1.00  0.00    -0.014 A 
ATOM     61  C   UNL A   1      42.072  41.907  23.740  1.00  0.00     0.009 A 
ATOM     62  C   UNL A   1      43.895  43.418  24.183  1.00  0.00     0.009 A 
ATOM     63  C   UNL A   1      41.873  42.516  22.496  1.00  0.00     0.001 A 
ATOM     64  C   UNL A   1      43.698  44.024  22.936  1.00  0.00     0.001 A 
ATOM     65  C   UNL A   1      42.701  43.557  22.084  1.00  0.00     0.000 A 
ENDBRANCH  41  60
BRANCH  53  66
ATOM     66  C   UNL A   1      46.286  41.313  29.895  1.00  0.00    -0.014 A 
ATOM     67  C   UNL A   1      45.017  40.908  30.341  1.00  0.00     0.009 A 
ATOM     68  C   UNL A   1      46.892  42.410  30.531  1.00  0.00     0.009 A 
ATOM     69  C   UNL A   1      44.370  41.578  31.379  1.00  0.00     0.001 A 
ATOM     70  C   UNL A   1      46.258  43.061  31.596  1.00  0.00     0.001 A 
ATOM     71  C   UNL A   1      44.994  42.649  32.013  1.00  0.00     0.000 A 
ENDBRANCH  53  66
ENDBRANCH  27  28
ENDBRANCH  20  22
ENDBRANCH  19  20
ENDBRANCH  18  19
ENDBRANCH   1  18
TORSDOF 14
ENDMDL
MODEL 3
REMARK VINA RESULT:      -8.5      4.027      6.558
REMARK SMILES COCc1nc2ccccc2n1CC(=O)OCCOC(=O)c1ccc(-c2c3nc(c(-c4ccccc4)c4ccc([nH]4)c(-c4ccccc4)c4nc(c(-c5ccccc5)c5ccc2[nH]5)C=C4)C=C3)cc1
REMARK SMILES IDX 17 1 16 2 14 3 15 4 13 5 12 6 4 7 5 8 6 9 11 10 7 11 10 12
REMARK SMILES IDX 8 13 9 14 3 15 2 16 1 17 18 18 19 19 20 20 21 21 22 22 23 23
REMARK SMILES IDX 69 24 24 25 68 26 25 27 26 28 27 29 62 30 28 31 67 32 61 33
REMARK SMILES IDX 63 34 29 35 66 36 60 37 59 38 30 40 52 41 37 42 51 43 38 44
REMARK SMILES IDX 41 45 50 46 64 47 39 48 40 49 49 51 65 52 42 53 31 54 32 55
REMARK SMILES IDX 36 56 33 57 35 58 34 59 53 60 54 61 58 62 55 63 57 64 56 65
REMARK SMILES IDX 43 66 44 67 48 68 45 69 47 70 46 71
REMARK H PARENT 63 39 41 50
REMARK Flexibility Score: inf
ROOT
ATOM      1  C   UNL A   1      32.639  30.068  27.599  1.00  0.00     0.274 C 
ENDROOT
BRANCH   1   2
ATOM      2  O   UNL A   1      31.997  29.431  26.464  1.00  0.00    -0.461 OA
BRANCH   2   3
ATOM      3  C   UNL A   1      32.817  28.955  25.492  1.00  0.00     0.326 C 
ATOM      4  O   UNL A   1      33.897  28.409  25.711  1.00  0.00    -0.250 OA
BRANCH   3   5
ATOM      5  C   UNL A   1      32.271  29.050  24.092  1.00  0.00     0.246 C 
BRANCH   5   6
ATOM      6  N   UNL A   1      30.903  28.620  23.842  1.00  0.00    -0.315 N 
ATOM      7  C   UNL A   1      30.475  27.383  23.384  1.00  0.00     0.136 A 
ATOM      8  N   UNL A   1      29.185  27.419  23.107  1.00  0.00    -0.231 NA
ATOM      9  C   UNL A   1      28.808  28.725  23.222  1.00  0.00     0.089 A 
ATOM     10  C   UNL A   1      29.857  29.509  23.684  1.00  0.00     0.069 A 
ATOM     11  C   UNL A   1      27.580  29.320  22.909  1.00  0.00     0.030 A 
ATOM     12  C   UNL A   1      29.740  30.896  23.849  1.00  0.00     0.028 A 
ATOM     13  C   UNL A   1      27.447  30.704  23.056  1.00  0.00     0.002 A 
ATOM     14  C   UNL A   1      28.512  31.478  23.517  1.00  0.00     0.002 A 
BRANCH   7  15
ATOM     15  C   UNL A   1      31.337  26.173  23.207  1.00  0.00     0.235 C 
BRANCH  15  16
ATOM     16  O   UNL A   1      31.676  26.028  21.821  1.00  0.00    -0.377 OA
ATOM     17  C   UNL A   1      33.060  26.267  21.573  1.00  0.00     0.195 C 
ENDBRANCH  15  16
ENDBRANCH   7  15
ENDBRANCH   5   6
ENDBRANCH   3   5
ENDBRANCH   2   3
ENDBRANCH   1   2
BRANCH   1  18
ATOM     18  C   UNL A   1      33.199  31.442  27.210  1.00  0.00     0.275 C 
BRANCH  18  19
ATOM     19  O   UNL A   1      34.626  31.427  27.359  1.00  0.00    -0.458 OA
BRANCH  19  20
ATOM     20  C   UNL A   1      35.126  32.100  28.424  1.00  0.00     0.338 C 
ATOM     21  O   UNL A   1      34.580  32.988  29.056  1.00  0.00    -0.246 OA
BRANCH  20  22
ATOM     22  C   UNL A   1      36.242  31.274  28.930  1.00  0.00     0.060 A 
ATOM     23  C   UNL A   1      37.403  31.848  29.455  1.00  0.00     0.016 A 
ATOM     24  C   UNL A   1      36.212  29.920  28.596  1.00  0.00     0.016 A 
ATOM     25  C   UNL A   1      38.570  31.094  29.496  1.00  0.00     0.010 A 
ATOM     26  C   UNL A   1      37.395  29.202  28.548  1.00  0.00     0.010 A 
ATOM     27  C   UNL A   1      38.581  29.797  28.964  1.00  0.00    -0.014 A 
BRANCH  27  28
ATOM     28  C   UNL A   1      39.752  28.954  29.157  1.00  0.00     0.031 A 
ATOM     29  C   UNL A   1      40.048  28.751  30.591  1.00  0.00     0.074 A 
ATOM     30  C   UNL A   1      40.494  28.303  28.244  1.00  0.00     0.049 A 
ATOM     31  N   UNL A   1      40.904  29.414  31.291  1.00  0.00    -0.248 NA
ATOM     32  C   UNL A   1      39.190  27.847  31.369  1.00  0.00     0.031 C 
ATOM     33  C   UNL A   1      40.218  28.046  26.832  1.00  0.00     0.029 A 
ATOM     34  N   UNL A   1      41.682  27.657  28.456  1.00  0.00    -0.354 N 
ATOM     35  C   UNL A   1      40.818  28.894  32.572  1.00  0.00     0.074 A 
ATOM     36  C   UNL A   1      39.625  28.089  32.606  1.00  0.00     0.031 C 
ATOM     37  C   UNL A   1      41.120  27.148  26.360  1.00  0.00     0.029 A 
ATOM     38  C   UNL A   1      42.127  26.902  27.384  1.00  0.00     0.049 A 
ATOM     39  H   UNL A   1      42.180  27.726  29.302  1.00  0.00     0.167 HD
ATOM     40  C   UNL A   1      41.870  28.969  33.429  1.00  0.00     0.031 A 
ATOM     41  C   UNL A   1      43.247  26.140  27.359  1.00  0.00     0.031 A 
ATOM     42  C   UNL A   1      42.904  29.828  32.911  1.00  0.00     0.049 A 
ATOM     43  C   UNL A   1      44.182  26.661  28.382  1.00  0.00     0.074 A 
ATOM     44  C   UNL A   1      43.059  31.181  32.702  1.00  0.00     0.029 A 
ATOM     45  N   UNL A   1      43.851  29.187  32.149  1.00  0.00    -0.354 N 
ATOM     46  N   UNL A   1      44.787  27.808  28.284  1.00  0.00    -0.248 NA
ATOM     47  C   UNL A   1      44.281  26.013  29.683  1.00  0.00     0.031 C 
ATOM     48  C   UNL A   1      43.949  31.306  31.595  1.00  0.00     0.029 A 
ATOM     49  C   UNL A   1      44.333  30.029  31.181  1.00  0.00     0.049 A 
ATOM     50  H   UNL A   1      44.141  28.256  32.281  1.00  0.00     0.167 HD
ATOM     51  C   UNL A   1      44.950  28.223  29.591  1.00  0.00     0.074 A 
ATOM     52  C   UNL A   1      44.809  27.016  30.390  1.00  0.00     0.031 C 
ATOM     53  C   UNL A   1      44.867  29.544  29.920  1.00  0.00     0.031 A 
BRANCH  40  54
ATOM     54  C   UNL A   1      42.167  27.947  34.496  1.00  0.00    -0.014 A 
ATOM     55  C   UNL A   1      41.742  28.052  35.833  1.00  0.00     0.009 A 
ATOM     56  C   UNL A   1      42.672  26.696  34.095  1.00  0.00     0.009 A 
ATOM     57  C   UNL A   1      41.798  26.973  36.718  1.00  0.00     0.001 A 
ATOM     58  C   UNL A   1      42.694  25.601  34.966  1.00  0.00     0.001 A 
ATOM     59  C   UNL A   1      42.253  25.740  36.278  1.00  0.00     0.000 A 
ENDBRANCH  40  54
BRANCH  41  60
ATOM     60  C   UNL A   1      43.575  24.904  26.621  1.00  0.00    -0.014 A 
ATOM     61  C   UNL A   1      44.512  24.945  25.576  1.00  0.00     0.009 A 
ATOM     62  C   UNL A   1      42.732  23.782  26.710  1.00  0.00     0.009 A 
ATOM     63  C   UNL A   1      44.554  23.932  24.611  1.00  0.00     0.001 A 
ATOM     64  C   UNL A   1      42.773  22.772  25.742  1.00  0.00     0.001 A 
ATOM     65  C   UNL A   1      43.669  22.859  24.680  1.00  0.00     0.000 A 
ENDBRANCH  41  60
BRANCH  53  66
ATOM     66  C   UNL A   1      45.124  30.560  28.834  1.00  0.00    -0.014 A 
ATOM     67  C   UNL A   1      46.423  31.083  28.722  1.00  0.00     0.009 A 
ATOM     68  C   UNL A   1      44.129  31.073  27.985  1.00  0.00     0.009 A 
ATOM     69  C   UNL A   1      46.718  32.091  27.803  1.00  0.00     0.001 A 
ATOM     70  C   UNL A   1      44.432  32.059  27.039  1.00  0.00     0.001 A 
ATOM     71  C   UNL A   1      45.724  32.572  26.955  1.00  0.00     0.000 A 
ENDBRANCH  53  66
ENDBRANCH  27  28
ENDBRANCH  20  22
ENDBRANCH  19  20
ENDBRANCH  18  19
ENDBRANCH   1  18
TORSDOF 14
ENDMDL
