MODEL 1
REMARK VINA RESULT:      -9.3      0.000      0.000
REMARK SMILES COCc1cc(SCC(=O)OCCOC(=O)c2ccc(-c3c4nc(c(-c5ccccc5)c5ccc([nH]5)c(-c5ccccc5)c5nc(c(-c6ccccc6)c6ccc3[nH]6)C=C5)C=C4)cc2)nc(-c2cccnc2)n1
REMARK SMILES IDX 12 1 11 2 9 3 10 4 8 5 7 6 6 7 4 8 5 9 73 10 66 11 65 12
REMARK SMILES IDX 3 13 2 14 1 15 67 16 68 17 72 18 69 19 71 20 70 21 13 22
REMARK SMILES IDX 14 23 15 24 16 25 17 26 18 27 64 28 19 29 63 30 20 31 21 32
REMARK SMILES IDX 22 33 57 34 23 35 62 36 56 37 58 38 24 39 61 40 55 41 54 42
REMARK SMILES IDX 25 44 47 45 32 46 46 47 33 48 36 49 45 50 59 51 34 52 35 53
REMARK SMILES IDX 44 55 60 56 37 57 26 58 27 59 31 60 28 61 30 62 29 63 48 64
REMARK SMILES IDX 49 65 53 66 50 67 52 68 51 69 38 70 39 71 43 72 40 73 42 74
REMARK SMILES IDX 41 75
REMARK H PARENT 58 43 36 54
REMARK Flexibility Score: inf
ROOT
ATOM      1  C   UNL A   1      33.277  36.763  31.050  1.00  0.00     0.274 C 
ENDROOT
BRANCH   1   2
ATOM      2  O   UNL A   1      34.249  36.092  31.878  1.00  0.00    -0.461 OA
BRANCH   2   3
ATOM      3  C   UNL A   1      34.282  36.468  33.182  1.00  0.00     0.316 C 
ATOM      4  O   UNL A   1      33.997  37.595  33.580  1.00  0.00    -0.251 OA
BRANCH   3   5
ATOM      5  C   UNL A   1      34.663  35.373  34.156  1.00  0.00     0.199 C 
BRANCH   5   6
ATOM      6  S   UNL A   1      34.805  33.705  33.449  1.00  0.00    -0.094 SA
BRANCH   6   7
ATOM      7  C   UNL A   1      36.245  33.012  34.239  1.00  0.00     0.101 A 
ATOM      8  C   UNL A   1      37.890  32.809  35.918  1.00  0.00     0.071 A 
ATOM      9  C   UNL A   1      36.805  33.497  35.404  1.00  0.00     0.062 A 
ATOM     10  N   UNL A   1      38.373  31.706  35.323  1.00  0.00    -0.230 NA
ATOM     11  C   UNL A   1      37.768  31.304  34.199  1.00  0.00     0.162 A 
ATOM     12  N   UNL A   1      36.732  31.923  33.617  1.00  0.00    -0.222 NA
BRANCH   8  13
ATOM     13  C   UNL A   1      38.590  33.314  37.161  1.00  0.00     0.215 C 
BRANCH  13  14
ATOM     14  O   UNL A   1      38.475  32.481  38.317  1.00  0.00    -0.378 OA
ATOM     15  C   UNL A   1      37.183  32.560  38.909  1.00  0.00     0.195 C 
ENDBRANCH  13  14
ENDBRANCH   8  13
BRANCH  11  16
ATOM     16  C   UNL A   1      38.267  30.075  33.610  1.00  0.00     0.038 A 
ATOM     17  C   UNL A   1      37.481  29.261  32.789  1.00  0.00     0.015 A 
ATOM     18  C   UNL A   1      39.592  29.686  33.801  1.00  0.00     0.123 A 
ATOM     19  C   UNL A   1      38.039  28.130  32.196  1.00  0.00     0.021 A 
ATOM     20  N   UNL A   1      40.159  28.583  33.255  1.00  0.00    -0.264 NA
ATOM     21  C   UNL A   1      39.368  27.836  32.457  1.00  0.00     0.111 A 
ENDBRANCH  11  16
ENDBRANCH   6   7
ENDBRANCH   5   6
ENDBRANCH   3   5
ENDBRANCH   2   3
ENDBRANCH   1   2
BRANCH   1  22
ATOM     22  C   UNL A   1      32.487  35.768  30.206  1.00  0.00     0.275 C 
BRANCH  22  23
ATOM     23  O   UNL A   1      33.121  35.584  28.926  1.00  0.00    -0.458 OA
BRANCH  23  24
ATOM     24  C   UNL A   1      33.123  34.319  28.465  1.00  0.00     0.338 C 
ATOM     25  O   UNL A   1      32.238  33.763  27.822  1.00  0.00    -0.246 OA
BRANCH  24  26
ATOM     26  C   UNL A   1      34.385  33.626  28.780  1.00  0.00     0.060 A 
ATOM     27  C   UNL A   1      34.439  32.636  29.766  1.00  0.00     0.016 A 
ATOM     28  C   UNL A   1      35.565  34.116  28.211  1.00  0.00     0.016 A 
ATOM     29  C   UNL A   1      35.679  32.171  30.212  1.00  0.00     0.010 A 
ATOM     30  C   UNL A   1      36.800  33.613  28.622  1.00  0.00     0.010 A 
ATOM     31  C   UNL A   1      36.870  32.649  29.638  1.00  0.00    -0.014 A 
BRANCH  31  32
ATOM     32  C   UNL A   1      38.186  32.091  30.035  1.00  0.00     0.031 A 
ATOM     33  C   UNL A   1      38.665  30.759  29.528  1.00  0.00     0.074 A 
ATOM     34  C   UNL A   1      38.945  32.789  30.901  1.00  0.00     0.049 A 
ATOM     35  N   UNL A   1      39.761  30.110  29.833  1.00  0.00    -0.248 NA
ATOM     36  C   UNL A   1      37.814  30.072  28.547  1.00  0.00     0.031 C 
ATOM     37  C   UNL A   1      38.604  34.099  31.460  1.00  0.00     0.029 A 
ATOM     38  N   UNL A   1      40.154  32.483  31.472  1.00  0.00    -0.354 N 
ATOM     39  C   UNL A   1      39.740  28.947  29.073  1.00  0.00     0.074 A 
ATOM     40  C   UNL A   1      38.514  28.970  28.303  1.00  0.00     0.031 C 
ATOM     41  C   UNL A   1      39.582  34.486  32.292  1.00  0.00     0.029 A 
ATOM     42  C   UNL A   1      40.590  33.433  32.361  1.00  0.00     0.049 A 
ATOM     43  H   UNL A   1      40.659  31.665  31.264  1.00  0.00     0.167 HD
ATOM     44  C   UNL A   1      40.655  27.950  29.020  1.00  0.00     0.031 A 
ATOM     45  C   UNL A   1      41.664  33.445  33.172  1.00  0.00     0.031 A 
ATOM     46  C   UNL A   1      41.853  27.894  29.815  1.00  0.00     0.049 A 
ATOM     47  C   UNL A   1      42.604  32.278  33.176  1.00  0.00     0.074 A 
ATOM     48  C   UNL A   1      42.834  26.916  29.832  1.00  0.00     0.029 A 
ATOM     49  N   UNL A   1      42.226  28.849  30.745  1.00  0.00    -0.354 N 
ATOM     50  N   UNL A   1      42.568  31.191  32.447  1.00  0.00    -0.248 NA
ATOM     51  C   UNL A   1      43.725  32.339  34.123  1.00  0.00     0.031 C 
ATOM     52  C   UNL A   1      43.781  27.261  30.803  1.00  0.00     0.029 A 
ATOM     53  C   UNL A   1      43.407  28.471  31.362  1.00  0.00     0.049 A 
ATOM     54  H   UNL A   1      41.725  29.674  30.941  1.00  0.00     0.167 HD
ATOM     55  C   UNL A   1      43.666  30.440  32.839  1.00  0.00     0.074 A 
ATOM     56  C   UNL A   1      44.355  31.201  33.862  1.00  0.00     0.031 C 
ATOM     57  C   UNL A   1      44.070  29.228  32.389  1.00  0.00     0.031 A 
BRANCH  44  58
ATOM     58  C   UNL A   1      40.388  26.812  28.078  1.00  0.00    -0.014 A 
ATOM     59  C   UNL A   1      41.017  26.759  26.825  1.00  0.00     0.009 A 
ATOM     60  C   UNL A   1      39.560  25.752  28.473  1.00  0.00     0.009 A 
ATOM     61  C   UNL A   1      40.810  25.667  25.979  1.00  0.00     0.001 A 
ATOM     62  C   UNL A   1      39.363  24.657  27.630  1.00  0.00     0.001 A 
ATOM     63  C   UNL A   1      39.987  24.616  26.383  1.00  0.00     0.000 A 
ENDBRANCH  44  58
BRANCH  45  64
ATOM     64  C   UNL A   1      41.879  34.598  34.078  1.00  0.00    -0.014 A 
ATOM     65  C   UNL A   1      42.573  35.732  33.633  1.00  0.00     0.009 A 
ATOM     66  C   UNL A   1      41.366  34.575  35.384  1.00  0.00     0.009 A 
ATOM     67  C   UNL A   1      42.757  36.821  34.487  1.00  0.00     0.001 A 
ATOM     68  C   UNL A   1      41.535  35.673  36.227  1.00  0.00     0.001 A 
ATOM     69  C   UNL A   1      42.234  36.794  35.779  1.00  0.00     0.000 A 
ENDBRANCH  45  64
BRANCH  57  70
ATOM     70  C   UNL A   1      45.319  28.664  32.996  1.00  0.00    -0.014 A 
ATOM     71  C   UNL A   1      46.581  29.012  32.494  1.00  0.00     0.009 A 
ATOM     72  C   UNL A   1      45.230  27.784  34.085  1.00  0.00     0.009 A 
ATOM     73  C   UNL A   1      47.736  28.463  33.056  1.00  0.00     0.001 A 
ATOM     74  C   UNL A   1      46.387  27.251  34.654  1.00  0.00     0.001 A 
ATOM     75  C   UNL A   1      47.637  27.584  34.134  1.00  0.00     0.000 A 
ENDBRANCH  57  70
ENDBRANCH  31  32
ENDBRANCH  24  26
ENDBRANCH  23  24
ENDBRANCH  22  23
ENDBRANCH   1  22
TORSDOF 16
ENDMDL
MODEL 2
REMARK VINA RESULT:      -8.9      0.584      6.022
REMARK SMILES COCc1cc(SCC(=O)OCCOC(=O)c2ccc(-c3c4nc(c(-c5ccccc5)c5ccc([nH]5)c(-c5ccccc5)c5nc(c(-c6ccccc6)c6ccc3[nH]6)C=C5)C=C4)cc2)nc(-c2cccnc2)n1
REMARK SMILES IDX 12 1 11 2 9 3 10 4 8 5 7 6 6 7 4 8 5 9 73 10 66 11 65 12
REMARK SMILES IDX 3 13 2 14 1 15 67 16 68 17 72 18 69 19 71 20 70 21 13 22
REMARK SMILES IDX 14 23 15 24 16 25 17 26 18 27 64 28 19 29 63 30 20 31 21 32
REMARK SMILES IDX 22 33 57 34 23 35 62 36 56 37 58 38 24 39 61 40 55 41 54 42
REMARK SMILES IDX 25 44 47 45 32 46 46 47 33 48 36 49 45 50 59 51 34 52 35 53
REMARK SMILES IDX 44 55 60 56 37 57 26 58 27 59 31 60 28 61 30 62 29 63 48 64
REMARK SMILES IDX 49 65 53 66 50 67 52 68 51 69 38 70 39 71 43 72 40 73 42 74
REMARK SMILES IDX 41 75
REMARK H PARENT 58 43 36 54
REMARK Flexibility Score: inf
ROOT
ATOM      1  C   UNL A   1      33.044  36.857  30.837  1.00  0.00     0.274 C 
ENDROOT
BRANCH   1   2
ATOM      2  O   UNL A   1      34.109  36.704  31.798  1.00  0.00    -0.461 OA
BRANCH   2   3
ATOM      3  C   UNL A   1      33.728  36.558  33.093  1.00  0.00     0.316 C 
ATOM      4  O   UNL A   1      32.732  37.089  33.580  1.00  0.00    -0.251 OA
BRANCH   3   5
ATOM      5  C   UNL A   1      34.603  35.641  33.920  1.00  0.00     0.199 C 
BRANCH   5   6
ATOM      6  S   UNL A   1      34.695  33.917  33.353  1.00  0.00    -0.094 SA
BRANCH   6   7
ATOM      7  C   UNL A   1      36.145  33.264  34.158  1.00  0.00     0.101 A 
ATOM      8  C   UNL A   1      37.813  33.145  35.823  1.00  0.00     0.071 A 
ATOM      9  C   UNL A   1      36.721  33.806  35.289  1.00  0.00     0.062 A 
ATOM     10  N   UNL A   1      38.287  32.014  35.277  1.00  0.00    -0.230 NA
ATOM     11  C   UNL A   1      37.668  31.555  34.183  1.00  0.00     0.162 A 
ATOM     12  N   UNL A   1      36.624  32.145  33.584  1.00  0.00    -0.222 NA
BRANCH   8  13
ATOM     13  C   UNL A   1      38.529  33.711  37.029  1.00  0.00     0.215 C 
BRANCH  13  14
ATOM     14  O   UNL A   1      38.996  32.750  37.979  1.00  0.00    -0.378 OA
ATOM     15  C   UNL A   1      38.680  33.121  39.317  1.00  0.00     0.195 C 
ENDBRANCH  13  14
ENDBRANCH   8  13
BRANCH  11  16
ATOM     16  C   UNL A   1      38.159  30.298  33.650  1.00  0.00     0.038 A 
ATOM     17  C   UNL A   1      37.370  29.456  32.861  1.00  0.00     0.015 A 
ATOM     18  C   UNL A   1      39.479  29.907  33.864  1.00  0.00     0.123 A 
ATOM     19  C   UNL A   1      37.922  28.296  32.319  1.00  0.00     0.021 A 
ATOM     20  N   UNL A   1      40.040  28.777  33.368  1.00  0.00    -0.264 NA
ATOM     21  C   UNL A   1      39.247  28.003  32.599  1.00  0.00     0.111 A 
ENDBRANCH  11  16
ENDBRANCH   6   7
ENDBRANCH   5   6
ENDBRANCH   3   5
ENDBRANCH   2   3
ENDBRANCH   1   2
BRANCH   1  22
ATOM     22  C   UNL A   1      32.671  35.520  30.205  1.00  0.00     0.275 C 
BRANCH  22  23
ATOM     23  O   UNL A   1      33.108  35.476  28.833  1.00  0.00    -0.458 OA
BRANCH  23  24
ATOM     24  C   UNL A   1      33.154  34.247  28.287  1.00  0.00     0.338 C 
ATOM     25  O   UNL A   1      32.327  33.739  27.536  1.00  0.00    -0.246 OA
BRANCH  24  26
ATOM     26  C   UNL A   1      34.388  33.532  28.655  1.00  0.00     0.060 A 
ATOM     27  C   UNL A   1      34.400  32.603  29.700  1.00  0.00     0.016 A 
ATOM     28  C   UNL A   1      35.589  33.945  28.069  1.00  0.00     0.016 A 
ATOM     29  C   UNL A   1      35.621  32.124  30.186  1.00  0.00     0.010 A 
ATOM     30  C   UNL A   1      36.803  33.426  28.521  1.00  0.00     0.010 A 
ATOM     31  C   UNL A   1      36.831  32.525  29.595  1.00  0.00    -0.014 A 
BRANCH  31  32
ATOM     32  C   UNL A   1      38.124  31.948  30.037  1.00  0.00     0.031 A 
ATOM     33  C   UNL A   1      39.057  32.701  30.946  1.00  0.00     0.074 A 
ATOM     34  C   UNL A   1      38.478  30.733  29.576  1.00  0.00     0.049 A 
ATOM     35  N   UNL A   1      40.248  32.357  31.369  1.00  0.00    -0.248 NA
ATOM     36  C   UNL A   1      38.590  33.998  31.456  1.00  0.00     0.031 C 
ATOM     37  C   UNL A   1      37.662  29.891  28.698  1.00  0.00     0.029 A 
ATOM     38  N   UNL A   1      39.623  30.005  29.772  1.00  0.00    -0.354 N 
ATOM     39  C   UNL A   1      40.667  33.386  32.204  1.00  0.00     0.074 A 
ATOM     40  C   UNL A   1      39.611  34.375  32.216  1.00  0.00     0.031 C 
ATOM     41  C   UNL A   1      38.332  28.760  28.433  1.00  0.00     0.029 A 
ATOM     42  C   UNL A   1      39.638  28.820  29.081  1.00  0.00     0.049 A 
ATOM     43  H   UNL A   1      40.360  30.302  30.352  1.00  0.00     0.167 HD
ATOM     44  C   UNL A   1      41.826  33.498  32.895  1.00  0.00     0.031 A 
ATOM     45  C   UNL A   1      40.606  27.895  28.950  1.00  0.00     0.031 A 
ATOM     46  C   UNL A   1      42.902  32.543  32.854  1.00  0.00     0.049 A 
ATOM     47  C   UNL A   1      41.923  28.097  29.637  1.00  0.00     0.074 A 
ATOM     48  C   UNL A   1      44.117  32.582  33.518  1.00  0.00     0.029 A 
ATOM     49  N   UNL A   1      42.899  31.386  32.094  1.00  0.00    -0.354 N 
ATOM     50  N   UNL A   1      42.298  29.074  30.424  1.00  0.00    -0.248 NA
ATOM     51  C   UNL A   1      42.950  27.072  29.407  1.00  0.00     0.031 C 
ATOM     52  C   UNL A   1      44.865  31.464  33.128  1.00  0.00     0.029 A 
ATOM     53  C   UNL A   1      44.100  30.715  32.251  1.00  0.00     0.049 A 
ATOM     54  H   UNL A   1      42.153  31.085  31.526  1.00  0.00     0.167 HD
ATOM     55  C   UNL A   1      43.602  28.778  30.793  1.00  0.00     0.074 A 
ATOM     56  C   UNL A   1      43.949  27.525  30.153  1.00  0.00     0.031 C 
ATOM     57  C   UNL A   1      44.437  29.481  31.594  1.00  0.00     0.031 A 
BRANCH  44  58
ATOM     58  C   UNL A   1      42.008  34.717  33.752  1.00  0.00    -0.014 A 
ATOM     59  C   UNL A   1      41.549  34.734  35.078  1.00  0.00     0.009 A 
ATOM     60  C   UNL A   1      42.704  35.828  33.255  1.00  0.00     0.009 A 
ATOM     61  C   UNL A   1      41.775  35.851  35.887  1.00  0.00     0.001 A 
ATOM     62  C   UNL A   1      42.938  36.938  34.069  1.00  0.00     0.001 A 
ATOM     63  C   UNL A   1      42.471  36.949  35.383  1.00  0.00     0.000 A 
ENDBRANCH  44  58
BRANCH  45  64
ATOM     64  C   UNL A   1      40.370  26.709  28.094  1.00  0.00    -0.014 A 
ATOM     65  C   UNL A   1      39.639  25.616  28.581  1.00  0.00     0.009 A 
ATOM     66  C   UNL A   1      40.853  26.680  26.777  1.00  0.00     0.009 A 
ATOM     67  C   UNL A   1      39.405  24.509  27.764  1.00  0.00     0.001 A 
ATOM     68  C   UNL A   1      40.600  25.580  25.957  1.00  0.00     0.001 A 
ATOM     69  C   UNL A   1      39.880  24.493  26.452  1.00  0.00     0.000 A 
ENDBRANCH  45  64
BRANCH  57  70
ATOM     70  C   UNL A   1      45.799  28.900  31.826  1.00  0.00    -0.014 A 
ATOM     71  C   UNL A   1      46.873  29.229  30.988  1.00  0.00     0.009 A 
ATOM     72  C   UNL A   1      46.009  28.022  32.899  1.00  0.00     0.009 A 
ATOM     73  C   UNL A   1      48.132  28.665  31.203  1.00  0.00     0.001 A 
ATOM     74  C   UNL A   1      47.273  27.472  33.122  1.00  0.00     0.001 A 
ATOM     75  C   UNL A   1      48.330  27.788  32.269  1.00  0.00     0.000 A 
ENDBRANCH  57  70
ENDBRANCH  31  32
ENDBRANCH  24  26
ENDBRANCH  23  24
ENDBRANCH  22  23
ENDBRANCH   1  22
TORSDOF 16
ENDMDL
MODEL 3
REMARK VINA RESULT:      -8.2      1.266      6.498
REMARK SMILES COCc1cc(SCC(=O)OCCOC(=O)c2ccc(-c3c4nc(c(-c5ccccc5)c5ccc([nH]5)c(-c5ccccc5)c5nc(c(-c6ccccc6)c6ccc3[nH]6)C=C5)C=C4)cc2)nc(-c2cccnc2)n1
REMARK SMILES IDX 12 1 11 2 9 3 10 4 8 5 7 6 6 7 4 8 5 9 73 10 66 11 65 12
REMARK SMILES IDX 3 13 2 14 1 15 67 16 68 17 72 18 69 19 71 20 70 21 13 22
REMARK SMILES IDX 14 23 15 24 16 25 17 26 18 27 64 28 19 29 63 30 20 31 21 32
REMARK SMILES IDX 22 33 57 34 23 35 62 36 56 37 58 38 24 39 61 40 55 41 54 42
REMARK SMILES IDX 25 44 47 45 32 46 46 47 33 48 36 49 45 50 59 51 34 52 35 53
REMARK SMILES IDX 44 55 60 56 37 57 26 58 27 59 31 60 28 61 30 62 29 63 48 64
REMARK SMILES IDX 49 65 53 66 50 67 52 68 51 69 38 70 39 71 43 72 40 73 42 74
REMARK SMILES IDX 41 75
REMARK H PARENT 58 43 36 54
REMARK Flexibility Score: inf
ROOT
ATOM      1  C   UNL A   1      33.454  36.289  31.286  1.00  0.00     0.274 C 
ENDROOT
BRANCH   1   2
ATOM      2  O   UNL A   1      34.627  35.905  32.033  1.00  0.00    -0.461 OA
BRANCH   2   3
ATOM      3  C   UNL A   1      34.525  35.983  33.385  1.00  0.00     0.316 C 
ATOM      4  O   UNL A   1      34.070  36.954  33.985  1.00  0.00    -0.251 OA
BRANCH   3   5
ATOM      5  C   UNL A   1      34.981  34.749  34.135  1.00  0.00     0.199 C 
BRANCH   5   6
ATOM      6  S   UNL A   1      34.920  33.192  33.200  1.00  0.00    -0.094 SA
BRANCH   6   7
ATOM      7  C   UNL A   1      36.361  32.295  33.743  1.00  0.00     0.101 A 
ATOM      8  C   UNL A   1      38.019  30.620  33.638  1.00  0.00     0.071 A 
ATOM      9  C   UNL A   1      36.856  31.165  33.124  1.00  0.00     0.062 A 
ATOM     10  N   UNL A   1      38.653  31.171  34.685  1.00  0.00    -0.230 NA
ATOM     11  C   UNL A   1      38.107  32.268  35.223  1.00  0.00     0.162 A 
ATOM     12  N   UNL A   1      36.971  32.846  34.808  1.00  0.00    -0.222 NA
BRANCH   8  13
ATOM     13  C   UNL A   1      38.589  29.349  33.046  1.00  0.00     0.215 C 
BRANCH  13  14
ATOM     14  O   UNL A   1      37.653  28.512  32.362  1.00  0.00    -0.378 OA
ATOM     15  C   UNL A   1      38.238  27.284  31.944  1.00  0.00     0.195 C 
ENDBRANCH  13  14
ENDBRANCH   8  13
BRANCH  11  16
ATOM     16  C   UNL A   1      38.845  32.881  36.312  1.00  0.00     0.038 A 
ATOM     17  C   UNL A   1      38.457  34.090  36.897  1.00  0.00     0.015 A 
ATOM     18  C   UNL A   1      39.955  32.243  36.861  1.00  0.00     0.123 A 
ATOM     19  C   UNL A   1      39.166  34.592  37.987  1.00  0.00     0.021 A 
ATOM     20  N   UNL A   1      40.678  32.714  37.907  1.00  0.00    -0.264 NA
ATOM     21  C   UNL A   1      40.258  33.875  38.449  1.00  0.00     0.111 A 
ENDBRANCH  11  16
ENDBRANCH   6   7
ENDBRANCH   5   6
ENDBRANCH   3   5
ENDBRANCH   2   3
ENDBRANCH   1   2
BRANCH   1  22
ATOM     22  C   UNL A   1      32.848  35.097  30.554  1.00  0.00     0.275 C 
BRANCH  22  23
ATOM     23  O   UNL A   1      32.843  35.333  29.133  1.00  0.00    -0.458 OA
BRANCH  23  24
ATOM     24  C   UNL A   1      33.018  34.236  28.371  1.00  0.00     0.338 C 
ATOM     25  O   UNL A   1      32.271  33.818  27.492  1.00  0.00    -0.246 OA
BRANCH  24  26
ATOM     26  C   UNL A   1      34.292  33.562  28.672  1.00  0.00     0.060 A 
ATOM     27  C   UNL A   1      34.334  32.425  29.486  1.00  0.00     0.016 A 
ATOM     28  C   UNL A   1      35.480  34.195  28.289  1.00  0.00     0.016 A 
ATOM     29  C   UNL A   1      35.564  31.952  29.951  1.00  0.00     0.010 A 
ATOM     30  C   UNL A   1      36.709  33.689  28.713  1.00  0.00     0.010 A 
ATOM     31  C   UNL A   1      36.762  32.574  29.562  1.00  0.00    -0.014 A 
BRANCH  31  32
ATOM     32  C   UNL A   1      38.077  32.021  29.970  1.00  0.00     0.031 A 
ATOM     33  C   UNL A   1      39.028  32.800  30.837  1.00  0.00     0.074 A 
ATOM     34  C   UNL A   1      38.433  30.805  29.514  1.00  0.00     0.049 A 
ATOM     35  N   UNL A   1      40.237  32.479  31.225  1.00  0.00    -0.248 NA
ATOM     36  C   UNL A   1      38.560  34.098  31.343  1.00  0.00     0.031 C 
ATOM     37  C   UNL A   1      37.601  29.939  28.675  1.00  0.00     0.029 A 
ATOM     38  N   UNL A   1      39.593  30.095  29.683  1.00  0.00    -0.354 N 
ATOM     39  C   UNL A   1      40.669  33.525  32.031  1.00  0.00     0.074 A 
ATOM     40  C   UNL A   1      39.600  34.500  32.064  1.00  0.00     0.031 C 
ATOM     41  C   UNL A   1      38.277  28.813  28.405  1.00  0.00     0.029 A 
ATOM     42  C   UNL A   1      39.602  28.900  29.008  1.00  0.00     0.049 A 
ATOM     43  H   UNL A   1      40.345  30.411  30.234  1.00  0.00     0.167 HD
ATOM     44  C   UNL A   1      41.848  33.663  32.682  1.00  0.00     0.031 A 
ATOM     45  C   UNL A   1      40.579  27.987  28.859  1.00  0.00     0.031 A 
ATOM     46  C   UNL A   1      42.935  32.722  32.619  1.00  0.00     0.049 A 
ATOM     47  C   UNL A   1      41.914  28.217  29.499  1.00  0.00     0.074 A 
ATOM     48  C   UNL A   1      44.171  32.787  33.242  1.00  0.00     0.029 A 
ATOM     49  N   UNL A   1      42.924  31.554  31.876  1.00  0.00    -0.354 N 
ATOM     50  N   UNL A   1      42.301  29.210  30.260  1.00  0.00    -0.248 NA
ATOM     51  C   UNL A   1      42.948  27.202  29.250  1.00  0.00     0.031 C 
ATOM     52  C   UNL A   1      44.922  31.674  32.844  1.00  0.00     0.029 A 
ATOM     53  C   UNL A   1      44.139  30.902  32.003  1.00  0.00     0.049 A 
ATOM     54  H   UNL A   1      42.164  31.235  31.337  1.00  0.00     0.167 HD
ATOM     55  C   UNL A   1      43.620  28.937  30.590  1.00  0.00     0.074 A 
ATOM     56  C   UNL A   1      43.964  27.680  29.956  1.00  0.00     0.031 C 
ATOM     57  C   UNL A   1      44.472  29.663  31.353  1.00  0.00     0.031 A 
BRANCH  44  58
ATOM     58  C   UNL A   1      42.041  34.897  33.515  1.00  0.00    -0.014 A 
ATOM     59  C   UNL A   1      41.407  35.025  34.761  1.00  0.00     0.009 A 
ATOM     60  C   UNL A   1      42.915  35.905  33.086  1.00  0.00     0.009 A 
ATOM     61  C   UNL A   1      41.638  36.150  35.556  1.00  0.00     0.001 A 
ATOM     62  C   UNL A   1      43.153  37.023  33.888  1.00  0.00     0.001 A 
ATOM     63  C   UNL A   1      42.513  37.145  35.121  1.00  0.00     0.000 A 
ENDBRANCH  44  58
BRANCH  45  64
ATOM     64  C   UNL A   1      40.331  26.785  28.028  1.00  0.00    -0.014 A 
ATOM     65  C   UNL A   1      40.755  26.744  26.692  1.00  0.00     0.009 A 
ATOM     66  C   UNL A   1      39.692  25.664  28.580  1.00  0.00     0.009 A 
ATOM     67  C   UNL A   1      40.534  25.602  25.921  1.00  0.00     0.001 A 
ATOM     68  C   UNL A   1      39.490  24.518  27.811  1.00  0.00     0.001 A 
ATOM     69  C   UNL A   1      39.907  24.489  26.481  1.00  0.00     0.000 A 
ENDBRANCH  45  64
BRANCH  57  70
ATOM     70  C   UNL A   1      45.848  29.104  31.549  1.00  0.00    -0.014 A 
ATOM     71  C   UNL A   1      46.859  29.339  30.606  1.00  0.00     0.009 A 
ATOM     72  C   UNL A   1      46.136  28.343  32.691  1.00  0.00     0.009 A 
ATOM     73  C   UNL A   1      48.132  28.795  30.791  1.00  0.00     0.001 A 
ATOM     74  C   UNL A   1      47.414  27.815  32.880  1.00  0.00     0.001 A 
ATOM     75  C   UNL A   1      48.407  28.034  31.927  1.00  0.00     0.000 A 
ENDBRANCH  57  70
ENDBRANCH  31  32
ENDBRANCH  24  26
ENDBRANCH  23  24
ENDBRANCH  22  23
ENDBRANCH   1  22
TORSDOF 16
ENDMDL
