MODEL 1
REMARK VINA RESULT:      -9.3      0.000      0.000
REMARK SMILES C[C@@H](C(=O)OCCOC(=O)c1ccc(-c2c3nc(c(-c4ccccc4)c4ccc([nH]4)c(-c4ccccc4)c4nc(c(-c5ccccc5)c5ccc2[nH]5)C=C4)C=C3)cc1)c1ccc(NC2CCCC2)cc1F
REMARK SMILES IDX 6 1 5 2 3 3 4 4 2 5 1 6 59 7 60 8 70 9 61 10 69 11 71 12
REMARK SMILES IDX 62 13 63 14 64 16 65 17 68 18 66 19 67 20 7 21 8 22 9 23
REMARK SMILES IDX 10 24 11 25 12 26 58 27 13 28 57 29 14 30 15 31 16 32 51 33
REMARK SMILES IDX 17 34 56 35 50 36 52 37 18 38 55 39 49 40 48 41 19 43 41 44
REMARK SMILES IDX 26 45 40 46 27 47 30 48 39 49 53 50 28 51 29 52 38 54 54 55
REMARK SMILES IDX 31 56 20 57 21 58 25 59 22 60 24 61 23 62 42 63 43 64 47 65
REMARK SMILES IDX 44 66 46 67 45 68 32 69 33 70 37 71 34 72 36 73 35 74
REMARK H PARENT 63 15 52 42 30 53
REMARK Flexibility Score: inf
ROOT
ATOM      1  C   UNL A   1      42.616  19.839  25.724  1.00  0.00     0.274 C 
ENDROOT
BRANCH   1   2
ATOM      2  O   UNL A   1      43.441  20.721  26.516  1.00  0.00    -0.462 OA
BRANCH   2   3
ATOM      3  C   UNL A   1      44.344  21.491  25.840  1.00  0.00     0.313 C 
ATOM      4  O   UNL A   1      45.336  21.043  25.275  1.00  0.00    -0.252 OA
BRANCH   3   5
ATOM      5  C   UNL A   1      43.992  22.987  25.889  1.00  0.00     0.129 C 
ATOM      6  C   UNL A   1      43.223  23.466  24.649  1.00  0.00     0.025 C 
BRANCH   5   7
ATOM      7  C   UNL A   1      45.240  23.819  26.141  1.00  0.00     0.002 A 
ATOM      8  C   UNL A   1      45.900  24.460  25.100  1.00  0.00     0.010 A 
ATOM      9  C   UNL A   1      45.846  23.875  27.400  1.00  0.00     0.129 A 
ATOM     10  C   UNL A   1      47.133  25.087  25.320  1.00  0.00     0.026 A 
ATOM     11  C   UNL A   1      47.077  24.522  27.610  1.00  0.00     0.065 A 
ATOM     12  F   UNL A   1      45.262  23.260  28.439  1.00  0.00    -0.207 F 
ATOM     13  C   UNL A   1      47.769  25.136  26.561  1.00  0.00     0.037 A 
BRANCH  13  14
ATOM     14  N   UNL A   1      49.050  25.626  26.755  1.00  0.00    -0.382 N 
ATOM     15  H   UNL A   1      49.236  26.492  26.326  1.00  0.00     0.160 HD
BRANCH  14  16
ATOM     16  C   UNL A   1      50.182  25.044  27.510  1.00  0.00     0.079 C 
ATOM     17  C   UNL A   1      51.813  25.324  26.541  1.00  0.00     0.025 C 
ATOM     18  C   UNL A   1      50.275  25.474  29.297  1.00  0.00     0.025 C 
ATOM     19  C   UNL A   1      53.113  26.343  27.714  1.00  0.00     0.002 C 
ATOM     20  C   UNL A   1      51.925  26.429  29.674  1.00  0.00     0.002 C 
ENDBRANCH  14  16
ENDBRANCH  13  14
ENDBRANCH   5   7
ENDBRANCH   3   5
ENDBRANCH   2   3
ENDBRANCH   1   2
BRANCH   1  21
ATOM     21  C   UNL A   1      41.267  19.619  26.409  1.00  0.00     0.275 C 
BRANCH  21  22
ATOM     22  O   UNL A   1      40.958  20.789  27.180  1.00  0.00    -0.458 OA
BRANCH  22  23
ATOM     23  C   UNL A   1      40.038  21.629  26.656  1.00  0.00     0.338 C 
ATOM     24  O   UNL A   1      39.062  21.311  25.997  1.00  0.00    -0.246 OA
BRANCH  23  25
ATOM     25  C   UNL A   1      40.334  23.021  27.083  1.00  0.00     0.060 A 
ATOM     26  C   UNL A   1      39.687  24.126  26.532  1.00  0.00     0.016 A 
ATOM     27  C   UNL A   1      41.345  23.230  28.021  1.00  0.00     0.016 A 
ATOM     28  C   UNL A   1      40.078  25.421  26.891  1.00  0.00     0.010 A 
ATOM     29  C   UNL A   1      41.715  24.530  28.390  1.00  0.00     0.010 A 
ATOM     30  C   UNL A   1      41.097  25.658  27.830  1.00  0.00    -0.014 A 
BRANCH  30  31
ATOM     31  C   UNL A   1      41.495  27.051  28.228  1.00  0.00     0.031 A 
ATOM     32  C   UNL A   1      40.353  27.972  28.902  1.00  0.00     0.074 A 
ATOM     33  C   UNL A   1      42.674  27.561  27.735  1.00  0.00     0.049 A 
ATOM     34  N   UNL A   1      40.001  29.079  30.294  1.00  0.00    -0.248 NA
ATOM     35  C   UNL A   1      39.276  28.812  27.456  1.00  0.00     0.031 C 
ATOM     36  C   UNL A   1      43.787  26.790  27.153  1.00  0.00     0.029 A 
ATOM     37  N   UNL A   1      43.218  28.844  27.742  1.00  0.00    -0.354 N 
ATOM     38  C   UNL A   1      38.887  30.378  29.749  1.00  0.00     0.074 A 
ATOM     39  C   UNL A   1      38.576  30.004  27.974  1.00  0.00     0.031 C 
ATOM     40  C   UNL A   1      44.909  27.537  27.165  1.00  0.00     0.029 A 
ATOM     41  C   UNL A   1      44.582  28.868  27.647  1.00  0.00     0.049 A 
ATOM     42  H   UNL A   1      42.670  29.659  27.811  1.00  0.00     0.167 HD
ATOM     43  C   UNL A   1      38.656  31.631  30.205  1.00  0.00     0.031 A 
ATOM     44  C   UNL A   1      45.417  29.856  28.024  1.00  0.00     0.031 A 
ATOM     45  C   UNL A   1      39.666  32.593  30.579  1.00  0.00     0.049 A 
ATOM     46  C   UNL A   1      44.917  31.203  28.547  1.00  0.00     0.074 A 
ATOM     47  C   UNL A   1      39.492  33.919  30.942  1.00  0.00     0.029 A 
ATOM     48  N   UNL A   1      41.039  32.433  30.412  1.00  0.00    -0.354 N 
ATOM     49  N   UNL A   1      43.754  31.588  29.034  1.00  0.00    -0.248 NA
ATOM     50  C   UNL A   1      45.932  32.267  28.517  1.00  0.00     0.031 C 
ATOM     51  C   UNL A   1      40.714  34.585  30.727  1.00  0.00     0.029 A 
ATOM     52  C   UNL A   1      41.663  33.657  30.314  1.00  0.00     0.049 A 
ATOM     53  H   UNL A   1      41.501  31.564  30.370  1.00  0.00     0.167 HD
ATOM     54  C   UNL A   1      43.903  32.943  29.375  1.00  0.00     0.074 A 
ATOM     55  C   UNL A   1      45.278  33.288  29.050  1.00  0.00     0.031 C 
ATOM     56  C   UNL A   1      43.034  33.861  29.898  1.00  0.00     0.031 A 
BRANCH  43  57
ATOM     57  C   UNL A   1      37.245  32.037  29.943  1.00  0.00    -0.014 A 
ATOM     58  C   UNL A   1      36.977  32.829  28.812  1.00  0.00     0.009 A 
ATOM     59  C   UNL A   1      36.188  31.685  30.792  1.00  0.00     0.009 A 
ATOM     60  C   UNL A   1      35.684  33.279  28.548  1.00  0.00     0.001 A 
ATOM     61  C   UNL A   1      34.896  32.147  30.531  1.00  0.00     0.001 A 
ATOM     62  C   UNL A   1      34.645  32.944  29.413  1.00  0.00     0.000 A 
ENDBRANCH  43  57
BRANCH  44  63
ATOM     63  C   UNL A   1      46.876  29.574  28.052  1.00  0.00    -0.014 A 
ATOM     64  C   UNL A   1      47.468  29.187  29.266  1.00  0.00     0.009 A 
ATOM     65  C   UNL A   1      47.676  29.690  26.909  1.00  0.00     0.009 A 
ATOM     66  C   UNL A   1      48.836  28.930  29.336  1.00  0.00     0.001 A 
ATOM     67  C   UNL A   1      49.045  29.420  26.980  1.00  0.00     0.001 A 
ATOM     68  C   UNL A   1      49.624  29.043  28.192  1.00  0.00     0.000 A 
ENDBRANCH  44  63
BRANCH  56  69
ATOM     69  C   UNL A   1      43.543  35.276  30.010  1.00  0.00    -0.014 A 
ATOM     70  C   UNL A   1      43.410  36.174  28.937  1.00  0.00     0.009 A 
ATOM     71  C   UNL A   1      44.098  35.733  31.215  1.00  0.00     0.009 A 
ATOM     72  C   UNL A   1      43.852  37.493  29.059  1.00  0.00     0.001 A 
ATOM     73  C   UNL A   1      44.519  37.057  31.340  1.00  0.00     0.001 A 
ATOM     74  C   UNL A   1      44.402  37.933  30.261  1.00  0.00     0.000 A 
ENDBRANCH  56  69
ENDBRANCH  30  31
ENDBRANCH  23  25
ENDBRANCH  22  23
ENDBRANCH  21  22
ENDBRANCH   1  21
TORSDOF 14
ENDMDL
MODEL 2
REMARK VINA RESULT:      -9.2      5.336     10.531
REMARK SMILES C[C@@H](C(=O)OCCOC(=O)c1ccc(-c2c3nc(c(-c4ccccc4)c4ccc([nH]4)c(-c4ccccc4)c4nc(c(-c5ccccc5)c5ccc2[nH]5)C=C4)C=C3)cc1)c1ccc(NC2CCCC2)cc1F
REMARK SMILES IDX 6 1 5 2 3 3 4 4 2 5 1 6 59 7 60 8 70 9 61 10 69 11 71 12
REMARK SMILES IDX 62 13 63 14 64 16 65 17 68 18 66 19 67 20 7 21 8 22 9 23
REMARK SMILES IDX 10 24 11 25 12 26 58 27 13 28 57 29 14 30 15 31 16 32 51 33
REMARK SMILES IDX 17 34 56 35 50 36 52 37 18 38 55 39 49 40 48 41 19 43 41 44
REMARK SMILES IDX 26 45 40 46 27 47 30 48 39 49 53 50 28 51 29 52 38 54 54 55
REMARK SMILES IDX 31 56 20 57 21 58 25 59 22 60 24 61 23 62 42 63 43 64 47 65
REMARK SMILES IDX 44 66 46 67 45 68 32 69 33 70 37 71 34 72 36 73 35 74
REMARK H PARENT 63 15 52 42 30 53
REMARK Flexibility Score: inf
ROOT
ATOM      1  C   UNL A   1      30.798  28.156  24.441  1.00  0.00     0.274 C 
ENDROOT
BRANCH   1   2
ATOM      2  O   UNL A   1      31.867  27.268  24.836  1.00  0.00    -0.462 OA
BRANCH   2   3
ATOM      3  C   UNL A   1      31.620  26.445  25.898  1.00  0.00     0.313 C 
ATOM      4  O   UNL A   1      31.553  26.831  27.060  1.00  0.00    -0.252 OA
BRANCH   3   5
ATOM      5  C   UNL A   1      31.464  24.974  25.476  1.00  0.00     0.129 C 
ATOM      6  C   UNL A   1      30.285  24.272  26.168  1.00  0.00     0.025 C 
BRANCH   5   7
ATOM      7  C   UNL A   1      32.770  24.222  25.675  1.00  0.00     0.002 A 
ATOM      8  C   UNL A   1      33.017  23.502  26.836  1.00  0.00     0.010 A 
ATOM      9  C   UNL A   1      33.823  24.320  24.760  1.00  0.00     0.129 A 
ATOM     10  C   UNL A   1      34.281  22.949  27.074  1.00  0.00     0.026 A 
ATOM     11  C   UNL A   1      35.083  23.747  25.004  1.00  0.00     0.065 A 
ATOM     12  F   UNL A   1      33.648  25.018  23.627  1.00  0.00    -0.207 F 
ATOM     13  C   UNL A   1      35.355  23.054  26.189  1.00  0.00     0.037 A 
BRANCH  13  14
ATOM     14  N   UNL A   1      36.643  22.636  26.481  1.00  0.00    -0.382 N 
ATOM     15  H   UNL A   1      36.864  22.602  27.439  1.00  0.00     0.160 HD
BRANCH  14  16
ATOM     16  C   UNL A   1      37.737  22.235  25.568  1.00  0.00     0.079 C 
ATOM     17  C   UNL A   1      39.427  22.682  26.358  1.00  0.00     0.025 C 
ATOM     18  C   UNL A   1      37.643  20.529  24.887  1.00  0.00     0.025 C 
ATOM     19  C   UNL A   1      40.550  21.003  26.510  1.00  0.00     0.002 C 
ATOM     20  C   UNL A   1      39.189  19.494  25.447  1.00  0.00     0.002 C 
ENDBRANCH  14  16
ENDBRANCH  13  14
ENDBRANCH   5   7
ENDBRANCH   3   5
ENDBRANCH   2   3
ENDBRANCH   1   2
BRANCH   1  21
ATOM     21  C   UNL A   1      31.284  29.605  24.451  1.00  0.00     0.275 C 
BRANCH  21  22
ATOM     22  O   UNL A   1      32.471  29.677  25.253  1.00  0.00    -0.458 OA
BRANCH  22  23
ATOM     23  C   UNL A   1      32.474  30.597  26.243  1.00  0.00     0.338 C 
ATOM     24  O   UNL A   1      31.589  31.402  26.483  1.00  0.00    -0.246 OA
BRANCH  23  25
ATOM     25  C   UNL A   1      33.691  30.426  27.079  1.00  0.00     0.060 A 
ATOM     26  C   UNL A   1      34.299  31.491  27.741  1.00  0.00     0.016 A 
ATOM     27  C   UNL A   1      34.282  29.164  27.145  1.00  0.00     0.016 A 
ATOM     28  C   UNL A   1      35.503  31.296  28.427  1.00  0.00     0.010 A 
ATOM     29  C   UNL A   1      35.477  28.975  27.852  1.00  0.00     0.010 A 
ATOM     30  C   UNL A   1      36.121  30.037  28.505  1.00  0.00    -0.014 A 
BRANCH  30  31
ATOM     31  C   UNL A   1      37.402  29.831  29.263  1.00  0.00     0.031 A 
ATOM     32  C   UNL A   1      38.628  29.158  28.456  1.00  0.00     0.074 A 
ATOM     33  C   UNL A   1      37.373  29.931  30.635  1.00  0.00     0.049 A 
ATOM     34  N   UNL A   1      40.397  29.312  28.091  1.00  0.00    -0.248 NA
ATOM     35  C   UNL A   1      38.412  27.181  28.502  1.00  0.00     0.031 C 
ATOM     36  C   UNL A   1      36.322  30.572  31.446  1.00  0.00     0.029 A 
ATOM     37  N   UNL A   1      38.305  29.608  31.619  1.00  0.00    -0.354 N 
ATOM     38  C   UNL A   1      41.116  27.674  27.946  1.00  0.00     0.074 A 
ATOM     39  C   UNL A   1      39.707  26.525  28.232  1.00  0.00     0.031 C 
ATOM     40  C   UNL A   1      36.805  30.850  32.673  1.00  0.00     0.029 A 
ATOM     41  C   UNL A   1      38.152  30.314  32.781  1.00  0.00     0.049 A 
ATOM     42  H   UNL A   1      39.010  28.933  31.491  1.00  0.00     0.167 HD
ATOM     43  C   UNL A   1      42.379  27.215  28.109  1.00  0.00     0.031 A 
ATOM     44  C   UNL A   1      39.077  30.547  33.732  1.00  0.00     0.031 A 
ATOM     45  C   UNL A   1      43.268  27.557  29.194  1.00  0.00     0.049 A 
ATOM     46  C   UNL A   1      40.476  29.930  33.689  1.00  0.00     0.074 A 
ATOM     47  C   UNL A   1      44.521  27.034  29.471  1.00  0.00     0.029 A 
ATOM     48  N   UNL A   1      42.928  28.314  30.313  1.00  0.00    -0.354 N 
ATOM     49  N   UNL A   1      41.177  29.391  32.711  1.00  0.00    -0.248 NA
ATOM     50  C   UNL A   1      41.180  29.962  34.980  1.00  0.00     0.031 C 
ATOM     51  C   UNL A   1      44.787  27.263  30.835  1.00  0.00     0.029 A 
ATOM     52  C   UNL A   1      43.741  27.998  31.379  1.00  0.00     0.049 A 
ATOM     53  H   UNL A   1      42.207  28.984  30.337  1.00  0.00     0.167 HD
ATOM     54  C   UNL A   1      42.412  29.023  33.273  1.00  0.00     0.074 A 
ATOM     55  C   UNL A   1      42.351  29.427  34.669  1.00  0.00     0.031 C 
ATOM     56  C   UNL A   1      43.515  28.410  32.747  1.00  0.00     0.031 A 
BRANCH  43  57
ATOM     57  C   UNL A   1      42.630  26.034  27.233  1.00  0.00    -0.014 A 
ATOM     58  C   UNL A   1      42.837  24.783  27.841  1.00  0.00     0.009 A 
ATOM     59  C   UNL A   1      42.695  26.131  25.837  1.00  0.00     0.009 A 
ATOM     60  C   UNL A   1      43.126  23.657  27.072  1.00  0.00     0.001 A 
ATOM     61  C   UNL A   1      42.995  25.002  25.070  1.00  0.00     0.001 A 
ATOM     62  C   UNL A   1      43.213  23.769  25.686  1.00  0.00     0.000 A 
ENDBRANCH  43  57
BRANCH  44  63
ATOM     63  C   UNL A   1      38.765  31.540  34.792  1.00  0.00    -0.014 A 
ATOM     64  C   UNL A   1      39.125  32.883  34.589  1.00  0.00     0.009 A 
ATOM     65  C   UNL A   1      38.131  31.175  35.987  1.00  0.00     0.009 A 
ATOM     66  C   UNL A   1      38.862  33.841  35.568  1.00  0.00     0.001 A 
ATOM     67  C   UNL A   1      37.860  32.141  36.959  1.00  0.00     0.001 A 
ATOM     68  C   UNL A   1      38.228  33.470  36.751  1.00  0.00     0.000 A 
ENDBRANCH  44  63
BRANCH  56  69
ATOM     69  C   UNL A   1      44.619  28.070  33.719  1.00  0.00    -0.014 A 
ATOM     70  C   UNL A   1      45.666  28.976  33.960  1.00  0.00     0.009 A 
ATOM     71  C   UNL A   1      44.576  26.870  34.443  1.00  0.00     0.009 A 
ATOM     72  C   UNL A   1      46.665  28.671  34.885  1.00  0.00     0.001 A 
ATOM     73  C   UNL A   1      45.565  26.578  35.383  1.00  0.00     0.001 A 
ATOM     74  C   UNL A   1      46.611  27.475  35.598  1.00  0.00     0.000 A 
ENDBRANCH  56  69
ENDBRANCH  30  31
ENDBRANCH  23  25
ENDBRANCH  22  23
ENDBRANCH  21  22
ENDBRANCH   1  21
TORSDOF 14
ENDMDL
MODEL 3
REMARK VINA RESULT:      -9.0      5.826      9.090
REMARK SMILES C[C@@H](C(=O)OCCOC(=O)c1ccc(-c2c3nc(c(-c4ccccc4)c4ccc([nH]4)c(-c4ccccc4)c4nc(c(-c5ccccc5)c5ccc2[nH]5)C=C4)C=C3)cc1)c1ccc(NC2CCCC2)cc1F
REMARK SMILES IDX 6 1 5 2 3 3 4 4 2 5 1 6 59 7 60 8 70 9 61 10 69 11 71 12
REMARK SMILES IDX 62 13 63 14 64 16 65 17 68 18 66 19 67 20 7 21 8 22 9 23
REMARK SMILES IDX 10 24 11 25 12 26 58 27 13 28 57 29 14 30 15 31 16 32 51 33
REMARK SMILES IDX 17 34 56 35 50 36 52 37 18 38 55 39 49 40 48 41 19 43 41 44
REMARK SMILES IDX 26 45 40 46 27 47 30 48 39 49 53 50 28 51 29 52 38 54 54 55
REMARK SMILES IDX 31 56 20 57 21 58 25 59 22 60 24 61 23 62 42 63 43 64 47 65
REMARK SMILES IDX 44 66 46 67 45 68 32 69 33 70 37 71 34 72 36 73 35 74
REMARK H PARENT 63 15 52 42 30 53
REMARK Flexibility Score: inf
ROOT
ATOM      1  C   UNL A   1      37.289  22.909  25.668  1.00  0.00     0.274 C 
ENDROOT
BRANCH   1   2
ATOM      2  O   UNL A   1      37.158  23.516  24.364  1.00  0.00    -0.462 OA
BRANCH   2   3
ATOM      3  C   UNL A   1      36.139  23.063  23.576  1.00  0.00     0.313 C 
ATOM      4  O   UNL A   1      36.253  22.839  22.375  1.00  0.00    -0.252 OA
BRANCH   3   5
ATOM      5  C   UNL A   1      34.825  22.891  24.355  1.00  0.00     0.129 C 
ATOM      6  C   UNL A   1      33.858  21.897  23.694  1.00  0.00     0.025 C 
BRANCH   5   7
ATOM      7  C   UNL A   1      34.172  24.242  24.601  1.00  0.00     0.002 A 
ATOM      8  C   UNL A   1      34.095  25.198  23.597  1.00  0.00     0.010 A 
ATOM      9  C   UNL A   1      33.733  24.627  25.871  1.00  0.00     0.129 A 
ATOM     10  C   UNL A   1      33.637  26.491  23.880  1.00  0.00     0.026 A 
ATOM     11  C   UNL A   1      33.261  25.924  26.139  1.00  0.00     0.065 A 
ATOM     12  F   UNL A   1      33.799  23.750  26.885  1.00  0.00    -0.207 F 
ATOM     13  C   UNL A   1      33.217  26.907  25.144  1.00  0.00     0.037 A 
BRANCH  13  14
ATOM     14  N   UNL A   1      32.902  28.217  25.463  1.00  0.00    -0.382 N 
ATOM     15  H   UNL A   1      32.620  28.776  24.703  1.00  0.00     0.160 HD
BRANCH  14  16
ATOM     16  C   UNL A   1      32.924  28.904  26.774  1.00  0.00     0.079 C 
ATOM     17  C   UNL A   1      34.740  29.123  27.352  1.00  0.00     0.025 C 
ATOM     18  C   UNL A   1      31.893  30.421  26.915  1.00  0.00     0.025 C 
ATOM     19  C   UNL A   1      35.103  31.092  27.660  1.00  0.00     0.002 C 
ATOM     20  C   UNL A   1      33.011  31.961  27.305  1.00  0.00     0.002 C 
ENDBRANCH  14  16
ENDBRANCH  13  14
ENDBRANCH   5   7
ENDBRANCH   3   5
ENDBRANCH   2   3
ENDBRANCH   1   2
BRANCH   1  21
ATOM     21  C   UNL A   1      38.633  23.285  26.293  1.00  0.00     0.275 C 
BRANCH  21  22
ATOM     22  O   UNL A   1      38.878  24.674  26.034  1.00  0.00    -0.458 OA
BRANCH  22  23
ATOM     23  C   UNL A   1      40.077  25.157  26.426  1.00  0.00     0.338 C 
ATOM     24  O   UNL A   1      41.155  24.928  25.903  1.00  0.00    -0.246 OA
BRANCH  23  25
ATOM     25  C   UNL A   1      39.887  26.107  27.554  1.00  0.00     0.060 A 
ATOM     26  C   UNL A   1      40.364  27.416  27.519  1.00  0.00     0.016 A 
ATOM     27  C   UNL A   1      39.267  25.646  28.716  1.00  0.00     0.016 A 
ATOM     28  C   UNL A   1      40.254  28.235  28.648  1.00  0.00     0.010 A 
ATOM     29  C   UNL A   1      39.143  26.480  29.834  1.00  0.00     0.010 A 
ATOM     30  C   UNL A   1      39.639  27.793  29.832  1.00  0.00    -0.014 A 
BRANCH  30  31
ATOM     31  C   UNL A   1      39.503  28.686  31.032  1.00  0.00     0.031 A 
ATOM     32  C   UNL A   1      38.152  29.565  31.139  1.00  0.00     0.074 A 
ATOM     33  C   UNL A   1      40.623  28.940  31.790  1.00  0.00     0.049 A 
ATOM     34  N   UNL A   1      36.809  30.051  32.255  1.00  0.00    -0.248 NA
ATOM     35  C   UNL A   1      38.387  31.224  30.068  1.00  0.00     0.031 C 
ATOM     36  C   UNL A   1      41.875  28.160  31.792  1.00  0.00     0.029 A 
ATOM     37  N   UNL A   1      40.880  29.853  32.810  1.00  0.00    -0.354 N 
ATOM     38  C   UNL A   1      36.326  31.742  31.898  1.00  0.00     0.074 A 
ATOM     39  C   UNL A   1      37.428  32.255  30.516  1.00  0.00     0.031 C 
ATOM     40  C   UNL A   1      42.570  28.427  32.916  1.00  0.00     0.029 A 
ATOM     41  C   UNL A   1      41.882  29.469  33.658  1.00  0.00     0.049 A 
ATOM     42  H   UNL A   1      40.383  30.697  32.913  1.00  0.00     0.167 HD
ATOM     43  C   UNL A   1      35.729  32.697  32.649  1.00  0.00     0.031 A 
ATOM     44  C   UNL A   1      42.096  29.884  34.922  1.00  0.00     0.031 A 
ATOM     45  C   UNL A   1      36.068  33.035  34.011  1.00  0.00     0.049 A 
ATOM     46  C   UNL A   1      41.258  30.979  35.583  1.00  0.00     0.074 A 
ATOM     47  C   UNL A   1      35.571  34.072  34.784  1.00  0.00     0.029 A 
ATOM     48  N   UNL A   1      37.144  32.521  34.730  1.00  0.00    -0.354 N 
ATOM     49  N   UNL A   1      40.075  31.485  35.295  1.00  0.00    -0.248 NA
ATOM     50  C   UNL A   1      41.883  31.568  36.777  1.00  0.00     0.031 C 
ATOM     51  C   UNL A   1      36.507  34.329  35.806  1.00  0.00     0.029 A 
ATOM     52  C   UNL A   1      37.536  33.401  35.714  1.00  0.00     0.049 A 
ATOM     53  H   UNL A   1      37.566  31.648  34.558  1.00  0.00     0.167 HD
ATOM     54  C   UNL A   1      39.813  32.450  36.282  1.00  0.00     0.074 A 
ATOM     55  C   UNL A   1      40.960  32.431  37.175  1.00  0.00     0.031 C 
ATOM     56  C   UNL A   1      38.759  33.300  36.481  1.00  0.00     0.031 A 
BRANCH  43  57
ATOM     57  C   UNL A   1      34.916  33.610  31.794  1.00  0.00    -0.014 A 
ATOM     58  C   UNL A   1      34.366  34.763  32.382  1.00  0.00     0.009 A 
ATOM     59  C   UNL A   1      34.657  33.347  30.443  1.00  0.00     0.009 A 
ATOM     60  C   UNL A   1      33.556  35.623  31.643  1.00  0.00     0.001 A 
ATOM     61  C   UNL A   1      33.836  34.205  29.707  1.00  0.00     0.001 A 
ATOM     62  C   UNL A   1      33.285  35.339  30.307  1.00  0.00     0.000 A 
ENDBRANCH  43  57
BRANCH  44  63
ATOM     63  C   UNL A   1      43.100  29.158  35.742  1.00  0.00    -0.014 A 
ATOM     64  C   UNL A   1      42.706  27.993  36.422  1.00  0.00     0.009 A 
ATOM     65  C   UNL A   1      44.422  29.605  35.863  1.00  0.00     0.009 A 
ATOM     66  C   UNL A   1      43.616  27.294  37.213  1.00  0.00     0.001 A 
ATOM     67  C   UNL A   1      45.334  28.895  36.648  1.00  0.00     0.001 A 
ATOM     68  C   UNL A   1      44.930  27.743  37.324  1.00  0.00     0.000 A 
ENDBRANCH  44  63
BRANCH  56  69
ATOM     69  C   UNL A   1      38.904  34.294  37.607  1.00  0.00    -0.014 A 
ATOM     70  C   UNL A   1      38.522  33.955  38.917  1.00  0.00     0.009 A 
ATOM     71  C   UNL A   1      39.485  35.548  37.370  1.00  0.00     0.009 A 
ATOM     72  C   UNL A   1      38.691  34.866  39.960  1.00  0.00     0.001 A 
ATOM     73  C   UNL A   1      39.672  36.448  38.419  1.00  0.00     0.001 A 
ATOM     74  C   UNL A   1      39.268  36.109  39.711  1.00  0.00     0.000 A 
ENDBRANCH  56  69
ENDBRANCH  30  31
ENDBRANCH  23  25
ENDBRANCH  22  23
ENDBRANCH  21  22
ENDBRANCH   1  21
TORSDOF 14
ENDMDL
