MODEL 1
REMARK VINA RESULT:     -13.4      0.000      0.000
REMARK SMILES O=C(OCCOC(=O)c1ccc(-c2c3nc(c(-c4ccccc4)c4ccc([nH]4)c(-c4ccccc4)c4nc(c(-c5ccccc5)c5ccc2[nH]5)C=C4)C=C3)cc1)C1=Cc2cc(Cl)c(Cl)cc2O[C@@H]1C(F)(F)F
REMARK SMILES IDX 5 1 4 2 3 3 2 4 1 5 57 6 58 7 68 8 59 9 67 10 60 11 66 12
REMARK SMILES IDX 61 13 65 14 62 15 63 16 64 17 69 18 70 19 71 20 72 21 6 22
REMARK SMILES IDX 7 23 8 24 9 25 10 26 56 27 11 28 55 29 12 30 13 31 14 32
REMARK SMILES IDX 49 33 15 34 54 35 48 36 50 37 16 38 53 39 47 40 46 41 17 43
REMARK SMILES IDX 39 44 24 45 38 46 25 47 28 48 37 49 51 50 26 51 27 52 36 54
REMARK SMILES IDX 52 55 29 56 18 57 19 58 23 59 20 60 22 61 21 62 40 63 41 64
REMARK SMILES IDX 45 65 42 66 44 67 43 68 30 69 31 70 35 71 32 72 34 73 33 74
REMARK H PARENT 50 42 28 53
REMARK Flexibility Score: inf
ROOT
ATOM      1  C   UNL A   1      31.759  33.070  26.638  1.00  0.00     0.275 C 
ENDROOT
BRANCH   1   2
ATOM      2  C   UNL A   1      31.611  30.908  26.593  1.00  0.00     0.275 C 
BRANCH   2   3
ATOM      3  O   UNL A   1      32.113  29.978  25.438  1.00  0.00    -0.459 OA
BRANCH   3   4
ATOM      4  C   UNL A   1      31.775  28.693  25.598  1.00  0.00     0.338 C 
ATOM      5  O   UNL A   1      31.641  28.024  26.589  1.00  0.00    -0.246 OA
BRANCH   4   6
ATOM      6  C   UNL A   1      31.935  28.353  24.212  1.00  0.00     0.087 C 
ATOM      7  C   UNL A   1      33.115  27.461  24.041  1.00  0.00     0.027 C 
ATOM      8  C   UNL A   1      30.100  27.837  23.874  1.00  0.00     0.316 C 
ATOM      9  C   UNL A   1      32.975  25.705  23.606  1.00  0.00     0.019 A 
ATOM     10  O   UNL A   1      29.941  25.969  23.450  1.00  0.00    -0.475 OA
ATOM     11  C   UNL A   1      34.099  24.930  23.619  1.00  0.00     0.034 A 
ATOM     12  C   UNL A   1      31.435  24.930  23.389  1.00  0.00     0.129 A 
ATOM     13  C   UNL A   1      33.872  23.549  23.442  1.00  0.00     0.060 A 
ATOM     14  C   UNL A   1      31.295  23.585  23.206  1.00  0.00     0.069 A 
ATOM     15  Cl  UNL A   1      35.325  22.582  23.501  1.00  0.00    -0.083 Cl
ATOM     16  C   UNL A   1      32.551  22.914  23.248  1.00  0.00     0.063 A 
ATOM     17  Cl  UNL A   1      32.482  21.180  23.077  1.00  0.00    -0.083 Cl
BRANCH   8  18
ATOM     18  C   UNL A   1      29.562  29.099  23.133  1.00  0.00     0.430 C 
ATOM     19  F   UNL A   1      30.195  29.317  21.974  1.00  0.00    -0.167 F 
ATOM     20  F   UNL A   1      28.265  28.849  22.781  1.00  0.00    -0.167 F 
ATOM     21  F   UNL A   1      29.479  30.232  23.857  1.00  0.00    -0.167 F 
ENDBRANCH   8  18
ENDBRANCH   4   6
ENDBRANCH   3   4
ENDBRANCH   2   3
ENDBRANCH   1   2
BRANCH   1  22
ATOM     22  O   UNL A   1      32.298  34.009  27.929  1.00  0.00    -0.458 OA
BRANCH  22  23
ATOM     23  C   UNL A   1      33.366  34.737  28.375  1.00  0.00     0.338 C 
ATOM     24  O   UNL A   1      33.418  35.851  28.855  1.00  0.00    -0.246 OA
BRANCH  23  25
ATOM     25  C   UNL A   1      34.485  33.753  28.391  1.00  0.00     0.060 A 
ATOM     26  C   UNL A   1      35.800  34.201  28.586  1.00  0.00     0.016 A 
ATOM     27  C   UNL A   1      34.163  32.413  28.593  1.00  0.00     0.016 A 
ATOM     28  C   UNL A   1      36.721  33.366  29.239  1.00  0.00     0.010 A 
ATOM     29  C   UNL A   1      35.095  31.572  29.191  1.00  0.00     0.010 A 
ATOM     30  C   UNL A   1      36.349  32.062  29.594  1.00  0.00    -0.014 A 
BRANCH  30  31
ATOM     31  C   UNL A   1      37.299  31.092  30.187  1.00  0.00     0.031 A 
ATOM     32  C   UNL A   1      37.552  31.235  31.651  1.00  0.00     0.074 A 
ATOM     33  C   UNL A   1      38.053  30.263  29.437  1.00  0.00     0.049 A 
ATOM     34  N   UNL A   1      38.518  30.750  32.383  1.00  0.00    -0.248 NA
ATOM     35  C   UNL A   1      36.611  32.107  32.373  1.00  0.00     0.031 C 
ATOM     36  C   UNL A   1      37.910  30.033  28.000  1.00  0.00     0.029 A 
ATOM     37  N   UNL A   1      39.135  29.488  29.789  1.00  0.00    -0.354 N 
ATOM     38  C   UNL A   1      38.324  31.297  33.641  1.00  0.00     0.074 A 
ATOM     39  C   UNL A   1      37.175  32.170  33.564  1.00  0.00     0.031 C 
ATOM     40  C   UNL A   1      38.885  29.199  27.589  1.00  0.00     0.029 A 
ATOM     41  C   UNL A   1      39.744  28.864  28.724  1.00  0.00     0.049 A 
ATOM     42  H   UNL A   1      39.446  29.391  30.719  1.00  0.00     0.167 HD
ATOM     43  C   UNL A   1      39.045  31.105  34.769  1.00  0.00     0.031 A 
ATOM     44  C   UNL A   1      40.879  28.134  28.676  1.00  0.00     0.031 A 
ATOM     45  C   UNL A   1      40.211  30.278  34.837  1.00  0.00     0.049 A 
ATOM     46  C   UNL A   1      41.680  27.935  29.943  1.00  0.00     0.074 A 
ATOM     47  C   UNL A   1      41.011  30.001  35.927  1.00  0.00     0.029 A 
ATOM     48  N   UNL A   1      40.749  29.605  33.750  1.00  0.00    -0.354 N 
ATOM     49  N   UNL A   1      41.455  28.406  31.148  1.00  0.00    -0.248 NA
ATOM     50  C   UNL A   1      42.891  27.104  29.845  1.00  0.00     0.031 C 
ATOM     51  C   UNL A   1      42.062  29.186  35.491  1.00  0.00     0.029 A 
ATOM     52  C   UNL A   1      41.881  28.915  34.142  1.00  0.00     0.049 A 
ATOM     53  H   UNL A   1      40.382  29.615  32.838  1.00  0.00     0.167 HD
ATOM     54  C   UNL A   1      42.470  27.899  31.954  1.00  0.00     0.074 A 
ATOM     55  C   UNL A   1      43.312  27.084  31.103  1.00  0.00     0.031 C 
ATOM     56  C   UNL A   1      42.684  28.088  33.279  1.00  0.00     0.031 A 
BRANCH  43  57
ATOM     57  C   UNL A   1      38.587  31.876  35.971  1.00  0.00    -0.014 A 
ATOM     58  C   UNL A   1      39.064  33.175  36.221  1.00  0.00     0.009 A 
ATOM     59  C   UNL A   1      37.778  31.248  36.929  1.00  0.00     0.009 A 
ATOM     60  C   UNL A   1      38.812  33.794  37.445  1.00  0.00     0.001 A 
ATOM     61  C   UNL A   1      37.496  31.887  38.137  1.00  0.00     0.001 A 
ATOM     62  C   UNL A   1      38.031  33.147  38.403  1.00  0.00     0.000 A 
ENDBRANCH  43  57
BRANCH  44  63
ATOM     63  C   UNL A   1      41.350  27.531  27.397  1.00  0.00    -0.014 A 
ATOM     64  C   UNL A   1      40.964  26.227  27.042  1.00  0.00     0.009 A 
ATOM     65  C   UNL A   1      42.226  28.224  26.547  1.00  0.00     0.009 A 
ATOM     66  C   UNL A   1      41.464  25.622  25.885  1.00  0.00     0.001 A 
ATOM     67  C   UNL A   1      42.707  27.626  25.376  1.00  0.00     0.001 A 
ATOM     68  C   UNL A   1      42.334  26.323  25.051  1.00  0.00     0.000 A 
ENDBRANCH  44  63
BRANCH  56  69
ATOM     69  C   UNL A   1      43.830  27.358  33.922  1.00  0.00    -0.014 A 
ATOM     70  C   UNL A   1      45.081  27.965  34.098  1.00  0.00     0.009 A 
ATOM     71  C   UNL A   1      43.603  26.085  34.474  1.00  0.00     0.009 A 
ATOM     72  C   UNL A   1      46.086  27.309  34.811  1.00  0.00     0.001 A 
ATOM     73  C   UNL A   1      44.601  25.444  35.208  1.00  0.00     0.001 A 
ATOM     74  C   UNL A   1      45.842  26.055  35.375  1.00  0.00     0.000 A 
ENDBRANCH  56  69
ENDBRANCH  30  31
ENDBRANCH  23  25
ENDBRANCH  22  23
ENDBRANCH   1  22
TORSDOF 12
ENDMDL
MODEL 2
REMARK VINA RESULT:     -13.3      1.377      6.071
REMARK SMILES O=C(OCCOC(=O)c1ccc(-c2c3nc(c(-c4ccccc4)c4ccc([nH]4)c(-c4ccccc4)c4nc(c(-c5ccccc5)c5ccc2[nH]5)C=C4)C=C3)cc1)C1=Cc2cc(Cl)c(Cl)cc2O[C@@H]1C(F)(F)F
REMARK SMILES IDX 5 1 4 2 3 3 2 4 1 5 57 6 58 7 68 8 59 9 67 10 60 11 66 12
REMARK SMILES IDX 61 13 65 14 62 15 63 16 64 17 69 18 70 19 71 20 72 21 6 22
REMARK SMILES IDX 7 23 8 24 9 25 10 26 56 27 11 28 55 29 12 30 13 31 14 32
REMARK SMILES IDX 49 33 15 34 54 35 48 36 50 37 16 38 53 39 47 40 46 41 17 43
REMARK SMILES IDX 39 44 24 45 38 46 25 47 28 48 37 49 51 50 26 51 27 52 36 54
REMARK SMILES IDX 52 55 29 56 18 57 19 58 23 59 20 60 22 61 21 62 40 63 41 64
REMARK SMILES IDX 45 65 42 66 44 67 43 68 30 69 31 70 35 71 32 72 34 73 33 74
REMARK H PARENT 50 42 28 53
REMARK Flexibility Score: inf
ROOT
ATOM      1  C   UNL A   1      31.678  32.467  26.902  1.00  0.00     0.275 C 
ENDROOT
BRANCH   1   2
ATOM      2  C   UNL A   1      32.572  30.493  26.876  1.00  0.00     0.275 C 
BRANCH   2   3
ATOM      3  O   UNL A   1      32.689  29.555  25.626  1.00  0.00    -0.459 OA
BRANCH   3   4
ATOM      4  C   UNL A   1      31.916  28.466  25.698  1.00  0.00     0.338 C 
ATOM      5  O   UNL A   1      31.435  27.892  26.640  1.00  0.00    -0.246 OA
BRANCH   4   6
ATOM      6  C   UNL A   1      32.125  28.080  24.331  1.00  0.00     0.087 C 
ATOM      7  C   UNL A   1      33.278  27.143  24.239  1.00  0.00     0.027 C 
ATOM      8  C   UNL A   1      30.289  27.618  23.924  1.00  0.00     0.316 C 
ATOM      9  C   UNL A   1      33.095  25.381  23.848  1.00  0.00     0.019 A 
ATOM     10  O   UNL A   1      30.082  25.745  23.545  1.00  0.00    -0.475 OA
ATOM     11  C   UNL A   1      34.188  24.568  23.933  1.00  0.00     0.034 A 
ATOM     12  C   UNL A   1      31.539  24.653  23.583  1.00  0.00     0.129 A 
ATOM     13  C   UNL A   1      33.920  23.190  23.785  1.00  0.00     0.060 A 
ATOM     14  C   UNL A   1      31.359  23.309  23.431  1.00  0.00     0.069 A 
ATOM     15  Cl  UNL A   1      35.332  22.175  23.938  1.00  0.00    -0.083 Cl
ATOM     16  C   UNL A   1      32.587  22.597  23.549  1.00  0.00     0.063 A 
ATOM     17  Cl  UNL A   1      32.463  20.861  23.424  1.00  0.00    -0.083 Cl
BRANCH   8  18
ATOM     18  C   UNL A   1      29.830  28.876  23.124  1.00  0.00     0.430 C 
ATOM     19  F   UNL A   1      30.507  29.023  21.978  1.00  0.00    -0.167 F 
ATOM     20  F   UNL A   1      28.534  28.671  22.742  1.00  0.00    -0.167 F 
ATOM     21  F   UNL A   1      29.779  30.036  23.806  1.00  0.00    -0.167 F 
ENDBRANCH   8  18
ENDBRANCH   4   6
ENDBRANCH   3   4
ENDBRANCH   2   3
ENDBRANCH   1   2
BRANCH   1  22
ATOM     22  O   UNL A   1      32.392  33.880  27.481  1.00  0.00    -0.458 OA
BRANCH  22  23
ATOM     23  C   UNL A   1      32.962  34.434  28.593  1.00  0.00     0.338 C 
ATOM     24  O   UNL A   1      32.503  35.196  29.420  1.00  0.00    -0.246 OA
BRANCH  23  25
ATOM     25  C   UNL A   1      34.243  33.689  28.745  1.00  0.00     0.060 A 
ATOM     26  C   UNL A   1      35.421  34.215  28.194  1.00  0.00     0.016 A 
ATOM     27  C   UNL A   1      34.307  32.710  29.734  1.00  0.00     0.016 A 
ATOM     28  C   UNL A   1      36.650  33.956  28.823  1.00  0.00     0.010 A 
ATOM     29  C   UNL A   1      35.533  32.414  30.320  1.00  0.00     0.010 A 
ATOM     30  C   UNL A   1      36.698  33.094  29.927  1.00  0.00    -0.014 A 
BRANCH  30  31
ATOM     31  C   UNL A   1      37.970  32.691  30.572  1.00  0.00     0.031 A 
ATOM     32  C   UNL A   1      38.641  31.487  29.998  1.00  0.00     0.074 A 
ATOM     33  C   UNL A   1      38.401  33.230  31.730  1.00  0.00     0.049 A 
ATOM     34  N   UNL A   1      39.578  30.732  30.505  1.00  0.00    -0.248 NA
ATOM     35  C   UNL A   1      38.131  31.041  28.691  1.00  0.00     0.031 C 
ATOM     36  C   UNL A   1      37.832  34.402  32.397  1.00  0.00     0.029 A 
ATOM     37  N   UNL A   1      39.403  32.821  32.580  1.00  0.00    -0.354 N 
ATOM     38  C   UNL A   1      39.734  29.696  29.598  1.00  0.00     0.074 A 
ATOM     39  C   UNL A   1      38.779  29.904  28.533  1.00  0.00     0.031 C 
ATOM     40  C   UNL A   1      38.477  34.598  33.565  1.00  0.00     0.029 A 
ATOM     41  C   UNL A   1      39.476  33.547  33.747  1.00  0.00     0.049 A 
ATOM     42  H   UNL A   1      40.012  32.075  32.371  1.00  0.00     0.167 HD
ATOM     43  C   UNL A   1      40.588  28.649  29.645  1.00  0.00     0.031 A 
ATOM     44  C   UNL A   1      40.244  33.360  34.842  1.00  0.00     0.031 A 
ATOM     45  C   UNL A   1      41.501  28.416  30.722  1.00  0.00     0.049 A 
ATOM     46  C   UNL A   1      41.189  32.180  34.885  1.00  0.00     0.074 A 
ATOM     47  C   UNL A   1      42.421  27.397  30.869  1.00  0.00     0.029 A 
ATOM     48  N   UNL A   1      41.594  29.219  31.849  1.00  0.00    -0.354 N 
ATOM     49  N   UNL A   1      41.376  31.236  33.992  1.00  0.00    -0.248 NA
ATOM     50  C   UNL A   1      42.028  32.038  36.087  1.00  0.00     0.031 C 
ATOM     51  C   UNL A   1      43.047  27.561  32.109  1.00  0.00     0.029 A 
ATOM     52  C   UNL A   1      42.553  28.713  32.705  1.00  0.00     0.049 A 
ATOM     53  H   UNL A   1      41.059  30.027  32.014  1.00  0.00     0.167 HD
ATOM     54  C   UNL A   1      42.376  30.415  34.504  1.00  0.00     0.074 A 
ATOM     55  C   UNL A   1      42.757  30.971  35.787  1.00  0.00     0.031 C 
ATOM     56  C   UNL A   1      42.933  29.304  33.963  1.00  0.00     0.031 A 
BRANCH  43  57
ATOM     57  C   UNL A   1      40.484  27.675  28.509  1.00  0.00    -0.014 A 
ATOM     58  C   UNL A   1      39.713  26.506  28.628  1.00  0.00     0.009 A 
ATOM     59  C   UNL A   1      41.272  27.863  27.364  1.00  0.00     0.009 A 
ATOM     60  C   UNL A   1      39.801  25.504  27.661  1.00  0.00     0.001 A 
ATOM     61  C   UNL A   1      41.326  26.874  26.380  1.00  0.00     0.001 A 
ATOM     62  C   UNL A   1      40.610  25.688  26.541  1.00  0.00     0.000 A 
ENDBRANCH  43  57
BRANCH  44  63
ATOM     63  C   UNL A   1      40.168  34.293  36.002  1.00  0.00    -0.014 A 
ATOM     64  C   UNL A   1      39.293  34.029  37.069  1.00  0.00     0.009 A 
ATOM     65  C   UNL A   1      40.923  35.476  36.032  1.00  0.00     0.009 A 
ATOM     66  C   UNL A   1      39.155  34.938  38.123  1.00  0.00     0.001 A 
ATOM     67  C   UNL A   1      40.801  36.372  37.100  1.00  0.00     0.001 A 
ATOM     68  C   UNL A   1      39.911  36.108  38.139  1.00  0.00     0.000 A 
ENDBRANCH  44  63
BRANCH  56  69
ATOM     69  C   UNL A   1      44.057  28.640  34.707  1.00  0.00    -0.014 A 
ATOM     70  C   UNL A   1      45.389  29.042  34.536  1.00  0.00     0.009 A 
ATOM     71  C   UNL A   1      43.751  27.685  35.691  1.00  0.00     0.009 A 
ATOM     72  C   UNL A   1      46.395  28.496  35.334  1.00  0.00     0.001 A 
ATOM     73  C   UNL A   1      44.756  27.159  36.504  1.00  0.00     0.001 A 
ATOM     74  C   UNL A   1      46.077  27.564  36.325  1.00  0.00     0.000 A 
ENDBRANCH  56  69
ENDBRANCH  30  31
ENDBRANCH  23  25
ENDBRANCH  22  23
ENDBRANCH   1  22
TORSDOF 12
ENDMDL
MODEL 3
REMARK VINA RESULT:     -13.3      5.260     10.148
REMARK SMILES O=C(OCCOC(=O)c1ccc(-c2c3nc(c(-c4ccccc4)c4ccc([nH]4)c(-c4ccccc4)c4nc(c(-c5ccccc5)c5ccc2[nH]5)C=C4)C=C3)cc1)C1=Cc2cc(Cl)c(Cl)cc2O[C@@H]1C(F)(F)F
REMARK SMILES IDX 5 1 4 2 3 3 2 4 1 5 57 6 58 7 68 8 59 9 67 10 60 11 66 12
REMARK SMILES IDX 61 13 65 14 62 15 63 16 64 17 69 18 70 19 71 20 72 21 6 22
REMARK SMILES IDX 7 23 8 24 9 25 10 26 56 27 11 28 55 29 12 30 13 31 14 32
REMARK SMILES IDX 49 33 15 34 54 35 48 36 50 37 16 38 53 39 47 40 46 41 17 43
REMARK SMILES IDX 39 44 24 45 38 46 25 47 28 48 37 49 51 50 26 51 27 52 36 54
REMARK SMILES IDX 52 55 29 56 18 57 19 58 23 59 20 60 22 61 21 62 40 63 41 64
REMARK SMILES IDX 45 65 42 66 44 67 43 68 30 69 31 70 35 71 32 72 34 73 33 74
REMARK H PARENT 50 42 28 53
REMARK Flexibility Score: inf
ROOT
ATOM      1  C   UNL A   1      38.806  19.068  25.645  1.00  0.00     0.275 C 
ENDROOT
BRANCH   1   2
ATOM      2  C   UNL A   1      37.360  20.370  24.690  1.00  0.00     0.275 C 
BRANCH   2   3
ATOM      3  O   UNL A   1      35.966  20.778  25.277  1.00  0.00    -0.459 OA
BRANCH   3   4
ATOM      4  C   UNL A   1      35.335  21.713  24.557  1.00  0.00     0.338 C 
ATOM      5  O   UNL A   1      35.745  22.516  23.760  1.00  0.00    -0.246 OA
BRANCH   4   6
ATOM      6  C   UNL A   1      34.103  21.616  25.288  1.00  0.00     0.087 C 
ATOM      7  C   UNL A   1      33.831  22.896  25.997  1.00  0.00     0.027 C 
ATOM      8  C   UNL A   1      33.022  20.896  23.852  1.00  0.00     0.316 C 
ATOM      9  C   UNL A   1      32.501  24.032  25.517  1.00  0.00     0.019 A 
ATOM     10  O   UNL A   1      31.634  22.110  23.314  1.00  0.00    -0.475 OA
ATOM     11  C   UNL A   1      32.420  25.251  26.127  1.00  0.00     0.034 A 
ATOM     12  C   UNL A   1      31.462  23.713  24.161  1.00  0.00     0.129 A 
ATOM     13  C   UNL A   1      31.470  26.134  25.571  1.00  0.00     0.060 A 
ATOM     14  C   UNL A   1      30.551  24.613  23.689  1.00  0.00     0.069 A 
ATOM     15  Cl  UNL A   1      31.419  27.696  26.348  1.00  0.00    -0.083 Cl
ATOM     16  C   UNL A   1      30.589  25.834  24.422  1.00  0.00     0.063 A 
ATOM     17  Cl  UNL A   1      29.500  27.077  23.867  1.00  0.00    -0.083 Cl
BRANCH   8  18
ATOM     18  C   UNL A   1      32.960  19.388  24.247  1.00  0.00     0.430 C 
ATOM     19  F   UNL A   1      32.356  19.196  25.426  1.00  0.00    -0.167 F 
ATOM     20  F   UNL A   1      32.160  18.756  23.336  1.00  0.00    -0.167 F 
ATOM     21  F   UNL A   1      34.117  18.701  24.180  1.00  0.00    -0.167 F 
ENDBRANCH   8  18
ENDBRANCH   4   6
ENDBRANCH   3   4
ENDBRANCH   2   3
ENDBRANCH   1   2
BRANCH   1  22
ATOM     22  O   UNL A   1      40.476  19.295  25.697  1.00  0.00    -0.458 OA
BRANCH  22  23
ATOM     23  C   UNL A   1      41.512  19.559  26.549  1.00  0.00     0.338 C 
ATOM     24  O   UNL A   1      42.536  18.943  26.762  1.00  0.00    -0.246 OA
BRANCH  23  25
ATOM     25  C   UNL A   1      41.248  20.952  27.009  1.00  0.00     0.060 A 
ATOM     26  C   UNL A   1      41.968  21.471  28.097  1.00  0.00     0.016 A 
ATOM     27  C   UNL A   1      40.592  21.809  26.129  1.00  0.00     0.016 A 
ATOM     28  C   UNL A   1      42.248  22.846  28.143  1.00  0.00     0.010 A 
ATOM     29  C   UNL A   1      40.827  23.177  26.209  1.00  0.00     0.010 A 
ATOM     30  C   UNL A   1      41.720  23.697  27.161  1.00  0.00    -0.014 A 
BRANCH  30  31
ATOM     31  C   UNL A   1      41.883  25.169  27.206  1.00  0.00     0.031 A 
ATOM     32  C   UNL A   1      43.152  25.704  26.628  1.00  0.00     0.074 A 
ATOM     33  C   UNL A   1      41.054  25.972  27.903  1.00  0.00     0.049 A 
ATOM     34  N   UNL A   1      43.708  26.875  26.776  1.00  0.00    -0.248 NA
ATOM     35  C   UNL A   1      43.931  24.750  25.820  1.00  0.00     0.031 C 
ATOM     36  C   UNL A   1      39.789  25.573  28.519  1.00  0.00     0.029 A 
ATOM     37  N   UNL A   1      41.189  27.297  28.250  1.00  0.00    -0.354 N 
ATOM     38  C   UNL A   1      44.924  26.781  26.118  1.00  0.00     0.074 A 
ATOM     39  C   UNL A   1      45.035  25.436  25.601  1.00  0.00     0.031 C 
ATOM     40  C   UNL A   1      39.278  26.624  29.191  1.00  0.00     0.029 A 
ATOM     41  C   UNL A   1      40.196  27.757  29.086  1.00  0.00     0.049 A 
ATOM     42  H   UNL A   1      41.928  27.863  27.930  1.00  0.00     0.167 HD
ATOM     43  C   UNL A   1      45.880  27.725  25.962  1.00  0.00     0.031 A 
ATOM     44  C   UNL A   1      40.069  28.946  29.712  1.00  0.00     0.031 A 
ATOM     45  C   UNL A   1      45.792  29.043  26.513  1.00  0.00     0.049 A 
ATOM     46  C   UNL A   1      41.148  29.990  29.536  1.00  0.00     0.074 A 
ATOM     47  C   UNL A   1      46.692  30.085  26.409  1.00  0.00     0.029 A 
ATOM     48  N   UNL A   1      44.734  29.491  27.291  1.00  0.00    -0.354 N 
ATOM     49  N   UNL A   1      42.270  29.916  28.858  1.00  0.00    -0.248 NA
ATOM     50  C   UNL A   1      40.946  31.283  30.213  1.00  0.00     0.031 C 
ATOM     51  C   UNL A   1      46.196  31.156  27.159  1.00  0.00     0.029 A 
ATOM     52  C   UNL A   1      44.962  30.796  27.682  1.00  0.00     0.049 A 
ATOM     53  H   UNL A   1      43.940  28.960  27.528  1.00  0.00     0.167 HD
ATOM     54  C   UNL A   1      42.885  31.157  28.994  1.00  0.00     0.074 A 
ATOM     55  C   UNL A   1      42.012  31.967  29.819  1.00  0.00     0.031 C 
ATOM     56  C   UNL A   1      44.062  31.589  28.480  1.00  0.00     0.031 A 
BRANCH  43  57
ATOM     57  C   UNL A   1      47.105  27.292  25.215  1.00  0.00    -0.014 A 
ATOM     58  C   UNL A   1      48.201  26.729  25.891  1.00  0.00     0.009 A 
ATOM     59  C   UNL A   1      47.216  27.573  23.846  1.00  0.00     0.009 A 
ATOM     60  C   UNL A   1      49.414  26.537  25.228  1.00  0.00     0.001 A 
ATOM     61  C   UNL A   1      48.419  27.343  23.177  1.00  0.00     0.001 A 
ATOM     62  C   UNL A   1      49.522  26.848  23.873  1.00  0.00     0.000 A 
ENDBRANCH  43  57
BRANCH  44  63
ATOM     63  C   UNL A   1      38.886  29.239  30.571  1.00  0.00    -0.014 A 
ATOM     64  C   UNL A   1      37.737  29.831  30.020  1.00  0.00     0.009 A 
ATOM     65  C   UNL A   1      38.910  28.980  31.950  1.00  0.00     0.009 A 
ATOM     66  C   UNL A   1      36.653  30.182  30.831  1.00  0.00     0.001 A 
ATOM     67  C   UNL A   1      37.814  29.311  32.757  1.00  0.00     0.001 A 
ATOM     68  C   UNL A   1      36.692  29.920  32.199  1.00  0.00     0.000 A 
ENDBRANCH  44  63
BRANCH  56  69
ATOM     69  C   UNL A   1      44.461  33.016  28.728  1.00  0.00    -0.014 A 
ATOM     70  C   UNL A   1      45.299  33.370  29.796  1.00  0.00     0.009 A 
ATOM     71  C   UNL A   1      44.092  33.999  27.794  1.00  0.00     0.009 A 
ATOM     72  C   UNL A   1      45.755  34.683  29.925  1.00  0.00     0.001 A 
ATOM     73  C   UNL A   1      44.570  35.304  27.913  1.00  0.00     0.001 A 
ATOM     74  C   UNL A   1      45.400  35.646  28.978  1.00  0.00     0.000 A 
ENDBRANCH  56  69
ENDBRANCH  30  31
ENDBRANCH  23  25
ENDBRANCH  22  23
ENDBRANCH   1  22
TORSDOF 12
ENDMDL
