MODEL 1
REMARK VINA RESULT:     -10.3      0.000      0.000
REMARK SMILES CC[C@H]1CC[C@@](C(=O)OCCOC(=O)c2ccc(-c3c4nc(c(-c5ccccc5)c5ccc([nH]5)c(-c5ccccc5)c5nc(c(-c6ccccc6)c6ccc3[nH]6)C=C5)C=C4)cc2)(C2CCCC2)C1
REMARK SMILES IDX 11 1 10 2 9 3 7 4 8 5 6 6 3 7 4 8 68 9 5 10 2 11 1 12 63 13
REMARK SMILES IDX 64 14 67 15 65 16 66 17 12 18 13 19 14 20 15 21 16 22 62 23
REMARK SMILES IDX 17 24 61 25 18 26 19 27 20 28 55 29 21 30 60 31 54 32 56 33
REMARK SMILES IDX 22 34 59 35 53 36 52 37 23 39 45 40 30 41 44 42 31 43 34 44
REMARK SMILES IDX 43 45 57 46 32 47 33 48 42 50 58 51 35 52 24 53 25 54 29 55
REMARK SMILES IDX 26 56 28 57 27 58 46 59 47 60 51 61 48 62 50 63 49 64 36 65
REMARK SMILES IDX 37 66 41 67 38 68 40 69 39 70
REMARK H PARENT 56 38 34 49
REMARK Flexibility Score: inf
ROOT
ATOM      1  C   UNL A   1      35.803  20.720  25.105  1.00  0.00     0.275 C 
ENDROOT
BRANCH   1   2
ATOM      2  C   UNL A   1      35.071  21.443  26.234  1.00  0.00     0.274 C 
BRANCH   2   3
ATOM      3  O   UNL A   1      33.765  21.901  25.810  1.00  0.00    -0.462 OA
BRANCH   3   4
ATOM      4  C   UNL A   1      33.366  23.089  26.333  1.00  0.00     0.312 C 
ATOM      5  O   UNL A   1      32.879  23.209  27.455  1.00  0.00    -0.252 OA
BRANCH   4   6
ATOM      6  C   UNL A   1      33.508  24.296  25.378  1.00  0.00     0.071 C 
ATOM      7  C   UNL A   1      33.465  24.128  22.882  1.00  0.00    -0.010 C 
ATOM      8  C   UNL A   1      34.896  23.935  23.376  1.00  0.00     0.005 C 
ATOM      9  C   UNL A   1      32.634  23.901  24.150  1.00  0.00     0.022 C 
ATOM     10  C   UNL A   1      34.914  24.526  24.781  1.00  0.00     0.019 C 
BRANCH   7  11
ATOM     11  C   UNL A   1      33.191  25.499  22.249  1.00  0.00     0.000 C 
ATOM     12  C   UNL A   1      31.716  25.868  22.244  1.00  0.00     0.004 C 
ENDBRANCH   7  11
BRANCH   6  13
ATOM     13  C   UNL A   1      32.968  25.542  26.150  1.00  0.00     0.006 C 
ATOM     14  C   UNL A   1      33.713  26.866  25.892  1.00  0.00     0.005 C 
ATOM     15  C   UNL A   1      31.519  25.968  25.897  1.00  0.00     0.005 C 
ATOM     16  C   UNL A   1      32.763  27.969  26.370  1.00  0.00     0.000 C 
ATOM     17  C   UNL A   1      31.424  27.293  26.640  1.00  0.00     0.000 C 
ENDBRANCH   6  13
ENDBRANCH   4   6
ENDBRANCH   3   4
ENDBRANCH   2   3
ENDBRANCH   1   2
BRANCH   1  18
ATOM     18  O   UNL A   1      36.990  21.456  24.766  1.00  0.00    -0.458 OA
BRANCH  18  19
ATOM     19  C   UNL A   1      38.134  21.056  25.359  1.00  0.00     0.338 C 
ATOM     20  O   UNL A   1      38.639  19.940  25.290  1.00  0.00    -0.246 OA
BRANCH  19  21
ATOM     21  C   UNL A   1      38.769  22.191  26.075  1.00  0.00     0.060 A 
ATOM     22  C   UNL A   1      38.252  23.484  25.982  1.00  0.00     0.016 A 
ATOM     23  C   UNL A   1      39.978  21.989  26.746  1.00  0.00     0.016 A 
ATOM     24  C   UNL A   1      38.997  24.573  26.435  1.00  0.00     0.010 A 
ATOM     25  C   UNL A   1      40.668  23.077  27.296  1.00  0.00     0.010 A 
ATOM     26  C   UNL A   1      40.215  24.393  27.107  1.00  0.00    -0.014 A 
BRANCH  26  27
ATOM     27  C   UNL A   1      41.034  25.561  27.556  1.00  0.00     0.031 A 
ATOM     28  C   UNL A   1      40.447  26.603  28.480  1.00  0.00     0.074 A 
ATOM     29  C   UNL A   1      42.316  25.708  27.161  1.00  0.00     0.049 A 
ATOM     30  N   UNL A   1      40.898  27.800  28.771  1.00  0.00    -0.248 NA
ATOM     31  C   UNL A   1      39.183  26.265  29.154  1.00  0.00     0.031 C 
ATOM     32  C   UNL A   1      43.070  24.771  26.326  1.00  0.00     0.029 A 
ATOM     33  N   UNL A   1      43.221  26.709  27.427  1.00  0.00    -0.354 N 
ATOM     34  C   UNL A   1      39.935  28.383  29.587  1.00  0.00     0.074 A 
ATOM     35  C   UNL A   1      38.888  27.401  29.771  1.00  0.00     0.031 C 
ATOM     36  C   UNL A   1      44.332  25.208  26.200  1.00  0.00     0.029 A 
ATOM     37  C   UNL A   1      44.447  26.511  26.841  1.00  0.00     0.049 A 
ATOM     38  H   UNL A   1      43.009  27.494  27.982  1.00  0.00     0.167 HD
ATOM     39  C   UNL A   1      39.915  29.628  30.122  1.00  0.00     0.031 A 
ATOM     40  C   UNL A   1      45.533  27.304  26.766  1.00  0.00     0.031 A 
ATOM     41  C   UNL A   1      40.982  30.587  30.003  1.00  0.00     0.049 A 
ATOM     42  C   UNL A   1      45.485  28.686  27.343  1.00  0.00     0.074 A 
ATOM     43  C   UNL A   1      41.046  31.874  30.511  1.00  0.00     0.029 A 
ATOM     44  N   UNL A   1      42.182  30.354  29.353  1.00  0.00    -0.354 N 
ATOM     45  N   UNL A   1      44.515  29.271  28.001  1.00  0.00    -0.248 NA
ATOM     46  C   UNL A   1      46.669  29.531  27.131  1.00  0.00     0.031 C 
ATOM     47  C   UNL A   1      42.277  32.429  30.147  1.00  0.00     0.029 A 
ATOM     48  C   UNL A   1      42.992  31.473  29.444  1.00  0.00     0.049 A 
ATOM     49  H   UNL A   1      42.424  29.517  28.896  1.00  0.00     0.167 HD
ATOM     50  C   UNL A   1      44.966  30.557  28.269  1.00  0.00     0.074 A 
ATOM     51  C   UNL A   1      46.307  30.656  27.732  1.00  0.00     0.031 C 
ATOM     52  C   UNL A   1      44.316  31.568  28.892  1.00  0.00     0.031 A 
BRANCH  39  53
ATOM     53  C   UNL A   1      38.669  30.056  30.842  1.00  0.00    -0.014 A 
ATOM     54  C   UNL A   1      38.531  29.915  32.230  1.00  0.00     0.009 A 
ATOM     55  C   UNL A   1      37.633  30.664  30.113  1.00  0.00     0.009 A 
ATOM     56  C   UNL A   1      37.369  30.355  32.870  1.00  0.00     0.001 A 
ATOM     57  C   UNL A   1      36.483  31.123  30.759  1.00  0.00     0.001 A 
ATOM     58  C   UNL A   1      36.350  30.962  32.136  1.00  0.00     0.000 A 
ENDBRANCH  39  53
BRANCH  40  59
ATOM     59  C   UNL A   1      46.733  26.831  26.031  1.00  0.00    -0.014 A 
ATOM     60  C   UNL A   1      46.871  27.077  24.658  1.00  0.00     0.009 A 
ATOM     61  C   UNL A   1      47.762  26.157  26.711  1.00  0.00     0.009 A 
ATOM     62  C   UNL A   1      48.017  26.656  23.980  1.00  0.00     0.001 A 
ATOM     63  C   UNL A   1      48.918  25.765  26.036  1.00  0.00     0.001 A 
ATOM     64  C   UNL A   1      49.043  26.011  24.671  1.00  0.00     0.000 A 
ENDBRANCH  40  59
BRANCH  52  65
ATOM     65  C   UNL A   1      45.054  32.866  29.029  1.00  0.00    -0.014 A 
ATOM     66  C   UNL A   1      45.883  33.107  30.135  1.00  0.00     0.009 A 
ATOM     67  C   UNL A   1      44.932  33.849  28.037  1.00  0.00     0.009 A 
ATOM     68  C   UNL A   1      46.556  34.324  30.258  1.00  0.00     0.001 A 
ATOM     69  C   UNL A   1      45.620  35.058  28.155  1.00  0.00     0.001 A 
ATOM     70  C   UNL A   1      46.425  35.298  29.268  1.00  0.00     0.000 A 
ENDBRANCH  52  65
ENDBRANCH  26  27
ENDBRANCH  19  21
ENDBRANCH  18  19
ENDBRANCH   1  18
TORSDOF 13
ENDMDL
MODEL 2
REMARK VINA RESULT:     -10.2      2.637      6.747
REMARK SMILES CC[C@H]1CC[C@@](C(=O)OCCOC(=O)c2ccc(-c3c4nc(c(-c5ccccc5)c5ccc([nH]5)c(-c5ccccc5)c5nc(c(-c6ccccc6)c6ccc3[nH]6)C=C5)C=C4)cc2)(C2CCCC2)C1
REMARK SMILES IDX 11 1 10 2 9 3 7 4 8 5 6 6 3 7 4 8 68 9 5 10 2 11 1 12 63 13
REMARK SMILES IDX 64 14 67 15 65 16 66 17 12 18 13 19 14 20 15 21 16 22 62 23
REMARK SMILES IDX 17 24 61 25 18 26 19 27 20 28 55 29 21 30 60 31 54 32 56 33
REMARK SMILES IDX 22 34 59 35 53 36 52 37 23 39 45 40 30 41 44 42 31 43 34 44
REMARK SMILES IDX 43 45 57 46 32 47 33 48 42 50 58 51 35 52 24 53 25 54 29 55
REMARK SMILES IDX 26 56 28 57 27 58 46 59 47 60 51 61 48 62 50 63 49 64 36 65
REMARK SMILES IDX 37 66 41 67 38 68 40 69 39 70
REMARK H PARENT 56 38 34 49
REMARK Flexibility Score: inf
ROOT
ATOM      1  C   UNL A   1      32.972  31.232  27.273  1.00  0.00     0.275 C 
ENDROOT
BRANCH   1   2
ATOM      2  C   UNL A   1      31.801  30.345  26.853  1.00  0.00     0.274 C 
BRANCH   2   3
ATOM      3  O   UNL A   1      32.260  29.138  26.198  1.00  0.00    -0.462 OA
BRANCH   3   4
ATOM      4  C   UNL A   1      31.721  27.981  26.663  1.00  0.00     0.312 C 
ATOM      5  O   UNL A   1      31.335  27.827  27.819  1.00  0.00    -0.252 OA
BRANCH   4   6
ATOM      6  C   UNL A   1      31.684  26.828  25.636  1.00  0.00     0.071 C 
ATOM      7  C   UNL A   1      30.902  27.073  23.271  1.00  0.00    -0.010 C 
ATOM      8  C   UNL A   1      29.709  26.749  24.166  1.00  0.00     0.005 C 
ATOM      9  C   UNL A   1      31.966  27.534  24.276  1.00  0.00     0.022 C 
ATOM     10  C   UNL A   1      30.312  26.147  25.430  1.00  0.00     0.019 C 
BRANCH   7  11
ATOM     11  C   UNL A   1      31.390  25.898  22.412  1.00  0.00     0.000 C 
ATOM     12  C   UNL A   1      32.707  26.181  21.709  1.00  0.00     0.004 C 
ENDBRANCH   7  11
BRANCH   6  13
ATOM     13  C   UNL A   1      32.801  25.820  26.056  1.00  0.00     0.006 C 
ATOM     14  C   UNL A   1      32.363  24.349  26.188  1.00  0.00     0.005 C 
ATOM     15  C   UNL A   1      34.020  25.680  25.139  1.00  0.00     0.005 C 
ATOM     16  C   UNL A   1      33.659  23.531  26.153  1.00  0.00     0.000 C 
ATOM     17  C   UNL A   1      34.763  24.499  25.747  1.00  0.00     0.000 C 
ENDBRANCH   6  13
ENDBRANCH   4   6
ENDBRANCH   3   4
ENDBRANCH   2   3
ENDBRANCH   1   2
BRANCH   1  18
ATOM     18  O   UNL A   1      34.096  30.402  27.608  1.00  0.00    -0.458 OA
BRANCH  18  19
ATOM     19  C   UNL A   1      34.968  30.906  28.506  1.00  0.00     0.338 C 
ATOM     20  O   UNL A   1      34.766  31.845  29.269  1.00  0.00    -0.246 OA
BRANCH  19  21
ATOM     21  C   UNL A   1      36.222  30.112  28.509  1.00  0.00     0.060 A 
ATOM     22  C   UNL A   1      36.687  29.500  29.674  1.00  0.00     0.016 A 
ATOM     23  C   UNL A   1      37.020  30.086  27.362  1.00  0.00     0.016 A 
ATOM     24  C   UNL A   1      37.983  28.987  29.730  1.00  0.00     0.010 A 
ATOM     25  C   UNL A   1      38.279  29.471  27.395  1.00  0.00     0.010 A 
ATOM     26  C   UNL A   1      38.802  28.955  28.592  1.00  0.00    -0.014 A 
BRANCH  26  27
ATOM     27  C   UNL A   1      40.207  28.444  28.661  1.00  0.00     0.031 A 
ATOM     28  C   UNL A   1      41.340  29.360  29.063  1.00  0.00     0.074 A 
ATOM     29  C   UNL A   1      40.496  27.156  28.380  1.00  0.00     0.049 A 
ATOM     30  N   UNL A   1      42.633  29.182  28.936  1.00  0.00    -0.248 NA
ATOM     31  C   UNL A   1      40.975  30.649  29.674  1.00  0.00     0.031 C 
ATOM     32  C   UNL A   1      39.527  26.114  28.039  1.00  0.00     0.029 A 
ATOM     33  N   UNL A   1      41.705  26.501  28.351  1.00  0.00    -0.354 N 
ATOM     34  C   UNL A   1      43.225  30.364  29.368  1.00  0.00     0.074 A 
ATOM     35  C   UNL A   1      42.155  31.242  29.789  1.00  0.00     0.031 C 
ATOM     36  C   UNL A   1      40.168  24.944  27.897  1.00  0.00     0.029 A 
ATOM     37  C   UNL A   1      41.602  25.173  28.016  1.00  0.00     0.049 A 
ATOM     38  H   UNL A   1      42.562  26.943  28.549  1.00  0.00     0.167 HD
ATOM     39  C   UNL A   1      44.539  30.695  29.396  1.00  0.00     0.031 A 
ATOM     40  C   UNL A   1      42.546  24.245  27.769  1.00  0.00     0.031 A 
ATOM     41  C   UNL A   1      45.614  29.805  29.045  1.00  0.00     0.049 A 
ATOM     42  C   UNL A   1      43.993  24.634  27.783  1.00  0.00     0.074 A 
ATOM     43  C   UNL A   1      46.978  30.057  29.043  1.00  0.00     0.029 A 
ATOM     44  N   UNL A   1      45.452  28.485  28.662  1.00  0.00    -0.354 N 
ATOM     45  N   UNL A   1      44.531  25.794  28.068  1.00  0.00    -0.248 NA
ATOM     46  C   UNL A   1      44.959  23.594  27.402  1.00  0.00     0.031 C 
ATOM     47  C   UNL A   1      47.638  28.894  28.633  1.00  0.00     0.029 A 
ATOM     48  C   UNL A   1      46.688  27.909  28.417  1.00  0.00     0.049 A 
ATOM     49  H   UNL A   1      44.587  28.023  28.577  1.00  0.00     0.167 HD
ATOM     50  C   UNL A   1      45.897  25.627  27.887  1.00  0.00     0.074 A 
ATOM     51  C   UNL A   1      46.109  24.248  27.499  1.00  0.00     0.031 C 
ATOM     52  C   UNL A   1      46.885  26.543  28.016  1.00  0.00     0.031 A 
BRANCH  39  53
ATOM     53  C   UNL A   1      44.893  32.106  29.768  1.00  0.00    -0.014 A 
ATOM     54  C   UNL A   1      45.203  32.469  31.086  1.00  0.00     0.009 A 
ATOM     55  C   UNL A   1      44.969  33.080  28.757  1.00  0.00     0.009 A 
ATOM     56  C   UNL A   1      45.560  33.786  31.387  1.00  0.00     0.001 A 
ATOM     57  C   UNL A   1      45.347  34.389  29.059  1.00  0.00     0.001 A 
ATOM     58  C   UNL A   1      45.637  34.742  30.374  1.00  0.00     0.000 A 
ENDBRANCH  39  53
BRANCH  40  59
ATOM     59  C   UNL A   1      42.135  22.868  27.397  1.00  0.00    -0.014 A 
ATOM     60  C   UNL A   1      42.025  21.869  28.374  1.00  0.00     0.009 A 
ATOM     61  C   UNL A   1      41.820  22.556  26.064  1.00  0.00     0.009 A 
ATOM     62  C   UNL A   1      41.606  20.583  28.022  1.00  0.00     0.001 A 
ATOM     63  C   UNL A   1      41.375  21.279  25.721  1.00  0.00     0.001 A 
ATOM     64  C   UNL A   1      41.273  20.293  26.699  1.00  0.00     0.000 A 
ENDBRANCH  40  59
BRANCH  52  65
ATOM     65  C   UNL A   1      48.284  26.077  27.740  1.00  0.00    -0.014 A 
ATOM     66  C   UNL A   1      48.821  26.146  26.446  1.00  0.00     0.009 A 
ATOM     67  C   UNL A   1      49.076  25.582  28.785  1.00  0.00     0.009 A 
ATOM     68  C   UNL A   1      50.120  25.698  26.198  1.00  0.00     0.001 A 
ATOM     69  C   UNL A   1      50.381  25.152  28.538  1.00  0.00     0.001 A 
ATOM     70  C   UNL A   1      50.899  25.204  27.244  1.00  0.00     0.000 A 
ENDBRANCH  52  65
ENDBRANCH  26  27
ENDBRANCH  19  21
ENDBRANCH  18  19
ENDBRANCH   1  18
TORSDOF 13
ENDMDL
MODEL 3
REMARK VINA RESULT:     -10.2      3.940      8.785
REMARK SMILES CC[C@H]1CC[C@@](C(=O)OCCOC(=O)c2ccc(-c3c4nc(c(-c5ccccc5)c5ccc([nH]5)c(-c5ccccc5)c5nc(c(-c6ccccc6)c6ccc3[nH]6)C=C5)C=C4)cc2)(C2CCCC2)C1
REMARK SMILES IDX 11 1 10 2 9 3 7 4 8 5 6 6 3 7 4 8 68 9 5 10 2 11 1 12 63 13
REMARK SMILES IDX 64 14 67 15 65 16 66 17 12 18 13 19 14 20 15 21 16 22 62 23
REMARK SMILES IDX 17 24 61 25 18 26 19 27 20 28 55 29 21 30 60 31 54 32 56 33
REMARK SMILES IDX 22 34 59 35 53 36 52 37 23 39 45 40 30 41 44 42 31 43 34 44
REMARK SMILES IDX 43 45 57 46 32 47 33 48 42 50 58 51 35 52 24 53 25 54 29 55
REMARK SMILES IDX 26 56 28 57 27 58 46 59 47 60 51 61 48 62 50 63 49 64 36 65
REMARK SMILES IDX 37 66 41 67 38 68 40 69 39 70
REMARK H PARENT 56 38 34 49
REMARK Flexibility Score: inf
ROOT
ATOM      1  C   UNL A   1      41.039  20.861  26.523  1.00  0.00     0.275 C 
ENDROOT
BRANCH   1   2
ATOM      2  C   UNL A   1      42.398  20.403  25.998  1.00  0.00     0.274 C 
BRANCH   2   3
ATOM      3  O   UNL A   1      43.070  21.461  25.274  1.00  0.00    -0.462 OA
BRANCH   3   4
ATOM      4  C   UNL A   1      44.353  21.701  25.648  1.00  0.00     0.312 C 
ATOM      5  O   UNL A   1      45.252  20.868  25.566  1.00  0.00    -0.252 OA
BRANCH   4   6
ATOM      6  C   UNL A   1      44.598  23.101  26.255  1.00  0.00     0.071 C 
ATOM      7  C   UNL A   1      44.425  25.242  24.972  1.00  0.00    -0.010 C 
ATOM      8  C   UNL A   1      45.843  24.691  24.844  1.00  0.00     0.005 C 
ATOM      9  C   UNL A   1      43.629  24.025  25.458  1.00  0.00     0.022 C 
ATOM     10  C   UNL A   1      45.994  23.714  26.005  1.00  0.00     0.019 C 
BRANCH   7  11
ATOM     11  C   UNL A   1      44.291  26.438  25.924  1.00  0.00     0.000 C 
ATOM     12  C   UNL A   1      45.430  27.436  25.790  1.00  0.00     0.004 C 
ENDBRANCH   7  11
BRANCH   6  13
ATOM     13  C   UNL A   1      44.247  22.996  27.774  1.00  0.00     0.006 C 
ATOM     14  C   UNL A   1      45.179  23.762  28.732  1.00  0.00     0.005 C 
ATOM     15  C   UNL A   1      42.878  23.507  28.229  1.00  0.00     0.005 C 
ATOM     16  C   UNL A   1      44.402  23.885  30.048  1.00  0.00     0.000 C 
ATOM     17  C   UNL A   1      42.978  23.433  29.746  1.00  0.00     0.000 C 
ENDBRANCH   6  13
ENDBRANCH   4   6
ENDBRANCH   3   4
ENDBRANCH   2   3
ENDBRANCH   1   2
BRANCH   1  18
ATOM     18  O   UNL A   1      40.807  22.217  26.112  1.00  0.00    -0.458 OA
BRANCH  18  19
ATOM     19  C   UNL A   1      39.562  22.699  26.305  1.00  0.00     0.338 C 
ATOM     20  O   UNL A   1      38.511  22.089  26.138  1.00  0.00    -0.246 OA
BRANCH  19  21
ATOM     21  C   UNL A   1      39.620  24.085  26.832  1.00  0.00     0.060 A 
ATOM     22  C   UNL A   1      40.202  25.116  26.093  1.00  0.00     0.016 A 
ATOM     23  C   UNL A   1      39.206  24.339  28.143  1.00  0.00     0.016 A 
ATOM     24  C   UNL A   1      40.486  26.341  26.696  1.00  0.00     0.010 A 
ATOM     25  C   UNL A   1      39.395  25.608  28.708  1.00  0.00     0.010 A 
ATOM     26  C   UNL A   1      40.084  26.615  28.012  1.00  0.00    -0.014 A 
BRANCH  26  27
ATOM     27  C   UNL A   1      40.425  27.912  28.674  1.00  0.00     0.031 A 
ATOM     28  C   UNL A   1      41.805  28.143  29.247  1.00  0.00     0.074 A 
ATOM     29  C   UNL A   1      39.521  28.909  28.766  1.00  0.00     0.049 A 
ATOM     30  N   UNL A   1      42.213  29.078  30.071  1.00  0.00    -0.248 NA
ATOM     31  C   UNL A   1      42.861  27.195  28.856  1.00  0.00     0.031 C 
ATOM     32  C   UNL A   1      38.165  28.891  28.214  1.00  0.00     0.029 A 
ATOM     33  N   UNL A   1      39.618  30.148  29.355  1.00  0.00    -0.354 N 
ATOM     34  C   UNL A   1      43.540  28.780  30.361  1.00  0.00     0.074 A 
ATOM     35  C   UNL A   1      43.880  27.595  29.604  1.00  0.00     0.031 C 
ATOM     36  C   UNL A   1      37.582  30.079  28.435  1.00  0.00     0.029 A 
ATOM     37  C   UNL A   1      38.473  30.899  29.246  1.00  0.00     0.049 A 
ATOM     38  H   UNL A   1      40.430  30.466  29.812  1.00  0.00     0.167 HD
ATOM     39  C   UNL A   1      44.393  29.423  31.195  1.00  0.00     0.031 A 
ATOM     40  C   UNL A   1      38.137  32.088  29.783  1.00  0.00     0.031 A 
ATOM     41  C   UNL A   1      44.087  30.640  31.899  1.00  0.00     0.049 A 
ATOM     42  C   UNL A   1      39.084  32.774  30.720  1.00  0.00     0.074 A 
ATOM     43  C   UNL A   1      44.891  31.362  32.767  1.00  0.00     0.029 A 
ATOM     44  N   UNL A   1      42.892  31.332  31.794  1.00  0.00    -0.354 N 
ATOM     45  N   UNL A   1      40.288  32.411  31.086  1.00  0.00    -0.248 NA
ATOM     46  C   UNL A   1      38.607  34.014  31.348  1.00  0.00     0.031 C 
ATOM     47  C   UNL A   1      44.172  32.478  33.207  1.00  0.00     0.029 A 
ATOM     48  C   UNL A   1      42.935  32.469  32.583  1.00  0.00     0.049 A 
ATOM     49  H   UNL A   1      42.127  31.058  31.240  1.00  0.00     0.167 HD
ATOM     50  C   UNL A   1      40.707  33.370  31.999  1.00  0.00     0.074 A 
ATOM     51  C   UNL A   1      39.644  34.346  32.106  1.00  0.00     0.031 C 
ATOM     52  C   UNL A   1      41.866  33.424  32.696  1.00  0.00     0.031 A 
BRANCH  39  53
ATOM     53  C   UNL A   1      45.732  28.791  31.443  1.00  0.00    -0.014 A 
ATOM     54  C   UNL A   1      45.908  27.779  32.397  1.00  0.00     0.009 A 
ATOM     55  C   UNL A   1      46.829  29.186  30.659  1.00  0.00     0.009 A 
ATOM     56  C   UNL A   1      47.163  27.191  32.577  1.00  0.00     0.001 A 
ATOM     57  C   UNL A   1      48.077  28.581  30.826  1.00  0.00     0.001 A 
ATOM     58  C   UNL A   1      48.243  27.589  31.788  1.00  0.00     0.000 A 
ENDBRANCH  39  53
BRANCH  40  59
ATOM     59  C   UNL A   1      36.795  32.659  29.509  1.00  0.00    -0.014 A 
ATOM     60  C   UNL A   1      36.543  33.346  28.314  1.00  0.00     0.009 A 
ATOM     61  C   UNL A   1      35.749  32.490  30.433  1.00  0.00     0.009 A 
ATOM     62  C   UNL A   1      35.269  33.853  28.048  1.00  0.00     0.001 A 
ATOM     63  C   UNL A   1      34.471  32.972  30.152  1.00  0.00     0.001 A 
ATOM     64  C   UNL A   1      34.233  33.657  28.961  1.00  0.00     0.000 A 
ENDBRANCH  40  59
BRANCH  52  65
ATOM     65  C   UNL A   1      42.042  34.583  33.631  1.00  0.00    -0.014 A 
ATOM     66  C   UNL A   1      42.654  35.769  33.199  1.00  0.00     0.009 A 
ATOM     67  C   UNL A   1      41.577  34.495  34.951  1.00  0.00     0.009 A 
ATOM     68  C   UNL A   1      42.824  36.837  34.081  1.00  0.00     0.001 A 
ATOM     69  C   UNL A   1      41.732  35.571  35.826  1.00  0.00     0.001 A 
ATOM     70  C   UNL A   1      42.361  36.737  35.393  1.00  0.00     0.000 A 
ENDBRANCH  52  65
ENDBRANCH  26  27
ENDBRANCH  19  21
ENDBRANCH  18  19
ENDBRANCH   1  18
TORSDOF 13
ENDMDL
