MODEL 1
REMARK VINA RESULT:      -9.1      0.000      0.000
REMARK SMILES CC1(C)CCC[C@@](C)(CCC(=O)OCCOC(=O)c2ccc(-c3c4nc(c(-c5ccccc5)c5ccc([nH]5)c(-c5ccccc5)c5nc(c(-c6ccccc6)c6ccc3[nH]6)C=C5)C=C4)cc2)C1=O
REMARK SMILES IDX 14 1 13 2 11 3 12 4 10 5 9 6 7 7 1 8 2 9 3 10 4 11 67 12
REMARK SMILES IDX 5 13 68 14 6 15 8 16 15 17 16 18 17 19 18 20 19 21 20 22
REMARK SMILES IDX 66 23 21 24 65 25 22 26 23 27 24 28 59 29 25 30 64 31 58 32
REMARK SMILES IDX 60 33 26 34 63 35 57 36 56 37 27 39 49 40 34 41 48 42 35 43
REMARK SMILES IDX 38 44 47 45 61 46 36 47 37 48 46 50 62 51 39 52 28 53 29 54
REMARK SMILES IDX 33 55 30 56 32 57 31 58 50 59 51 60 55 61 52 62 54 63 53 64
REMARK SMILES IDX 40 65 41 66 45 67 42 68 44 69 43 70
REMARK H PARENT 60 38 38 49
REMARK Flexibility Score: inf
ROOT
ATOM      1  C   UNL A   1      34.622  34.373  28.377  1.00  0.00     0.274 C 
ENDROOT
BRANCH   1   2
ATOM      2  O   UNL A   1      35.384  34.248  29.591  1.00  0.00    -0.462 OA
BRANCH   2   3
ATOM      3  C   UNL A   1      34.757  33.750  30.685  1.00  0.00     0.305 C 
ATOM      4  O   UNL A   1      33.654  34.096  31.085  1.00  0.00    -0.252 OA
BRANCH   3   5
ATOM      5  C   UNL A   1      35.597  32.689  31.367  1.00  0.00     0.124 C 
BRANCH   5   6
ATOM      6  C   UNL A   1      35.550  32.774  32.901  1.00  0.00     0.026 C 
BRANCH   6   7
ATOM      7  C   UNL A   1      36.130  34.048  33.588  1.00  0.00     0.027 C 
ATOM      8  C   UNL A   1      38.345  31.701  34.781  1.00  0.00     0.019 C 
ATOM      9  C   UNL A   1      38.181  33.200  35.080  1.00  0.00     0.024 C 
ATOM     10  C   UNL A   1      38.625  33.442  36.537  1.00  0.00     0.019 C 
ATOM     11  C   UNL A   1      39.073  34.043  34.160  1.00  0.00     0.014 C 
ATOM     12  C   UNL A   1      36.698  33.606  34.953  1.00  0.00     0.144 C 
ATOM     13  C   UNL A   1      38.574  34.065  32.723  1.00  0.00     0.002 C 
ATOM     14  O   UNL A   1      35.928  33.453  35.909  1.00  0.00    -0.298 OA
ATOM     15  C   UNL A   1      37.201  34.710  32.683  1.00  0.00     0.014 C 
ATOM     16  C   UNL A   1      35.088  35.157  33.861  1.00  0.00     0.020 C 
ENDBRANCH   6   7
ENDBRANCH   5   6
ENDBRANCH   3   5
ENDBRANCH   2   3
ENDBRANCH   1   2
BRANCH   1  17
ATOM     17  C   UNL A   1      33.878  33.068  28.098  1.00  0.00     0.275 C 
BRANCH  17  18
ATOM     18  O   UNL A   1      34.740  32.168  27.379  1.00  0.00    -0.458 OA
BRANCH  18  19
ATOM     19  C   UNL A   1      34.527  30.851  27.577  1.00  0.00     0.338 C 
ATOM     20  O   UNL A   1      33.519  30.203  27.335  1.00  0.00    -0.246 OA
BRANCH  19  21
ATOM     21  C   UNL A   1      35.776  30.252  28.058  1.00  0.00     0.060 A 
ATOM     22  C   UNL A   1      35.814  29.694  29.340  1.00  0.00     0.016 A 
ATOM     23  C   UNL A   1      36.913  30.275  27.252  1.00  0.00     0.016 A 
ATOM     24  C   UNL A   1      37.002  29.150  29.822  1.00  0.00     0.010 A 
ATOM     25  C   UNL A   1      38.101  29.724  27.734  1.00  0.00     0.010 A 
ATOM     26  C   UNL A   1      38.153  29.167  29.024  1.00  0.00    -0.014 A 
BRANCH  26  27
ATOM     27  C   UNL A   1      39.435  28.643  29.546  1.00  0.00     0.031 A 
ATOM     28  C   UNL A   1      40.177  29.414  30.598  1.00  0.00     0.074 A 
ATOM     29  C   UNL A   1      39.938  27.495  29.062  1.00  0.00     0.049 A 
ATOM     30  N   UNL A   1      41.357  29.184  31.114  1.00  0.00    -0.248 NA
ATOM     31  C   UNL A   1      39.502  30.605  31.137  1.00  0.00     0.031 C 
ATOM     32  C   UNL A   1      39.290  26.638  28.068  1.00  0.00     0.029 A 
ATOM     33  N   UNL A   1      41.121  26.856  29.337  1.00  0.00    -0.354 N 
ATOM     34  C   UNL A   1      41.575  30.208  32.025  1.00  0.00     0.074 A 
ATOM     35  C   UNL A   1      40.415  31.073  31.976  1.00  0.00     0.031 C 
ATOM     36  C   UNL A   1      40.084  25.585  27.816  1.00  0.00     0.029 A 
ATOM     37  C   UNL A   1      41.313  25.717  28.594  1.00  0.00     0.049 A 
ATOM     38  H   UNL A   1      41.768  27.181  30.002  1.00  0.00     0.167 HD
ATOM     39  C   UNL A   1      42.645  30.410  32.830  1.00  0.00     0.031 A 
ATOM     40  C   UNL A   1      42.373  24.891  28.529  1.00  0.00     0.031 A 
ATOM     41  C   UNL A   1      43.802  29.556  32.865  1.00  0.00     0.049 A 
ATOM     42  C   UNL A   1      43.582  25.179  29.376  1.00  0.00     0.074 A 
ATOM     43  C   UNL A   1      44.936  29.668  33.652  1.00  0.00     0.029 A 
ATOM     44  N   UNL A   1      43.975  28.432  32.072  1.00  0.00    -0.354 N 
ATOM     45  N   UNL A   1      43.774  26.146  30.240  1.00  0.00    -0.248 NA
ATOM     46  C   UNL A   1      44.720  24.261  29.235  1.00  0.00     0.031 C 
ATOM     47  C   UNL A   1      45.816  28.640  33.298  1.00  0.00     0.029 A 
ATOM     48  C   UNL A   1      45.207  27.855  32.330  1.00  0.00     0.049 A 
ATOM     49  H   UNL A   1      43.318  28.093  31.422  1.00  0.00     0.167 HD
ATOM     50  C   UNL A   1      45.044  25.941  30.762  1.00  0.00     0.074 A 
ATOM     51  C   UNL A   1      45.570  24.748  30.129  1.00  0.00     0.031 C 
ATOM     52  C   UNL A   1      45.715  26.672  31.685  1.00  0.00     0.031 A 
BRANCH  39  53
ATOM     53  C   UNL A   1      42.624  31.629  33.709  1.00  0.00    -0.014 A 
ATOM     54  C   UNL A   1      42.151  31.571  35.029  1.00  0.00     0.009 A 
ATOM     55  C   UNL A   1      43.100  32.852  33.211  1.00  0.00     0.009 A 
ATOM     56  C   UNL A   1      42.120  32.721  35.820  1.00  0.00     0.001 A 
ATOM     57  C   UNL A   1      43.092  33.995  34.012  1.00  0.00     0.001 A 
ATOM     58  C   UNL A   1      42.593  33.931  35.312  1.00  0.00     0.000 A 
ENDBRANCH  39  53
BRANCH  40  59
ATOM     59  C   UNL A   1      42.348  23.722  27.612  1.00  0.00    -0.014 A 
ATOM     60  C   UNL A   1      41.947  22.461  28.074  1.00  0.00     0.009 A 
ATOM     61  C   UNL A   1      42.730  23.862  26.268  1.00  0.00     0.009 A 
ATOM     62  C   UNL A   1      41.945  21.360  27.216  1.00  0.00     0.001 A 
ATOM     63  C   UNL A   1      42.701  22.766  25.404  1.00  0.00     0.001 A 
ATOM     64  C   UNL A   1      42.317  21.513  25.881  1.00  0.00     0.000 A 
ENDBRANCH  40  59
BRANCH  52  65
ATOM     65  C   UNL A   1      47.078  26.184  32.085  1.00  0.00    -0.014 A 
ATOM     66  C   UNL A   1      47.255  25.344  33.194  1.00  0.00     0.009 A 
ATOM     67  C   UNL A   1      48.198  26.545  31.317  1.00  0.00     0.009 A 
ATOM     68  C   UNL A   1      48.531  24.899  33.545  1.00  0.00     0.001 A 
ATOM     69  C   UNL A   1      49.468  26.075  31.655  1.00  0.00     0.001 A 
ATOM     70  C   UNL A   1      49.634  25.261  32.773  1.00  0.00     0.000 A 
ENDBRANCH  52  65
ENDBRANCH  26  27
ENDBRANCH  19  21
ENDBRANCH  18  19
ENDBRANCH  17  18
ENDBRANCH   1  17
TORSDOF 13
ENDMDL
MODEL 2
REMARK VINA RESULT:      -9.0      1.143      1.757
REMARK SMILES CC1(C)CCC[C@@](C)(CCC(=O)OCCOC(=O)c2ccc(-c3c4nc(c(-c5ccccc5)c5ccc([nH]5)c(-c5ccccc5)c5nc(c(-c6ccccc6)c6ccc3[nH]6)C=C5)C=C4)cc2)C1=O
REMARK SMILES IDX 14 1 13 2 11 3 12 4 10 5 9 6 7 7 1 8 2 9 3 10 4 11 67 12
REMARK SMILES IDX 5 13 68 14 6 15 8 16 15 17 16 18 17 19 18 20 19 21 20 22
REMARK SMILES IDX 66 23 21 24 65 25 22 26 23 27 24 28 59 29 25 30 64 31 58 32
REMARK SMILES IDX 60 33 26 34 63 35 57 36 56 37 27 39 49 40 34 41 48 42 35 43
REMARK SMILES IDX 38 44 47 45 61 46 36 47 37 48 46 50 62 51 39 52 28 53 29 54
REMARK SMILES IDX 33 55 30 56 32 57 31 58 50 59 51 60 55 61 52 62 54 63 53 64
REMARK SMILES IDX 40 65 41 66 45 67 42 68 44 69 43 70
REMARK H PARENT 60 38 38 49
REMARK Flexibility Score: inf
ROOT
ATOM      1  C   UNL A   1      34.128  34.482  29.375  1.00  0.00     0.274 C 
ENDROOT
BRANCH   1   2
ATOM      2  O   UNL A   1      33.852  34.002  30.703  1.00  0.00    -0.462 OA
BRANCH   2   3
ATOM      3  C   UNL A   1      34.012  34.865  31.735  1.00  0.00     0.305 C 
ATOM      4  O   UNL A   1      33.472  35.958  31.831  1.00  0.00    -0.252 OA
BRANCH   3   5
ATOM      5  C   UNL A   1      34.956  34.306  32.781  1.00  0.00     0.124 C 
BRANCH   5   6
ATOM      6  C   UNL A   1      36.398  34.816  32.629  1.00  0.00     0.026 C 
BRANCH   6   7
ATOM      7  C   UNL A   1      37.492  33.808  32.163  1.00  0.00     0.027 C 
ATOM      8  C   UNL A   1      37.489  33.124  35.535  1.00  0.00     0.019 C 
ATOM      9  C   UNL A   1      38.371  32.610  34.387  1.00  0.00     0.024 C 
ATOM     10  C   UNL A   1      39.768  32.304  34.964  1.00  0.00     0.019 C 
ATOM     11  C   UNL A   1      37.802  31.312  33.796  1.00  0.00     0.014 C 
ATOM     12  C   UNL A   1      38.524  33.700  33.306  1.00  0.00     0.144 C 
ATOM     13  C   UNL A   1      36.533  31.546  32.991  1.00  0.00     0.002 C 
ATOM     14  O   UNL A   1      39.392  34.574  33.423  1.00  0.00    -0.298 OA
ATOM     15  C   UNL A   1      36.852  32.441  31.808  1.00  0.00     0.014 C 
ATOM     16  C   UNL A   1      38.259  34.239  30.892  1.00  0.00     0.020 C 
ENDBRANCH   6   7
ENDBRANCH   5   6
ENDBRANCH   3   5
ENDBRANCH   2   3
ENDBRANCH   1   2
BRANCH   1  17
ATOM     17  C   UNL A   1      34.122  33.314  28.391  1.00  0.00     0.275 C 
BRANCH  17  18
ATOM     18  O   UNL A   1      34.432  32.095  29.090  1.00  0.00    -0.458 OA
BRANCH  18  19
ATOM     19  C   UNL A   1      34.587  30.992  28.329  1.00  0.00     0.338 C 
ATOM     20  O   UNL A   1      33.832  30.550  27.475  1.00  0.00    -0.246 OA
BRANCH  19  21
ATOM     21  C   UNL A   1      35.905  30.418  28.618  1.00  0.00     0.060 A 
ATOM     22  C   UNL A   1      36.085  29.685  29.796  1.00  0.00     0.016 A 
ATOM     23  C   UNL A   1      36.965  30.634  27.738  1.00  0.00     0.016 A 
ATOM     24  C   UNL A   1      37.339  29.160  30.098  1.00  0.00     0.010 A 
ATOM     25  C   UNL A   1      38.219  30.103  28.040  1.00  0.00     0.010 A 
ATOM     26  C   UNL A   1      38.414  29.371  29.225  1.00  0.00    -0.014 A 
BRANCH  26  27
ATOM     27  C   UNL A   1      39.764  28.867  29.563  1.00  0.00     0.031 A 
ATOM     28  C   UNL A   1      40.691  29.719  30.379  1.00  0.00     0.074 A 
ATOM     29  C   UNL A   1      40.161  27.662  29.118  1.00  0.00     0.049 A 
ATOM     30  N   UNL A   1      41.942  29.510  30.698  1.00  0.00    -0.248 NA
ATOM     31  C   UNL A   1      40.135  30.977  30.902  1.00  0.00     0.031 C 
ATOM     32  C   UNL A   1      39.336  26.728  28.351  1.00  0.00     0.029 A 
ATOM     33  N   UNL A   1      41.368  27.022  29.244  1.00  0.00    -0.354 N 
ATOM     34  C   UNL A   1      42.330  30.614  31.444  1.00  0.00     0.074 A 
ATOM     35  C   UNL A   1      41.188  31.502  31.512  1.00  0.00     0.031 C 
ATOM     36  C   UNL A   1      40.063  25.633  28.073  1.00  0.00     0.029 A 
ATOM     37  C   UNL A   1      41.413  25.808  28.602  1.00  0.00     0.049 A 
ATOM     38  H   UNL A   1      42.128  27.394  29.746  1.00  0.00     0.167 HD
ATOM     39  C   UNL A   1      43.530  30.866  32.020  1.00  0.00     0.031 A 
ATOM     40  C   UNL A   1      42.436  24.950  28.435  1.00  0.00     0.031 A 
ATOM     41  C   UNL A   1      44.666  29.988  31.937  1.00  0.00     0.049 A 
ATOM     42  C   UNL A   1      43.780  25.289  29.019  1.00  0.00     0.074 A 
ATOM     43  C   UNL A   1      45.923  30.148  32.493  1.00  0.00     0.029 A 
ATOM     44  N   UNL A   1      44.683  28.785  31.248  1.00  0.00    -0.354 N 
ATOM     45  N   UNL A   1      44.133  26.333  29.729  1.00  0.00    -0.248 NA
ATOM     46  C   UNL A   1      44.866  24.330  28.775  1.00  0.00     0.031 C 
ATOM     47  C   UNL A   1      46.716  29.065  32.098  1.00  0.00     0.029 A 
ATOM     48  C   UNL A   1      45.936  28.203  31.341  1.00  0.00     0.049 A 
ATOM     49  H   UNL A   1      43.917  28.401  30.763  1.00  0.00     0.167 HD
ATOM     50  C   UNL A   1      45.475  26.146  30.036  1.00  0.00     0.074 A 
ATOM     51  C   UNL A   1      45.867  24.881  29.448  1.00  0.00     0.031 C 
ATOM     52  C   UNL A   1      46.308  26.948  30.743  1.00  0.00     0.031 A 
BRANCH  39  53
ATOM     53  C   UNL A   1      43.678  32.168  32.756  1.00  0.00    -0.014 A 
ATOM     54  C   UNL A   1      44.189  33.311  32.122  1.00  0.00     0.009 A 
ATOM     55  C   UNL A   1      43.287  32.255  34.101  1.00  0.00     0.009 A 
ATOM     56  C   UNL A   1      44.340  34.505  32.832  1.00  0.00     0.001 A 
ATOM     57  C   UNL A   1      43.414  33.455  34.801  1.00  0.00     0.001 A 
ATOM     58  C   UNL A   1      43.949  34.576  34.169  1.00  0.00     0.000 A 
ENDBRANCH  39  53
BRANCH  40  59
ATOM     59  C   UNL A   1      42.236  23.696  27.665  1.00  0.00    -0.014 A 
ATOM     60  C   UNL A   1      42.543  23.642  26.298  1.00  0.00     0.009 A 
ATOM     61  C   UNL A   1      41.734  22.545  28.293  1.00  0.00     0.009 A 
ATOM     62  C   UNL A   1      42.335  22.468  25.572  1.00  0.00     0.001 A 
ATOM     63  C   UNL A   1      41.552  21.364  27.572  1.00  0.00     0.001 A 
ATOM     64  C   UNL A   1      41.844  21.329  26.210  1.00  0.00     0.000 A 
ENDBRANCH  40  59
BRANCH  52  65
ATOM     65  C   UNL A   1      47.716  26.465  30.942  1.00  0.00    -0.014 A 
ATOM     66  C   UNL A   1      48.078  25.721  32.075  1.00  0.00     0.009 A 
ATOM     67  C   UNL A   1      48.687  26.730  29.963  1.00  0.00     0.009 A 
ATOM     68  C   UNL A   1      49.392  25.278  32.238  1.00  0.00     0.001 A 
ATOM     69  C   UNL A   1      49.993  26.262  30.115  1.00  0.00     0.001 A 
ATOM     70  C   UNL A   1      50.346  25.546  31.256  1.00  0.00     0.000 A 
ENDBRANCH  52  65
ENDBRANCH  26  27
ENDBRANCH  19  21
ENDBRANCH  18  19
ENDBRANCH  17  18
ENDBRANCH   1  17
TORSDOF 13
ENDMDL
MODEL 3
REMARK VINA RESULT:      -9.0      5.603      9.494
REMARK SMILES CC1(C)CCC[C@@](C)(CCC(=O)OCCOC(=O)c2ccc(-c3c4nc(c(-c5ccccc5)c5ccc([nH]5)c(-c5ccccc5)c5nc(c(-c6ccccc6)c6ccc3[nH]6)C=C5)C=C4)cc2)C1=O
REMARK SMILES IDX 14 1 13 2 11 3 12 4 10 5 9 6 7 7 1 8 2 9 3 10 4 11 67 12
REMARK SMILES IDX 5 13 68 14 6 15 8 16 15 17 16 18 17 19 18 20 19 21 20 22
REMARK SMILES IDX 66 23 21 24 65 25 22 26 23 27 24 28 59 29 25 30 64 31 58 32
REMARK SMILES IDX 60 33 26 34 63 35 57 36 56 37 27 39 49 40 34 41 48 42 35 43
REMARK SMILES IDX 38 44 47 45 61 46 36 47 37 48 46 50 62 51 39 52 28 53 29 54
REMARK SMILES IDX 33 55 30 56 32 57 31 58 50 59 51 60 55 61 52 62 54 63 53 64
REMARK SMILES IDX 40 65 41 66 45 67 42 68 44 69 43 70
REMARK H PARENT 60 38 38 49
REMARK Flexibility Score: inf
ROOT
ATOM      1  C   UNL A   1      35.115  20.547  24.989  1.00  0.00     0.274 C 
ENDROOT
BRANCH   1   2
ATOM      2  O   UNL A   1      34.307  19.393  24.698  1.00  0.00    -0.462 OA
BRANCH   2   3
ATOM      3  C   UNL A   1      32.960  19.540  24.721  1.00  0.00     0.305 C 
ATOM      4  O   UNL A   1      32.186  18.846  25.366  1.00  0.00    -0.252 OA
BRANCH   3   5
ATOM      5  C   UNL A   1      32.514  20.689  23.840  1.00  0.00     0.124 C 
BRANCH   5   6
ATOM      6  C   UNL A   1      32.030  21.911  24.637  1.00  0.00     0.026 C 
BRANCH   6   7
ATOM      7  C   UNL A   1      32.010  23.297  23.922  1.00  0.00     0.027 C 
ATOM      8  C   UNL A   1      34.499  23.880  26.226  1.00  0.00     0.019 C 
ATOM      9  C   UNL A   1      33.814  24.800  25.202  1.00  0.00     0.024 C 
ATOM     10  C   UNL A   1      33.808  26.230  25.781  1.00  0.00     0.019 C 
ATOM     11  C   UNL A   1      34.591  24.823  23.878  1.00  0.00     0.014 C 
ATOM     12  C   UNL A   1      32.352  24.360  24.988  1.00  0.00     0.144 C 
ATOM     13  C   UNL A   1      34.460  23.520  23.104  1.00  0.00     0.002 C 
ATOM     14  O   UNL A   1      31.465  24.753  25.756  1.00  0.00    -0.298 OA
ATOM     15  C   UNL A   1      33.004  23.306  22.732  1.00  0.00     0.014 C 
ATOM     16  C   UNL A   1      30.643  23.682  23.311  1.00  0.00     0.020 C 
ENDBRANCH   6   7
ENDBRANCH   5   6
ENDBRANCH   3   5
ENDBRANCH   2   3
ENDBRANCH   1   2
BRANCH   1  17
ATOM     17  C   UNL A   1      36.594  20.166  24.948  1.00  0.00     0.275 C 
BRANCH  17  18
ATOM     18  O   UNL A   1      37.364  21.154  25.658  1.00  0.00    -0.458 OA
BRANCH  18  19
ATOM     19  C   UNL A   1      38.669  20.871  25.847  1.00  0.00     0.338 C 
ATOM     20  O   UNL A   1      39.254  19.819  25.635  1.00  0.00    -0.246 OA
BRANCH  19  21
ATOM     21  C   UNL A   1      39.345  22.099  26.277  1.00  0.00     0.060 A 
ATOM     22  C   UNL A   1      38.763  23.336  25.981  1.00  0.00     0.016 A 
ATOM     23  C   UNL A   1      40.568  22.023  26.942  1.00  0.00     0.016 A 
ATOM     24  C   UNL A   1      39.409  24.512  26.356  1.00  0.00     0.010 A 
ATOM     25  C   UNL A   1      41.211  23.201  27.321  1.00  0.00     0.010 A 
ATOM     26  C   UNL A   1      40.640  24.451  27.022  1.00  0.00    -0.014 A 
BRANCH  26  27
ATOM     27  C   UNL A   1      41.363  25.693  27.376  1.00  0.00     0.031 A 
ATOM     28  C   UNL A   1      40.712  26.698  28.280  1.00  0.00     0.074 A 
ATOM     29  C   UNL A   1      42.586  25.926  26.868  1.00  0.00     0.049 A 
ATOM     30  N   UNL A   1      41.128  27.887  28.631  1.00  0.00    -0.248 NA
ATOM     31  C   UNL A   1      39.417  26.312  28.864  1.00  0.00     0.031 C 
ATOM     32  C   UNL A   1      43.336  25.007  26.011  1.00  0.00     0.029 A 
ATOM     33  N   UNL A   1      43.409  27.016  26.997  1.00  0.00    -0.354 N 
ATOM     34  C   UNL A   1      40.141  28.400  29.462  1.00  0.00     0.074 A 
ATOM     35  C   UNL A   1      39.096  27.403  29.546  1.00  0.00     0.031 C 
ATOM     36  C   UNL A   1      44.511  25.573  25.689  1.00  0.00     0.029 A 
ATOM     37  C   UNL A   1      44.574  26.908  26.278  1.00  0.00     0.049 A 
ATOM     38  H   UNL A   1      43.187  27.799  27.549  1.00  0.00     0.167 HD
ATOM     39  C   UNL A   1      40.110  29.596  30.097  1.00  0.00     0.031 A 
ATOM     40  C   UNL A   1      45.567  27.798  26.094  1.00  0.00     0.031 A 
ATOM     41  C   UNL A   1      41.144  30.591  29.999  1.00  0.00     0.049 A 
ATOM     42  C   UNL A   1      45.472  29.149  26.747  1.00  0.00     0.074 A 
ATOM     43  C   UNL A   1      41.211  31.831  30.611  1.00  0.00     0.029 A 
ATOM     44  N   UNL A   1      42.293  30.460  29.233  1.00  0.00    -0.354 N 
ATOM     45  N   UNL A   1      44.538  29.621  27.537  1.00  0.00    -0.248 NA
ATOM     46  C   UNL A   1      46.569  30.089  26.481  1.00  0.00     0.031 C 
ATOM     47  C   UNL A   1      42.377  32.470  30.175  1.00  0.00     0.029 A 
ATOM     48  C   UNL A   1      43.063  31.606  29.335  1.00  0.00     0.049 A 
ATOM     49  H   UNL A   1      42.527  29.668  28.697  1.00  0.00     0.167 HD
ATOM     50  C   UNL A   1      44.945  30.904  27.881  1.00  0.00     0.074 A 
ATOM     51  C   UNL A   1      46.218  31.129  27.226  1.00  0.00     0.031 C 
ATOM     52  C   UNL A   1      44.323  31.814  28.669  1.00  0.00     0.031 A 
BRANCH  39  53
ATOM     53  C   UNL A   1      38.892  29.904  30.922  1.00  0.00    -0.014 A 
ATOM     54  C   UNL A   1      37.786  30.571  30.372  1.00  0.00     0.009 A 
ATOM     55  C   UNL A   1      38.845  29.506  32.267  1.00  0.00     0.009 A 
ATOM     56  C   UNL A   1      36.674  30.866  31.164  1.00  0.00     0.001 A 
ATOM     57  C   UNL A   1      37.722  29.779  33.049  1.00  0.00     0.001 A 
ATOM     58  C   UNL A   1      36.642  30.468  32.500  1.00  0.00     0.000 A 
ENDBRANCH  39  53
BRANCH  40  59
ATOM     59  C   UNL A   1      46.728  27.449  25.235  1.00  0.00    -0.014 A 
ATOM     60  C   UNL A   1      47.779  26.670  25.739  1.00  0.00     0.009 A 
ATOM     61  C   UNL A   1      46.792  27.896  23.906  1.00  0.00     0.009 A 
ATOM     62  C   UNL A   1      48.879  26.361  24.937  1.00  0.00     0.001 A 
ATOM     63  C   UNL A   1      47.879  27.563  23.096  1.00  0.00     0.001 A 
ATOM     64  C   UNL A   1      48.927  26.803  23.615  1.00  0.00     0.000 A 
ENDBRANCH  40  59
BRANCH  52  65
ATOM     65  C   UNL A   1      45.026  33.123  28.889  1.00  0.00    -0.014 A 
ATOM     66  C   UNL A   1      44.773  34.232  28.068  1.00  0.00     0.009 A 
ATOM     67  C   UNL A   1      45.929  33.256  29.955  1.00  0.00     0.009 A 
ATOM     68  C   UNL A   1      45.434  35.441  28.293  1.00  0.00     0.001 A 
ATOM     69  C   UNL A   1      46.568  34.473  30.194  1.00  0.00     0.001 A 
ATOM     70  C   UNL A   1      46.327  35.561  29.358  1.00  0.00     0.000 A 
ENDBRANCH  52  65
ENDBRANCH  26  27
ENDBRANCH  19  21
ENDBRANCH  18  19
ENDBRANCH  17  18
ENDBRANCH   1  17
TORSDOF 13
ENDMDL
