MODEL 1
REMARK VINA RESULT:     -10.4      0.000      0.000
REMARK SMILES CC1(C)CCN(C(=O)N[C@H]2COC[C@@]2(C)C(=O)OCCOC(=O)c2ccc(-c3c4nc(c(-c5ccccc5)c5ccc([nH]5)c(-c5ccccc5)c5nc(c(-c6ccccc6)c6ccc3[nH]6)C=C5)C=C4)cc2)C1
REMARK SMILES IDX 19 1 18 2 16 3 17 4 14 5 10 6 11 7 12 8 13 9 15 10 9 11 7 12
REMARK SMILES IDX 8 13 6 15 1 16 2 17 3 18 4 19 72 20 5 21 20 22 21 23 22 24
REMARK SMILES IDX 23 25 24 26 25 27 71 28 26 29 70 30 27 31 28 32 29 33 64 34
REMARK SMILES IDX 30 35 69 36 63 37 65 38 31 39 68 40 62 41 61 42 32 44 54 45
REMARK SMILES IDX 39 46 53 47 40 48 43 49 52 50 66 51 41 52 42 53 51 55 67 56
REMARK SMILES IDX 44 57 33 58 34 59 38 60 35 61 37 62 36 63 55 64 56 65 60 66
REMARK SMILES IDX 57 67 59 68 58 69 45 70 46 71 50 72 47 73 49 74 48 75
REMARK H PARENT 9 14 65 43 43 54
REMARK Flexibility Score: inf
ROOT
ATOM      1  C   UNL A   1      33.062  34.298  28.357  1.00  0.00     0.274 C 
ENDROOT
BRANCH   1   2
ATOM      2  O   UNL A   1      32.922  34.578  29.766  1.00  0.00    -0.462 OA
BRANCH   2   3
ATOM      3  C   UNL A   1      32.991  35.888  30.146  1.00  0.00     0.316 C 
ATOM      4  O   UNL A   1      32.913  36.842  29.385  1.00  0.00    -0.251 OA
BRANCH   3   5
ATOM      5  C   UNL A   1      33.106  35.996  31.655  1.00  0.00     0.111 C 
ATOM      6  C   UNL A   1      34.082  34.995  32.263  1.00  0.00     0.129 C 
ATOM      7  C   UNL A   1      34.405  35.631  33.602  1.00  0.00     0.186 C 
ATOM      8  O   UNL A   1      34.296  37.056  33.418  1.00  0.00    -0.378 OA
ATOM      9  C   UNL A   1      33.723  37.305  32.118  1.00  0.00     0.181 C 
ATOM     10  C   UNL A   1      31.696  35.876  32.285  1.00  0.00     0.028 C 
BRANCH   6  11
ATOM     11  N   UNL A   1      35.211  34.579  31.406  1.00  0.00    -0.332 N 
ATOM     12  C   UNL A   1      36.398  33.972  31.341  1.00  0.00     0.317 C 
ATOM     13  O   UNL A   1      36.898  34.026  30.208  1.00  0.00    -0.249 OA
ATOM     14  H   UNL A   1      34.996  34.876  30.492  1.00  0.00     0.165 HD
BRANCH  12  15
ATOM     15  N   UNL A   1      37.038  33.314  32.329  1.00  0.00    -0.324 N 
ATOM     16  C   UNL A   1      37.083  33.457  35.431  1.00  0.00     0.013 C 
ATOM     17  C   UNL A   1      38.027  32.772  34.427  1.00  0.00    -0.016 C 
ATOM     18  C   UNL A   1      39.378  32.514  35.097  1.00  0.00     0.013 C 
ATOM     19  C   UNL A   1      37.410  31.498  33.845  1.00  0.00     0.030 C 
ATOM     20  C   UNL A   1      38.176  33.637  33.168  1.00  0.00     0.127 C 
ATOM     21  C   UNL A   1      36.509  32.010  32.726  1.00  0.00     0.122 C 
ENDBRANCH  12  15
ENDBRANCH   6  11
ENDBRANCH   3   5
ENDBRANCH   2   3
ENDBRANCH   1   2
BRANCH   1  22
ATOM     22  C   UNL A   1      34.376  33.561  28.086  1.00  0.00     0.275 C 
BRANCH  22  23
ATOM     23  O   UNL A   1      34.426  32.382  28.910  1.00  0.00    -0.458 OA
BRANCH  23  24
ATOM     24  C   UNL A   1      34.433  31.194  28.265  1.00  0.00     0.338 C 
ATOM     25  O   UNL A   1      33.575  30.731  27.538  1.00  0.00    -0.246 OA
BRANCH  24  26
ATOM     26  C   UNL A   1      35.728  30.539  28.521  1.00  0.00     0.060 A 
ATOM     27  C   UNL A   1      35.903  29.859  29.724  1.00  0.00     0.016 A 
ATOM     28  C   UNL A   1      36.786  30.662  27.626  1.00  0.00     0.016 A 
ATOM     29  C   UNL A   1      37.139  29.322  30.064  1.00  0.00     0.010 A 
ATOM     30  C   UNL A   1      38.020  30.079  27.942  1.00  0.00     0.010 A 
ATOM     31  C   UNL A   1      38.210  29.422  29.173  1.00  0.00    -0.014 A 
BRANCH  31  32
ATOM     32  C   UNL A   1      39.539  28.888  29.561  1.00  0.00     0.031 A 
ATOM     33  C   UNL A   1      40.420  29.681  30.485  1.00  0.00     0.074 A 
ATOM     34  C   UNL A   1      39.943  27.681  29.119  1.00  0.00     0.049 A 
ATOM     35  N   UNL A   1      41.657  29.451  30.845  1.00  0.00    -0.248 NA
ATOM     36  C   UNL A   1      39.834  30.891  31.083  1.00  0.00     0.031 C 
ATOM     37  C   UNL A   1      39.158  26.777  28.277  1.00  0.00     0.029 A 
ATOM     38  N   UNL A   1      41.121  27.006  29.324  1.00  0.00    -0.354 N 
ATOM     39  C   UNL A   1      42.011  30.507  31.674  1.00  0.00     0.074 A 
ATOM     40  C   UNL A   1      40.858  31.376  31.770  1.00  0.00     0.031 C 
ATOM     41  C   UNL A   1      39.873  25.663  28.045  1.00  0.00     0.029 A 
ATOM     42  C   UNL A   1      41.186  25.804  28.664  1.00  0.00     0.049 A 
ATOM     43  H   UNL A   1      41.850  27.352  29.889  1.00  0.00     0.167 HD
ATOM     44  C   UNL A   1      43.192  30.735  32.293  1.00  0.00     0.031 A 
ATOM     45  C   UNL A   1      42.204  24.932  28.535  1.00  0.00     0.031 A 
ATOM     46  C   UNL A   1      44.329  29.858  32.224  1.00  0.00     0.049 A 
ATOM     47  C   UNL A   1      43.525  25.240  29.185  1.00  0.00     0.074 A 
ATOM     48  C   UNL A   1      45.567  30.003  32.828  1.00  0.00     0.029 A 
ATOM     49  N   UNL A   1      44.366  28.670  31.514  1.00  0.00    -0.354 N 
ATOM     50  N   UNL A   1      43.854  26.258  29.942  1.00  0.00    -0.248 NA
ATOM     51  C   UNL A   1      44.618  24.286  28.946  1.00  0.00     0.031 C 
ATOM     52  C   UNL A   1      46.367  28.920  32.448  1.00  0.00     0.029 A 
ATOM     53  C   UNL A   1      45.613  28.083  31.643  1.00  0.00     0.049 A 
ATOM     54  H   UNL A   1      43.617  28.299  30.994  1.00  0.00     0.167 HD
ATOM     55  C   UNL A   1      45.187  26.059  30.281  1.00  0.00     0.074 A 
ATOM     56  C   UNL A   1      45.598  24.814  29.666  1.00  0.00     0.031 C 
ATOM     57  C   UNL A   1      46.002  26.843  31.026  1.00  0.00     0.031 A 
BRANCH  44  58
ATOM     58  C   UNL A   1      43.336  32.014  33.064  1.00  0.00    -0.014 A 
ATOM     59  C   UNL A   1      43.040  32.083  34.433  1.00  0.00     0.009 A 
ATOM     60  C   UNL A   1      43.828  33.156  32.412  1.00  0.00     0.009 A 
ATOM     61  C   UNL A   1      43.217  33.280  35.131  1.00  0.00     0.001 A 
ATOM     62  C   UNL A   1      44.022  34.344  33.117  1.00  0.00     0.001 A 
ATOM     63  C   UNL A   1      43.712  34.406  34.474  1.00  0.00     0.000 A 
ENDBRANCH  44  58
BRANCH  45  64
ATOM     64  C   UNL A   1      42.047  23.715  27.696  1.00  0.00    -0.014 A 
ATOM     65  C   UNL A   1      41.518  22.533  28.236  1.00  0.00     0.009 A 
ATOM     66  C   UNL A   1      42.462  23.724  26.355  1.00  0.00     0.009 A 
ATOM     67  C   UNL A   1      41.435  21.377  27.455  1.00  0.00     0.001 A 
ATOM     68  C   UNL A   1      42.351  22.574  25.570  1.00  0.00     0.001 A 
ATOM     69  C   UNL A   1      41.848  21.400  26.123  1.00  0.00     0.000 A 
ENDBRANCH  45  64
BRANCH  57  70
ATOM     70  C   UNL A   1      47.407  26.362  31.237  1.00  0.00    -0.014 A 
ATOM     71  C   UNL A   1      48.416  26.649  30.306  1.00  0.00     0.009 A 
ATOM     72  C   UNL A   1      47.731  25.639  32.395  1.00  0.00     0.009 A 
ATOM     73  C   UNL A   1      49.719  26.195  30.518  1.00  0.00     0.001 A 
ATOM     74  C   UNL A   1      49.038  25.207  32.615  1.00  0.00     0.001 A 
ATOM     75  C   UNL A   1      50.030  25.478  31.674  1.00  0.00     0.000 A 
ENDBRANCH  57  70
ENDBRANCH  31  32
ENDBRANCH  24  26
ENDBRANCH  23  24
ENDBRANCH  22  23
ENDBRANCH   1  22
TORSDOF 13
ENDMDL
MODEL 2
REMARK VINA RESULT:     -10.0      0.755      6.096
REMARK SMILES CC1(C)CCN(C(=O)N[C@H]2COC[C@@]2(C)C(=O)OCCOC(=O)c2ccc(-c3c4nc(c(-c5ccccc5)c5ccc([nH]5)c(-c5ccccc5)c5nc(c(-c6ccccc6)c6ccc3[nH]6)C=C5)C=C4)cc2)C1
REMARK SMILES IDX 19 1 18 2 16 3 17 4 14 5 10 6 11 7 12 8 13 9 15 10 9 11 7 12
REMARK SMILES IDX 8 13 6 15 1 16 2 17 3 18 4 19 72 20 5 21 20 22 21 23 22 24
REMARK SMILES IDX 23 25 24 26 25 27 71 28 26 29 70 30 27 31 28 32 29 33 64 34
REMARK SMILES IDX 30 35 69 36 63 37 65 38 31 39 68 40 62 41 61 42 32 44 54 45
REMARK SMILES IDX 39 46 53 47 40 48 43 49 52 50 66 51 41 52 42 53 51 55 67 56
REMARK SMILES IDX 44 57 33 58 34 59 38 60 35 61 37 62 36 63 55 64 56 65 60 66
REMARK SMILES IDX 57 67 59 68 58 69 45 70 46 71 50 72 47 73 49 74 48 75
REMARK H PARENT 9 14 65 43 43 54
REMARK Flexibility Score: inf
ROOT
ATOM      1  C   UNL A   1      33.281  34.177  28.552  1.00  0.00     0.274 C 
ENDROOT
BRANCH   1   2
ATOM      2  O   UNL A   1      33.203  34.536  29.948  1.00  0.00    -0.462 OA
BRANCH   2   3
ATOM      3  C   UNL A   1      33.165  35.868  30.243  1.00  0.00     0.316 C 
ATOM      4  O   UNL A   1      33.065  36.765  29.417  1.00  0.00    -0.251 OA
BRANCH   3   5
ATOM      5  C   UNL A   1      33.189  36.079  31.745  1.00  0.00     0.111 C 
ATOM      6  C   UNL A   1      34.166  35.160  32.472  1.00  0.00     0.129 C 
ATOM      7  C   UNL A   1      34.387  35.895  33.781  1.00  0.00     0.186 C 
ATOM      8  O   UNL A   1      34.235  37.300  33.496  1.00  0.00    -0.378 OA
ATOM      9  C   UNL A   1      33.728  37.440  32.153  1.00  0.00     0.181 C 
ATOM     10  C   UNL A   1      31.750  35.941  32.304  1.00  0.00     0.028 C 
BRANCH   6  11
ATOM     11  N   UNL A   1      35.356  34.737  31.708  1.00  0.00    -0.332 N 
ATOM     12  C   UNL A   1      36.658  34.441  31.743  1.00  0.00     0.317 C 
ATOM     13  O   UNL A   1      37.120  34.196  30.619  1.00  0.00    -0.249 OA
ATOM     14  H   UNL A   1      35.067  34.626  30.773  1.00  0.00     0.165 HD
BRANCH  12  15
ATOM     15  N   UNL A   1      37.450  34.353  32.831  1.00  0.00    -0.324 N 
ATOM     16  C   UNL A   1      38.691  32.044  34.496  1.00  0.00     0.013 C 
ATOM     17  C   UNL A   1      38.530  33.545  34.794  1.00  0.00    -0.016 C 
ATOM     18  C   UNL A   1      38.624  33.774  36.303  1.00  0.00     0.013 C 
ATOM     19  C   UNL A   1      39.534  34.392  34.010  1.00  0.00     0.030 C 
ATOM     20  C   UNL A   1      37.198  34.055  34.227  1.00  0.00     0.127 C 
ATOM     21  C   UNL A   1      38.887  34.543  32.636  1.00  0.00     0.122 C 
ENDBRANCH  12  15
ENDBRANCH   6  11
ENDBRANCH   3   5
ENDBRANCH   2   3
ENDBRANCH   1   2
BRANCH   1  22
ATOM     22  C   UNL A   1      34.469  33.244  28.305  1.00  0.00     0.275 C 
BRANCH  22  23
ATOM     23  O   UNL A   1      34.121  31.920  28.749  1.00  0.00    -0.458 OA
BRANCH  23  24
ATOM     24  C   UNL A   1      34.369  30.909  27.887  1.00  0.00     0.338 C 
ATOM     25  O   UNL A   1      33.688  30.541  26.949  1.00  0.00    -0.246 OA
BRANCH  24  26
ATOM     26  C   UNL A   1      35.685  30.335  28.217  1.00  0.00     0.060 A 
ATOM     27  C   UNL A   1      35.865  29.763  29.475  1.00  0.00     0.016 A 
ATOM     28  C   UNL A   1      36.754  30.431  27.332  1.00  0.00     0.016 A 
ATOM     29  C   UNL A   1      37.116  29.311  29.878  1.00  0.00     0.010 A 
ATOM     30  C   UNL A   1      38.005  29.930  27.715  1.00  0.00     0.010 A 
ATOM     31  C   UNL A   1      38.199  29.385  28.999  1.00  0.00    -0.014 A 
BRANCH  31  32
ATOM     32  C   UNL A   1      39.542  28.943  29.451  1.00  0.00     0.031 A 
ATOM     33  C   UNL A   1      40.110  27.648  28.942  1.00  0.00     0.074 A 
ATOM     34  C   UNL A   1      40.267  29.714  30.283  1.00  0.00     0.049 A 
ATOM     35  N   UNL A   1      41.204  27.028  29.305  1.00  0.00    -0.248 NA
ATOM     36  C   UNL A   1      39.350  26.960  27.886  1.00  0.00     0.031 C 
ATOM     37  C   UNL A   1      39.866  31.025  30.796  1.00  0.00     0.029 A 
ATOM     38  N   UNL A   1      41.503  29.501  30.844  1.00  0.00    -0.354 N 
ATOM     39  C   UNL A   1      41.240  25.859  28.557  1.00  0.00     0.074 A 
ATOM     40  C   UNL A   1      40.064  25.857  27.714  1.00  0.00     0.031 C 
ATOM     41  C   UNL A   1      40.840  31.503  31.588  1.00  0.00     0.029 A 
ATOM     42  C   UNL A   1      41.900  30.506  31.692  1.00  0.00     0.049 A 
ATOM     43  H   UNL A   1      42.050  28.704  30.658  1.00  0.00     0.167 HD
ATOM     44  C   UNL A   1      42.167  24.873  28.576  1.00  0.00     0.031 A 
ATOM     45  C   UNL A   1      42.977  30.596  32.495  1.00  0.00     0.031 A 
ATOM     46  C   UNL A   1      43.352  24.886  29.389  1.00  0.00     0.049 A 
ATOM     47  C   UNL A   1      43.960  29.459  32.541  1.00  0.00     0.074 A 
ATOM     48  C   UNL A   1      44.354  23.934  29.467  1.00  0.00     0.029 A 
ATOM     49  N   UNL A   1      43.698  25.905  30.261  1.00  0.00    -0.354 N 
ATOM     50  N   UNL A   1      43.966  28.346  31.848  1.00  0.00    -0.248 NA
ATOM     51  C   UNL A   1      45.074  29.586  33.491  1.00  0.00     0.031 C 
ATOM     52  C   UNL A   1      45.287  24.360  30.418  1.00  0.00     0.029 A 
ATOM     53  C   UNL A   1      44.885  25.595  30.901  1.00  0.00     0.049 A 
ATOM     54  H   UNL A   1      43.176  26.727  30.405  1.00  0.00     0.167 HD
ATOM     55  C   UNL A   1      45.090  27.647  32.271  1.00  0.00     0.074 A 
ATOM     56  C   UNL A   1      45.753  28.470  33.261  1.00  0.00     0.031 C 
ATOM     57  C   UNL A   1      45.530  26.427  31.880  1.00  0.00     0.031 A 
BRANCH  44  58
ATOM     58  C   UNL A   1      41.913  23.665  27.723  1.00  0.00    -0.014 A 
ATOM     59  C   UNL A   1      41.082  22.622  28.158  1.00  0.00     0.009 A 
ATOM     60  C   UNL A   1      42.477  23.601  26.439  1.00  0.00     0.009 A 
ATOM     61  C   UNL A   1      40.837  21.526  27.327  1.00  0.00     0.001 A 
ATOM     62  C   UNL A   1      42.214  22.515  25.605  1.00  0.00     0.001 A 
ATOM     63  C   UNL A   1      41.399  21.476  26.051  1.00  0.00     0.000 A 
ENDBRANCH  44  58
BRANCH  45  64
ATOM     64  C   UNL A   1      43.152  31.775  33.385  1.00  0.00    -0.014 A 
ATOM     65  C   UNL A   1      42.571  31.804  34.661  1.00  0.00     0.009 A 
ATOM     66  C   UNL A   1      43.875  32.893  32.941  1.00  0.00     0.009 A 
ATOM     67  C   UNL A   1      42.688  32.943  35.463  1.00  0.00     0.001 A 
ATOM     68  C   UNL A   1      44.013  34.018  33.756  1.00  0.00     0.001 A 
ATOM     69  C   UNL A   1      43.412  34.046  35.011  1.00  0.00     0.000 A 
ENDBRANCH  45  64
BRANCH  57  70
ATOM     70  C   UNL A   1      46.798  25.925  32.507  1.00  0.00    -0.014 A 
ATOM     71  C   UNL A   1      46.768  25.149  33.675  1.00  0.00     0.009 A 
ATOM     72  C   UNL A   1      48.033  26.208  31.905  1.00  0.00     0.009 A 
ATOM     73  C   UNL A   1      47.956  24.688  34.245  1.00  0.00     0.001 A 
ATOM     74  C   UNL A   1      49.217  25.727  32.464  1.00  0.00     0.001 A 
ATOM     75  C   UNL A   1      49.178  24.974  33.637  1.00  0.00     0.000 A 
ENDBRANCH  57  70
ENDBRANCH  31  32
ENDBRANCH  24  26
ENDBRANCH  23  24
ENDBRANCH  22  23
ENDBRANCH   1  22
TORSDOF 13
ENDMDL
MODEL 3
REMARK VINA RESULT:      -9.6      4.039      6.983
REMARK SMILES CC1(C)CCN(C(=O)N[C@H]2COC[C@@]2(C)C(=O)OCCOC(=O)c2ccc(-c3c4nc(c(-c5ccccc5)c5ccc([nH]5)c(-c5ccccc5)c5nc(c(-c6ccccc6)c6ccc3[nH]6)C=C5)C=C4)cc2)C1
REMARK SMILES IDX 19 1 18 2 16 3 17 4 14 5 10 6 11 7 12 8 13 9 15 10 9 11 7 12
REMARK SMILES IDX 8 13 6 15 1 16 2 17 3 18 4 19 72 20 5 21 20 22 21 23 22 24
REMARK SMILES IDX 23 25 24 26 25 27 71 28 26 29 70 30 27 31 28 32 29 33 64 34
REMARK SMILES IDX 30 35 69 36 63 37 65 38 31 39 68 40 62 41 61 42 32 44 54 45
REMARK SMILES IDX 39 46 53 47 40 48 43 49 52 50 66 51 41 52 42 53 51 55 67 56
REMARK SMILES IDX 44 57 33 58 34 59 38 60 35 61 37 62 36 63 55 64 56 65 60 66
REMARK SMILES IDX 57 67 59 68 58 69 45 70 46 71 50 72 47 73 49 74 48 75
REMARK H PARENT 9 14 65 43 43 54
REMARK Flexibility Score: inf
ROOT
ATOM      1  C   UNL A   1      31.569  31.581  26.298  1.00  0.00     0.274 C 
ENDROOT
BRANCH   1   2
ATOM      2  O   UNL A   1      31.299  30.163  26.282  1.00  0.00    -0.462 OA
BRANCH   2   3
ATOM      3  C   UNL A   1      32.205  29.368  25.640  1.00  0.00     0.316 C 
ATOM      4  O   UNL A   1      32.933  29.734  24.728  1.00  0.00    -0.251 OA
BRANCH   3   5
ATOM      5  C   UNL A   1      32.234  27.986  26.264  1.00  0.00     0.111 C 
ATOM      6  C   UNL A   1      31.408  26.956  25.499  1.00  0.00     0.129 C 
ATOM      7  C   UNL A   1      32.005  25.645  25.974  1.00  0.00     0.186 C 
ATOM      8  O   UNL A   1      33.390  25.909  26.276  1.00  0.00    -0.378 OA
ATOM      9  C   UNL A   1      33.606  27.334  26.218  1.00  0.00     0.181 C 
ATOM     10  C   UNL A   1      31.794  28.084  27.746  1.00  0.00     0.028 C 
BRANCH   6  11
ATOM     11  N   UNL A   1      31.282  27.171  24.043  1.00  0.00    -0.332 N 
ATOM     12  C   UNL A   1      30.583  27.734  23.055  1.00  0.00     0.317 C 
ATOM     13  O   UNL A   1      31.026  27.442  21.933  1.00  0.00    -0.249 OA
ATOM     14  H   UNL A   1      32.035  26.696  23.621  1.00  0.00     0.165 HD
BRANCH  12  15
ATOM     15  N   UNL A   1      29.531  28.570  23.166  1.00  0.00    -0.324 N 
ATOM     16  C   UNL A   1      28.045  30.538  21.279  1.00  0.00     0.013 C 
ATOM     17  C   UNL A   1      28.013  30.371  22.808  1.00  0.00    -0.016 C 
ATOM     18  C   UNL A   1      27.493  31.659  23.448  1.00  0.00     0.013 C 
ATOM     19  C   UNL A   1      27.206  29.140  23.229  1.00  0.00     0.030 C 
ATOM     20  C   UNL A   1      29.411  30.005  23.328  1.00  0.00     0.127 C 
ATOM     21  C   UNL A   1      28.193  27.987  23.072  1.00  0.00     0.122 C 
ENDBRANCH  12  15
ENDBRANCH   6  11
ENDBRANCH   3   5
ENDBRANCH   2   3
ENDBRANCH   1   2
BRANCH   1  22
ATOM     22  C   UNL A   1      32.548  31.926  27.423  1.00  0.00     0.275 C 
BRANCH  22  23
ATOM     23  O   UNL A   1      32.975  33.291  27.266  1.00  0.00    -0.458 OA
BRANCH  23  24
ATOM     24  C   UNL A   1      33.250  33.972  28.401  1.00  0.00     0.338 C 
ATOM     25  O   UNL A   1      32.560  34.801  28.963  1.00  0.00    -0.246 OA
BRANCH  24  26
ATOM     26  C   UNL A   1      34.537  33.486  28.928  1.00  0.00     0.060 A 
ATOM     27  C   UNL A   1      35.701  33.781  28.219  1.00  0.00     0.016 A 
ATOM     28  C   UNL A   1      34.593  32.680  30.061  1.00  0.00     0.016 A 
ATOM     29  C   UNL A   1      36.924  33.252  28.610  1.00  0.00     0.010 A 
ATOM     30  C   UNL A   1      35.833  32.187  30.487  1.00  0.00     0.010 A 
ATOM     31  C   UNL A   1      37.004  32.453  29.753  1.00  0.00    -0.014 A 
BRANCH  31  32
ATOM     32  C   UNL A   1      38.306  31.853  30.139  1.00  0.00     0.031 A 
ATOM     33  C   UNL A   1      39.192  32.565  31.122  1.00  0.00     0.074 A 
ATOM     34  C   UNL A   1      38.678  30.658  29.643  1.00  0.00     0.049 A 
ATOM     35  N   UNL A   1      40.412  32.274  31.494  1.00  0.00    -0.248 NA
ATOM     36  C   UNL A   1      38.634  33.763  31.771  1.00  0.00     0.031 C 
ATOM     37  C   UNL A   1      37.882  29.826  28.738  1.00  0.00     0.029 A 
ATOM     38  N   UNL A   1      39.828  29.932  29.836  1.00  0.00    -0.354 N 
ATOM     39  C   UNL A   1      40.782  33.272  32.385  1.00  0.00     0.074 A 
ATOM     40  C   UNL A   1      39.658  34.175  32.503  1.00  0.00     0.031 C 
ATOM     41  C   UNL A   1      38.564  28.702  28.462  1.00  0.00     0.029 A 
ATOM     42  C   UNL A   1      39.867  28.765  29.114  1.00  0.00     0.049 A 
ATOM     43  H   UNL A   1      40.555  30.222  30.433  1.00  0.00     0.167 HD
ATOM     44  C   UNL A   1      41.957  33.426  33.040  1.00  0.00     0.031 A 
ATOM     45  C   UNL A   1      40.858  27.866  28.960  1.00  0.00     0.031 A 
ATOM     46  C   UNL A   1      43.065  32.515  32.948  1.00  0.00     0.049 A 
ATOM     47  C   UNL A   1      42.173  28.093  29.653  1.00  0.00     0.074 A 
ATOM     48  C   UNL A   1      44.292  32.585  33.584  1.00  0.00     0.029 A 
ATOM     49  N   UNL A   1      43.077  31.365  32.177  1.00  0.00    -0.354 N 
ATOM     50  N   UNL A   1      42.520  29.058  30.470  1.00  0.00    -0.248 NA
ATOM     51  C   UNL A   1      43.238  27.115  29.387  1.00  0.00     0.031 C 
ATOM     52  C   UNL A   1      45.064  31.497  33.165  1.00  0.00     0.029 A 
ATOM     53  C   UNL A   1      44.300  30.729  32.301  1.00  0.00     0.049 A 
ATOM     54  H   UNL A   1      42.328  31.048  31.623  1.00  0.00     0.167 HD
ATOM     55  C   UNL A   1      43.837  28.795  30.825  1.00  0.00     0.074 A 
ATOM     56  C   UNL A   1      44.219  27.570  30.154  1.00  0.00     0.031 C 
ATOM     57  C   UNL A   1      44.661  29.511  31.628  1.00  0.00     0.031 A 
BRANCH  44  58
ATOM     58  C   UNL A   1      42.126  34.658  33.880  1.00  0.00    -0.014 A 
ATOM     59  C   UNL A   1      42.639  35.848  33.343  1.00  0.00     0.009 A 
ATOM     60  C   UNL A   1      41.714  34.634  35.222  1.00  0.00     0.009 A 
ATOM     61  C   UNL A   1      42.752  36.988  34.143  1.00  0.00     0.001 A 
ATOM     62  C   UNL A   1      41.811  35.780  36.012  1.00  0.00     0.001 A 
ATOM     63  C   UNL A   1      42.334  36.954  35.473  1.00  0.00     0.000 A 
ENDBRANCH  44  58
BRANCH  45  64
ATOM     64  C   UNL A   1      40.679  26.700  28.055  1.00  0.00    -0.014 A 
ATOM     65  C   UNL A   1      40.154  25.491  28.535  1.00  0.00     0.009 A 
ATOM     66  C   UNL A   1      41.068  26.785  26.709  1.00  0.00     0.009 A 
ATOM     67  C   UNL A   1      40.049  24.382  27.691  1.00  0.00     0.001 A 
ATOM     68  C   UNL A   1      40.937  25.684  25.861  1.00  0.00     0.001 A 
ATOM     69  C   UNL A   1      40.437  24.481  26.355  1.00  0.00     0.000 A 
ENDBRANCH  45  64
BRANCH  57  70
ATOM     70  C   UNL A   1      46.044  28.970  31.842  1.00  0.00    -0.014 A 
ATOM     71  C   UNL A   1      46.313  28.063  32.878  1.00  0.00     0.009 A 
ATOM     72  C   UNL A   1      47.083  29.350  30.978  1.00  0.00     0.009 A 
ATOM     73  C   UNL A   1      47.606  27.569  33.062  1.00  0.00     0.001 A 
ATOM     74  C   UNL A   1      48.368  28.836  31.151  1.00  0.00     0.001 A 
ATOM     75  C   UNL A   1      48.630  27.952  32.197  1.00  0.00     0.000 A 
ENDBRANCH  57  70
ENDBRANCH  31  32
ENDBRANCH  24  26
ENDBRANCH  23  24
ENDBRANCH  22  23
ENDBRANCH   1  22
TORSDOF 13
ENDMDL
