MODEL 1
REMARK VINA RESULT:     -10.7      0.000      0.000
REMARK SMILES CCCCCCNC(=O)Oc1cccc(-c2ccc(CC(=O)OCCOC(=O)c3ccc(-c4c5nc(c(-c6ccccc6)c6ccc([nH]6)c(-c6ccccc6)c6nc(c(-c7ccccc7)c7ccc4[nH]7)C=C6)C=C5)cc3)cc2F)c1
REMARK SMILES IDX 20 1 19 2 16 3 17 4 78 5 18 6 77 7 79 8 15 9 11 10 12 11
REMARK SMILES IDX 80 12 13 13 14 14 10 15 8 16 7 17 9 19 6 20 5 21 4 22 3 23
REMARK SMILES IDX 2 24 1 25 21 26 22 27 23 28 24 29 25 30 26 31 27 32 28 33
REMARK SMILES IDX 29 34 30 35 76 36 31 37 75 38 32 39 33 40 34 41 69 42 35 43
REMARK SMILES IDX 74 44 68 45 70 46 36 47 73 48 67 49 66 50 37 52 59 53 44 54
REMARK SMILES IDX 58 55 45 56 48 57 57 58 71 59 46 60 47 61 56 63 72 64 49 65
REMARK SMILES IDX 38 66 39 67 43 68 40 69 42 70 41 71 60 72 61 73 65 74 62 75
REMARK SMILES IDX 64 76 63 77 50 78 51 79 55 80 52 81 54 82 53 83
REMARK H PARENT 7 18 70 51 48 62
REMARK Flexibility Score: inf
ROOT
ATOM      1  C   UNL A   1      40.470  21.873  27.261  1.00  0.00     0.158 C 
ENDROOT
BRANCH   1   2
ATOM      2  C   UNL A   1      39.243  22.391  26.552  1.00  0.00    -0.034 A 
ATOM      3  C   UNL A   1      36.874  23.299  25.280  1.00  0.00     0.018 A 
ATOM      4  C   UNL A   1      37.635  24.161  26.080  1.00  0.00     0.012 A 
ATOM      5  C   UNL A   1      37.329  21.982  25.127  1.00  0.00     0.131 A 
ATOM      6  C   UNL A   1      38.800  23.712  26.713  1.00  0.00     0.005 A 
ATOM      7  C   UNL A   1      38.492  21.529  25.746  1.00  0.00     0.044 A 
ATOM      8  F   UNL A   1      36.642  21.112  24.371  1.00  0.00    -0.206 F 
BRANCH   3   9
ATOM      9  C   UNL A   1      35.638  23.752  24.632  1.00  0.00    -0.012 A 
ATOM     10  C   UNL A   1      33.584  25.039  24.693  1.00  0.00     0.133 A 
ATOM     11  C   UNL A   1      33.204  24.542  23.449  1.00  0.00     0.047 A 
ATOM     12  C   UNL A   1      34.780  24.645  25.290  1.00  0.00     0.056 A 
ATOM     13  C   UNL A   1      34.055  23.667  22.777  1.00  0.00     0.004 A 
ATOM     14  C   UNL A   1      35.265  23.278  23.363  1.00  0.00     0.009 A 
BRANCH  10  15
ATOM     15  O   UNL A   1      32.661  25.835  25.386  1.00  0.00    -0.410 OA
BRANCH  15  16
ATOM     16  C   UNL A   1      32.765  27.209  25.231  1.00  0.00     0.412 C 
ATOM     17  N   UNL A   1      31.630  27.779  24.721  1.00  0.00    -0.321 N 
ATOM     18  H   UNL A   1      31.658  28.750  24.561  1.00  0.00     0.167 HD
ATOM     19  O   UNL A   1      33.744  27.895  25.498  1.00  0.00    -0.224 OA
BRANCH  17  20
ATOM     20  C   UNL A   1      30.391  27.104  24.394  1.00  0.00     0.119 C 
BRANCH  20  21
ATOM     21  C   UNL A   1      29.613  27.833  23.297  1.00  0.00     0.021 C 
BRANCH  21  22
ATOM     22  C   UNL A   1      29.929  29.327  23.164  1.00  0.00     0.002 C 
BRANCH  22  23
ATOM     23  C   UNL A   1      29.318  30.028  21.946  1.00  0.00    -0.000 C 
BRANCH  23  24
ATOM     24  C   UNL A   1      28.518  31.297  22.249  1.00  0.00    -0.003 C 
ATOM     25  C   UNL A   1      27.667  31.189  23.504  1.00  0.00     0.004 C 
ENDBRANCH  23  24
ENDBRANCH  22  23
ENDBRANCH  21  22
ENDBRANCH  20  21
ENDBRANCH  17  20
ENDBRANCH  15  16
ENDBRANCH  10  15
ENDBRANCH   3   9
ENDBRANCH   1   2
BRANCH   1  26
ATOM     26  C   UNL A   1      41.623  21.423  26.396  1.00  0.00     0.310 C 
ATOM     27  O   UNL A   1      41.935  22.026  25.373  1.00  0.00    -0.252 OA
BRANCH  26  28
ATOM     28  O   UNL A   1      42.282  20.343  26.890  1.00  0.00    -0.462 OA
BRANCH  28  29
ATOM     29  C   UNL A   1      42.043  19.095  26.211  1.00  0.00     0.274 C 
BRANCH  29  30
ATOM     30  C   UNL A   1      43.331  18.559  25.592  1.00  0.00     0.275 C 
BRANCH  30  31
ATOM     31  O   UNL A   1      43.629  19.277  24.381  1.00  0.00    -0.458 OA
BRANCH  31  32
ATOM     32  C   UNL A   1      44.932  19.568  24.175  1.00  0.00     0.338 C 
ATOM     33  O   UNL A   1      45.803  18.844  23.728  1.00  0.00    -0.246 OA
BRANCH  32  34
ATOM     34  C   UNL A   1      45.185  20.961  24.569  1.00  0.00     0.060 A 
ATOM     35  C   UNL A   1      45.583  21.252  25.876  1.00  0.00     0.016 A 
ATOM     36  C   UNL A   1      44.907  21.986  23.667  1.00  0.00     0.016 A 
ATOM     37  C   UNL A   1      45.659  22.577  26.300  1.00  0.00     0.010 A 
ATOM     38  C   UNL A   1      45.042  23.315  24.077  1.00  0.00     0.010 A 
ATOM     39  C   UNL A   1      45.395  23.621  25.402  1.00  0.00    -0.014 A 
BRANCH  39  40
ATOM     40  C   UNL A   1      45.471  25.033  25.852  1.00  0.00     0.031 A 
ATOM     41  C   UNL A   1      46.779  25.771  25.810  1.00  0.00     0.074 A 
ATOM     42  C   UNL A   1      44.364  25.650  26.305  1.00  0.00     0.049 A 
ATOM     43  N   UNL A   1      47.066  26.968  26.259  1.00  0.00    -0.248 NA
ATOM     44  C   UNL A   1      47.915  25.073  25.189  1.00  0.00     0.031 C 
ATOM     45  C   UNL A   1      43.025  25.059  26.362  1.00  0.00     0.029 A 
ATOM     46  N   UNL A   1      44.191  26.915  26.807  1.00  0.00    -0.354 N 
ATOM     47  C   UNL A   1      48.419  27.153  26.005  1.00  0.00     0.074 A 
ATOM     48  C   UNL A   1      48.900  25.944  25.372  1.00  0.00     0.031 C 
ATOM     49  C   UNL A   1      42.167  25.966  26.854  1.00  0.00     0.029 A 
ATOM     50  C   UNL A   1      42.902  27.177  27.200  1.00  0.00     0.049 A 
ATOM     51  H   UNL A   1      44.922  27.572  26.878  1.00  0.00     0.167 HD
ATOM     52  C   UNL A   1      49.191  28.232  26.277  1.00  0.00     0.031 A 
ATOM     53  C   UNL A   1      42.376  28.261  27.801  1.00  0.00     0.031 A 
ATOM     54  C   UNL A   1      48.712  29.442  26.890  1.00  0.00     0.049 A 
ATOM     55  C   UNL A   1      43.266  29.420  28.140  1.00  0.00     0.074 A 
ATOM     56  C   UNL A   1      49.415  30.600  27.179  1.00  0.00     0.029 A 
ATOM     57  N   UNL A   1      47.407  29.652  27.307  1.00  0.00    -0.354 N 
ATOM     58  N   UNL A   1      44.545  29.579  27.900  1.00  0.00    -0.248 NA
ATOM     59  C   UNL A   1      42.639  30.549  28.843  1.00  0.00     0.031 C 
ATOM     60  C   UNL A   1      48.543  31.495  27.810  1.00  0.00     0.029 A 
ATOM     61  C   UNL A   1      47.290  30.911  27.874  1.00  0.00     0.049 A 
ATOM     62  H   UNL A   1      46.673  29.003  27.216  1.00  0.00     0.167 HD
ATOM     63  C   UNL A   1      44.872  30.830  28.406  1.00  0.00     0.074 A 
ATOM     64  C   UNL A   1      43.655  31.394  28.952  1.00  0.00     0.031 C 
ATOM     65  C   UNL A   1      46.074  31.455  28.417  1.00  0.00     0.031 A 
BRANCH  52  66
ATOM     66  C   UNL A   1      50.652  28.140  25.942  1.00  0.00    -0.014 A 
ATOM     67  C   UNL A   1      51.140  28.517  24.681  1.00  0.00     0.009 A 
ATOM     68  C   UNL A   1      51.560  27.706  26.922  1.00  0.00     0.009 A 
ATOM     69  C   UNL A   1      52.506  28.435  24.402  1.00  0.00     0.001 A 
ATOM     70  C   UNL A   1      52.926  27.647  26.645  1.00  0.00     0.001 A 
ATOM     71  C   UNL A   1      53.397  28.005  25.383  1.00  0.00     0.000 A 
ENDBRANCH  52  66
BRANCH  53  72
ATOM     72  C   UNL A   1      40.934  28.287  28.149  1.00  0.00    -0.014 A 
ATOM     73  C   UNL A   1      40.016  28.956  27.326  1.00  0.00     0.009 A 
ATOM     74  C   UNL A   1      40.468  27.651  29.311  1.00  0.00     0.009 A 
ATOM     75  C   UNL A   1      38.663  29.002  27.669  1.00  0.00     0.001 A 
ATOM     76  C   UNL A   1      39.112  27.677  29.638  1.00  0.00     0.001 A 
ATOM     77  C   UNL A   1      38.212  28.359  28.822  1.00  0.00     0.000 A 
ENDBRANCH  53  72
BRANCH  65  78
ATOM     78  C   UNL A   1      46.119  32.830  29.017  1.00  0.00    -0.014 A 
ATOM     79  C   UNL A   1      45.973  33.974  28.218  1.00  0.00     0.009 A 
ATOM     80  C   UNL A   1      46.288  32.979  30.402  1.00  0.00     0.009 A 
ATOM     81  C   UNL A   1      46.027  35.244  28.793  1.00  0.00     0.001 A 
ATOM     82  C   UNL A   1      46.319  34.250  30.976  1.00  0.00     0.001 A 
ATOM     83  C   UNL A   1      46.197  35.383  30.171  1.00  0.00     0.000 A 
ENDBRANCH  65  78
ENDBRANCH  39  40
ENDBRANCH  32  34
ENDBRANCH  31  32
ENDBRANCH  30  31
ENDBRANCH  29  30
ENDBRANCH  28  29
ENDBRANCH  26  28
ENDBRANCH   1  26
TORSDOF 20
ENDMDL
MODEL 2
REMARK VINA RESULT:     -10.7      4.557      6.842
REMARK SMILES CCCCCCNC(=O)Oc1cccc(-c2ccc(CC(=O)OCCOC(=O)c3ccc(-c4c5nc(c(-c6ccccc6)c6ccc([nH]6)c(-c6ccccc6)c6nc(c(-c7ccccc7)c7ccc4[nH]7)C=C6)C=C5)cc3)cc2F)c1
REMARK SMILES IDX 20 1 19 2 16 3 17 4 78 5 18 6 77 7 79 8 15 9 11 10 12 11
REMARK SMILES IDX 80 12 13 13 14 14 10 15 8 16 7 17 9 19 6 20 5 21 4 22 3 23
REMARK SMILES IDX 2 24 1 25 21 26 22 27 23 28 24 29 25 30 26 31 27 32 28 33
REMARK SMILES IDX 29 34 30 35 76 36 31 37 75 38 32 39 33 40 34 41 69 42 35 43
REMARK SMILES IDX 74 44 68 45 70 46 36 47 73 48 67 49 66 50 37 52 59 53 44 54
REMARK SMILES IDX 58 55 45 56 48 57 57 58 71 59 46 60 47 61 56 63 72 64 49 65
REMARK SMILES IDX 38 66 39 67 43 68 40 69 42 70 41 71 60 72 61 73 65 74 62 75
REMARK SMILES IDX 64 76 63 77 50 78 51 79 55 80 52 81 54 82 53 83
REMARK H PARENT 7 18 70 51 48 62
REMARK Flexibility Score: inf
ROOT
ATOM      1  C   UNL A   1      41.964  19.853  26.819  1.00  0.00     0.158 C 
ENDROOT
BRANCH   1   2
ATOM      2  C   UNL A   1      40.643  20.410  26.346  1.00  0.00    -0.034 A 
ATOM      3  C   UNL A   1      38.111  21.395  25.530  1.00  0.00     0.018 A 
ATOM      4  C   UNL A   1      39.055  22.245  26.121  1.00  0.00     0.012 A 
ATOM      5  C   UNL A   1      38.465  20.051  25.353  1.00  0.00     0.131 A 
ATOM      6  C   UNL A   1      40.302  21.757  26.529  1.00  0.00     0.005 A 
ATOM      7  C   UNL A   1      39.707  19.560  25.747  1.00  0.00     0.044 A 
ATOM      8  F   UNL A   1      37.601  19.192  24.790  1.00  0.00    -0.206 F 
BRANCH   3   9
ATOM      9  C   UNL A   1      36.791  21.890  25.122  1.00  0.00    -0.012 A 
ATOM     10  C   UNL A   1      34.415  22.136  25.544  1.00  0.00     0.133 A 
ATOM     11  C   UNL A   1      34.229  22.733  24.301  1.00  0.00     0.047 A 
ATOM     12  C   UNL A   1      35.677  21.705  25.953  1.00  0.00     0.056 A 
ATOM     13  C   UNL A   1      35.330  22.938  23.472  1.00  0.00     0.004 A 
ATOM     14  C   UNL A   1      36.602  22.524  23.882  1.00  0.00     0.009 A 
BRANCH  10  15
ATOM     15  O   UNL A   1      33.275  21.853  26.309  1.00  0.00    -0.410 OA
BRANCH  15  16
ATOM     16  C   UNL A   1      32.186  21.307  25.646  1.00  0.00     0.412 C 
ATOM     17  N   UNL A   1      31.039  22.036  25.809  1.00  0.00    -0.321 N 
ATOM     18  H   UNL A   1      30.225  21.678  25.386  1.00  0.00     0.167 HD
ATOM     19  O   UNL A   1      32.186  20.282  24.975  1.00  0.00    -0.224 OA
BRANCH  17  20
ATOM     20  C   UNL A   1      30.896  23.278  26.540  1.00  0.00     0.119 C 
BRANCH  20  21
ATOM     21  C   UNL A   1      31.090  24.499  25.639  1.00  0.00     0.021 C 
BRANCH  21  22
ATOM     22  C   UNL A   1      31.824  25.675  26.293  1.00  0.00     0.002 C 
BRANCH  22  23
ATOM     23  C   UNL A   1      33.227  25.966  25.749  1.00  0.00    -0.000 C 
BRANCH  23  24
ATOM     24  C   UNL A   1      33.811  27.330  26.126  1.00  0.00    -0.003 C 
ATOM     25  C   UNL A   1      33.614  28.387  25.052  1.00  0.00     0.004 C 
ENDBRANCH  23  24
ENDBRANCH  22  23
ENDBRANCH  21  22
ENDBRANCH  20  21
ENDBRANCH  17  20
ENDBRANCH  15  16
ENDBRANCH  10  15
ENDBRANCH   3   9
ENDBRANCH   1   2
BRANCH   1  26
ATOM     26  C   UNL A   1      42.696  18.929  25.874  1.00  0.00     0.310 C 
ATOM     27  O   UNL A   1      42.613  17.708  25.972  1.00  0.00    -0.252 OA
BRANCH  26  28
ATOM     28  O   UNL A   1      43.391  19.584  24.908  1.00  0.00    -0.462 OA
BRANCH  28  29
ATOM     29  C   UNL A   1      44.088  20.772  25.329  1.00  0.00     0.274 C 
BRANCH  29  30
ATOM     30  C   UNL A   1      43.936  21.886  24.296  1.00  0.00     0.275 C 
BRANCH  30  31
ATOM     31  O   UNL A   1      43.348  23.047  24.910  1.00  0.00    -0.458 OA
BRANCH  31  32
ATOM     32  C   UNL A   1      44.151  24.129  25.011  1.00  0.00     0.338 C 
ATOM     33  O   UNL A   1      45.055  24.467  24.268  1.00  0.00    -0.246 OA
BRANCH  32  34
ATOM     34  C   UNL A   1      43.767  24.908  26.197  1.00  0.00     0.060 A 
ATOM     35  C   UNL A   1      42.860  24.376  27.115  1.00  0.00     0.016 A 
ATOM     36  C   UNL A   1      44.221  26.220  26.326  1.00  0.00     0.016 A 
ATOM     37  C   UNL A   1      42.364  25.173  28.144  1.00  0.00     0.010 A 
ATOM     38  C   UNL A   1      43.769  26.999  27.394  1.00  0.00     0.010 A 
ATOM     39  C   UNL A   1      42.819  26.491  28.297  1.00  0.00    -0.014 A 
BRANCH  39  40
ATOM     40  C   UNL A   1      42.290  27.344  29.389  1.00  0.00     0.031 A 
ATOM     41  C   UNL A   1      42.998  27.402  30.714  1.00  0.00     0.074 A 
ATOM     42  C   UNL A   1      41.169  28.062  29.193  1.00  0.00     0.049 A 
ATOM     43  N   UNL A   1      42.632  28.002  31.820  1.00  0.00    -0.248 NA
ATOM     44  C   UNL A   1      44.281  26.689  30.813  1.00  0.00     0.031 C 
ATOM     45  C   UNL A   1      40.408  28.123  27.944  1.00  0.00     0.029 A 
ATOM     46  N   UNL A   1      40.472  28.878  30.049  1.00  0.00    -0.354 N 
ATOM     47  C   UNL A   1      43.620  27.712  32.752  1.00  0.00     0.074 A 
ATOM     48  C   UNL A   1      44.597  26.876  32.088  1.00  0.00     0.031 C 
ATOM     49  C   UNL A   1      39.360  28.946  28.110  1.00  0.00     0.029 A 
ATOM     50  C   UNL A   1      39.343  29.422  29.488  1.00  0.00     0.049 A 
ATOM     51  H   UNL A   1      40.755  29.056  30.975  1.00  0.00     0.167 HD
ATOM     52  C   UNL A   1      43.704  28.106  34.045  1.00  0.00     0.031 A 
ATOM     53  C   UNL A   1      38.385  30.195  30.032  1.00  0.00     0.031 A 
ATOM     54  C   UNL A   1      42.744  28.951  34.704  1.00  0.00     0.049 A 
ATOM     55  C   UNL A   1      38.475  30.571  31.482  1.00  0.00     0.074 A 
ATOM     56  C   UNL A   1      42.761  29.427  36.004  1.00  0.00     0.029 A 
ATOM     57  N   UNL A   1      41.596  29.451  34.110  1.00  0.00    -0.354 N 
ATOM     58  N   UNL A   1      39.412  30.284  32.353  1.00  0.00    -0.248 NA
ATOM     59  C   UNL A   1      37.369  31.371  32.026  1.00  0.00     0.031 C 
ATOM     60  C   UNL A   1      41.599  30.179  36.210  1.00  0.00     0.029 A 
ATOM     61  C   UNL A   1      40.883  30.208  35.026  1.00  0.00     0.049 A 
ATOM     62  H   UNL A   1      41.326  29.290  33.178  1.00  0.00     0.167 HD
ATOM     63  C   UNL A   1      39.017  30.883  33.543  1.00  0.00     0.074 A 
ATOM     64  C   UNL A   1      37.765  31.561  33.277  1.00  0.00     0.031 C 
ATOM     65  C   UNL A   1      39.637  30.871  34.747  1.00  0.00     0.031 A 
BRANCH  52  66
ATOM     66  C   UNL A   1      44.865  27.595  34.850  1.00  0.00    -0.014 A 
ATOM     67  C   UNL A   1      46.057  28.326  34.962  1.00  0.00     0.009 A 
ATOM     68  C   UNL A   1      44.744  26.379  35.542  1.00  0.00     0.009 A 
ATOM     69  C   UNL A   1      47.116  27.834  35.729  1.00  0.00     0.001 A 
ATOM     70  C   UNL A   1      45.796  25.902  36.325  1.00  0.00     0.001 A 
ATOM     71  C   UNL A   1      46.983  26.626  36.412  1.00  0.00     0.000 A 
ENDBRANCH  52  66
BRANCH  53  72
ATOM     72  C   UNL A   1      37.236  30.641  29.206  1.00  0.00    -0.014 A 
ATOM     73  C   UNL A   1      37.145  31.971  28.772  1.00  0.00     0.009 A 
ATOM     74  C   UNL A   1      36.218  29.740  28.853  1.00  0.00     0.009 A 
ATOM     75  C   UNL A   1      36.050  32.396  28.017  1.00  0.00     0.001 A 
ATOM     76  C   UNL A   1      35.138  30.160  28.076  1.00  0.00     0.001 A 
ATOM     77  C   UNL A   1      35.051  31.489  27.666  1.00  0.00     0.000 A 
ENDBRANCH  53  72
BRANCH  65  78
ATOM     78  C   UNL A   1      38.979  31.636  35.858  1.00  0.00    -0.014 A 
ATOM     79  C   UNL A   1      38.066  31.016  36.725  1.00  0.00     0.009 A 
ATOM     80  C   UNL A   1      39.294  32.990  36.051  1.00  0.00     0.009 A 
ATOM     81  C   UNL A   1      37.457  31.747  37.745  1.00  0.00     0.001 A 
ATOM     82  C   UNL A   1      38.700  33.712  37.087  1.00  0.00     0.001 A 
ATOM     83  C   UNL A   1      37.776  33.092  37.929  1.00  0.00     0.000 A 
ENDBRANCH  65  78
ENDBRANCH  39  40
ENDBRANCH  32  34
ENDBRANCH  31  32
ENDBRANCH  30  31
ENDBRANCH  29  30
ENDBRANCH  28  29
ENDBRANCH  26  28
ENDBRANCH   1  26
TORSDOF 20
ENDMDL
MODEL 3
REMARK VINA RESULT:     -10.6      4.691      7.797
REMARK SMILES CCCCCCNC(=O)Oc1cccc(-c2ccc(CC(=O)OCCOC(=O)c3ccc(-c4c5nc(c(-c6ccccc6)c6ccc([nH]6)c(-c6ccccc6)c6nc(c(-c7ccccc7)c7ccc4[nH]7)C=C6)C=C5)cc3)cc2F)c1
REMARK SMILES IDX 20 1 19 2 16 3 17 4 78 5 18 6 77 7 79 8 15 9 11 10 12 11
REMARK SMILES IDX 80 12 13 13 14 14 10 15 8 16 7 17 9 19 6 20 5 21 4 22 3 23
REMARK SMILES IDX 2 24 1 25 21 26 22 27 23 28 24 29 25 30 26 31 27 32 28 33
REMARK SMILES IDX 29 34 30 35 76 36 31 37 75 38 32 39 33 40 34 41 69 42 35 43
REMARK SMILES IDX 74 44 68 45 70 46 36 47 73 48 67 49 66 50 37 52 59 53 44 54
REMARK SMILES IDX 58 55 45 56 48 57 57 58 71 59 46 60 47 61 56 63 72 64 49 65
REMARK SMILES IDX 38 66 39 67 43 68 40 69 42 70 41 71 60 72 61 73 65 74 62 75
REMARK SMILES IDX 64 76 63 77 50 78 51 79 55 80 52 81 54 82 53 83
REMARK H PARENT 7 18 70 51 48 62
REMARK Flexibility Score: inf
ROOT
ATOM      1  C   UNL A   1      45.432  22.949  24.013  1.00  0.00     0.158 C 
ENDROOT
BRANCH   1   2
ATOM      2  C   UNL A   1      45.561  24.272  24.728  1.00  0.00    -0.034 A 
ATOM      3  C   UNL A   1      45.862  26.796  25.988  1.00  0.00     0.018 A 
ATOM      4  C   UNL A   1      44.602  26.349  25.568  1.00  0.00     0.012 A 
ATOM      5  C   UNL A   1      46.959  25.952  25.769  1.00  0.00     0.131 A 
ATOM      6  C   UNL A   1      44.455  25.107  24.941  1.00  0.00     0.005 A 
ATOM      7  C   UNL A   1      46.820  24.710  25.154  1.00  0.00     0.044 A 
ATOM      8  F   UNL A   1      48.189  26.327  26.152  1.00  0.00    -0.206 F 
BRANCH   3   9
ATOM      9  C   UNL A   1      46.032  28.108  26.623  1.00  0.00    -0.012 A 
ATOM     10  C   UNL A   1      45.131  30.268  27.261  1.00  0.00     0.133 A 
ATOM     11  C   UNL A   1      46.374  30.675  27.738  1.00  0.00     0.047 A 
ATOM     12  C   UNL A   1      44.956  29.004  26.697  1.00  0.00     0.056 A 
ATOM     13  C   UNL A   1      47.448  29.788  27.686  1.00  0.00     0.004 A 
ATOM     14  C   UNL A   1      47.277  28.513  27.137  1.00  0.00     0.009 A 
BRANCH  10  15
ATOM     15  O   UNL A   1      44.100  31.217  27.234  1.00  0.00    -0.410 OA
BRANCH  15  16
ATOM     16  C   UNL A   1      44.336  32.392  26.537  1.00  0.00     0.412 C 
ATOM     17  N   UNL A   1      44.028  33.514  27.257  1.00  0.00    -0.321 N 
ATOM     18  H   UNL A   1      44.147  34.378  26.799  1.00  0.00     0.167 HD
ATOM     19  O   UNL A   1      44.769  32.480  25.394  1.00  0.00    -0.224 OA
BRANCH  17  20
ATOM     20  C   UNL A   1      43.544  33.565  28.622  1.00  0.00     0.119 C 
BRANCH  20  21
ATOM     21  C   UNL A   1      42.602  34.747  28.852  1.00  0.00     0.021 C 
BRANCH  21  22
ATOM     22  C   UNL A   1      43.014  36.049  28.155  1.00  0.00     0.002 C 
BRANCH  22  23
ATOM     23  C   UNL A   1      41.921  36.732  27.327  1.00  0.00    -0.000 C 
BRANCH  23  24
ATOM     24  C   UNL A   1      42.269  38.125  26.796  1.00  0.00    -0.003 C 
ATOM     25  C   UNL A   1      41.978  39.239  27.788  1.00  0.00     0.004 C 
ENDBRANCH  23  24
ENDBRANCH  22  23
ENDBRANCH  21  22
ENDBRANCH  20  21
ENDBRANCH  17  20
ENDBRANCH  15  16
ENDBRANCH  10  15
ENDBRANCH   3   9
ENDBRANCH   1   2
BRANCH   1  26
ATOM     26  C   UNL A   1      45.505  21.702  24.862  1.00  0.00     0.310 C 
ATOM     27  O   UNL A   1      46.016  21.709  25.978  1.00  0.00    -0.252 OA
BRANCH  26  28
ATOM     28  O   UNL A   1      44.914  20.622  24.288  1.00  0.00    -0.462 OA
BRANCH  28  29
ATOM     29  C   UNL A   1      45.173  19.353  24.919  1.00  0.00     0.274 C 
BRANCH  29  30
ATOM     30  C   UNL A   1      43.908  18.805  25.575  1.00  0.00     0.275 C 
BRANCH  30  31
ATOM     31  O   UNL A   1      42.747  19.427  24.996  1.00  0.00    -0.458 OA
BRANCH  31  32
ATOM     32  C   UNL A   1      41.706  19.625  25.834  1.00  0.00     0.338 C 
ATOM     33  O   UNL A   1      40.795  18.860  26.096  1.00  0.00    -0.246 OA
BRANCH  32  34
ATOM     34  C   UNL A   1      41.820  20.958  26.443  1.00  0.00     0.060 A 
ATOM     35  C   UNL A   1      41.960  22.084  25.629  1.00  0.00     0.016 A 
ATOM     36  C   UNL A   1      41.908  21.069  27.829  1.00  0.00     0.016 A 
ATOM     37  C   UNL A   1      42.238  23.323  26.200  1.00  0.00     0.010 A 
ATOM     38  C   UNL A   1      42.127  22.323  28.403  1.00  0.00     0.010 A 
ATOM     39  C   UNL A   1      42.319  23.456  27.593  1.00  0.00    -0.014 A 
BRANCH  39  40
ATOM     40  C   UNL A   1      42.619  24.774  28.205  1.00  0.00     0.031 A 
ATOM     41  C   UNL A   1      44.006  25.082  28.696  1.00  0.00     0.074 A 
ATOM     42  C   UNL A   1      41.642  25.692  28.326  1.00  0.00     0.049 A 
ATOM     43  N   UNL A   1      44.434  26.131  29.354  1.00  0.00    -0.248 NA
ATOM     44  C   UNL A   1      45.046  24.080  28.419  1.00  0.00     0.031 C 
ATOM     45  C   UNL A   1      40.265  25.533  27.857  1.00  0.00     0.029 A 
ATOM     46  N   UNL A   1      41.661  26.945  28.886  1.00  0.00    -0.354 N 
ATOM     47  C   UNL A   1      45.782  25.900  29.596  1.00  0.00     0.074 A 
ATOM     48  C   UNL A   1      46.100  24.609  29.025  1.00  0.00     0.031 C 
ATOM     49  C   UNL A   1      39.576  26.651  28.133  1.00  0.00     0.029 A 
ATOM     50  C   UNL A   1      40.445  27.580  28.848  1.00  0.00     0.049 A 
ATOM     51  H   UNL A   1      42.470  27.348  29.277  1.00  0.00     0.167 HD
ATOM     52  C   UNL A   1      46.673  26.693  30.238  1.00  0.00     0.031 A 
ATOM     53  C   UNL A   1      40.063  28.765  29.359  1.00  0.00     0.031 A 
ATOM     54  C   UNL A   1      46.365  27.984  30.792  1.00  0.00     0.049 A 
ATOM     55  C   UNL A   1      41.058  29.597  30.114  1.00  0.00     0.074 A 
ATOM     56  C   UNL A   1      47.210  28.872  31.436  1.00  0.00     0.029 A 
ATOM     57  N   UNL A   1      45.111  28.574  30.764  1.00  0.00    -0.354 N 
ATOM     58  N   UNL A   1      42.328  29.364  30.341  1.00  0.00    -0.248 NA
ATOM     59  C   UNL A   1      40.563  30.855  30.691  1.00  0.00     0.031 C 
ATOM     60  C   UNL A   1      46.457  29.981  31.836  1.00  0.00     0.029 A 
ATOM     61  C   UNL A   1      45.154  29.803  31.403  1.00  0.00     0.049 A 
ATOM     62  H   UNL A   1      44.309  28.178  30.354  1.00  0.00     0.167 HD
ATOM     63  C   UNL A   1      42.787  30.452  31.071  1.00  0.00     0.074 A 
ATOM     64  C   UNL A   1      41.664  31.352  31.236  1.00  0.00     0.031 C 
ATOM     65  C   UNL A   1      44.028  30.684  31.563  1.00  0.00     0.031 A 
BRANCH  52  66
ATOM     66  C   UNL A   1      48.070  26.166  30.410  1.00  0.00    -0.014 A 
ATOM     67  C   UNL A   1      48.491  25.585  31.615  1.00  0.00     0.009 A 
ATOM     68  C   UNL A   1      48.964  26.216  29.328  1.00  0.00     0.009 A 
ATOM     69  C   UNL A   1      49.790  25.090  31.743  1.00  0.00     0.001 A 
ATOM     70  C   UNL A   1      50.255  25.699  29.453  1.00  0.00     0.001 A 
ATOM     71  C   UNL A   1      50.669  25.143  30.662  1.00  0.00     0.000 A 
ENDBRANCH  52  66
BRANCH  53  72
ATOM     72  C   UNL A   1      38.661  29.223  29.199  1.00  0.00    -0.014 A 
ATOM     73  C   UNL A   1      37.745  29.088  30.253  1.00  0.00     0.009 A 
ATOM     74  C   UNL A   1      38.228  29.789  27.990  1.00  0.00     0.009 A 
ATOM     75  C   UNL A   1      36.418  29.496  30.092  1.00  0.00     0.001 A 
ATOM     76  C   UNL A   1      36.909  30.219  27.840  1.00  0.00     0.001 A 
ATOM     77  C   UNL A   1      36.004  30.064  28.888  1.00  0.00     0.000 A 
ENDBRANCH  53  72
BRANCH  65  78
ATOM     78  C   UNL A   1      44.237  31.974  32.300  1.00  0.00    -0.014 A 
ATOM     79  C   UNL A   1      44.013  32.063  33.683  1.00  0.00     0.009 A 
ATOM     80  C   UNL A   1      44.685  33.108  31.605  1.00  0.00     0.009 A 
ATOM     81  C   UNL A   1      44.204  33.274  34.349  1.00  0.00     0.001 A 
ATOM     82  C   UNL A   1      44.897  34.311  32.279  1.00  0.00     0.001 A 
ATOM     83  C   UNL A   1      44.648  34.396  33.649  1.00  0.00     0.000 A 
ENDBRANCH  65  78
ENDBRANCH  39  40
ENDBRANCH  32  34
ENDBRANCH  31  32
ENDBRANCH  30  31
ENDBRANCH  29  30
ENDBRANCH  28  29
ENDBRANCH  26  28
ENDBRANCH   1  26
TORSDOF 20
ENDMDL
