MODEL 1
REMARK VINA RESULT:     -10.3      0.000      0.000
REMARK SMILES N#C[C@@]1([C@@H](O)C(=O)OCCOC(=O)c2ccc(-c3c4nc(c(-c5ccccc5)c5ccc([nH]5)c(-c5ccccc5)c5nc(c(-c6ccccc6)c6ccc3[nH]6)C=C5)C=C4)cc2)CCCc2ccccc21
REMARK SMILES IDX 9 1 8 2 6 3 7 4 4 5 3 6 62 7 70 8 63 9 65 10 69 11 64 12
REMARK SMILES IDX 66 13 68 14 67 15 2 16 1 17 5 18 10 20 11 21 12 22 13 23
REMARK SMILES IDX 14 24 15 25 61 26 16 27 60 28 17 29 18 30 19 31 54 32 20 33
REMARK SMILES IDX 59 34 53 35 55 36 21 37 58 38 52 39 51 40 22 42 44 43 29 44
REMARK SMILES IDX 43 45 30 46 33 47 42 48 56 49 31 50 32 51 41 53 57 54 34 55
REMARK SMILES IDX 23 56 24 57 28 58 25 59 27 60 26 61 45 62 46 63 50 64 47 65
REMARK SMILES IDX 49 66 48 67 35 68 36 69 40 70 37 71 39 72 38 73
REMARK H PARENT 5 19 55 41 33 52
REMARK Flexibility Score: inf
ROOT
ATOM      1  C   UNL A   1      37.751  20.070  24.840  1.00  0.00     0.274 C 
ENDROOT
BRANCH   1   2
ATOM      2  O   UNL A   1      36.528  20.622  25.392  1.00  0.00    -0.460 OA
BRANCH   2   3
ATOM      3  C   UNL A   1      36.105  21.805  24.887  1.00  0.00     0.337 C 
ATOM      4  O   UNL A   1      36.535  22.280  23.835  1.00  0.00    -0.249 OA
BRANCH   3   5
ATOM      5  C   UNL A   1      35.142  22.602  25.779  1.00  0.00     0.248 C 
BRANCH   5   6
ATOM      6  C   UNL A   1      33.693  23.051  25.348  1.00  0.00     0.119 C 
ATOM      7  C   UNL A   1      32.977  22.113  24.339  1.00  0.00     0.031 C 
ATOM      8  C   UNL A   1      33.627  24.536  24.918  1.00  0.00    -0.021 A 
ATOM      9  C   UNL A   1      33.108  22.477  22.868  1.00  0.00     0.007 C 
ATOM     10  C   UNL A   1      33.216  24.925  23.629  1.00  0.00    -0.043 A 
ATOM     11  C   UNL A   1      33.918  25.562  25.852  1.00  0.00     0.006 A 
ATOM     12  C   UNL A   1      32.810  23.939  22.564  1.00  0.00     0.036 C 
ATOM     13  C   UNL A   1      33.149  26.294  23.297  1.00  0.00     0.004 A 
ATOM     14  C   UNL A   1      33.812  26.916  25.519  1.00  0.00     0.000 A 
ATOM     15  C   UNL A   1      33.440  27.282  24.234  1.00  0.00     0.000 A 
BRANCH   6  16
ATOM     16  C   UNL A   1      32.860  22.951  26.606  1.00  0.00     0.077 C 
ATOM     17  N   UNL A   1      32.241  22.853  27.582  1.00  0.00    -0.197 NA
ENDBRANCH   6  16
ENDBRANCH   5   6
BRANCH   5  18
ATOM     18  O   UNL A   1      35.117  21.865  27.024  1.00  0.00    -0.380 OA
ATOM     19  H   UNL A   1      35.964  21.409  27.146  1.00  0.00     0.211 HD
ENDBRANCH   5  18
ENDBRANCH   3   5
ENDBRANCH   2   3
ENDBRANCH   1   2
BRANCH   1  20
ATOM     20  C   UNL A   1      39.021  20.599  25.532  1.00  0.00     0.275 C 
BRANCH  20  21
ATOM     21  O   UNL A   1      39.876  19.542  26.013  1.00  0.00    -0.458 OA
BRANCH  21  22
ATOM     22  C   UNL A   1      41.188  19.845  25.930  1.00  0.00     0.338 C 
ATOM     23  O   UNL A   1      42.035  19.210  25.334  1.00  0.00    -0.246 OA
BRANCH  22  24
ATOM     24  C   UNL A   1      41.531  21.116  26.543  1.00  0.00     0.060 A 
ATOM     25  C   UNL A   1      41.492  21.250  27.926  1.00  0.00     0.016 A 
ATOM     26  C   UNL A   1      42.056  22.122  25.723  1.00  0.00     0.016 A 
ATOM     27  C   UNL A   1      41.909  22.450  28.486  1.00  0.00     0.010 A 
ATOM     28  C   UNL A   1      42.505  23.303  26.284  1.00  0.00     0.010 A 
ATOM     29  C   UNL A   1      42.388  23.486  27.665  1.00  0.00    -0.014 A 
BRANCH  29  30
ATOM     30  C   UNL A   1      42.694  24.803  28.248  1.00  0.00     0.031 A 
ATOM     31  C   UNL A   1      44.119  25.142  28.568  1.00  0.00     0.074 A 
ATOM     32  C   UNL A   1      41.695  25.679  28.443  1.00  0.00     0.049 A 
ATOM     33  N   UNL A   1      44.616  26.278  28.978  1.00  0.00    -0.248 NA
ATOM     34  C   UNL A   1      45.120  24.069  28.415  1.00  0.00     0.031 C 
ATOM     35  C   UNL A   1      40.280  25.411  28.178  1.00  0.00     0.029 A 
ATOM     36  N   UNL A   1      41.718  26.978  28.875  1.00  0.00    -0.354 N 
ATOM     37  C   UNL A   1      45.981  26.058  29.119  1.00  0.00     0.074 A 
ATOM     38  C   UNL A   1      46.230  24.669  28.820  1.00  0.00     0.031 C 
ATOM     39  C   UNL A   1      39.576  26.531  28.400  1.00  0.00     0.029 A 
ATOM     40  C   UNL A   1      40.483  27.580  28.859  1.00  0.00     0.049 A 
ATOM     41  H   UNL A   1      42.538  27.436  29.169  1.00  0.00     0.167 HD
ATOM     42  C   UNL A   1      46.939  26.955  29.438  1.00  0.00     0.031 A 
ATOM     43  C   UNL A   1      40.131  28.842  29.168  1.00  0.00     0.031 A 
ATOM     44  C   UNL A   1      46.660  28.335  29.725  1.00  0.00     0.049 A 
ATOM     45  C   UNL A   1      41.216  29.811  29.554  1.00  0.00     0.074 A 
ATOM     46  C   UNL A   1      47.556  29.343  30.027  1.00  0.00     0.029 A 
ATOM     47  N   UNL A   1      45.393  28.899  29.742  1.00  0.00    -0.354 N 
ATOM     48  N   UNL A   1      42.513  29.614  29.614  1.00  0.00    -0.248 NA
ATOM     49  C   UNL A   1      40.800  31.176  29.898  1.00  0.00     0.031 C 
ATOM     50  C   UNL A   1      46.826  30.495  30.311  1.00  0.00     0.029 A 
ATOM     51  C   UNL A   1      45.481  30.234  30.090  1.00  0.00     0.049 A 
ATOM     52  H   UNL A   1      44.557  28.420  29.539  1.00  0.00     0.167 HD
ATOM     53  C   UNL A   1      43.069  30.832  29.978  1.00  0.00     0.074 A 
ATOM     54  C   UNL A   1      41.969  31.769  30.101  1.00  0.00     0.031 C 
ATOM     55  C   UNL A   1      44.369  31.147  30.197  1.00  0.00     0.031 A 
BRANCH  42  56
ATOM     56  C   UNL A   1      48.370  26.495  29.484  1.00  0.00    -0.014 A 
ATOM     57  C   UNL A   1      48.915  26.030  30.692  1.00  0.00     0.009 A 
ATOM     58  C   UNL A   1      49.214  26.635  28.371  1.00  0.00     0.009 A 
ATOM     59  C   UNL A   1      50.279  25.751  30.795  1.00  0.00     0.001 A 
ATOM     60  C   UNL A   1      50.571  26.321  28.467  1.00  0.00     0.001 A 
ATOM     61  C   UNL A   1      51.105  25.896  29.683  1.00  0.00     0.000 A 
ENDBRANCH  42  56
BRANCH  43  62
ATOM     62  C   UNL A   1      38.702  29.248  29.070  1.00  0.00    -0.014 A 
ATOM     63  C   UNL A   1      37.848  29.124  30.178  1.00  0.00     0.009 A 
ATOM     64  C   UNL A   1      38.164  29.695  27.854  1.00  0.00     0.009 A 
ATOM     65  C   UNL A   1      36.484  29.402  30.064  1.00  0.00     0.001 A 
ATOM     66  C   UNL A   1      36.806  30.010  27.752  1.00  0.00     0.001 A 
ATOM     67  C   UNL A   1      35.965  29.851  28.852  1.00  0.00     0.000 A 
ENDBRANCH  43  62
BRANCH  55  68
ATOM     68  C   UNL A   1      44.700  32.563  30.584  1.00  0.00    -0.014 A 
ATOM     69  C   UNL A   1      44.645  32.943  31.936  1.00  0.00     0.009 A 
ATOM     70  C   UNL A   1      44.917  33.547  29.609  1.00  0.00     0.009 A 
ATOM     71  C   UNL A   1      44.767  34.284  32.300  1.00  0.00     0.001 A 
ATOM     72  C   UNL A   1      45.081  34.882  29.980  1.00  0.00     0.001 A 
ATOM     73  C   UNL A   1      44.990  35.251  31.323  1.00  0.00     0.000 A 
ENDBRANCH  55  68
ENDBRANCH  29  30
ENDBRANCH  22  24
ENDBRANCH  21  22
ENDBRANCH  20  21
ENDBRANCH   1  20
TORSDOF 14
ENDMDL
MODEL 2
REMARK VINA RESULT:     -10.2      4.582      9.219
REMARK SMILES N#C[C@@]1([C@@H](O)C(=O)OCCOC(=O)c2ccc(-c3c4nc(c(-c5ccccc5)c5ccc([nH]5)c(-c5ccccc5)c5nc(c(-c6ccccc6)c6ccc3[nH]6)C=C5)C=C4)cc2)CCCc2ccccc21
REMARK SMILES IDX 9 1 8 2 6 3 7 4 4 5 3 6 62 7 70 8 63 9 65 10 69 11 64 12
REMARK SMILES IDX 66 13 68 14 67 15 2 16 1 17 5 18 10 20 11 21 12 22 13 23
REMARK SMILES IDX 14 24 15 25 61 26 16 27 60 28 17 29 18 30 19 31 54 32 20 33
REMARK SMILES IDX 59 34 53 35 55 36 21 37 58 38 52 39 51 40 22 42 44 43 29 44
REMARK SMILES IDX 43 45 30 46 33 47 42 48 56 49 31 50 32 51 41 53 57 54 34 55
REMARK SMILES IDX 23 56 24 57 28 58 25 59 27 60 26 61 45 62 46 63 50 64 47 65
REMARK SMILES IDX 49 66 48 67 35 68 36 69 40 70 37 71 39 72 38 73
REMARK H PARENT 5 19 55 41 33 52
REMARK Flexibility Score: inf
ROOT
ATOM      1  C   UNL A   1      32.367  30.879  26.952  1.00  0.00     0.274 C 
ENDROOT
BRANCH   1   2
ATOM      2  O   UNL A   1      32.584  30.142  25.721  1.00  0.00    -0.460 OA
BRANCH   2   3
ATOM      3  C   UNL A   1      33.480  29.128  25.761  1.00  0.00     0.337 C 
ATOM      4  O   UNL A   1      34.180  28.887  26.746  1.00  0.00    -0.249 OA
BRANCH   3   5
ATOM      5  C   UNL A   1      33.678  28.364  24.444  1.00  0.00     0.248 C 
BRANCH   5   6
ATOM      6  C   UNL A   1      32.884  27.063  24.040  1.00  0.00     0.119 C 
ATOM      7  C   UNL A   1      31.349  27.238  23.892  1.00  0.00     0.031 C 
ATOM      8  C   UNL A   1      33.255  25.837  24.909  1.00  0.00    -0.021 A 
ATOM      9  C   UNL A   1      30.510  26.903  25.117  1.00  0.00     0.007 C 
ATOM     10  C   UNL A   1      32.302  25.158  25.690  1.00  0.00    -0.043 A 
ATOM     11  C   UNL A   1      34.575  25.319  24.884  1.00  0.00     0.006 A 
ATOM     12  C   UNL A   1      30.850  25.560  25.750  1.00  0.00     0.036 C 
ATOM     13  C   UNL A   1      32.689  24.030  26.444  1.00  0.00     0.004 A 
ATOM     14  C   UNL A   1      34.934  24.179  25.609  1.00  0.00     0.000 A 
ATOM     15  C   UNL A   1      33.992  23.542  26.401  1.00  0.00     0.000 A 
BRANCH   6  16
ATOM     16  C   UNL A   1      33.357  26.733  22.642  1.00  0.00     0.077 C 
ATOM     17  N   UNL A   1      33.719  26.450  21.576  1.00  0.00    -0.197 NA
ENDBRANCH   6  16
ENDBRANCH   5   6
BRANCH   5  18
ATOM     18  O   UNL A   1      33.576  29.384  23.423  1.00  0.00    -0.380 OA
ATOM     19  H   UNL A   1      34.464  29.661  23.152  1.00  0.00     0.211 HD
ENDBRANCH   5  18
ENDBRANCH   3   5
ENDBRANCH   2   3
ENDBRANCH   1   2
BRANCH   1  20
ATOM     20  C   UNL A   1      32.924  32.314  26.906  1.00  0.00     0.275 C 
BRANCH  20  21
ATOM     21  O   UNL A   1      32.144  33.241  27.688  1.00  0.00    -0.458 OA
BRANCH  21  22
ATOM     22  C   UNL A   1      32.892  34.199  28.273  1.00  0.00     0.338 C 
ATOM     23  O   UNL A   1      32.559  35.351  28.465  1.00  0.00    -0.246 OA
BRANCH  22  24
ATOM     24  C   UNL A   1      34.157  33.712  28.795  1.00  0.00     0.060 A 
ATOM     25  C   UNL A   1      35.350  34.253  28.330  1.00  0.00     0.016 A 
ATOM     26  C   UNL A   1      34.126  32.826  29.878  1.00  0.00     0.016 A 
ATOM     27  C   UNL A   1      36.538  33.829  28.910  1.00  0.00     0.010 A 
ATOM     28  C   UNL A   1      35.307  32.432  30.479  1.00  0.00     0.010 A 
ATOM     29  C   UNL A   1      36.519  32.899  29.964  1.00  0.00    -0.014 A 
BRANCH  29  30
ATOM     30  C   UNL A   1      37.783  32.347  30.478  1.00  0.00     0.031 A 
ATOM     31  C   UNL A   1      38.386  32.943  31.715  1.00  0.00     0.074 A 
ATOM     32  C   UNL A   1      38.344  31.301  29.849  1.00  0.00     0.049 A 
ATOM     33  N   UNL A   1      39.426  32.538  32.394  1.00  0.00    -0.248 NA
ATOM     34  C   UNL A   1      37.746  34.155  32.262  1.00  0.00     0.031 C 
ATOM     35  C   UNL A   1      37.828  30.684  28.625  1.00  0.00     0.029 A 
ATOM     36  N   UNL A   1      39.446  30.554  30.165  1.00  0.00    -0.354 N 
ATOM     37  C   UNL A   1      39.554  33.434  33.448  1.00  0.00     0.074 A 
ATOM     38  C   UNL A   1      38.535  34.443  33.286  1.00  0.00     0.031 C 
ATOM     39  C   UNL A   1      38.582  29.615  28.327  1.00  0.00     0.029 A 
ATOM     40  C   UNL A   1      39.653  29.497  29.312  1.00  0.00     0.049 A 
ATOM     41  H   UNL A   1      40.033  30.753  30.930  1.00  0.00     0.167 HD
ATOM     42  C   UNL A   1      40.430  33.389  34.475  1.00  0.00     0.031 A 
ATOM     43  C   UNL A   1      40.595  28.536  29.337  1.00  0.00     0.031 A 
ATOM     44  C   UNL A   1      41.430  32.366  34.612  1.00  0.00     0.049 A 
ATOM     45  C   UNL A   1      41.580  28.532  30.475  1.00  0.00     0.074 A 
ATOM     46  C   UNL A   1      42.349  32.201  35.631  1.00  0.00     0.029 A 
ATOM     47  N   UNL A   1      41.638  31.337  33.705  1.00  0.00    -0.354 N 
ATOM     48  N   UNL A   1      41.649  29.340  31.507  1.00  0.00    -0.248 NA
ATOM     49  C   UNL A   1      42.604  27.479  30.467  1.00  0.00     0.031 C 
ATOM     50  C   UNL A   1      43.169  31.125  35.298  1.00  0.00     0.029 A 
ATOM     51  C   UNL A   1      42.700  30.556  34.122  1.00  0.00     0.049 A 
ATOM     52  H   UNL A   1      41.111  31.187  32.888  1.00  0.00     0.167 HD
ATOM     53  C   UNL A   1      42.705  28.882  32.283  1.00  0.00     0.074 A 
ATOM     54  C   UNL A   1      43.232  27.708  31.613  1.00  0.00     0.031 C 
ATOM     55  C   UNL A   1      43.199  29.387  33.439  1.00  0.00     0.031 A 
BRANCH  42  56
ATOM     56  C   UNL A   1      40.349  34.451  35.537  1.00  0.00    -0.014 A 
ATOM     57  C   UNL A   1      41.125  35.616  35.420  1.00  0.00     0.009 A 
ATOM     58  C   UNL A   1      39.605  34.249  36.710  1.00  0.00     0.009 A 
ATOM     59  C   UNL A   1      41.188  36.536  36.467  1.00  0.00     0.001 A 
ATOM     60  C   UNL A   1      39.642  35.190  37.742  1.00  0.00     0.001 A 
ATOM     61  C   UNL A   1      40.446  36.323  37.627  1.00  0.00     0.000 A 
ENDBRANCH  42  56
BRANCH  43  62
ATOM     62  C   UNL A   1      40.602  27.491  28.277  1.00  0.00    -0.014 A 
ATOM     63  C   UNL A   1      41.288  27.705  27.069  1.00  0.00     0.009 A 
ATOM     64  C   UNL A   1      39.870  26.304  28.432  1.00  0.00     0.009 A 
ATOM     65  C   UNL A   1      41.210  26.776  26.029  1.00  0.00     0.001 A 
ATOM     66  C   UNL A   1      39.826  25.358  27.405  1.00  0.00     0.001 A 
ATOM     67  C   UNL A   1      40.485  25.599  26.200  1.00  0.00     0.000 A 
ENDBRANCH  43  62
BRANCH  55  68
ATOM     68  C   UNL A   1      44.364  28.683  34.080  1.00  0.00    -0.014 A 
ATOM     69  C   UNL A   1      45.673  29.008  33.684  1.00  0.00     0.009 A 
ATOM     70  C   UNL A   1      44.166  27.607  34.956  1.00  0.00     0.009 A 
ATOM     71  C   UNL A   1      46.756  28.247  34.126  1.00  0.00     0.001 A 
ATOM     72  C   UNL A   1      45.255  26.874  35.430  1.00  0.00     0.001 A 
ATOM     73  C   UNL A   1      46.546  27.185  35.002  1.00  0.00     0.000 A 
ENDBRANCH  55  68
ENDBRANCH  29  30
ENDBRANCH  22  24
ENDBRANCH  21  22
ENDBRANCH  20  21
ENDBRANCH   1  20
TORSDOF 14
ENDMDL
MODEL 3
REMARK VINA RESULT:     -10.1      2.337      3.014
REMARK SMILES N#C[C@@]1([C@@H](O)C(=O)OCCOC(=O)c2ccc(-c3c4nc(c(-c5ccccc5)c5ccc([nH]5)c(-c5ccccc5)c5nc(c(-c6ccccc6)c6ccc3[nH]6)C=C5)C=C4)cc2)CCCc2ccccc21
REMARK SMILES IDX 9 1 8 2 6 3 7 4 4 5 3 6 62 7 70 8 63 9 65 10 69 11 64 12
REMARK SMILES IDX 66 13 68 14 67 15 2 16 1 17 5 18 10 20 11 21 12 22 13 23
REMARK SMILES IDX 14 24 15 25 61 26 16 27 60 28 17 29 18 30 19 31 54 32 20 33
REMARK SMILES IDX 59 34 53 35 55 36 21 37 58 38 52 39 51 40 22 42 44 43 29 44
REMARK SMILES IDX 43 45 30 46 33 47 42 48 56 49 31 50 32 51 41 53 57 54 34 55
REMARK SMILES IDX 23 56 24 57 28 58 25 59 27 60 26 61 45 62 46 63 50 64 47 65
REMARK SMILES IDX 49 66 48 67 35 68 36 69 40 70 37 71 39 72 38 73
REMARK H PARENT 5 19 55 41 33 52
REMARK Flexibility Score: inf
ROOT
ATOM      1  C   UNL A   1      35.390  21.746  24.581  1.00  0.00     0.274 C 
ENDROOT
BRANCH   1   2
ATOM      2  O   UNL A   1      34.903  22.558  25.679  1.00  0.00    -0.460 OA
BRANCH   2   3
ATOM      3  C   UNL A   1      33.804  22.113  26.334  1.00  0.00     0.337 C 
ATOM      4  O   UNL A   1      33.597  20.921  26.568  1.00  0.00    -0.249 OA
BRANCH   3   5
ATOM      5  C   UNL A   1      32.745  23.177  26.656  1.00  0.00     0.248 C 
BRANCH   5   6
ATOM      6  C   UNL A   1      31.921  23.972  25.571  1.00  0.00     0.119 C 
ATOM      7  C   UNL A   1      31.445  23.137  24.352  1.00  0.00     0.031 C 
ATOM      8  C   UNL A   1      32.604  25.294  25.148  1.00  0.00    -0.021 A 
ATOM      9  C   UNL A   1      32.346  23.160  23.125  1.00  0.00     0.007 C 
ATOM     10  C   UNL A   1      32.989  25.546  23.818  1.00  0.00    -0.043 A 
ATOM     11  C   UNL A   1      32.798  26.331  26.095  1.00  0.00     0.006 A 
ATOM     12  C   UNL A   1      32.774  24.559  22.699  1.00  0.00     0.036 C 
ATOM     13  C   UNL A   1      33.584  26.779  23.481  1.00  0.00     0.004 A 
ATOM     14  C   UNL A   1      33.356  27.562  25.739  1.00  0.00     0.000 A 
ATOM     15  C   UNL A   1      33.762  27.781  24.431  1.00  0.00     0.000 A 
BRANCH   6  16
ATOM     16  C   UNL A   1      30.642  24.375  26.268  1.00  0.00     0.077 C 
ATOM     17  N   UNL A   1      29.653  24.655  26.806  1.00  0.00    -0.197 NA
ENDBRANCH   6  16
ENDBRANCH   5   6
BRANCH   5  18
ATOM     18  O   UNL A   1      31.873  22.532  27.613  1.00  0.00    -0.380 OA
ATOM     19  H   UNL A   1      32.393  22.230  28.373  1.00  0.00     0.211 HD
ENDBRANCH   5  18
ENDBRANCH   3   5
ENDBRANCH   2   3
ENDBRANCH   1   2
BRANCH   1  20
ATOM     20  C   UNL A   1      36.710  21.021  24.903  1.00  0.00     0.275 C 
BRANCH  20  21
ATOM     21  O   UNL A   1      37.323  21.491  26.121  1.00  0.00    -0.458 OA
BRANCH  21  22
ATOM     22  C   UNL A   1      38.669  21.416  26.099  1.00  0.00     0.338 C 
ATOM     23  O   UNL A   1      39.329  20.474  25.706  1.00  0.00    -0.246 OA
BRANCH  22  24
ATOM     24  C   UNL A   1      39.327  22.649  26.493  1.00  0.00     0.060 A 
ATOM     25  C   UNL A   1      38.759  23.873  26.161  1.00  0.00     0.016 A 
ATOM     26  C   UNL A   1      40.434  22.562  27.346  1.00  0.00     0.016 A 
ATOM     27  C   UNL A   1      39.364  25.031  26.626  1.00  0.00     0.010 A 
ATOM     28  C   UNL A   1      41.015  23.715  27.840  1.00  0.00     0.010 A 
ATOM     29  C   UNL A   1      40.508  24.955  27.441  1.00  0.00    -0.014 A 
BRANCH  29  30
ATOM     30  C   UNL A   1      41.227  26.184  27.814  1.00  0.00     0.031 A 
ATOM     31  C   UNL A   1      42.572  26.450  27.208  1.00  0.00     0.074 A 
ATOM     32  C   UNL A   1      40.644  27.053  28.656  1.00  0.00     0.049 A 
ATOM     33  N   UNL A   1      43.319  27.517  27.311  1.00  0.00    -0.248 NA
ATOM     34  C   UNL A   1      43.165  25.381  26.381  1.00  0.00     0.031 C 
ATOM     35  C   UNL A   1      39.347  26.850  29.305  1.00  0.00     0.029 A 
ATOM     36  N   UNL A   1      41.047  28.289  29.085  1.00  0.00    -0.354 N 
ATOM     37  C   UNL A   1      44.455  27.251  26.558  1.00  0.00     0.074 A 
ATOM     38  C   UNL A   1      44.338  25.903  26.057  1.00  0.00     0.031 C 
ATOM     39  C   UNL A   1      39.035  27.950  30.006  1.00  0.00     0.029 A 
ATOM     40  C   UNL A   1      40.124  28.916  29.887  1.00  0.00     0.049 A 
ATOM     41  H   UNL A   1      41.912  28.689  28.843  1.00  0.00     0.167 HD
ATOM     42  C   UNL A   1      45.485  28.081  26.286  1.00  0.00     0.031 A 
ATOM     43  C   UNL A   1      40.154  30.139  30.448  1.00  0.00     0.031 A 
ATOM     44  C   UNL A   1      45.570  29.423  26.794  1.00  0.00     0.049 A 
ATOM     45  C   UNL A   1      41.331  31.029  30.155  1.00  0.00     0.074 A 
ATOM     46  C   UNL A   1      46.551  30.367  26.555  1.00  0.00     0.029 A 
ATOM     47  N   UNL A   1      44.638  30.008  27.639  1.00  0.00    -0.354 N 
ATOM     48  N   UNL A   1      42.367  30.798  29.382  1.00  0.00    -0.248 NA
ATOM     49  C   UNL A   1      41.342  32.352  30.793  1.00  0.00     0.031 C 
ATOM     50  C   UNL A   1      46.258  31.492  27.323  1.00  0.00     0.029 A 
ATOM     51  C   UNL A   1      45.044  31.289  27.964  1.00  0.00     0.049 A 
ATOM     52  H   UNL A   1      43.814  29.577  27.960  1.00  0.00     0.167 HD
ATOM     53  C   UNL A   1      43.139  31.951  29.420  1.00  0.00     0.074 A 
ATOM     54  C   UNL A   1      42.438  32.890  30.274  1.00  0.00     0.031 C 
ATOM     55  C   UNL A   1      44.322  32.207  28.810  1.00  0.00     0.031 A 
BRANCH  42  56
ATOM     56  C   UNL A   1      46.593  27.587  25.397  1.00  0.00    -0.014 A 
ATOM     57  C   UNL A   1      47.638  26.823  25.943  1.00  0.00     0.009 A 
ATOM     58  C   UNL A   1      46.672  27.977  24.050  1.00  0.00     0.009 A 
ATOM     59  C   UNL A   1      48.753  26.492  25.172  1.00  0.00     0.001 A 
ATOM     60  C   UNL A   1      47.774  27.613  23.272  1.00  0.00     0.001 A 
ATOM     61  C   UNL A   1      48.820  26.887  23.838  1.00  0.00     0.000 A 
ENDBRANCH  42  56
BRANCH  43  62
ATOM     62  C   UNL A   1      39.011  30.586  31.290  1.00  0.00    -0.014 A 
ATOM     63  C   UNL A   1      38.986  30.305  32.667  1.00  0.00     0.009 A 
ATOM     64  C   UNL A   1      37.905  31.233  30.717  1.00  0.00     0.009 A 
ATOM     65  C   UNL A   1      37.870  30.626  33.442  1.00  0.00     0.001 A 
ATOM     66  C   UNL A   1      36.805  31.589  31.503  1.00  0.00     0.001 A 
ATOM     67  C   UNL A   1      36.783  31.274  32.860  1.00  0.00     0.000 A 
ENDBRANCH  43  62
BRANCH  55  68
ATOM     68  C   UNL A   1      44.949  33.558  29.023  1.00  0.00    -0.014 A 
ATOM     69  C   UNL A   1      44.713  34.587  28.095  1.00  0.00     0.009 A 
ATOM     70  C   UNL A   1      45.883  33.769  30.047  1.00  0.00     0.009 A 
ATOM     71  C   UNL A   1      45.423  35.785  28.168  1.00  0.00     0.001 A 
ATOM     72  C   UNL A   1      46.561  34.985  30.144  1.00  0.00     0.001 A 
ATOM     73  C   UNL A   1      46.343  35.985  29.195  1.00  0.00     0.000 A 
ENDBRANCH  55  68
ENDBRANCH  29  30
ENDBRANCH  22  24
ENDBRANCH  21  22
ENDBRANCH  20  21
ENDBRANCH   1  20
TORSDOF 14
ENDMDL
