MODEL 1
REMARK VINA RESULT:     -12.6      0.000      0.000
REMARK SMILES O=C(OCCOC(=O)c1ccc([C@H]2Nc3ccc(Cl)cc3[C@@H]3C=CC[C@@H]23)cc1)c1ccc(-c2c3nc(c(-c4ccccc4)c4ccc([nH]4)c(-c4ccccc4)c4nc(c(-c5ccccc5)c5ccc2[nH]5)C=C4)C=C3)cc1
REMARK SMILES IDX 4 1 3 2 2 3 1 4 29 5 30 6 76 7 31 8 75 9 32 10 33 11 34 12
REMARK SMILES IDX 69 13 35 14 74 15 68 16 70 17 36 18 73 19 67 20 66 21 37 23
REMARK SMILES IDX 59 24 44 25 58 26 45 27 48 28 57 29 71 30 46 31 47 32 56 34
REMARK SMILES IDX 72 35 49 36 38 37 39 38 43 39 40 40 42 41 41 42 60 43 61 44
REMARK SMILES IDX 65 45 62 46 64 47 63 48 50 49 51 50 55 51 52 52 54 53 53 54
REMARK SMILES IDX 5 55 6 56 7 57 8 58 9 59 10 60 28 61 11 62 27 63 12 64 13 65
REMARK SMILES IDX 14 66 26 67 15 68 22 70 25 71 16 72 21 73 23 74 24 75 17 76
REMARK SMILES IDX 20 77 18 78 19 79
REMARK H PARENT 70 22 48 33 14 69
REMARK Flexibility Score: inf
ROOT
ATOM      1  C   UNL A   1      43.173  21.088  25.722  1.00  0.00     0.275 C 
ENDROOT
BRANCH   1   2
ATOM      2  O   UNL A   1      43.028  22.208  24.846  1.00  0.00    -0.458 OA
BRANCH   2   3
ATOM      3  C   UNL A   1      43.461  23.473  25.027  1.00  0.00     0.338 C 
ATOM      4  O   UNL A   1      44.414  23.859  24.351  1.00  0.00    -0.246 OA
BRANCH   3   5
ATOM      5  C   UNL A   1      42.915  24.410  26.070  1.00  0.00     0.060 A 
ATOM      6  C   UNL A   1      41.920  24.168  27.034  1.00  0.00     0.016 A 
ATOM      7  C   UNL A   1      43.521  25.666  26.089  1.00  0.00     0.016 A 
ATOM      8  C   UNL A   1      41.605  25.095  28.041  1.00  0.00     0.010 A 
ATOM      9  C   UNL A   1      43.193  26.588  27.075  1.00  0.00     0.010 A 
ATOM     10  C   UNL A   1      42.250  26.319  28.076  1.00  0.00    -0.014 A 
BRANCH  10  11
ATOM     11  C   UNL A   1      41.913  27.395  29.045  1.00  0.00     0.031 A 
ATOM     12  C   UNL A   1      42.618  27.376  30.372  1.00  0.00     0.074 A 
ATOM     13  C   UNL A   1      40.854  28.203  28.845  1.00  0.00     0.049 A 
ATOM     14  N   UNL A   1      42.298  27.964  31.495  1.00  0.00    -0.248 NA
ATOM     15  C   UNL A   1      43.795  26.498  30.457  1.00  0.00     0.031 C 
ATOM     16  C   UNL A   1      40.075  28.302  27.612  1.00  0.00     0.029 A 
ATOM     17  N   UNL A   1      40.188  29.028  29.722  1.00  0.00    -0.354 N 
ATOM     18  C   UNL A   1      43.175  27.446  32.441  1.00  0.00     0.074 A 
ATOM     19  C   UNL A   1      44.013  26.483  31.761  1.00  0.00     0.031 C 
ATOM     20  C   UNL A   1      39.002  29.083  27.826  1.00  0.00     0.029 A 
ATOM     21  C   UNL A   1      39.012  29.535  29.214  1.00  0.00     0.049 A 
ATOM     22  H   UNL A   1      40.518  29.236  30.626  1.00  0.00     0.167 HD
ATOM     23  C   UNL A   1      43.257  27.727  33.763  1.00  0.00     0.031 A 
ATOM     24  C   UNL A   1      38.047  30.266  29.804  1.00  0.00     0.031 A 
ATOM     25  C   UNL A   1      42.407  28.683  34.419  1.00  0.00     0.049 A 
ATOM     26  C   UNL A   1      38.217  30.670  31.244  1.00  0.00     0.074 A 
ATOM     27  C   UNL A   1      42.491  29.173  35.709  1.00  0.00     0.029 A 
ATOM     28  N   UNL A   1      41.309  29.292  33.826  1.00  0.00    -0.354 N 
ATOM     29  N   UNL A   1      39.123  30.278  32.106  1.00  0.00    -0.248 NA
ATOM     30  C   UNL A   1      37.264  31.654  31.777  1.00  0.00     0.031 C 
ATOM     31  C   UNL A   1      41.427  30.062  35.904  1.00  0.00     0.029 A 
ATOM     32  C   UNL A   1      40.717  30.165  34.718  1.00  0.00     0.049 A 
ATOM     33  H   UNL A   1      41.000  29.126  32.906  1.00  0.00     0.167 HD
ATOM     34  C   UNL A   1      38.895  31.017  33.260  1.00  0.00     0.074 A 
ATOM     35  C   UNL A   1      37.747  31.862  32.995  1.00  0.00     0.031 C 
ATOM     36  C   UNL A   1      39.591  31.015  34.424  1.00  0.00     0.031 A 
BRANCH  23  37
ATOM     37  C   UNL A   1      44.291  26.978  34.563  1.00  0.00    -0.014 A 
ATOM     38  C   UNL A   1      45.625  27.418  34.624  1.00  0.00     0.009 A 
ATOM     39  C   UNL A   1      43.944  25.794  35.232  1.00  0.00     0.009 A 
ATOM     40  C   UNL A   1      46.603  26.644  35.252  1.00  0.00     0.001 A 
ATOM     41  C   UNL A   1      44.916  25.049  35.905  1.00  0.00     0.001 A 
ATOM     42  C   UNL A   1      46.247  25.460  35.893  1.00  0.00     0.000 A 
ENDBRANCH  23  37
BRANCH  24  43
ATOM     43  C   UNL A   1      36.874  30.732  29.017  1.00  0.00    -0.014 A 
ATOM     44  C   UNL A   1      35.867  29.823  28.655  1.00  0.00     0.009 A 
ATOM     45  C   UNL A   1      36.740  32.075  28.636  1.00  0.00     0.009 A 
ATOM     46  C   UNL A   1      34.765  30.242  27.907  1.00  0.00     0.001 A 
ATOM     47  C   UNL A   1      35.625  32.497  27.904  1.00  0.00     0.001 A 
ATOM     48  C   UNL A   1      34.641  31.579  27.535  1.00  0.00     0.000 A 
ENDBRANCH  24  43
BRANCH  36  49
ATOM     49  C   UNL A   1      39.205  32.020  35.472  1.00  0.00    -0.014 A 
ATOM     50  C   UNL A   1      39.710  33.327  35.472  1.00  0.00     0.009 A 
ATOM     51  C   UNL A   1      38.232  31.664  36.422  1.00  0.00     0.009 A 
ATOM     52  C   UNL A   1      39.256  34.255  36.412  1.00  0.00     0.001 A 
ATOM     53  C   UNL A   1      37.759  32.601  37.341  1.00  0.00     0.001 A 
ATOM     54  C   UNL A   1      38.274  33.895  37.337  1.00  0.00     0.000 A 
ENDBRANCH  36  49
ENDBRANCH  10  11
ENDBRANCH   3   5
ENDBRANCH   2   3
ENDBRANCH   1   2
BRANCH   1  55
ATOM     55  C   UNL A   1      41.850  20.562  26.306  1.00  0.00     0.275 C 
BRANCH  55  56
ATOM     56  O   UNL A   1      40.654  21.205  25.799  1.00  0.00    -0.458 OA
BRANCH  56  57
ATOM     57  C   UNL A   1      39.581  20.388  25.584  1.00  0.00     0.338 C 
ATOM     58  O   UNL A   1      39.626  19.176  25.507  1.00  0.00    -0.246 OA
BRANCH  57  59
ATOM     59  C   UNL A   1      38.289  21.145  25.574  1.00  0.00     0.060 A 
ATOM     60  C   UNL A   1      37.132  20.466  25.175  1.00  0.00     0.016 A 
ATOM     61  C   UNL A   1      38.181  22.494  25.912  1.00  0.00     0.016 A 
ATOM     62  C   UNL A   1      35.876  21.102  25.172  1.00  0.00     0.007 A 
ATOM     63  C   UNL A   1      36.917  23.132  25.903  1.00  0.00     0.007 A 
ATOM     64  C   UNL A   1      35.731  22.440  25.571  1.00  0.00    -0.025 A 
BRANCH  64  65
ATOM     65  C   UNL A   1      34.358  23.125  25.724  1.00  0.00     0.114 C 
ATOM     66  N   UNL A   1      34.438  24.535  26.191  1.00  0.00    -0.378 N 
ATOM     67  C   UNL A   1      33.503  23.164  24.454  1.00  0.00     0.031 C 
ATOM     68  C   UNL A   1      34.012  25.592  25.371  1.00  0.00     0.038 A 
ATOM     69  H   UNL A   1      34.794  24.730  27.087  1.00  0.00     0.161 HD
ATOM     70  C   UNL A   1      34.210  24.064  23.420  1.00  0.00     0.049 C 
ATOM     71  C   UNL A   1      32.996  21.948  23.720  1.00  0.00     0.034 C 
ATOM     72  C   UNL A   1      33.411  26.734  25.908  1.00  0.00     0.027 A 
ATOM     73  C   UNL A   1      33.983  25.449  23.960  1.00  0.00    -0.016 A 
ATOM     74  C   UNL A   1      33.475  23.674  22.178  1.00  0.00    -0.023 C 
ATOM     75  C   UNL A   1      32.782  22.543  22.359  1.00  0.00    -0.030 C 
ATOM     76  C   UNL A   1      32.849  27.712  25.068  1.00  0.00     0.022 A 
ATOM     77  C   UNL A   1      33.553  26.487  23.122  1.00  0.00     0.027 A 
ATOM     78  C   UNL A   1      32.955  27.601  23.684  1.00  0.00     0.041 A 
ATOM     79  Cl  UNL A   1      32.248  28.785  22.654  1.00  0.00    -0.084 Cl
ENDBRANCH  64  65
ENDBRANCH  57  59
ENDBRANCH  56  57
ENDBRANCH  55  56
ENDBRANCH   1  55
TORSDOF 12
ENDMDL
MODEL 2
REMARK VINA RESULT:     -12.2      3.683      7.322
REMARK SMILES O=C(OCCOC(=O)c1ccc([C@H]2Nc3ccc(Cl)cc3[C@@H]3C=CC[C@@H]23)cc1)c1ccc(-c2c3nc(c(-c4ccccc4)c4ccc([nH]4)c(-c4ccccc4)c4nc(c(-c5ccccc5)c5ccc2[nH]5)C=C4)C=C3)cc1
REMARK SMILES IDX 4 1 3 2 2 3 1 4 29 5 30 6 76 7 31 8 75 9 32 10 33 11 34 12
REMARK SMILES IDX 69 13 35 14 74 15 68 16 70 17 36 18 73 19 67 20 66 21 37 23
REMARK SMILES IDX 59 24 44 25 58 26 45 27 48 28 57 29 71 30 46 31 47 32 56 34
REMARK SMILES IDX 72 35 49 36 38 37 39 38 43 39 40 40 42 41 41 42 60 43 61 44
REMARK SMILES IDX 65 45 62 46 64 47 63 48 50 49 51 50 55 51 52 52 54 53 53 54
REMARK SMILES IDX 5 55 6 56 7 57 8 58 9 59 10 60 28 61 11 62 27 63 12 64 13 65
REMARK SMILES IDX 14 66 26 67 15 68 22 70 25 71 16 72 21 73 23 74 24 75 17 76
REMARK SMILES IDX 20 77 18 78 19 79
REMARK H PARENT 70 22 48 33 14 69
REMARK Flexibility Score: inf
ROOT
ATOM      1  C   UNL A   1      35.493  21.089  25.776  1.00  0.00     0.275 C 
ENDROOT
BRANCH   1   2
ATOM      2  O   UNL A   1      36.663  21.763  25.304  1.00  0.00    -0.458 OA
BRANCH   2   3
ATOM      3  C   UNL A   1      37.954  21.487  25.581  1.00  0.00     0.338 C 
ATOM      4  O   UNL A   1      38.367  20.353  25.339  1.00  0.00    -0.246 OA
BRANCH   3   5
ATOM      5  C   UNL A   1      38.896  22.448  26.254  1.00  0.00     0.060 A 
ATOM      6  C   UNL A   1      40.012  22.162  27.062  1.00  0.00     0.016 A 
ATOM      7  C   UNL A   1      38.632  23.792  25.995  1.00  0.00     0.016 A 
ATOM      8  C   UNL A   1      40.891  23.161  27.514  1.00  0.00     0.010 A 
ATOM      9  C   UNL A   1      39.492  24.778  26.460  1.00  0.00     0.010 A 
ATOM     10  C   UNL A   1      40.641  24.487  27.207  1.00  0.00    -0.014 A 
BRANCH  10  11
ATOM     11  C   UNL A   1      41.461  25.616  27.723  1.00  0.00     0.031 A 
ATOM     12  C   UNL A   1      40.765  26.646  28.566  1.00  0.00     0.074 A 
ATOM     13  C   UNL A   1      42.705  25.840  27.258  1.00  0.00     0.049 A 
ATOM     14  N   UNL A   1      41.130  27.865  28.863  1.00  0.00    -0.248 NA
ATOM     15  C   UNL A   1      39.433  26.270  29.064  1.00  0.00     0.031 C 
ATOM     16  C   UNL A   1      43.480  24.929  26.417  1.00  0.00     0.029 A 
ATOM     17  N   UNL A   1      43.500  26.959  27.350  1.00  0.00    -0.354 N 
ATOM     18  C   UNL A   1      40.030  28.433  29.497  1.00  0.00     0.074 A 
ATOM     19  C   UNL A   1      38.986  27.431  29.511  1.00  0.00     0.031 C 
ATOM     20  C   UNL A   1      44.604  25.545  26.013  1.00  0.00     0.029 A 
ATOM     21  C   UNL A   1      44.627  26.898  26.562  1.00  0.00     0.049 A 
ATOM     22  H   UNL A   1      43.283  27.729  27.923  1.00  0.00     0.167 HD
ATOM     23  C   UNL A   1      39.892  29.684  29.996  1.00  0.00     0.031 A 
ATOM     24  C   UNL A   1      45.563  27.831  26.299  1.00  0.00     0.031 A 
ATOM     25  C   UNL A   1      40.942  30.665  29.963  1.00  0.00     0.049 A 
ATOM     26  C   UNL A   1      45.455  29.178  26.962  1.00  0.00     0.074 A 
ATOM     27  C   UNL A   1      40.985  31.906  30.571  1.00  0.00     0.029 A 
ATOM     28  N   UNL A   1      42.138  30.509  29.275  1.00  0.00    -0.354 N 
ATOM     29  N   UNL A   1      44.466  29.669  27.669  1.00  0.00    -0.248 NA
ATOM     30  C   UNL A   1      46.610  30.078  26.834  1.00  0.00     0.031 C 
ATOM     31  C   UNL A   1      42.200  32.512  30.230  1.00  0.00     0.029 A 
ATOM     32  C   UNL A   1      42.933  31.625  29.457  1.00  0.00     0.049 A 
ATOM     33  H   UNL A   1      42.383  29.721  28.738  1.00  0.00     0.167 HD
ATOM     34  C   UNL A   1      44.905  30.904  28.129  1.00  0.00     0.074 A 
ATOM     35  C   UNL A   1      46.240  31.098  27.599  1.00  0.00     0.031 C 
ATOM     36  C   UNL A   1      44.269  31.785  28.940  1.00  0.00     0.031 A 
BRANCH  23  37
ATOM     37  C   UNL A   1      38.558  30.040  30.600  1.00  0.00    -0.014 A 
ATOM     38  C   UNL A   1      37.557  30.671  29.840  1.00  0.00     0.009 A 
ATOM     39  C   UNL A   1      38.307  29.781  31.956  1.00  0.00     0.009 A 
ATOM     40  C   UNL A   1      36.381  31.120  30.443  1.00  0.00     0.001 A 
ATOM     41  C   UNL A   1      37.106  30.184  32.545  1.00  0.00     0.001 A 
ATOM     42  C   UNL A   1      36.156  30.875  31.796  1.00  0.00     0.000 A 
ENDBRANCH  23  37
BRANCH  24  43
ATOM     43  C   UNL A   1      46.726  27.502  25.432  1.00  0.00    -0.014 A 
ATOM     44  C   UNL A   1      47.802  26.764  25.952  1.00  0.00     0.009 A 
ATOM     45  C   UNL A   1      46.768  27.902  24.088  1.00  0.00     0.009 A 
ATOM     46  C   UNL A   1      48.906  26.457  25.154  1.00  0.00     0.001 A 
ATOM     47  C   UNL A   1      47.866  27.575  23.285  1.00  0.00     0.001 A 
ATOM     48  C   UNL A   1      48.936  26.858  23.820  1.00  0.00     0.000 A 
ENDBRANCH  24  43
BRANCH  36  49
ATOM     49  C   UNL A   1      45.033  32.996  29.394  1.00  0.00    -0.014 A 
ATOM     50  C   UNL A   1      44.954  34.222  28.719  1.00  0.00     0.009 A 
ATOM     51  C   UNL A   1      45.769  32.921  30.590  1.00  0.00     0.009 A 
ATOM     52  C   UNL A   1      45.609  35.347  29.227  1.00  0.00     0.001 A 
ATOM     53  C   UNL A   1      46.398  34.052  31.109  1.00  0.00     0.001 A 
ATOM     54  C   UNL A   1      46.320  35.263  30.426  1.00  0.00     0.000 A 
ENDBRANCH  36  49
ENDBRANCH  10  11
ENDBRANCH   3   5
ENDBRANCH   2   3
ENDBRANCH   1   2
BRANCH   1  55
ATOM     55  C   UNL A   1      34.967  19.993  24.834  1.00  0.00     0.275 C 
BRANCH  55  56
ATOM     56  O   UNL A   1      33.621  19.532  25.115  1.00  0.00    -0.458 OA
BRANCH  56  57
ATOM     57  C   UNL A   1      32.698  19.749  24.133  1.00  0.00     0.338 C 
ATOM     58  O   UNL A   1      32.268  18.904  23.373  1.00  0.00    -0.246 OA
BRANCH  57  59
ATOM     59  C   UNL A   1      32.161  21.148  24.164  1.00  0.00     0.060 A 
ATOM     60  C   UNL A   1      31.770  21.673  25.400  1.00  0.00     0.016 A 
ATOM     61  C   UNL A   1      32.005  21.942  23.028  1.00  0.00     0.016 A 
ATOM     62  C   UNL A   1      31.287  22.992  25.513  1.00  0.00     0.007 A 
ATOM     63  C   UNL A   1      31.516  23.265  23.145  1.00  0.00     0.007 A 
ATOM     64  C   UNL A   1      31.183  23.833  24.394  1.00  0.00    -0.025 A 
BRANCH  64  65
ATOM     65  C   UNL A   1      30.803  25.323  24.499  1.00  0.00     0.114 C 
ATOM     66  N   UNL A   1      30.780  25.842  25.894  1.00  0.00    -0.378 N 
ATOM     67  C   UNL A   1      31.707  26.284  23.722  1.00  0.00     0.031 C 
ATOM     68  C   UNL A   1      31.679  26.836  26.309  1.00  0.00     0.038 A 
ATOM     69  H   UNL A   1      30.124  25.482  26.534  1.00  0.00     0.161 HD
ATOM     70  C   UNL A   1      33.110  26.254  24.361  1.00  0.00     0.049 C 
ATOM     71  C   UNL A   1      31.894  26.270  22.226  1.00  0.00     0.034 C 
ATOM     72  C   UNL A   1      31.310  27.809  27.240  1.00  0.00     0.027 A 
ATOM     73  C   UNL A   1      32.919  27.016  25.643  1.00  0.00    -0.016 A 
ATOM     74  C   UNL A   1      33.912  26.905  23.279  1.00  0.00    -0.023 C 
ATOM     75  C   UNL A   1      33.229  26.948  22.128  1.00  0.00    -0.030 C 
ATOM     76  C   UNL A   1      32.165  28.888  27.529  1.00  0.00     0.022 A 
ATOM     77  C   UNL A   1      33.829  28.007  26.034  1.00  0.00     0.027 A 
ATOM     78  C   UNL A   1      33.431  28.962  26.953  1.00  0.00     0.041 A 
ATOM     79  Cl  UNL A   1      34.469  30.293  27.288  1.00  0.00    -0.084 Cl
ENDBRANCH  64  65
ENDBRANCH  57  59
ENDBRANCH  56  57
ENDBRANCH  55  56
ENDBRANCH   1  55
TORSDOF 12
ENDMDL
MODEL 3
REMARK VINA RESULT:     -12.2      3.729      7.505
REMARK SMILES O=C(OCCOC(=O)c1ccc([C@H]2Nc3ccc(Cl)cc3[C@@H]3C=CC[C@@H]23)cc1)c1ccc(-c2c3nc(c(-c4ccccc4)c4ccc([nH]4)c(-c4ccccc4)c4nc(c(-c5ccccc5)c5ccc2[nH]5)C=C4)C=C3)cc1
REMARK SMILES IDX 4 1 3 2 2 3 1 4 29 5 30 6 76 7 31 8 75 9 32 10 33 11 34 12
REMARK SMILES IDX 69 13 35 14 74 15 68 16 70 17 36 18 73 19 67 20 66 21 37 23
REMARK SMILES IDX 59 24 44 25 58 26 45 27 48 28 57 29 71 30 46 31 47 32 56 34
REMARK SMILES IDX 72 35 49 36 38 37 39 38 43 39 40 40 42 41 41 42 60 43 61 44
REMARK SMILES IDX 65 45 62 46 64 47 63 48 50 49 51 50 55 51 52 52 54 53 53 54
REMARK SMILES IDX 5 55 6 56 7 57 8 58 9 59 10 60 28 61 11 62 27 63 12 64 13 65
REMARK SMILES IDX 14 66 26 67 15 68 22 70 25 71 16 72 21 73 23 74 24 75 17 76
REMARK SMILES IDX 20 77 18 78 19 79
REMARK H PARENT 70 22 48 33 14 69
REMARK Flexibility Score: inf
ROOT
ATOM      1  C   UNL A   1      38.526  19.850  24.862  1.00  0.00     0.275 C 
ENDROOT
BRANCH   1   2
ATOM      2  O   UNL A   1      39.471  19.374  25.824  1.00  0.00    -0.458 OA
BRANCH   2   3
ATOM      3  C   UNL A   1      40.791  19.641  25.902  1.00  0.00     0.338 C 
ATOM      4  O   UNL A   1      41.580  18.734  25.636  1.00  0.00    -0.246 OA
BRANCH   3   5
ATOM      5  C   UNL A   1      41.360  20.947  26.385  1.00  0.00     0.060 A 
ATOM      6  C   UNL A   1      41.802  22.046  25.626  1.00  0.00     0.016 A 
ATOM      7  C   UNL A   1      41.409  21.076  27.772  1.00  0.00     0.016 A 
ATOM      8  C   UNL A   1      42.183  23.263  26.215  1.00  0.00     0.010 A 
ATOM      9  C   UNL A   1      41.806  22.275  28.351  1.00  0.00     0.010 A 
ATOM     10  C   UNL A   1      42.180  23.392  27.593  1.00  0.00    -0.014 A 
BRANCH  10  11
ATOM     11  C   UNL A   1      42.659  24.608  28.303  1.00  0.00     0.031 A 
ATOM     12  C   UNL A   1      41.647  25.676  28.604  1.00  0.00     0.074 A 
ATOM     13  C   UNL A   1      43.975  24.852  28.452  1.00  0.00     0.049 A 
ATOM     14  N   UNL A   1      41.827  26.936  28.900  1.00  0.00    -0.248 NA
ATOM     15  C   UNL A   1      40.237  25.278  28.460  1.00  0.00     0.031 C 
ATOM     16  C   UNL A   1      45.056  23.907  28.176  1.00  0.00     0.029 A 
ATOM     17  N   UNL A   1      44.631  26.016  28.779  1.00  0.00    -0.354 N 
ATOM     18  C   UNL A   1      40.556  27.502  28.878  1.00  0.00     0.074 A 
ATOM     19  C   UNL A   1      39.631  26.452  28.514  1.00  0.00     0.031 C 
ATOM     20  C   UNL A   1      46.237  24.541  28.280  1.00  0.00     0.029 A 
ATOM     21  C   UNL A   1      45.997  25.940  28.622  1.00  0.00     0.049 A 
ATOM     22  H   UNL A   1      44.169  26.826  29.096  1.00  0.00     0.167 HD
ATOM     23  C   UNL A   1      40.197  28.786  29.113  1.00  0.00     0.031 A 
ATOM     24  C   UNL A   1      46.944  26.892  28.725  1.00  0.00     0.031 A 
ATOM     25  C   UNL A   1      41.138  29.815  29.466  1.00  0.00     0.049 A 
ATOM     26  C   UNL A   1      46.535  28.290  29.107  1.00  0.00     0.074 A 
ATOM     27  C   UNL A   1      40.888  31.109  29.882  1.00  0.00     0.029 A 
ATOM     28  N   UNL A   1      42.517  29.658  29.439  1.00  0.00    -0.354 N 
ATOM     29  N   UNL A   1      45.328  28.793  29.211  1.00  0.00    -0.248 NA
ATOM     30  C   UNL A   1      47.612  29.234  29.435  1.00  0.00     0.031 C 
ATOM     31  C   UNL A   1      42.118  31.744  30.083  1.00  0.00     0.029 A 
ATOM     32  C   UNL A   1      43.131  30.827  29.846  1.00  0.00     0.049 A 
ATOM     33  H   UNL A   1      42.987  28.836  29.170  1.00  0.00     0.167 HD
ATOM     34  C   UNL A   1      45.497  30.088  29.682  1.00  0.00     0.074 A 
ATOM     35  C   UNL A   1      46.924  30.302  29.819  1.00  0.00     0.031 C 
ATOM     36  C   UNL A   1      44.553  31.008  29.999  1.00  0.00     0.031 A 
BRANCH  23  37
ATOM     37  C   UNL A   1      38.735  29.127  28.981  1.00  0.00    -0.014 A 
ATOM     38  C   UNL A   1      38.200  29.587  27.764  1.00  0.00     0.009 A 
ATOM     39  C   UNL A   1      37.885  29.028  30.092  1.00  0.00     0.009 A 
ATOM     40  C   UNL A   1      36.878  30.030  27.689  1.00  0.00     0.001 A 
ATOM     41  C   UNL A   1      36.548  29.421  30.001  1.00  0.00     0.001 A 
ATOM     42  C   UNL A   1      36.053  29.945  28.808  1.00  0.00     0.000 A 
ENDBRANCH  23  37
BRANCH  24  43
ATOM     43  C   UNL A   1      48.379  26.544  28.544  1.00  0.00    -0.014 A 
ATOM     44  C   UNL A   1      49.120  26.037  29.624  1.00  0.00     0.009 A 
ATOM     45  C   UNL A   1      49.015  26.698  27.302  1.00  0.00     0.009 A 
ATOM     46  C   UNL A   1      50.470  25.716  29.473  1.00  0.00     0.001 A 
ATOM     47  C   UNL A   1      50.363  26.357  27.149  1.00  0.00     0.001 A 
ATOM     48  C   UNL A   1      51.090  25.871  28.235  1.00  0.00     0.000 A 
ENDBRANCH  24  43
BRANCH  36  49
ATOM     49  C   UNL A   1      45.011  32.297  30.620  1.00  0.00    -0.014 A 
ATOM     50  C   UNL A   1      45.229  33.454  29.859  1.00  0.00     0.009 A 
ATOM     51  C   UNL A   1      45.126  32.369  32.019  1.00  0.00     0.009 A 
ATOM     52  C   UNL A   1      45.566  34.655  30.488  1.00  0.00     0.001 A 
ATOM     53  C   UNL A   1      45.435  33.576  32.646  1.00  0.00     0.001 A 
ATOM     54  C   UNL A   1      45.658  34.717  31.879  1.00  0.00     0.000 A 
ENDBRANCH  36  49
ENDBRANCH  10  11
ENDBRANCH   3   5
ENDBRANCH   2   3
ENDBRANCH   1   2
BRANCH   1  55
ATOM     55  C   UNL A   1      37.811  21.152  25.263  1.00  0.00     0.275 C 
BRANCH  55  56
ATOM     56  O   UNL A   1      37.019  21.768  24.217  1.00  0.00    -0.458 OA
BRANCH  56  57
ATOM     57  C   UNL A   1      35.668  21.779  24.419  1.00  0.00     0.338 C 
ATOM     58  O   UNL A   1      34.997  20.816  24.734  1.00  0.00    -0.246 OA
BRANCH  57  59
ATOM     59  C   UNL A   1      35.097  23.161  24.330  1.00  0.00     0.060 A 
ATOM     60  C   UNL A   1      35.244  24.005  25.436  1.00  0.00     0.016 A 
ATOM     61  C   UNL A   1      34.405  23.642  23.219  1.00  0.00     0.016 A 
ATOM     62  C   UNL A   1      34.763  25.329  25.414  1.00  0.00     0.007 A 
ATOM     63  C   UNL A   1      33.920  24.972  23.201  1.00  0.00     0.007 A 
ATOM     64  C   UNL A   1      34.122  25.857  24.283  1.00  0.00    -0.025 A 
BRANCH  64  65
ATOM     65  C   UNL A   1      33.716  27.340  24.166  1.00  0.00     0.114 C 
ATOM     66  N   UNL A   1      33.026  27.675  22.892  1.00  0.00    -0.378 N 
ATOM     67  C   UNL A   1      32.796  27.855  25.276  1.00  0.00     0.031 C 
ATOM     68  C   UNL A   1      31.690  28.108  22.887  1.00  0.00     0.038 A 
ATOM     69  H   UNL A   1      33.513  27.593  22.040  1.00  0.00     0.161 HD
ATOM     70  C   UNL A   1      31.440  27.130  25.159  1.00  0.00     0.049 C 
ATOM     71  C   UNL A   1      33.156  27.902  26.740  1.00  0.00     0.034 C 
ATOM     72  C   UNL A   1      31.233  29.048  21.960  1.00  0.00     0.027 A 
ATOM     73  C   UNL A   1      30.815  27.769  23.949  1.00  0.00    -0.016 A 
ATOM     74  C   UNL A   1      30.850  27.447  26.495  1.00  0.00    -0.023 C 
ATOM     75  C   UNL A   1      31.781  27.906  27.341  1.00  0.00    -0.030 C 
ATOM     76  C   UNL A   1      29.938  29.588  22.064  1.00  0.00     0.022 A 
ATOM     77  C   UNL A   1      29.480  28.196  23.970  1.00  0.00     0.027 A 
ATOM     78  C   UNL A   1      29.059  29.134  23.044  1.00  0.00     0.041 A 
ATOM     79  Cl  UNL A   1      27.483  29.810  23.188  1.00  0.00    -0.084 Cl
ENDBRANCH  64  65
ENDBRANCH  57  59
ENDBRANCH  56  57
ENDBRANCH  55  56
ENDBRANCH   1  55
TORSDOF 12
ENDMDL
