MODEL 1
REMARK VINA RESULT:     -10.0      0.000      0.000
REMARK SMILES CC1(C)C[C@@]([NH2+]CCN=[N+]=[N-])(C(=O)OCCOC(=O)c2ccc(-c3c4nc(c(-c5ccccc5)c5ccc([nH]5)c(-c5ccccc5)c5nc(c(-c6ccccc6)c6ccc3[nH]6)C=C5)C=C4)cc2)C(C)(C)O1
REMARK SMILES IDX 15 1 14 2 12 3 13 4 5 5 1 6 2 7 3 8 4 9 71 10 68 11 69 12
REMARK SMILES IDX 70 13 6 14 7 17 8 18 9 19 10 20 11 21 16 22 17 23 18 24
REMARK SMILES IDX 19 25 20 26 21 27 67 28 22 29 66 30 23 31 24 32 25 33 60 34
REMARK SMILES IDX 26 35 65 36 59 37 61 38 27 39 64 40 58 41 57 42 28 44 50 45
REMARK SMILES IDX 35 46 49 47 36 48 39 49 48 50 62 51 37 52 38 53 47 55 63 56
REMARK SMILES IDX 40 57 29 58 30 59 34 60 31 61 33 62 32 63 51 64 52 65 56 66
REMARK SMILES IDX 53 67 55 68 54 69 41 70 42 71 46 72 43 73 45 74 44 75
REMARK H PARENT 6 15 6 16 61 43 39 54
REMARK Flexibility Score: inf
ROOT
ATOM      1  C   UNL A   1      36.120  22.711  23.844  1.00  0.00     0.274 C 
ENDROOT
BRANCH   1   2
ATOM      2  O   UNL A   1      34.827  22.801  24.493  1.00  0.00    -0.457 OA
BRANCH   2   3
ATOM      3  C   UNL A   1      34.616  24.010  25.082  1.00  0.00     0.371 C 
ATOM      4  O   UNL A   1      35.511  24.552  25.729  1.00  0.00    -0.245 OA
BRANCH   3   5
ATOM      5  C   UNL A   1      33.158  24.598  24.972  1.00  0.00     0.225 C 
ATOM      6  C   UNL A   1      31.646  27.350  27.043  1.00  0.00     0.042 C 
ATOM      7  C   UNL A   1      31.689  26.313  25.921  1.00  0.00     0.070 C 
ATOM      8  C   UNL A   1      30.679  26.709  24.839  1.00  0.00     0.042 C 
ATOM      9  C   UNL A   1      33.112  26.070  25.418  1.00  0.00     0.119 C 
ATOM     10  O   UNL A   1      31.264  25.075  26.478  1.00  0.00    -0.362 OA
ATOM     11  C   UNL A   1      32.064  23.976  25.956  1.00  0.00     0.129 C 
ATOM     12  C   UNL A   1      32.593  23.291  27.219  1.00  0.00     0.050 C 
ATOM     13  C   UNL A   1      31.016  23.039  25.326  1.00  0.00     0.050 C 
BRANCH   5  14
ATOM     14  N   UNL A   1      32.718  24.469  23.529  1.00  0.00    -0.329 N 
ATOM     15  H   UNL A   1      31.720  24.676  23.494  1.00  0.00     0.347 HD
ATOM     16  H   UNL A   1      32.974  23.519  23.261  1.00  0.00     0.347 HD
BRANCH  14  17
ATOM     17  C   UNL A   1      33.385  25.333  22.538  1.00  0.00     0.267 C 
BRANCH  17  18
ATOM     18  C   UNL A   1      32.417  25.761  21.424  1.00  0.00     0.152 C 
BRANCH  18  19
ATOM     19  N   UNL A   1      33.019  25.522  20.107  1.00  0.00    -0.088 NA
ATOM     20  N   UNL A   1      32.225  25.468  19.150  1.00  0.00     0.001 N 
ATOM     21  N   UNL A   1      31.503  25.446  18.275  1.00  0.00    -0.003 NA
ENDBRANCH  18  19
ENDBRANCH  17  18
ENDBRANCH  14  17
ENDBRANCH   5  14
ENDBRANCH   3   5
ENDBRANCH   2   3
ENDBRANCH   1   2
BRANCH   1  22
ATOM     22  C   UNL A   1      36.966  21.512  24.298  1.00  0.00     0.275 C 
BRANCH  22  23
ATOM     23  O   UNL A   1      37.310  21.581  25.698  1.00  0.00    -0.458 OA
BRANCH  23  24
ATOM     24  C   UNL A   1      38.627  21.443  25.976  1.00  0.00     0.338 C 
ATOM     25  O   UNL A   1      39.314  20.460  25.748  1.00  0.00    -0.246 OA
BRANCH  24  26
ATOM     26  C   UNL A   1      39.211  22.659  26.587  1.00  0.00     0.060 A 
ATOM     27  C   UNL A   1      38.791  23.934  26.218  1.00  0.00     0.016 A 
ATOM     28  C   UNL A   1      40.358  22.528  27.367  1.00  0.00     0.016 A 
ATOM     29  C   UNL A   1      39.543  25.059  26.550  1.00  0.00     0.010 A 
ATOM     30  C   UNL A   1      41.055  23.669  27.789  1.00  0.00     0.010 A 
ATOM     31  C   UNL A   1      40.668  24.952  27.368  1.00  0.00    -0.014 A 
BRANCH  31  32
ATOM     32  C   UNL A   1      41.411  26.173  27.783  1.00  0.00     0.031 A 
ATOM     33  C   UNL A   1      40.785  27.179  28.711  1.00  0.00     0.074 A 
ATOM     34  C   UNL A   1      42.658  26.390  27.315  1.00  0.00     0.049 A 
ATOM     35  N   UNL A   1      41.181  28.395  28.997  1.00  0.00    -0.248 NA
ATOM     36  C   UNL A   1      39.549  26.774  29.398  1.00  0.00     0.031 C 
ATOM     37  C   UNL A   1      43.426  25.469  26.470  1.00  0.00     0.029 A 
ATOM     38  N   UNL A   1      43.501  27.461  27.478  1.00  0.00    -0.354 N 
ATOM     39  C   UNL A   1      40.216  28.919  29.849  1.00  0.00     0.074 A 
ATOM     40  C   UNL A   1      39.214  27.891  30.033  1.00  0.00     0.031 C 
ATOM     41  C   UNL A   1      44.628  26.001  26.214  1.00  0.00     0.029 A 
ATOM     42  C   UNL A   1      44.673  27.344  26.770  1.00  0.00     0.049 A 
ATOM     43  H   UNL A   1      43.287  28.238  28.046  1.00  0.00     0.167 HD
ATOM     44  C   UNL A   1      40.168  30.150  30.415  1.00  0.00     0.031 A 
ATOM     45  C   UNL A   1      45.652  28.235  26.528  1.00  0.00     0.031 A 
ATOM     46  C   UNL A   1      41.180  31.162  30.242  1.00  0.00     0.049 A 
ATOM     47  C   UNL A   1      45.528  29.621  27.084  1.00  0.00     0.074 A 
ATOM     48  C   UNL A   1      41.229  32.436  30.784  1.00  0.00     0.029 A 
ATOM     49  N   UNL A   1      42.324  31.015  29.472  1.00  0.00    -0.354 N 
ATOM     50  N   UNL A   1      44.589  30.123  27.847  1.00  0.00    -0.248 NA
ATOM     51  C   UNL A   1      46.594  30.567  26.734  1.00  0.00     0.031 C 
ATOM     52  C   UNL A   1      42.364  33.082  30.286  1.00  0.00     0.029 A 
ATOM     53  C   UNL A   1      43.066  32.186  29.497  1.00  0.00     0.049 A 
ATOM     54  H   UNL A   1      42.574  30.199  28.980  1.00  0.00     0.167 HD
ATOM     55  C   UNL A   1      44.964  31.437  28.090  1.00  0.00     0.074 A 
ATOM     56  C   UNL A   1      46.226  31.645  27.411  1.00  0.00     0.031 C 
ATOM     57  C   UNL A   1      44.318  32.385  28.812  1.00  0.00     0.031 A 
BRANCH  44  58
ATOM     58  C   UNL A   1      38.951  30.503  31.231  1.00  0.00    -0.014 A 
ATOM     59  C   UNL A   1      38.900  30.300  32.618  1.00  0.00     0.009 A 
ATOM     60  C   UNL A   1      37.850  31.106  30.598  1.00  0.00     0.009 A 
ATOM     61  C   UNL A   1      37.762  30.659  33.346  1.00  0.00     0.001 A 
ATOM     62  C   UNL A   1      36.729  31.497  31.332  1.00  0.00     0.001 A 
ATOM     63  C   UNL A   1      36.682  31.264  32.704  1.00  0.00     0.000 A 
ENDBRANCH  44  58
BRANCH  45  64
ATOM     64  C   UNL A   1      46.796  27.857  25.656  1.00  0.00    -0.014 A 
ATOM     65  C   UNL A   1      46.707  27.988  24.263  1.00  0.00     0.009 A 
ATOM     66  C   UNL A   1      47.990  27.370  26.216  1.00  0.00     0.009 A 
ATOM     67  C   UNL A   1      47.781  27.620  23.449  1.00  0.00     0.001 A 
ATOM     68  C   UNL A   1      49.076  27.042  25.404  1.00  0.00     0.001 A 
ATOM     69  C   UNL A   1      48.966  27.157  24.020  1.00  0.00     0.000 A 
ENDBRANCH  45  64
BRANCH  57  70
ATOM     70  C   UNL A   1      44.995  33.722  28.941  1.00  0.00    -0.014 A 
ATOM     71  C   UNL A   1      45.866  34.004  30.005  1.00  0.00     0.009 A 
ATOM     72  C   UNL A   1      44.764  34.710  27.972  1.00  0.00     0.009 A 
ATOM     73  C   UNL A   1      46.459  35.263  30.117  1.00  0.00     0.001 A 
ATOM     74  C   UNL A   1      45.387  35.955  28.066  1.00  0.00     0.001 A 
ATOM     75  C   UNL A   1      46.224  36.235  29.144  1.00  0.00     0.000 A 
ENDBRANCH  57  70
ENDBRANCH  31  32
ENDBRANCH  24  26
ENDBRANCH  23  24
ENDBRANCH  22  23
ENDBRANCH   1  22
TORSDOF 15
ENDMDL
MODEL 2
REMARK VINA RESULT:     -10.0      1.824      2.575
REMARK SMILES CC1(C)C[C@@]([NH2+]CCN=[N+]=[N-])(C(=O)OCCOC(=O)c2ccc(-c3c4nc(c(-c5ccccc5)c5ccc([nH]5)c(-c5ccccc5)c5nc(c(-c6ccccc6)c6ccc3[nH]6)C=C5)C=C4)cc2)C(C)(C)O1
REMARK SMILES IDX 15 1 14 2 12 3 13 4 5 5 1 6 2 7 3 8 4 9 71 10 68 11 69 12
REMARK SMILES IDX 70 13 6 14 7 17 8 18 9 19 10 20 11 21 16 22 17 23 18 24
REMARK SMILES IDX 19 25 20 26 21 27 67 28 22 29 66 30 23 31 24 32 25 33 60 34
REMARK SMILES IDX 26 35 65 36 59 37 61 38 27 39 64 40 58 41 57 42 28 44 50 45
REMARK SMILES IDX 35 46 49 47 36 48 39 49 48 50 62 51 37 52 38 53 47 55 63 56
REMARK SMILES IDX 40 57 29 58 30 59 34 60 31 61 33 62 32 63 51 64 52 65 56 66
REMARK SMILES IDX 53 67 55 68 54 69 41 70 42 71 46 72 43 73 45 74 44 75
REMARK H PARENT 6 15 6 16 61 43 39 54
REMARK Flexibility Score: inf
ROOT
ATOM      1  C   UNL A   1      35.784  20.255  25.000  1.00  0.00     0.274 C 
ENDROOT
BRANCH   1   2
ATOM      2  O   UNL A   1      35.382  21.607  25.336  1.00  0.00    -0.457 OA
BRANCH   2   3
ATOM      3  C   UNL A   1      34.973  22.319  24.251  1.00  0.00     0.371 C 
ATOM      4  O   UNL A   1      35.768  22.604  23.357  1.00  0.00    -0.245 OA
BRANCH   3   5
ATOM      5  C   UNL A   1      33.483  22.833  24.272  1.00  0.00     0.225 C 
ATOM      6  C   UNL A   1      32.023  25.678  22.290  1.00  0.00     0.042 C 
ATOM      7  C   UNL A   1      31.993  24.484  23.244  1.00  0.00     0.070 C 
ATOM      8  C   UNL A   1      30.572  23.912  23.282  1.00  0.00     0.042 C 
ATOM      9  C   UNL A   1      33.089  23.467  22.926  1.00  0.00     0.119 C 
ATOM     10  O   UNL A   1      32.296  24.978  24.544  1.00  0.00    -0.362 OA
ATOM     11  C   UNL A   1      33.164  24.051  25.256  1.00  0.00     0.129 C 
ATOM     12  C   UNL A   1      34.352  24.924  25.668  1.00  0.00     0.050 C 
ATOM     13  C   UNL A   1      32.366  23.723  26.531  1.00  0.00     0.050 C 
BRANCH   5  14
ATOM     14  N   UNL A   1      32.592  21.647  24.579  1.00  0.00    -0.329 N 
ATOM     15  H   UNL A   1      31.658  22.009  24.769  1.00  0.00     0.347 HD
ATOM     16  H   UNL A   1      33.044  21.176  25.362  1.00  0.00     0.347 HD
BRANCH  14  17
ATOM     17  C   UNL A   1      32.462  20.611  23.537  1.00  0.00     0.267 C 
BRANCH  17  18
ATOM     18  C   UNL A   1      32.466  19.201  24.145  1.00  0.00     0.152 C 
BRANCH  18  19
ATOM     19  N   UNL A   1      32.251  18.194  23.099  1.00  0.00    -0.088 NA
ATOM     20  N   UNL A   1      33.167  17.366  22.947  1.00  0.00     0.001 N 
ATOM     21  N   UNL A   1      33.991  16.594  22.829  1.00  0.00    -0.003 NA
ENDBRANCH  18  19
ENDBRANCH  17  18
ENDBRANCH  14  17
ENDBRANCH   5  14
ENDBRANCH   3   5
ENDBRANCH   2   3
ENDBRANCH   1   2
BRANCH   1  22
ATOM     22  C   UNL A   1      37.304  20.031  25.024  1.00  0.00     0.275 C 
BRANCH  22  23
ATOM     23  O   UNL A   1      38.034  21.240  25.321  1.00  0.00    -0.458 OA
BRANCH  23  24
ATOM     24  C   UNL A   1      39.164  21.068  26.045  1.00  0.00     0.338 C 
ATOM     25  O   UNL A   1      39.757  20.015  26.219  1.00  0.00    -0.246 OA
BRANCH  24  26
ATOM     26  C   UNL A   1      39.671  22.335  26.620  1.00  0.00     0.060 A 
ATOM     27  C   UNL A   1      39.210  23.572  26.178  1.00  0.00     0.016 A 
ATOM     28  C   UNL A   1      40.792  22.291  27.446  1.00  0.00     0.016 A 
ATOM     29  C   UNL A   1      39.899  24.744  26.485  1.00  0.00     0.010 A 
ATOM     30  C   UNL A   1      41.423  23.480  27.840  1.00  0.00     0.010 A 
ATOM     31  C   UNL A   1      40.996  24.724  27.347  1.00  0.00    -0.014 A 
BRANCH  31  32
ATOM     32  C   UNL A   1      41.668  25.994  27.732  1.00  0.00     0.031 A 
ATOM     33  C   UNL A   1      40.982  26.989  28.630  1.00  0.00     0.074 A 
ATOM     34  C   UNL A   1      42.903  26.268  27.263  1.00  0.00     0.049 A 
ATOM     35  N   UNL A   1      41.310  28.232  28.885  1.00  0.00    -0.248 NA
ATOM     36  C   UNL A   1      39.767  26.535  29.323  1.00  0.00     0.031 C 
ATOM     37  C   UNL A   1      43.725  25.368  26.445  1.00  0.00     0.029 A 
ATOM     38  N   UNL A   1      43.686  27.388  27.400  1.00  0.00    -0.354 N 
ATOM     39  C   UNL A   1      40.313  28.725  29.720  1.00  0.00     0.074 A 
ATOM     40  C   UNL A   1      39.368  27.648  29.927  1.00  0.00     0.031 C 
ATOM     41  C   UNL A   1      44.898  25.959  26.180  1.00  0.00     0.029 A 
ATOM     42  C   UNL A   1      44.866  27.317  26.700  1.00  0.00     0.049 A 
ATOM     43  H   UNL A   1      43.426  28.166  27.946  1.00  0.00     0.167 HD
ATOM     44  C   UNL A   1      40.194  29.966  30.252  1.00  0.00     0.031 A 
ATOM     45  C   UNL A   1      45.795  28.253  26.438  1.00  0.00     0.031 A 
ATOM     46  C   UNL A   1      41.151  31.027  30.055  1.00  0.00     0.049 A 
ATOM     47  C   UNL A   1      45.593  29.644  26.956  1.00  0.00     0.074 A 
ATOM     48  C   UNL A   1      41.126  32.316  30.563  1.00  0.00     0.029 A 
ATOM     49  N   UNL A   1      42.305  30.922  29.294  1.00  0.00    -0.354 N 
ATOM     50  N   UNL A   1      44.623  30.114  27.702  1.00  0.00    -0.248 NA
ATOM     51  C   UNL A   1      46.607  30.638  26.585  1.00  0.00     0.031 C 
ATOM     52  C   UNL A   1      42.227  33.010  30.052  1.00  0.00     0.029 A 
ATOM     53  C   UNL A   1      42.981  32.133  29.290  1.00  0.00     0.049 A 
ATOM     54  H   UNL A   1      42.602  30.109  28.825  1.00  0.00     0.167 HD
ATOM     55  C   UNL A   1      44.924  31.453  27.911  1.00  0.00     0.074 A 
ATOM     56  C   UNL A   1      46.177  31.712  27.231  1.00  0.00     0.031 C 
ATOM     57  C   UNL A   1      44.224  32.383  28.604  1.00  0.00     0.031 A 
BRANCH  44  58
ATOM     58  C   UNL A   1      38.956  30.273  31.053  1.00  0.00    -0.014 A 
ATOM     59  C   UNL A   1      37.781  30.750  30.453  1.00  0.00     0.009 A 
ATOM     60  C   UNL A   1      38.953  30.023  32.436  1.00  0.00     0.009 A 
ATOM     61  C   UNL A   1      36.643  31.004  31.225  1.00  0.00     0.001 A 
ATOM     62  C   UNL A   1      37.805  30.244  33.200  1.00  0.00     0.001 A 
ATOM     63  C   UNL A   1      36.654  30.744  32.596  1.00  0.00     0.000 A 
ENDBRANCH  44  58
BRANCH  45  64
ATOM     64  C   UNL A   1      46.964  27.916  25.580  1.00  0.00    -0.014 A 
ATOM     65  C   UNL A   1      46.850  27.925  24.183  1.00  0.00     0.009 A 
ATOM     66  C   UNL A   1      48.203  27.590  26.158  1.00  0.00     0.009 A 
ATOM     67  C   UNL A   1      47.948  27.596  23.383  1.00  0.00     0.001 A 
ATOM     68  C   UNL A   1      49.308  27.302  25.357  1.00  0.00     0.001 A 
ATOM     69  C   UNL A   1      49.177  27.294  23.971  1.00  0.00     0.000 A 
ENDBRANCH  45  64
BRANCH  57  70
ATOM     70  C   UNL A   1      44.825  33.758  28.700  1.00  0.00    -0.014 A 
ATOM     71  C   UNL A   1      45.731  34.093  29.719  1.00  0.00     0.009 A 
ATOM     72  C   UNL A   1      44.487  34.729  27.745  1.00  0.00     0.009 A 
ATOM     73  C   UNL A   1      46.253  35.385  29.802  1.00  0.00     0.001 A 
ATOM     74  C   UNL A   1      45.039  36.008  27.808  1.00  0.00     0.001 A 
ATOM     75  C   UNL A   1      45.911  36.340  28.843  1.00  0.00     0.000 A 
ENDBRANCH  57  70
ENDBRANCH  31  32
ENDBRANCH  24  26
ENDBRANCH  23  24
ENDBRANCH  22  23
ENDBRANCH   1  22
TORSDOF 15
ENDMDL
MODEL 3
REMARK VINA RESULT:      -9.9      4.650      9.402
REMARK SMILES CC1(C)C[C@@]([NH2+]CCN=[N+]=[N-])(C(=O)OCCOC(=O)c2ccc(-c3c4nc(c(-c5ccccc5)c5ccc([nH]5)c(-c5ccccc5)c5nc(c(-c6ccccc6)c6ccc3[nH]6)C=C5)C=C4)cc2)C(C)(C)O1
REMARK SMILES IDX 15 1 14 2 12 3 13 4 5 5 1 6 2 7 3 8 4 9 71 10 68 11 69 12
REMARK SMILES IDX 70 13 6 14 7 17 8 18 9 19 10 20 11 21 16 22 17 23 18 24
REMARK SMILES IDX 19 25 20 26 21 27 67 28 22 29 66 30 23 31 24 32 25 33 60 34
REMARK SMILES IDX 26 35 65 36 59 37 61 38 27 39 64 40 58 41 57 42 28 44 50 45
REMARK SMILES IDX 35 46 49 47 36 48 39 49 48 50 62 51 37 52 38 53 47 55 63 56
REMARK SMILES IDX 40 57 29 58 30 59 34 60 31 61 33 62 32 63 51 64 52 65 56 66
REMARK SMILES IDX 53 67 55 68 54 69 41 70 42 71 46 72 43 73 45 74 44 75
REMARK H PARENT 6 15 6 16 61 43 39 54
REMARK Flexibility Score: inf
ROOT
ATOM      1  C   UNL A   1      31.590  31.733  26.592  1.00  0.00     0.274 C 
ENDROOT
BRANCH   1   2
ATOM      2  O   UNL A   1      32.235  30.744  25.749  1.00  0.00    -0.457 OA
BRANCH   2   3
ATOM      3  C   UNL A   1      31.754  29.487  25.950  1.00  0.00     0.371 C 
ATOM      4  O   UNL A   1      31.406  29.126  27.073  1.00  0.00    -0.245 OA
BRANCH   3   5
ATOM      5  C   UNL A   1      31.777  28.521  24.706  1.00  0.00     0.225 C 
ATOM      6  C   UNL A   1      31.135  24.815  24.681  1.00  0.00     0.042 C 
ATOM      7  C   UNL A   1      31.411  26.186  24.064  1.00  0.00     0.070 C 
ATOM      8  C   UNL A   1      30.957  26.172  22.600  1.00  0.00     0.042 C 
ATOM      9  C   UNL A   1      30.834  27.322  24.908  1.00  0.00     0.119 C 
ATOM     10  O   UNL A   1      32.821  26.376  24.079  1.00  0.00    -0.362 OA
ATOM     11  C   UNL A   1      33.149  27.751  24.427  1.00  0.00     0.129 C 
ATOM     12  C   UNL A   1      34.099  27.598  25.619  1.00  0.00     0.050 C 
ATOM     13  C   UNL A   1      33.986  28.234  23.228  1.00  0.00     0.050 C 
BRANCH   5  14
ATOM     14  N   UNL A   1      31.357  29.325  23.492  1.00  0.00    -0.329 N 
ATOM     15  H   UNL A   1      31.568  28.764  22.667  1.00  0.00     0.347 HD
ATOM     16  H   UNL A   1      31.875  30.200  23.566  1.00  0.00     0.347 HD
BRANCH  14  17
ATOM     17  C   UNL A   1      29.942  29.728  23.405  1.00  0.00     0.267 C 
BRANCH  17  18
ATOM     18  C   UNL A   1      29.535  30.039  21.956  1.00  0.00     0.152 C 
BRANCH  18  19
ATOM     19  N   UNL A   1      28.255  30.757  21.929  1.00  0.00    -0.088 NA
ATOM     20  N   UNL A   1      28.311  31.973  22.184  1.00  0.00     0.001 N 
ATOM     21  N   UNL A   1      28.367  33.089  22.389  1.00  0.00    -0.003 NA
ENDBRANCH  18  19
ENDBRANCH  17  18
ENDBRANCH  14  17
ENDBRANCH   5  14
ENDBRANCH   3   5
ENDBRANCH   2   3
ENDBRANCH   1   2
BRANCH   1  22
ATOM     22  C   UNL A   1      32.563  32.539  27.467  1.00  0.00     0.275 C 
BRANCH  22  23
ATOM     23  O   UNL A   1      32.151  33.912  27.625  1.00  0.00    -0.458 OA
BRANCH  23  24
ATOM     24  C   UNL A   1      32.879  34.635  28.507  1.00  0.00     0.338 C 
ATOM     25  O   UNL A   1      32.603  35.746  28.931  1.00  0.00    -0.246 OA
BRANCH  24  26
ATOM     26  C   UNL A   1      34.092  33.922  28.965  1.00  0.00     0.060 A 
ATOM     27  C   UNL A   1      34.045  32.997  30.006  1.00  0.00     0.016 A 
ATOM     28  C   UNL A   1      35.334  34.355  28.507  1.00  0.00     0.016 A 
ATOM     29  C   UNL A   1      35.211  32.569  30.637  1.00  0.00     0.010 A 
ATOM     30  C   UNL A   1      36.511  33.843  29.074  1.00  0.00     0.010 A 
ATOM     31  C   UNL A   1      36.465  32.958  30.162  1.00  0.00    -0.014 A 
BRANCH  31  32
ATOM     32  C   UNL A   1      37.702  32.424  30.795  1.00  0.00     0.031 A 
ATOM     33  C   UNL A   1      38.443  31.264  30.185  1.00  0.00     0.074 A 
ATOM     34  C   UNL A   1      38.163  32.977  31.936  1.00  0.00     0.049 A 
ATOM     35  N   UNL A   1      39.393  30.527  30.705  1.00  0.00    -0.248 NA
ATOM     36  C   UNL A   1      38.062  30.874  28.819  1.00  0.00     0.031 C 
ATOM     37  C   UNL A   1      37.596  34.154  32.605  1.00  0.00     0.029 A 
ATOM     38  N   UNL A   1      39.213  32.618  32.744  1.00  0.00    -0.354 N 
ATOM     39  C   UNL A   1      39.682  29.553  29.757  1.00  0.00     0.074 A 
ATOM     40  C   UNL A   1      38.806  29.791  28.629  1.00  0.00     0.031 C 
ATOM     41  C   UNL A   1      38.318  34.432  33.698  1.00  0.00     0.029 A 
ATOM     42  C   UNL A   1      39.318  33.391  33.876  1.00  0.00     0.049 A 
ATOM     43  H   UNL A   1      39.830  31.879  32.534  1.00  0.00     0.167 HD
ATOM     44  C   UNL A   1      40.587  28.547  29.829  1.00  0.00     0.031 A 
ATOM     45  C   UNL A   1      40.079  33.248  34.976  1.00  0.00     0.031 A 
ATOM     46  C   UNL A   1      41.469  28.328  30.948  1.00  0.00     0.049 A 
ATOM     47  C   UNL A   1      41.003  32.072  35.074  1.00  0.00     0.074 A 
ATOM     48  C   UNL A   1      42.430  27.343  31.111  1.00  0.00     0.029 A 
ATOM     49  N   UNL A   1      41.501  29.107  32.096  1.00  0.00    -0.354 N 
ATOM     50  N   UNL A   1      41.234  31.128  34.194  1.00  0.00    -0.248 NA
ATOM     51  C   UNL A   1      41.761  31.934  36.323  1.00  0.00     0.031 C 
ATOM     52  C   UNL A   1      42.993  27.485  32.383  1.00  0.00     0.029 A 
ATOM     53  C   UNL A   1      42.440  28.604  32.983  1.00  0.00     0.049 A 
ATOM     54  H   UNL A   1      40.940  29.900  32.257  1.00  0.00     0.167 HD
ATOM     55  C   UNL A   1      42.184  30.298  34.773  1.00  0.00     0.074 A 
ATOM     56  C   UNL A   1      42.499  30.863  36.069  1.00  0.00     0.031 C 
ATOM     57  C   UNL A   1      42.743  29.169  34.274  1.00  0.00     0.031 A 
BRANCH  44  58
ATOM     58  C   UNL A   1      40.636  27.561  28.691  1.00  0.00    -0.014 A 
ATOM     59  C   UNL A   1      41.498  27.729  27.597  1.00  0.00     0.009 A 
ATOM     60  C   UNL A   1      39.836  26.406  28.747  1.00  0.00     0.009 A 
ATOM     61  C   UNL A   1      41.531  26.782  26.569  1.00  0.00     0.001 A 
ATOM     62  C   UNL A   1      39.896  25.444  27.737  1.00  0.00     0.001 A 
ATOM     63  C   UNL A   1      40.737  25.638  26.643  1.00  0.00     0.000 A 
ENDBRANCH  44  58
BRANCH  45  64
ATOM     64  C   UNL A   1      39.940  34.210  36.102  1.00  0.00    -0.014 A 
ATOM     65  C   UNL A   1      40.677  35.403  36.119  1.00  0.00     0.009 A 
ATOM     66  C   UNL A   1      39.062  33.941  37.166  1.00  0.00     0.009 A 
ATOM     67  C   UNL A   1      40.550  36.296  37.186  1.00  0.00     0.001 A 
ATOM     68  C   UNL A   1      38.907  34.853  38.211  1.00  0.00     0.001 A 
ATOM     69  C   UNL A   1      39.660  36.024  38.225  1.00  0.00     0.000 A 
ENDBRANCH  45  64
BRANCH  57  70
ATOM     70  C   UNL A   1      43.791  28.497  35.117  1.00  0.00    -0.014 A 
ATOM     71  C   UNL A   1      45.149  28.836  35.008  1.00  0.00     0.009 A 
ATOM     72  C   UNL A   1      43.407  27.517  36.045  1.00  0.00     0.009 A 
ATOM     73  C   UNL A   1      46.105  28.176  35.782  1.00  0.00     0.001 A 
ATOM     74  C   UNL A   1      44.361  26.886  36.845  1.00  0.00     0.001 A 
ATOM     75  C   UNL A   1      45.709  27.206  36.704  1.00  0.00     0.000 A 
ENDBRANCH  57  70
ENDBRANCH  31  32
ENDBRANCH  24  26
ENDBRANCH  23  24
ENDBRANCH  22  23
ENDBRANCH   1  22
TORSDOF 15
ENDMDL
