MODEL 1
REMARK VINA RESULT:     -12.5      0.000      0.000
REMARK SMILES O=C(OCCOC(=O)c1ccc(-c2c3nc(c(-c4ccccc4)c4ccc([nH]4)c(-c4ccccc4)c4nc(c(-c5ccccc5)c5ccc2[nH]5)C=C4)C=C3)cc1)c1ccc(C[N@@H+]2CCC[C@H]2c2nc(-c3ccc(-c4cncnc4)nc3)no2)cc1
REMARK SMILES IDX 3 1 2 2 1 3 57 4 58 5 85 6 59 7 84 8 60 9 61 10 62 11 63 12
REMARK SMILES IDX 66 13 64 15 65 16 67 17 68 18 83 19 69 20 82 21 70 22 71 23
REMARK SMILES IDX 81 24 72 25 80 26 73 27 74 28 75 29 79 30 76 31 78 32 77 33
REMARK SMILES IDX 4 34 5 35 6 36 7 37 8 38 9 39 10 40 56 41 11 42 55 43 12 44
REMARK SMILES IDX 13 45 14 46 49 47 15 48 54 49 48 50 50 51 16 52 53 53 47 54
REMARK SMILES IDX 46 55 17 57 39 58 24 59 38 60 25 61 28 62 37 63 51 64 26 65
REMARK SMILES IDX 27 66 36 68 52 69 29 70 18 71 19 72 23 73 20 74 22 75 21 76
REMARK SMILES IDX 40 77 41 78 45 79 42 80 44 81 43 82 30 83 31 84 35 85 32 86
REMARK SMILES IDX 34 87 33 88
REMARK H PARENT 62 14 50 56 28 67
REMARK Flexibility Score: inf
ROOT
ATOM      1  O   UNL A   1      33.338  34.094  29.212  1.00  0.00    -0.458 OA
ENDROOT
BRANCH   1   2
ATOM      2  C   UNL A   1      33.978  33.418  28.229  1.00  0.00     0.338 C 
ATOM      3  O   UNL A   1      34.988  33.917  27.735  1.00  0.00    -0.246 OA
BRANCH   2   4
ATOM      4  C   UNL A   1      33.471  32.140  27.625  1.00  0.00     0.060 A 
ATOM      5  C   UNL A   1      34.078  30.894  27.742  1.00  0.00     0.016 A 
ATOM      6  C   UNL A   1      32.237  32.186  26.954  1.00  0.00     0.016 A 
ATOM      7  C   UNL A   1      33.472  29.733  27.273  1.00  0.00     0.010 A 
ATOM      8  C   UNL A   1      31.664  31.033  26.400  1.00  0.00     0.010 A 
ATOM      9  C   UNL A   1      32.293  29.792  26.544  1.00  0.00     0.006 A 
BRANCH   9  10
ATOM     10  C   UNL A   1      31.805  28.555  25.831  1.00  0.00     0.299 C 
BRANCH  10  11
ATOM     11  N   UNL A   1      32.845  27.806  25.110  1.00  0.00    -0.321 N 
ATOM     12  C   UNL A   1      33.866  28.603  24.428  1.00  0.00     0.263 C 
ATOM     13  C   UNL A   1      32.320  26.845  24.124  1.00  0.00     0.275 C 
ATOM     14  H   UNL A   1      33.286  27.320  25.891  1.00  0.00     0.349 HD
ATOM     15  C   UNL A   1      33.578  28.553  22.931  1.00  0.00     0.068 C 
ATOM     16  C   UNL A   1      32.511  27.487  22.747  1.00  0.00     0.081 C 
BRANCH  13  17
ATOM     17  C   UNL A   1      33.037  25.540  24.197  1.00  0.00     0.285 A 
ATOM     18  N   UNL A   1      32.606  24.314  23.988  1.00  0.00    -0.186 NA
ATOM     19  O   UNL A   1      34.326  25.598  24.637  1.00  0.00    -0.332 OA
ATOM     20  C   UNL A   1      33.693  23.569  24.362  1.00  0.00     0.204 A 
ATOM     21  N   UNL A   1      34.756  24.284  24.762  1.00  0.00    -0.057 NA
BRANCH  20  22
ATOM     22  C   UNL A   1      33.659  22.132  24.411  1.00  0.00     0.041 A 
ATOM     23  C   UNL A   1      32.524  21.438  23.993  1.00  0.00     0.016 A 
ATOM     24  C   UNL A   1      34.736  21.399  24.881  1.00  0.00     0.123 A 
ATOM     25  C   UNL A   1      32.502  20.052  24.080  1.00  0.00     0.030 A 
ATOM     26  N   UNL A   1      34.728  20.048  25.004  1.00  0.00    -0.255 NA
ATOM     27  C   UNL A   1      33.611  19.390  24.604  1.00  0.00     0.073 A 
BRANCH  27  28
ATOM     28  C   UNL A   1      33.607  17.951  24.809  1.00  0.00     0.037 A 
ATOM     29  C   UNL A   1      32.531  17.260  25.335  1.00  0.00     0.124 A 
ATOM     30  C   UNL A   1      34.710  17.162  24.540  1.00  0.00     0.124 A 
ATOM     31  N   UNL A   1      32.532  15.937  25.607  1.00  0.00    -0.244 NA
ATOM     32  N   UNL A   1      34.777  15.836  24.793  1.00  0.00    -0.244 NA
ATOM     33  C   UNL A   1      33.672  15.290  25.320  1.00  0.00     0.221 A 
ENDBRANCH  27  28
ENDBRANCH  20  22
ENDBRANCH  13  17
ENDBRANCH  10  11
ENDBRANCH   9  10
ENDBRANCH   2   4
ENDBRANCH   1   2
BRANCH   1  34
ATOM     34  C   UNL A   1      33.857  35.056  30.151  1.00  0.00     0.275 C 
BRANCH  34  35
ATOM     35  C   UNL A   1      34.026  34.440  31.553  1.00  0.00     0.275 C 
BRANCH  35  36
ATOM     36  O   UNL A   1      34.392  33.045  31.494  1.00  0.00    -0.458 OA
BRANCH  36  37
ATOM     37  C   UNL A   1      35.331  32.637  32.389  1.00  0.00     0.338 C 
ATOM     38  O   UNL A   1      35.239  32.699  33.604  1.00  0.00    -0.246 OA
BRANCH  37  39
ATOM     39  C   UNL A   1      36.438  31.930  31.687  1.00  0.00     0.060 A 
ATOM     40  C   UNL A   1      37.336  31.184  32.464  1.00  0.00     0.016 A 
ATOM     41  C   UNL A   1      36.583  31.939  30.296  1.00  0.00     0.016 A 
ATOM     42  C   UNL A   1      38.390  30.483  31.864  1.00  0.00     0.010 A 
ATOM     43  C   UNL A   1      37.620  31.209  29.693  1.00  0.00     0.010 A 
ATOM     44  C   UNL A   1      38.557  30.505  30.473  1.00  0.00    -0.014 A 
BRANCH  44  45
ATOM     45  C   UNL A   1      39.796  29.960  29.845  1.00  0.00     0.031 A 
ATOM     46  C   UNL A   1      41.008  30.852  29.747  1.00  0.00     0.074 A 
ATOM     47  C   UNL A   1      39.885  28.702  29.369  1.00  0.00     0.049 A 
ATOM     48  N   UNL A   1      42.182  30.610  29.218  1.00  0.00    -0.248 NA
ATOM     49  C   UNL A   1      40.873  32.202  30.319  1.00  0.00     0.031 C 
ATOM     50  C   UNL A   1      38.830  27.694  29.420  1.00  0.00     0.029 A 
ATOM     51  N   UNL A   1      40.928  28.058  28.740  1.00  0.00    -0.354 N 
ATOM     52  C   UNL A   1      42.916  31.777  29.386  1.00  0.00     0.074 A 
ATOM     53  C   UNL A   1      42.042  32.742  30.016  1.00  0.00     0.031 C 
ATOM     54  C   UNL A   1      39.269  26.566  28.833  1.00  0.00     0.029 A 
ATOM     55  C   UNL A   1      40.637  26.772  28.356  1.00  0.00     0.049 A 
ATOM     56  H   UNL A   1      41.801  28.483  28.580  1.00  0.00     0.167 HD
ATOM     57  C   UNL A   1      44.210  32.028  29.074  1.00  0.00     0.031 A 
ATOM     58  C   UNL A   1      41.382  25.860  27.697  1.00  0.00     0.031 A 
ATOM     59  C   UNL A   1      45.107  31.089  28.462  1.00  0.00     0.049 A 
ATOM     60  C   UNL A   1      42.798  26.184  27.291  1.00  0.00     0.074 A 
ATOM     61  C   UNL A   1      46.444  31.258  28.145  1.00  0.00     0.029 A 
ATOM     62  N   UNL A   1      44.761  29.808  28.070  1.00  0.00    -0.354 N 
ATOM     63  N   UNL A   1      43.492  27.275  27.504  1.00  0.00    -0.248 NA
ATOM     64  C   UNL A   1      43.540  25.135  26.570  1.00  0.00     0.031 C 
ATOM     65  C   UNL A   1      46.896  30.092  27.519  1.00  0.00     0.029 A 
ATOM     66  C   UNL A   1      45.852  29.183  27.491  1.00  0.00     0.049 A 
ATOM     67  H   UNL A   1      43.871  29.402  28.185  1.00  0.00     0.167 HD
ATOM     68  C   UNL A   1      44.758  27.027  26.984  1.00  0.00     0.074 A 
ATOM     69  C   UNL A   1      44.740  25.686  26.444  1.00  0.00     0.031 C 
ATOM     70  C   UNL A   1      45.841  27.841  26.969  1.00  0.00     0.031 A 
BRANCH  57  71
ATOM     71  C   UNL A   1      44.722  33.404  29.384  1.00  0.00    -0.014 A 
ATOM     72  C   UNL A   1      44.512  34.472  28.498  1.00  0.00     0.009 A 
ATOM     73  C   UNL A   1      45.427  33.632  30.575  1.00  0.00     0.009 A 
ATOM     74  C   UNL A   1      45.041  35.732  28.776  1.00  0.00     0.001 A 
ATOM     75  C   UNL A   1      45.930  34.900  30.864  1.00  0.00     0.001 A 
ATOM     76  C   UNL A   1      45.747  35.945  29.960  1.00  0.00     0.000 A 
ENDBRANCH  57  71
BRANCH  58  77
ATOM     77  C   UNL A   1      40.815  24.524  27.370  1.00  0.00    -0.014 A 
ATOM     78  C   UNL A   1      39.720  24.408  26.503  1.00  0.00     0.009 A 
ATOM     79  C   UNL A   1      41.334  23.367  27.970  1.00  0.00     0.009 A 
ATOM     80  C   UNL A   1      39.134  23.161  26.266  1.00  0.00     0.001 A 
ATOM     81  C   UNL A   1      40.762  22.119  27.713  1.00  0.00     0.001 A 
ATOM     82  C   UNL A   1      39.656  22.019  26.869  1.00  0.00     0.000 A 
ENDBRANCH  58  77
BRANCH  70  83
ATOM     83  C   UNL A   1      47.124  27.301  26.403  1.00  0.00    -0.014 A 
ATOM     84  C   UNL A   1      48.070  26.654  27.213  1.00  0.00     0.009 A 
ATOM     85  C   UNL A   1      47.355  27.375  25.019  1.00  0.00     0.009 A 
ATOM     86  C   UNL A   1      49.228  26.111  26.651  1.00  0.00     0.001 A 
ATOM     87  C   UNL A   1      48.501  26.811  24.457  1.00  0.00     0.001 A 
ATOM     88  C   UNL A   1      49.440  26.183  25.274  1.00  0.00     0.000 A 
ENDBRANCH  70  83
ENDBRANCH  44  45
ENDBRANCH  37  39
ENDBRANCH  36  37
ENDBRANCH  35  36
ENDBRANCH  34  35
ENDBRANCH   1  34
TORSDOF 16
ENDMDL
MODEL 2
REMARK VINA RESULT:     -12.2      3.821      7.738
REMARK SMILES O=C(OCCOC(=O)c1ccc(-c2c3nc(c(-c4ccccc4)c4ccc([nH]4)c(-c4ccccc4)c4nc(c(-c5ccccc5)c5ccc2[nH]5)C=C4)C=C3)cc1)c1ccc(C[N@@H+]2CCC[C@H]2c2nc(-c3ccc(-c4cncnc4)nc3)no2)cc1
REMARK SMILES IDX 3 1 2 2 1 3 57 4 58 5 85 6 59 7 84 8 60 9 61 10 62 11 63 12
REMARK SMILES IDX 66 13 64 15 65 16 67 17 68 18 83 19 69 20 82 21 70 22 71 23
REMARK SMILES IDX 81 24 72 25 80 26 73 27 74 28 75 29 79 30 76 31 78 32 77 33
REMARK SMILES IDX 4 34 5 35 6 36 7 37 8 38 9 39 10 40 56 41 11 42 55 43 12 44
REMARK SMILES IDX 13 45 14 46 49 47 15 48 54 49 48 50 50 51 16 52 53 53 47 54
REMARK SMILES IDX 46 55 17 57 39 58 24 59 38 60 25 61 28 62 37 63 51 64 26 65
REMARK SMILES IDX 27 66 36 68 52 69 29 70 18 71 19 72 23 73 20 74 22 75 21 76
REMARK SMILES IDX 40 77 41 78 45 79 42 80 44 81 43 82 30 83 31 84 35 85 32 86
REMARK SMILES IDX 34 87 33 88
REMARK H PARENT 62 14 50 56 28 67
REMARK Flexibility Score: inf
ROOT
ATOM      1  O   UNL A   1      30.925  30.481  25.239  1.00  0.00    -0.458 OA
ENDROOT
BRANCH   1   2
ATOM      2  C   UNL A   1      30.936  29.404  24.419  1.00  0.00     0.338 C 
ATOM      3  O   UNL A   1      30.524  29.539  23.267  1.00  0.00    -0.246 OA
BRANCH   2   4
ATOM      4  C   UNL A   1      31.320  28.021  24.860  1.00  0.00     0.060 A 
ATOM      5  C   UNL A   1      32.446  27.695  25.608  1.00  0.00     0.016 A 
ATOM      6  C   UNL A   1      30.426  26.976  24.564  1.00  0.00     0.016 A 
ATOM      7  C   UNL A   1      32.657  26.410  26.097  1.00  0.00     0.010 A 
ATOM      8  C   UNL A   1      30.680  25.662  24.978  1.00  0.00     0.010 A 
ATOM      9  C   UNL A   1      31.815  25.366  25.739  1.00  0.00     0.006 A 
BRANCH   9  10
ATOM     10  C   UNL A   1      32.218  23.949  26.068  1.00  0.00     0.299 C 
BRANCH  10  11
ATOM     11  N   UNL A   1      33.354  23.433  25.292  1.00  0.00    -0.321 N 
ATOM     12  C   UNL A   1      33.083  23.083  23.896  1.00  0.00     0.263 C 
ATOM     13  C   UNL A   1      34.023  22.271  25.903  1.00  0.00     0.275 C 
ATOM     14  H   UNL A   1      33.964  24.251  25.305  1.00  0.00     0.349 HD
ATOM     15  C   UNL A   1      33.040  21.563  23.792  1.00  0.00     0.068 C 
ATOM     16  C   UNL A   1      33.555  21.039  25.123  1.00  0.00     0.081 C 
BRANCH  13  17
ATOM     17  C   UNL A   1      35.507  22.398  25.840  1.00  0.00     0.285 A 
ATOM     18  N   UNL A   1      36.440  21.477  25.732  1.00  0.00    -0.186 NA
ATOM     19  O   UNL A   1      36.000  23.657  26.010  1.00  0.00    -0.332 OA
ATOM     20  C   UNL A   1      37.583  22.218  25.885  1.00  0.00     0.204 A 
ATOM     21  N   UNL A   1      37.382  23.533  26.056  1.00  0.00    -0.057 NA
BRANCH  20  22
ATOM     22  C   UNL A   1      38.887  21.615  25.949  1.00  0.00     0.041 A 
ATOM     23  C   UNL A   1      39.981  22.346  26.409  1.00  0.00     0.016 A 
ATOM     24  C   UNL A   1      39.098  20.306  25.549  1.00  0.00     0.123 A 
ATOM     25  C   UNL A   1      41.237  21.753  26.431  1.00  0.00     0.030 A 
ATOM     26  N   UNL A   1      40.318  19.713  25.533  1.00  0.00    -0.255 NA
ATOM     27  C   UNL A   1      41.374  20.444  25.971  1.00  0.00     0.073 A 
BRANCH  27  28
ATOM     28  C   UNL A   1      42.677  19.806  25.881  1.00  0.00     0.037 A 
ATOM     29  C   UNL A   1      43.780  20.408  25.305  1.00  0.00     0.124 A 
ATOM     30  C   UNL A   1      42.901  18.514  26.319  1.00  0.00     0.124 A 
ATOM     31  N   UNL A   1      44.978  19.807  25.139  1.00  0.00    -0.244 NA
ATOM     32  N   UNL A   1      44.072  17.855  26.179  1.00  0.00    -0.244 NA
ATOM     33  C   UNL A   1      45.058  18.546  25.588  1.00  0.00     0.221 A 
ENDBRANCH  27  28
ENDBRANCH  20  22
ENDBRANCH  13  17
ENDBRANCH  10  11
ENDBRANCH   9  10
ENDBRANCH   2   4
ENDBRANCH   1   2
BRANCH   1  34
ATOM     34  C   UNL A   1      31.770  30.783  26.368  1.00  0.00     0.275 C 
BRANCH  34  35
ATOM     35  C   UNL A   1      31.513  32.205  26.900  1.00  0.00     0.275 C 
BRANCH  35  36
ATOM     36  O   UNL A   1      32.667  33.060  26.751  1.00  0.00    -0.458 OA
BRANCH  36  37
ATOM     37  C   UNL A   1      33.036  33.761  27.855  1.00  0.00     0.338 C 
ATOM     38  O   UNL A   1      32.388  34.642  28.395  1.00  0.00    -0.246 OA
BRANCH  37  39
ATOM     39  C   UNL A   1      34.280  33.185  28.439  1.00  0.00     0.060 A 
ATOM     40  C   UNL A   1      34.294  31.814  28.728  1.00  0.00     0.016 A 
ATOM     41  C   UNL A   1      35.436  33.942  28.657  1.00  0.00     0.016 A 
ATOM     42  C   UNL A   1      35.439  31.207  29.264  1.00  0.00     0.010 A 
ATOM     43  C   UNL A   1      36.593  33.327  29.163  1.00  0.00     0.010 A 
ATOM     44  C   UNL A   1      36.594  31.962  29.508  1.00  0.00    -0.014 A 
BRANCH  44  45
ATOM     45  C   UNL A   1      37.730  31.386  30.285  1.00  0.00     0.031 A 
ATOM     46  C   UNL A   1      38.663  30.424  29.593  1.00  0.00     0.074 A 
ATOM     47  C   UNL A   1      37.967  31.695  31.575  1.00  0.00     0.049 A 
ATOM     48  N   UNL A   1      39.696  29.775  30.070  1.00  0.00    -0.248 NA
ATOM     49  C   UNL A   1      38.385  30.152  28.174  1.00  0.00     0.031 C 
ATOM     50  C   UNL A   1      37.197  32.636  32.383  1.00  0.00     0.029 A 
ATOM     51  N   UNL A   1      38.940  31.237  32.437  1.00  0.00    -0.354 N 
ATOM     52  C   UNL A   1      40.183  29.017  29.013  1.00  0.00     0.074 A 
ATOM     53  C   UNL A   1      39.302  29.242  27.888  1.00  0.00     0.031 C 
ATOM     54  C   UNL A   1      37.712  32.674  33.626  1.00  0.00     0.029 A 
ATOM     55  C   UNL A   1      38.846  31.754  33.707  1.00  0.00     0.049 A 
ATOM     56  H   UNL A   1      39.636  30.596  32.168  1.00  0.00     0.167 HD
ATOM     57  C   UNL A   1      41.278  28.221  28.961  1.00  0.00     0.031 A 
ATOM     58  C   UNL A   1      39.586  31.518  34.810  1.00  0.00     0.031 A 
ATOM     59  C   UNL A   1      42.178  27.988  30.055  1.00  0.00     0.049 A 
ATOM     60  C   UNL A   1      40.759  30.571  34.752  1.00  0.00     0.074 A 
ATOM     61  C   UNL A   1      43.331  27.220  30.070  1.00  0.00     0.029 A 
ATOM     62  N   UNL A   1      42.030  28.514  31.325  1.00  0.00    -0.354 N 
ATOM     63  N   UNL A   1      41.233  29.902  33.730  1.00  0.00    -0.248 NA
ATOM     64  C   UNL A   1      41.510  30.365  36.003  1.00  0.00     0.031 C 
ATOM     65  C   UNL A   1      43.856  27.246  31.366  1.00  0.00     0.029 A 
ATOM     66  C   UNL A   1      43.056  28.068  32.141  1.00  0.00     0.049 A 
ATOM     67  H   UNL A   1      41.303  29.115  31.608  1.00  0.00     0.167 HD
ATOM     68  C   UNL A   1      42.359  29.234  34.204  1.00  0.00     0.074 A 
ATOM     69  C   UNL A   1      42.497  29.575  35.602  1.00  0.00     0.031 C 
ATOM     70  C   UNL A   1      43.206  28.420  33.529  1.00  0.00     0.031 A 
BRANCH  57  71
ATOM     71  C   UNL A   1      41.543  27.527  27.658  1.00  0.00    -0.014 A 
ATOM     72  C   UNL A   1      42.336  28.125  26.666  1.00  0.00     0.009 A 
ATOM     73  C   UNL A   1      40.989  26.261  27.419  1.00  0.00     0.009 A 
ATOM     74  C   UNL A   1      42.528  27.490  25.439  1.00  0.00     0.001 A 
ATOM     75  C   UNL A   1      41.207  25.615  26.202  1.00  0.00     0.001 A 
ATOM     76  C   UNL A   1      41.965  26.234  25.210  1.00  0.00     0.000 A 
ENDBRANCH  57  71
BRANCH  58  77
ATOM     77  C   UNL A   1      39.257  32.196  36.092  1.00  0.00    -0.014 A 
ATOM     78  C   UNL A   1      38.270  31.673  36.941  1.00  0.00     0.009 A 
ATOM     79  C   UNL A   1      39.888  33.398  36.443  1.00  0.00     0.009 A 
ATOM     80  C   UNL A   1      37.900  32.358  38.102  1.00  0.00     0.001 A 
ATOM     81  C   UNL A   1      39.534  34.068  37.616  1.00  0.00     0.001 A 
ATOM     82  C   UNL A   1      38.534  33.553  38.439  1.00  0.00     0.000 A 
ENDBRANCH  58  77
BRANCH  70  83
ATOM     83  C   UNL A   1      44.398  27.875  34.264  1.00  0.00    -0.014 A 
ATOM     84  C   UNL A   1      45.604  28.589  34.339  1.00  0.00     0.009 A 
ATOM     85  C   UNL A   1      44.286  26.658  34.957  1.00  0.00     0.009 A 
ATOM     86  C   UNL A   1      46.678  28.084  35.077  1.00  0.00     0.001 A 
ATOM     87  C   UNL A   1      45.353  26.168  35.712  1.00  0.00     0.001 A 
ATOM     88  C   UNL A   1      46.550  26.879  35.768  1.00  0.00     0.000 A 
ENDBRANCH  70  83
ENDBRANCH  44  45
ENDBRANCH  37  39
ENDBRANCH  36  37
ENDBRANCH  35  36
ENDBRANCH  34  35
ENDBRANCH   1  34
TORSDOF 16
ENDMDL
MODEL 3
REMARK VINA RESULT:     -12.2      5.132      8.383
REMARK SMILES O=C(OCCOC(=O)c1ccc(-c2c3nc(c(-c4ccccc4)c4ccc([nH]4)c(-c4ccccc4)c4nc(c(-c5ccccc5)c5ccc2[nH]5)C=C4)C=C3)cc1)c1ccc(C[N@@H+]2CCC[C@H]2c2nc(-c3ccc(-c4cncnc4)nc3)no2)cc1
REMARK SMILES IDX 3 1 2 2 1 3 57 4 58 5 85 6 59 7 84 8 60 9 61 10 62 11 63 12
REMARK SMILES IDX 66 13 64 15 65 16 67 17 68 18 83 19 69 20 82 21 70 22 71 23
REMARK SMILES IDX 81 24 72 25 80 26 73 27 74 28 75 29 79 30 76 31 78 32 77 33
REMARK SMILES IDX 4 34 5 35 6 36 7 37 8 38 9 39 10 40 56 41 11 42 55 43 12 44
REMARK SMILES IDX 13 45 14 46 49 47 15 48 54 49 48 50 50 51 16 52 53 53 47 54
REMARK SMILES IDX 46 55 17 57 39 58 24 59 38 60 25 61 28 62 37 63 51 64 26 65
REMARK SMILES IDX 27 66 36 68 52 69 29 70 18 71 19 72 23 73 20 74 22 75 21 76
REMARK SMILES IDX 40 77 41 78 45 79 42 80 44 81 43 82 30 83 31 84 35 85 32 86
REMARK SMILES IDX 34 87 33 88
REMARK H PARENT 62 14 50 56 28 67
REMARK Flexibility Score: inf
ROOT
ATOM      1  O   UNL A   1      33.323  34.230  30.077  1.00  0.00    -0.458 OA
ENDROOT
BRANCH   1   2
ATOM      2  C   UNL A   1      33.875  34.720  31.213  1.00  0.00     0.338 C 
ATOM      3  O   UNL A   1      33.306  35.646  31.790  1.00  0.00    -0.246 OA
BRANCH   2   4
ATOM      4  C   UNL A   1      35.201  34.273  31.758  1.00  0.00     0.060 A 
ATOM      5  C   UNL A   1      36.046  33.341  31.166  1.00  0.00     0.016 A 
ATOM      6  C   UNL A   1      35.669  34.909  32.922  1.00  0.00     0.016 A 
ATOM      7  C   UNL A   1      37.321  33.085  31.660  1.00  0.00     0.010 A 
ATOM      8  C   UNL A   1      36.917  34.590  33.475  1.00  0.00     0.010 A 
ATOM      9  C   UNL A   1      37.749  33.656  32.850  1.00  0.00     0.006 A 
BRANCH   9  10
ATOM     10  C   UNL A   1      39.023  33.159  33.488  1.00  0.00     0.299 C 
BRANCH  10  11
ATOM     11  N   UNL A   1      38.904  31.868  34.183  1.00  0.00    -0.321 N 
ATOM     12  C   UNL A   1      37.786  31.734  35.119  1.00  0.00     0.263 C 
ATOM     13  C   UNL A   1      40.121  31.460  34.907  1.00  0.00     0.275 C 
ATOM     14  H   UNL A   1      38.731  31.254  33.387  1.00  0.00     0.349 HD
ATOM     15  C   UNL A   1      38.347  31.812  36.535  1.00  0.00     0.068 C 
ATOM     16  C   UNL A   1      39.858  31.733  36.391  1.00  0.00     0.081 C 
BRANCH  13  17
ATOM     17  C   UNL A   1      40.430  30.019  34.687  1.00  0.00     0.285 A 
ATOM     18  N   UNL A   1      41.340  29.244  35.239  1.00  0.00    -0.186 NA
ATOM     19  O   UNL A   1      39.726  29.409  33.691  1.00  0.00    -0.332 OA
ATOM     20  C   UNL A   1      41.210  28.094  34.506  1.00  0.00     0.204 A 
ATOM     21  N   UNL A   1      40.258  28.133  33.561  1.00  0.00    -0.057 NA
BRANCH  20  22
ATOM     22  C   UNL A   1      42.091  26.971  34.677  1.00  0.00     0.041 A 
ATOM     23  C   UNL A   1      43.372  26.987  34.126  1.00  0.00     0.016 A 
ATOM     24  C   UNL A   1      41.696  25.842  35.376  1.00  0.00     0.123 A 
ATOM     25  C   UNL A   1      44.193  25.877  34.276  1.00  0.00     0.030 A 
ATOM     26  N   UNL A   1      42.467  24.734  35.511  1.00  0.00    -0.255 NA
ATOM     27  C   UNL A   1      43.705  24.763  34.958  1.00  0.00     0.073 A 
BRANCH  27  28
ATOM     28  C   UNL A   1      44.482  23.539  35.063  1.00  0.00     0.037 A 
ATOM     29  C   UNL A   1      44.914  23.013  36.266  1.00  0.00     0.124 A 
ATOM     30  C   UNL A   1      44.900  22.830  33.952  1.00  0.00     0.124 A 
ATOM     31  N   UNL A   1      45.702  21.922  36.384  1.00  0.00    -0.244 NA
ATOM     32  N   UNL A   1      45.692  21.736  34.001  1.00  0.00    -0.244 NA
ATOM     33  C   UNL A   1      46.055  21.338  35.229  1.00  0.00     0.221 A 
ENDBRANCH  27  28
ENDBRANCH  20  22
ENDBRANCH  13  17
ENDBRANCH  10  11
ENDBRANCH   9  10
ENDBRANCH   2   4
ENDBRANCH   1   2
BRANCH   1  34
ATOM     34  C   UNL A   1      33.723  34.427  28.706  1.00  0.00     0.275 C 
BRANCH  34  35
ATOM     35  C   UNL A   1      33.730  33.099  27.926  1.00  0.00     0.275 C 
BRANCH  35  36
ATOM     36  O   UNL A   1      34.074  31.975  28.765  1.00  0.00    -0.458 OA
BRANCH  36  37
ATOM     37  C   UNL A   1      34.428  30.834  28.118  1.00  0.00     0.338 C 
ATOM     38  O   UNL A   1      33.805  30.298  27.216  1.00  0.00    -0.246 OA
BRANCH  37  39
ATOM     39  C   UNL A   1      35.793  30.407  28.537  1.00  0.00     0.060 A 
ATOM     40  C   UNL A   1      36.850  30.621  27.642  1.00  0.00     0.016 A 
ATOM     41  C   UNL A   1      36.062  29.855  29.794  1.00  0.00     0.016 A 
ATOM     42  C   UNL A   1      38.160  30.256  27.981  1.00  0.00     0.010 A 
ATOM     43  C   UNL A   1      37.380  29.520  30.146  1.00  0.00     0.010 A 
ATOM     44  C   UNL A   1      38.436  29.681  29.229  1.00  0.00    -0.014 A 
BRANCH  44  45
ATOM     45  C   UNL A   1      39.772  29.080  29.513  1.00  0.00     0.031 A 
ATOM     46  C   UNL A   1      40.764  29.878  30.321  1.00  0.00     0.074 A 
ATOM     47  C   UNL A   1      40.129  27.852  29.088  1.00  0.00     0.049 A 
ATOM     48  N   UNL A   1      41.992  29.578  30.667  1.00  0.00    -0.248 NA
ATOM     49  C   UNL A   1      40.310  31.194  30.797  1.00  0.00     0.031 C 
ATOM     50  C   UNL A   1      39.284  26.930  28.335  1.00  0.00     0.029 A 
ATOM     51  N   UNL A   1      41.317  27.169  29.233  1.00  0.00    -0.354 N 
ATOM     52  C   UNL A   1      42.454  30.669  31.390  1.00  0.00     0.074 A 
ATOM     53  C   UNL A   1      41.399  31.658  31.388  1.00  0.00     0.031 C 
ATOM     54  C   UNL A   1      39.981  25.810  28.069  1.00  0.00     0.029 A 
ATOM     55  C   UNL A   1      41.328  25.937  28.626  1.00  0.00     0.049 A 
ATOM     56  H   UNL A   1      42.087  27.532  29.726  1.00  0.00     0.167 HD
ATOM     57  C   UNL A   1      43.638  30.836  32.027  1.00  0.00     0.031 A 
ATOM     58  C   UNL A   1      42.306  25.013  28.527  1.00  0.00     0.031 A 
ATOM     59  C   UNL A   1      44.699  29.870  32.060  1.00  0.00     0.049 A 
ATOM     60  C   UNL A   1      43.645  25.248  29.181  1.00  0.00     0.074 A 
ATOM     61  C   UNL A   1      45.917  29.953  32.713  1.00  0.00     0.029 A 
ATOM     62  N   UNL A   1      44.674  28.648  31.411  1.00  0.00    -0.354 N 
ATOM     63  N   UNL A   1      44.046  26.265  29.903  1.00  0.00    -0.248 NA
ATOM     64  C   UNL A   1      44.660  24.192  29.020  1.00  0.00     0.031 C 
ATOM     65  C   UNL A   1      46.649  28.797  32.422  1.00  0.00     0.029 A 
ATOM     66  C   UNL A   1      45.865  27.976  31.628  1.00  0.00     0.049 A 
ATOM     67  H   UNL A   1      43.921  28.307  30.875  1.00  0.00     0.167 HD
ATOM     68  C   UNL A   1      45.338  25.951  30.316  1.00  0.00     0.074 A 
ATOM     69  C   UNL A   1      45.655  24.653  29.764  1.00  0.00     0.031 C 
ATOM     70  C   UNL A   1      46.177  26.676  31.094  1.00  0.00     0.031 A 
BRANCH  57  71
ATOM     71  C   UNL A   1      43.844  32.145  32.732  1.00  0.00    -0.014 A 
ATOM     72  C   UNL A   1      43.524  32.293  34.092  1.00  0.00     0.009 A 
ATOM     73  C   UNL A   1      44.357  33.242  32.027  1.00  0.00     0.009 A 
ATOM     74  C   UNL A   1      43.671  33.530  34.718  1.00  0.00     0.001 A 
ATOM     75  C   UNL A   1      44.530  34.471  32.664  1.00  0.00     0.001 A 
ATOM     76  C   UNL A   1      44.175  34.617  34.004  1.00  0.00     0.000 A 
ENDBRANCH  57  71
BRANCH  58  77
ATOM     77  C   UNL A   1      42.071  23.750  27.778  1.00  0.00    -0.014 A 
ATOM     78  C   UNL A   1      42.428  23.646  26.425  1.00  0.00     0.009 A 
ATOM     79  C   UNL A   1      41.438  22.663  28.399  1.00  0.00     0.009 A 
ATOM     80  C   UNL A   1      42.127  22.491  25.700  1.00  0.00     0.001 A 
ATOM     81  C   UNL A   1      41.159  21.500  27.678  1.00  0.00     0.001 A 
ATOM     82  C   UNL A   1      41.495  21.418  26.327  1.00  0.00     0.000 A 
ENDBRANCH  58  77
BRANCH  70  83
ATOM     83  C   UNL A   1      47.506  26.073  31.454  1.00  0.00    -0.014 A 
ATOM     84  C   UNL A   1      47.709  25.422  32.680  1.00  0.00     0.009 A 
ATOM     85  C   UNL A   1      48.551  26.092  30.515  1.00  0.00     0.009 A 
ATOM     86  C   UNL A   1      48.938  24.820  32.965  1.00  0.00     0.001 A 
ATOM     87  C   UNL A   1      49.769  25.471  30.793  1.00  0.00     0.001 A 
ATOM     88  C   UNL A   1      49.964  24.838  32.020  1.00  0.00     0.000 A 
ENDBRANCH  70  83
ENDBRANCH  44  45
ENDBRANCH  37  39
ENDBRANCH  36  37
ENDBRANCH  35  36
ENDBRANCH  34  35
ENDBRANCH   1  34
TORSDOF 16
ENDMDL
