MODEL 1
REMARK VINA RESULT:      -9.0      0.000      0.000
REMARK SMILES COc1ccc(/C=C/c2cc(OC)cc(OC)c2/C=C/C(=O)OCCOC(=O)c2ccc(-c3c4nc(c(-c5ccccc5)c5ccc([nH]5)c(-c5ccccc5)c5nc(c(-c6ccccc6)c6ccc3[nH]6)C=C5)C=C4)cc2)cc1
REMARK SMILES IDX 24 1 23 2 21 3 22 4 20 5 19 6 18 7 9 8 10 9 11 10 15 11
REMARK SMILES IDX 14 12 8 13 7 14 6 15 3 16 4 17 78 18 5 19 77 20 2 21 1 22
REMARK SMILES IDX 12 23 13 24 16 25 17 26 25 27 26 28 27 29 28 30 29 31 30 32
REMARK SMILES IDX 76 33 31 34 75 35 32 36 33 37 34 38 69 39 35 40 74 41 68 42
REMARK SMILES IDX 70 43 36 44 73 45 67 46 66 47 37 49 59 50 44 51 58 52 45 53
REMARK SMILES IDX 48 54 57 55 71 56 46 57 47 58 56 60 72 61 49 62 38 63 39 64
REMARK SMILES IDX 43 65 40 66 42 67 41 68 60 69 61 70 65 71 62 72 64 73 63 74
REMARK SMILES IDX 50 75 51 76 55 77 52 78 54 79 53 80
REMARK H PARENT 70 48 48 59
REMARK Flexibility Score: inf
ROOT
ATOM      1  C   UNL A   1      45.238  19.621  25.075  1.00  0.00     0.275 C 
ENDROOT
BRANCH   1   2
ATOM      2  O   UNL A   1      45.171  21.004  25.477  1.00  0.00    -0.459 OA
BRANCH   2   3
ATOM      3  C   UNL A   1      46.018  21.854  24.847  1.00  0.00     0.330 C 
ATOM      4  O   UNL A   1      46.809  21.563  23.965  1.00  0.00    -0.247 OA
BRANCH   3   5
ATOM      5  C   UNL A   1      45.916  23.236  25.359  1.00  0.00     0.094 C 
ATOM      6  C   UNL A   1      46.320  24.326  24.689  1.00  0.00     0.020 C 
BRANCH   6   7
ATOM      7  C   UNL A   1      46.168  25.698  25.220  1.00  0.00     0.024 A 
ATOM      8  C   UNL A   1      47.325  26.443  25.548  1.00  0.00    -0.011 A 
ATOM      9  C   UNL A   1      47.199  27.738  26.083  1.00  0.00     0.055 A 
ATOM     10  C   UNL A   1      45.948  28.314  26.304  1.00  0.00     0.123 A 
ATOM     11  C   UNL A   1      44.912  26.302  25.443  1.00  0.00     0.130 A 
ATOM     12  C   UNL A   1      44.808  27.600  25.961  1.00  0.00     0.093 A 
BRANCH   8  13
ATOM     13  C   UNL A   1      48.695  25.921  25.399  1.00  0.00     0.009 C 
ATOM     14  C   UNL A   1      49.789  26.693  25.498  1.00  0.00     0.009 C 
BRANCH  14  15
ATOM     15  C   UNL A   1      51.165  26.212  25.298  1.00  0.00    -0.025 A 
ATOM     16  C   UNL A   1      53.780  25.210  24.980  1.00  0.00     0.118 A 
ATOM     17  C   UNL A   1      53.245  26.095  24.046  1.00  0.00     0.047 A 
ATOM     18  C   UNL A   1      53.018  24.835  26.085  1.00  0.00     0.047 A 
ATOM     19  C   UNL A   1      51.941  26.579  24.193  1.00  0.00     0.012 A 
ATOM     20  C   UNL A   1      51.716  25.329  26.238  1.00  0.00     0.012 A 
BRANCH  16  21
ATOM     21  O   UNL A   1      55.063  24.807  24.735  1.00  0.00    -0.497 OA
ATOM     22  C   UNL A   1      55.916  24.785  25.875  1.00  0.00     0.278 C 
ENDBRANCH  16  21
ENDBRANCH  14  15
ENDBRANCH   8  13
BRANCH  10  23
ATOM     23  O   UNL A   1      45.970  29.570  26.843  1.00  0.00    -0.497 OA
ATOM     24  C   UNL A   1      44.738  30.285  26.829  1.00  0.00     0.278 C 
ENDBRANCH  10  23
BRANCH  11  25
ATOM     25  O   UNL A   1      43.703  25.737  25.130  1.00  0.00    -0.496 OA
ATOM     26  C   UNL A   1      42.634  26.673  25.083  1.00  0.00     0.278 C 
ENDBRANCH  11  25
ENDBRANCH   6   7
ENDBRANCH   3   5
ENDBRANCH   2   3
ENDBRANCH   1   2
BRANCH   1  27
ATOM     27  C   UNL A   1      43.840  19.049  24.855  1.00  0.00     0.275 C 
BRANCH  27  28
ATOM     28  O   UNL A   1      43.096  19.076  26.087  1.00  0.00    -0.458 OA
BRANCH  28  29
ATOM     29  C   UNL A   1      41.855  19.589  26.000  1.00  0.00     0.338 C 
ATOM     30  O   UNL A   1      40.844  19.051  25.553  1.00  0.00    -0.246 OA
BRANCH  29  31
ATOM     31  C   UNL A   1      41.821  20.925  26.599  1.00  0.00     0.060 A 
ATOM     32  C   UNL A   1      42.012  22.023  25.766  1.00  0.00     0.016 A 
ATOM     33  C   UNL A   1      41.792  21.086  27.984  1.00  0.00     0.016 A 
ATOM     34  C   UNL A   1      42.306  23.268  26.320  1.00  0.00     0.010 A 
ATOM     35  C   UNL A   1      41.981  22.360  28.533  1.00  0.00     0.010 A 
ATOM     36  C   UNL A   1      42.293  23.460  27.712  1.00  0.00    -0.014 A 
BRANCH  36  37
ATOM     37  C   UNL A   1      42.651  24.787  28.299  1.00  0.00     0.031 A 
ATOM     38  C   UNL A   1      41.588  25.834  28.544  1.00  0.00     0.074 A 
ATOM     39  C   UNL A   1      43.923  25.063  28.650  1.00  0.00     0.049 A 
ATOM     40  N   UNL A   1      41.729  27.087  28.901  1.00  0.00    -0.248 NA
ATOM     41  C   UNL A   1      40.188  25.423  28.357  1.00  0.00     0.031 C 
ATOM     42  C   UNL A   1      45.059  24.147  28.530  1.00  0.00     0.029 A 
ATOM     43  N   UNL A   1      44.473  26.197  29.199  1.00  0.00    -0.354 N 
ATOM     44  C   UNL A   1      40.447  27.626  28.922  1.00  0.00     0.074 A 
ATOM     45  C   UNL A   1      39.539  26.564  28.546  1.00  0.00     0.031 C 
ATOM     46  C   UNL A   1      46.154  24.730  29.040  1.00  0.00     0.029 A 
ATOM     47  C   UNL A   1      45.822  26.094  29.439  1.00  0.00     0.049 A 
ATOM     48  H   UNL A   1      43.950  27.006  29.401  1.00  0.00     0.167 HD
ATOM     49  C   UNL A   1      40.058  28.889  29.223  1.00  0.00     0.031 A 
ATOM     50  C   UNL A   1      46.711  26.998  29.892  1.00  0.00     0.031 A 
ATOM     51  C   UNL A   1      40.942  29.941  29.650  1.00  0.00     0.049 A 
ATOM     52  C   UNL A   1      46.261  28.399  30.187  1.00  0.00     0.074 A 
ATOM     53  C   UNL A   1      40.629  31.250  29.979  1.00  0.00     0.029 A 
ATOM     54  N   UNL A   1      42.307  29.801  29.831  1.00  0.00    -0.354 N 
ATOM     55  N   UNL A   1      45.057  28.909  30.127  1.00  0.00    -0.248 NA
ATOM     56  C   UNL A   1      47.304  29.355  30.589  1.00  0.00     0.031 C 
ATOM     57  C   UNL A   1      41.812  31.911  30.330  1.00  0.00     0.029 A 
ATOM     58  C   UNL A   1      42.853  31.001  30.256  1.00  0.00     0.049 A 
ATOM     59  H   UNL A   1      42.815  28.971  29.678  1.00  0.00     0.167 HD
ATOM     60  C   UNL A   1      45.195  30.244  30.485  1.00  0.00     0.074 A 
ATOM     61  C   UNL A   1      46.595  30.458  30.785  1.00  0.00     0.031 C 
ATOM     62  C   UNL A   1      44.245  31.207  30.546  1.00  0.00     0.031 A 
BRANCH  49  63
ATOM     63  C   UNL A   1      38.601  29.223  29.068  1.00  0.00    -0.014 A 
ATOM     64  C   UNL A   1      37.719  29.183  30.158  1.00  0.00     0.009 A 
ATOM     65  C   UNL A   1      38.120  29.643  27.817  1.00  0.00     0.009 A 
ATOM     66  C   UNL A   1      36.377  29.533  29.990  1.00  0.00     0.001 A 
ATOM     67  C   UNL A   1      36.784  30.013  27.659  1.00  0.00     0.001 A 
ATOM     68  C   UNL A   1      35.911  29.952  28.744  1.00  0.00     0.000 A 
ENDBRANCH  49  63
BRANCH  50  69
ATOM     69  C   UNL A   1      48.139  26.621  30.042  1.00  0.00    -0.014 A 
ATOM     70  C   UNL A   1      48.574  25.910  31.170  1.00  0.00     0.009 A 
ATOM     71  C   UNL A   1      49.075  26.974  29.056  1.00  0.00     0.009 A 
ATOM     72  C   UNL A   1      49.921  25.571  31.314  1.00  0.00     0.001 A 
ATOM     73  C   UNL A   1      50.415  26.609  29.190  1.00  0.00     0.001 A 
ATOM     74  C   UNL A   1      50.839  25.915  30.322  1.00  0.00     0.000 A 
ENDBRANCH  50  69
BRANCH  62  75
ATOM     75  C   UNL A   1      44.689  32.575  30.973  1.00  0.00    -0.014 A 
ATOM     76  C   UNL A   1      44.742  32.924  32.331  1.00  0.00     0.009 A 
ATOM     77  C   UNL A   1      45.079  33.516  30.009  1.00  0.00     0.009 A 
ATOM     78  C   UNL A   1      45.148  34.204  32.714  1.00  0.00     0.001 A 
ATOM     79  C   UNL A   1      45.505  34.788  30.396  1.00  0.00     0.001 A 
ATOM     80  C   UNL A   1      45.531  35.132  31.747  1.00  0.00     0.000 A 
ENDBRANCH  62  75
ENDBRANCH  36  37
ENDBRANCH  29  31
ENDBRANCH  28  29
ENDBRANCH  27  28
ENDBRANCH   1  27
TORSDOF 17
ENDMDL
MODEL 2
REMARK VINA RESULT:      -8.5      4.692      9.356
REMARK SMILES COc1ccc(/C=C/c2cc(OC)cc(OC)c2/C=C/C(=O)OCCOC(=O)c2ccc(-c3c4nc(c(-c5ccccc5)c5ccc([nH]5)c(-c5ccccc5)c5nc(c(-c6ccccc6)c6ccc3[nH]6)C=C5)C=C4)cc2)cc1
REMARK SMILES IDX 24 1 23 2 21 3 22 4 20 5 19 6 18 7 9 8 10 9 11 10 15 11
REMARK SMILES IDX 14 12 8 13 7 14 6 15 3 16 4 17 78 18 5 19 77 20 2 21 1 22
REMARK SMILES IDX 12 23 13 24 16 25 17 26 25 27 26 28 27 29 28 30 29 31 30 32
REMARK SMILES IDX 76 33 31 34 75 35 32 36 33 37 34 38 69 39 35 40 74 41 68 42
REMARK SMILES IDX 70 43 36 44 73 45 67 46 66 47 37 49 59 50 44 51 58 52 45 53
REMARK SMILES IDX 48 54 57 55 71 56 46 57 47 58 56 60 72 61 49 62 38 63 39 64
REMARK SMILES IDX 43 65 40 66 42 67 41 68 60 69 61 70 65 71 62 72 64 73 63 74
REMARK SMILES IDX 50 75 51 76 55 77 52 78 54 79 53 80
REMARK H PARENT 70 48 48 59
REMARK Flexibility Score: inf
ROOT
ATOM      1  C   UNL A   1      37.422  21.007  24.692  1.00  0.00     0.275 C 
ENDROOT
BRANCH   1   2
ATOM      2  O   UNL A   1      37.344  21.851  25.858  1.00  0.00    -0.459 OA
BRANCH   2   3
ATOM      3  C   UNL A   1      37.399  23.187  25.637  1.00  0.00     0.330 C 
ATOM      4  O   UNL A   1      38.333  23.925  25.903  1.00  0.00    -0.247 OA
BRANCH   3   5
ATOM      5  C   UNL A   1      36.158  23.712  25.032  1.00  0.00     0.094 C 
ATOM      6  C   UNL A   1      35.054  24.037  25.722  1.00  0.00     0.020 C 
BRANCH   6   7
ATOM      7  C   UNL A   1      33.842  24.595  25.085  1.00  0.00     0.024 A 
ATOM      8  C   UNL A   1      32.979  23.732  24.370  1.00  0.00    -0.011 A 
ATOM      9  C   UNL A   1      31.838  24.250  23.731  1.00  0.00     0.055 A 
ATOM     10  C   UNL A   1      31.532  25.610  23.782  1.00  0.00     0.123 A 
ATOM     11  C   UNL A   1      33.511  25.966  25.131  1.00  0.00     0.130 A 
ATOM     12  C   UNL A   1      32.360  26.460  24.502  1.00  0.00     0.093 A 
BRANCH   8  13
ATOM     13  C   UNL A   1      33.225  22.288  24.212  1.00  0.00     0.009 C 
ATOM     14  C   UNL A   1      32.288  21.354  24.446  1.00  0.00     0.009 C 
BRANCH  14  15
ATOM     15  C   UNL A   1      32.520  19.905  24.352  1.00  0.00    -0.025 A 
ATOM     16  C   UNL A   1      32.941  17.119  24.274  1.00  0.00     0.118 A 
ATOM     17  C   UNL A   1      32.677  17.826  23.103  1.00  0.00     0.047 A 
ATOM     18  C   UNL A   1      33.013  17.803  25.486  1.00  0.00     0.047 A 
ATOM     19  C   UNL A   1      32.450  19.205  23.142  1.00  0.00     0.012 A 
ATOM     20  C   UNL A   1      32.797  19.186  25.524  1.00  0.00     0.012 A 
BRANCH  16  21
ATOM     21  O   UNL A   1      33.150  15.777  24.114  1.00  0.00    -0.497 OA
ATOM     22  C   UNL A   1      33.464  15.069  25.308  1.00  0.00     0.278 C 
ENDBRANCH  16  21
ENDBRANCH  14  15
ENDBRANCH   8  13
BRANCH  10  23
ATOM     23  O   UNL A   1      30.404  25.982  23.104  1.00  0.00    -0.497 OA
ATOM     24  C   UNL A   1      29.377  26.597  23.876  1.00  0.00     0.278 C 
ENDBRANCH  10  23
BRANCH  11  25
ATOM     25  O   UNL A   1      34.211  26.920  25.824  1.00  0.00    -0.496 OA
ATOM     26  C   UNL A   1      33.671  28.229  25.692  1.00  0.00     0.278 C 
ENDBRANCH  11  25
ENDBRANCH   6   7
ENDBRANCH   3   5
ENDBRANCH   2   3
ENDBRANCH   1   2
BRANCH   1  27
ATOM     27  C   UNL A   1      38.455  19.901  24.887  1.00  0.00     0.275 C 
BRANCH  27  28
ATOM     28  O   UNL A   1      39.174  20.108  26.117  1.00  0.00    -0.458 OA
BRANCH  28  29
ATOM     29  C   UNL A   1      40.497  19.867  26.059  1.00  0.00     0.338 C 
ATOM     30  O   UNL A   1      41.066  18.875  25.606  1.00  0.00    -0.246 OA
BRANCH  29  31
ATOM     31  C   UNL A   1      41.241  21.021  26.566  1.00  0.00     0.060 A 
ATOM     32  C   UNL A   1      41.377  21.161  27.944  1.00  0.00     0.016 A 
ATOM     33  C   UNL A   1      41.634  22.050  25.711  1.00  0.00     0.016 A 
ATOM     34  C   UNL A   1      41.784  22.382  28.479  1.00  0.00     0.010 A 
ATOM     35  C   UNL A   1      42.146  23.236  26.251  1.00  0.00     0.010 A 
ATOM     36  C   UNL A   1      42.179  23.440  27.643  1.00  0.00    -0.014 A 
BRANCH  36  37
ATOM     37  C   UNL A   1      42.575  24.759  28.223  1.00  0.00     0.031 A 
ATOM     38  C   UNL A   1      41.537  25.822  28.503  1.00  0.00     0.074 A 
ATOM     39  C   UNL A   1      43.861  25.013  28.537  1.00  0.00     0.049 A 
ATOM     40  N   UNL A   1      41.709  27.072  28.859  1.00  0.00    -0.248 NA
ATOM     41  C   UNL A   1      40.125  25.435  28.356  1.00  0.00     0.031 C 
ATOM     42  C   UNL A   1      44.978  24.079  28.381  1.00  0.00     0.029 A 
ATOM     43  N   UNL A   1      44.446  26.136  29.073  1.00  0.00    -0.354 N 
ATOM     44  C   UNL A   1      40.437  27.631  28.920  1.00  0.00     0.074 A 
ATOM     45  C   UNL A   1      39.501  26.586  28.567  1.00  0.00     0.031 C 
ATOM     46  C   UNL A   1      46.096  24.642  28.861  1.00  0.00     0.029 A 
ATOM     47  C   UNL A   1      45.799  26.010  29.273  1.00  0.00     0.049 A 
ATOM     48  H   UNL A   1      43.943  26.953  29.292  1.00  0.00     0.167 HD
ATOM     49  C   UNL A   1      40.078  28.900  29.235  1.00  0.00     0.031 A 
ATOM     50  C   UNL A   1      46.715  26.898  29.702  1.00  0.00     0.031 A 
ATOM     51  C   UNL A   1      40.991  29.936  29.639  1.00  0.00     0.049 A 
ATOM     52  C   UNL A   1      46.298  28.305  30.014  1.00  0.00     0.074 A 
ATOM     53  C   UNL A   1      40.709  31.249  29.981  1.00  0.00     0.029 A 
ATOM     54  N   UNL A   1      42.359  29.772  29.779  1.00  0.00    -0.354 N 
ATOM     55  N   UNL A   1      45.101  28.835  29.991  1.00  0.00    -0.248 NA
ATOM     56  C   UNL A   1      47.368  29.243  30.388  1.00  0.00     0.031 C 
ATOM     57  C   UNL A   1      41.913  31.889  30.299  1.00  0.00     0.029 A 
ATOM     58  C   UNL A   1      42.937  30.963  30.191  1.00  0.00     0.049 A 
ATOM     59  H   UNL A   1      42.848  28.936  29.609  1.00  0.00     0.167 HD
ATOM     60  C   UNL A   1      45.271  30.166  30.348  1.00  0.00     0.074 A 
ATOM     61  C   UNL A   1      46.683  30.357  30.608  1.00  0.00     0.031 C 
ATOM     62  C   UNL A   1      44.340  31.144  30.441  1.00  0.00     0.031 A 
BRANCH  49  63
ATOM     63  C   UNL A   1      38.623  29.258  29.124  1.00  0.00    -0.014 A 
ATOM     64  C   UNL A   1      37.770  29.215  30.237  1.00  0.00     0.009 A 
ATOM     65  C   UNL A   1      38.115  29.704  27.893  1.00  0.00     0.009 A 
ATOM     66  C   UNL A   1      36.429  29.588  30.110  1.00  0.00     0.001 A 
ATOM     67  C   UNL A   1      36.781  30.097  27.776  1.00  0.00     0.001 A 
ATOM     68  C   UNL A   1      35.937  30.033  28.883  1.00  0.00     0.000 A 
ENDBRANCH  49  63
BRANCH  50  69
ATOM     69  C   UNL A   1      48.141  26.497  29.808  1.00  0.00    -0.014 A 
ATOM     70  C   UNL A   1      48.636  25.930  30.992  1.00  0.00     0.009 A 
ATOM     71  C   UNL A   1      49.015  26.684  28.725  1.00  0.00     0.009 A 
ATOM     72  C   UNL A   1      49.981  25.569  31.093  1.00  0.00     0.001 A 
ATOM     73  C   UNL A   1      50.352  26.296  28.819  1.00  0.00     0.001 A 
ATOM     74  C   UNL A   1      50.836  25.746  30.005  1.00  0.00     0.000 A 
ENDBRANCH  50  69
BRANCH  62  75
ATOM     75  C   UNL A   1      44.819  32.504  30.858  1.00  0.00    -0.014 A 
ATOM     76  C   UNL A   1      44.886  32.859  32.214  1.00  0.00     0.009 A 
ATOM     77  C   UNL A   1      45.227  33.430  29.887  1.00  0.00     0.009 A 
ATOM     78  C   UNL A   1      45.325  34.131  32.588  1.00  0.00     0.001 A 
ATOM     79  C   UNL A   1      45.685  34.693  30.265  1.00  0.00     0.001 A 
ATOM     80  C   UNL A   1      45.726  35.044  31.614  1.00  0.00     0.000 A 
ENDBRANCH  62  75
ENDBRANCH  36  37
ENDBRANCH  29  31
ENDBRANCH  28  29
ENDBRANCH  27  28
ENDBRANCH   1  27
TORSDOF 17
ENDMDL
MODEL 3
REMARK VINA RESULT:      -8.3      5.756     12.883
REMARK SMILES COc1ccc(/C=C/c2cc(OC)cc(OC)c2/C=C/C(=O)OCCOC(=O)c2ccc(-c3c4nc(c(-c5ccccc5)c5ccc([nH]5)c(-c5ccccc5)c5nc(c(-c6ccccc6)c6ccc3[nH]6)C=C5)C=C4)cc2)cc1
REMARK SMILES IDX 24 1 23 2 21 3 22 4 20 5 19 6 18 7 9 8 10 9 11 10 15 11
REMARK SMILES IDX 14 12 8 13 7 14 6 15 3 16 4 17 78 18 5 19 77 20 2 21 1 22
REMARK SMILES IDX 12 23 13 24 16 25 17 26 25 27 26 28 27 29 28 30 29 31 30 32
REMARK SMILES IDX 76 33 31 34 75 35 32 36 33 37 34 38 69 39 35 40 74 41 68 42
REMARK SMILES IDX 70 43 36 44 73 45 67 46 66 47 37 49 59 50 44 51 58 52 45 53
REMARK SMILES IDX 48 54 57 55 71 56 46 57 47 58 56 60 72 61 49 62 38 63 39 64
REMARK SMILES IDX 43 65 40 66 42 67 41 68 60 69 61 70 65 71 62 72 64 73 63 74
REMARK SMILES IDX 50 75 51 76 55 77 52 78 54 79 53 80
REMARK H PARENT 70 48 48 59
REMARK Flexibility Score: inf
ROOT
ATOM      1  C   UNL A   1      31.960  30.223  26.844  1.00  0.00     0.275 C 
ENDROOT
BRANCH   1   2
ATOM      2  O   UNL A   1      32.687  28.984  26.953  1.00  0.00    -0.459 OA
BRANCH   2   3
ATOM      3  C   UNL A   1      31.971  27.900  27.340  1.00  0.00     0.330 C 
ATOM      4  O   UNL A   1      31.237  27.828  28.312  1.00  0.00    -0.247 OA
BRANCH   3   5
ATOM      5  C   UNL A   1      32.179  26.738  26.451  1.00  0.00     0.094 C 
ATOM      6  C   UNL A   1      31.354  25.684  26.372  1.00  0.00     0.020 C 
BRANCH   6   7
ATOM      7  C   UNL A   1      31.576  24.555  25.442  1.00  0.00     0.024 A 
ATOM      8  C   UNL A   1      31.010  24.606  24.147  1.00  0.00    -0.011 A 
ATOM      9  C   UNL A   1      31.185  23.529  23.260  1.00  0.00     0.055 A 
ATOM     10  C   UNL A   1      31.908  22.395  23.629  1.00  0.00     0.123 A 
ATOM     11  C   UNL A   1      32.311  23.402  25.794  1.00  0.00     0.130 A 
ATOM     12  C   UNL A   1      32.488  22.346  24.890  1.00  0.00     0.093 A 
BRANCH   8  13
ATOM     13  C   UNL A   1      30.191  25.732  23.664  1.00  0.00     0.009 C 
ATOM     14  C   UNL A   1      30.716  26.899  23.256  1.00  0.00     0.009 C 
BRANCH  14  15
ATOM     15  C   UNL A   1      29.923  28.059  22.823  1.00  0.00    -0.025 A 
ATOM     16  C   UNL A   1      28.331  30.260  22.067  1.00  0.00     0.118 A 
ATOM     17  C   UNL A   1      29.682  30.216  21.729  1.00  0.00     0.047 A 
ATOM     18  C   UNL A   1      27.766  29.197  22.769  1.00  0.00     0.047 A 
ATOM     19  C   UNL A   1      30.477  29.134  22.118  1.00  0.00     0.012 A 
ATOM     20  C   UNL A   1      28.559  28.107  23.150  1.00  0.00     0.012 A 
BRANCH  16  21
ATOM     21  O   UNL A   1      27.653  31.364  21.630  1.00  0.00    -0.497 OA
ATOM     22  C   UNL A   1      28.262  32.610  21.947  1.00  0.00     0.278 C 
ENDBRANCH  16  21
ENDBRANCH  14  15
ENDBRANCH   8  13
BRANCH  10  23
ATOM     23  O   UNL A   1      31.986  21.416  22.677  1.00  0.00    -0.497 OA
ATOM     24  C   UNL A   1      32.310  20.108  23.142  1.00  0.00     0.278 C 
ENDBRANCH  10  23
BRANCH  11  25
ATOM     25  O   UNL A   1      32.964  23.221  26.985  1.00  0.00    -0.496 OA
ATOM     26  C   UNL A   1      34.378  23.148  26.852  1.00  0.00     0.278 C 
ENDBRANCH  11  25
ENDBRANCH   6   7
ENDBRANCH   3   5
ENDBRANCH   2   3
ENDBRANCH   1   2
BRANCH   1  27
ATOM     27  C   UNL A   1      32.850  31.411  27.197  1.00  0.00     0.275 C 
BRANCH  27  28
ATOM     28  O   UNL A   1      34.228  30.996  27.256  1.00  0.00    -0.458 OA
BRANCH  28  29
ATOM     29  C   UNL A   1      34.853  31.235  28.424  1.00  0.00     0.338 C 
ATOM     30  O   UNL A   1      34.489  31.970  29.339  1.00  0.00    -0.246 OA
BRANCH  29  31
ATOM     31  C   UNL A   1      36.063  30.417  28.522  1.00  0.00     0.060 A 
ATOM     32  C   UNL A   1      36.349  29.812  29.742  1.00  0.00     0.016 A 
ATOM     33  C   UNL A   1      37.000  30.400  27.490  1.00  0.00     0.016 A 
ATOM     34  C   UNL A   1      37.624  29.301  29.979  1.00  0.00     0.010 A 
ATOM     35  C   UNL A   1      38.243  29.789  27.698  1.00  0.00     0.010 A 
ATOM     36  C   UNL A   1      38.593  29.278  28.962  1.00  0.00    -0.014 A 
BRANCH  36  37
ATOM     37  C   UNL A   1      39.970  28.767  29.236  1.00  0.00     0.031 A 
ATOM     38  C   UNL A   1      40.960  29.598  30.020  1.00  0.00     0.074 A 
ATOM     39  C   UNL A   1      40.344  27.541  28.817  1.00  0.00     0.049 A 
ATOM     40  N   UNL A   1      42.237  29.387  30.224  1.00  0.00    -0.248 NA
ATOM     41  C   UNL A   1      40.452  30.828  30.648  1.00  0.00     0.031 C 
ATOM     42  C   UNL A   1      39.496  26.590  28.095  1.00  0.00     0.029 A 
ATOM     43  N   UNL A   1      41.540  26.875  28.954  1.00  0.00    -0.354 N 
ATOM     44  C   UNL A   1      42.695  30.482  30.949  1.00  0.00     0.074 A 
ATOM     45  C   UNL A   1      41.559  31.355  31.153  1.00  0.00     0.031 C 
ATOM     46  C   UNL A   1      40.174  25.449  27.903  1.00  0.00     0.029 A 
ATOM     47  C   UNL A   1      41.534  25.616  28.404  1.00  0.00     0.049 A 
ATOM     48  H   UNL A   1      42.324  27.264  29.403  1.00  0.00     0.167 HD
ATOM     49  C   UNL A   1      43.946  30.743  31.401  1.00  0.00     0.031 A 
ATOM     50  C   UNL A   1      42.516  24.704  28.276  1.00  0.00     0.031 A 
ATOM     51  C   UNL A   1      45.073  29.862  31.253  1.00  0.00     0.049 A 
ATOM     52  C   UNL A   1      43.900  25.029  28.755  1.00  0.00     0.074 A 
ATOM     53  C   UNL A   1      46.377  30.047  31.686  1.00  0.00     0.029 A 
ATOM     54  N   UNL A   1      45.029  28.619  30.644  1.00  0.00    -0.354 N 
ATOM     55  N   UNL A   1      44.330  26.103  29.370  1.00  0.00    -0.248 NA
ATOM     56  C   UNL A   1      44.941  24.022  28.499  1.00  0.00     0.031 C 
ATOM     57  C   UNL A   1      47.129  28.927  31.311  1.00  0.00     0.029 A 
ATOM     58  C   UNL A   1      46.283  28.030  30.681  1.00  0.00     0.049 A 
ATOM     59  H   UNL A   1      44.226  28.214  30.244  1.00  0.00     0.167 HD
ATOM     60  C   UNL A   1      45.688  25.901  29.575  1.00  0.00     0.074 A 
ATOM     61  C   UNL A   1      46.007  24.593  29.043  1.00  0.00     0.031 C 
ATOM     62  C   UNL A   1      46.591  26.733  30.144  1.00  0.00     0.031 A 
BRANCH  49  63
ATOM     63  C   UNL A   1      44.179  32.064  32.079  1.00  0.00    -0.014 A 
ATOM     64  C   UNL A   1      44.075  32.201  33.472  1.00  0.00     0.009 A 
ATOM     65  C   UNL A   1      44.567  33.174  31.312  1.00  0.00     0.009 A 
ATOM     66  C   UNL A   1      44.332  33.435  34.078  1.00  0.00     0.001 A 
ATOM     67  C   UNL A   1      44.845  34.397  31.923  1.00  0.00     0.001 A 
ATOM     68  C   UNL A   1      44.721  34.529  33.305  1.00  0.00     0.000 A 
ENDBRANCH  49  63
BRANCH  50  69
ATOM     69  C   UNL A   1      42.238  23.407  27.609  1.00  0.00    -0.014 A 
ATOM     70  C   UNL A   1      41.649  22.352  28.322  1.00  0.00     0.009 A 
ATOM     71  C   UNL A   1      42.565  23.218  26.257  1.00  0.00     0.009 A 
ATOM     72  C   UNL A   1      41.404  21.128  27.694  1.00  0.00     0.001 A 
ATOM     73  C   UNL A   1      42.293  22.003  25.626  1.00  0.00     0.001 A 
ATOM     74  C   UNL A   1      41.719  20.957  26.347  1.00  0.00     0.000 A 
ENDBRANCH  50  69
BRANCH  62  75
ATOM     75  C   UNL A   1      48.006  26.243  30.237  1.00  0.00    -0.014 A 
ATOM     76  C   UNL A   1      48.871  26.326  29.135  1.00  0.00     0.009 A 
ATOM     77  C   UNL A   1      48.485  25.711  31.443  1.00  0.00     0.009 A 
ATOM     78  C   UNL A   1      50.183  25.858  29.232  1.00  0.00     0.001 A 
ATOM     79  C   UNL A   1      49.803  25.262  31.544  1.00  0.00     0.001 A 
ATOM     80  C   UNL A   1      50.647  25.329  30.436  1.00  0.00     0.000 A 
ENDBRANCH  62  75
ENDBRANCH  36  37
ENDBRANCH  29  31
ENDBRANCH  28  29
ENDBRANCH  27  28
ENDBRANCH   1  27
TORSDOF 17
ENDMDL
