MODEL 1
REMARK VINA RESULT:     -10.5      0.000      0.000
REMARK SMILES Cc1ccc(-c2cc(Cl)cc3c2O[C@H](C(F)(F)F)C(C(=O)OCCOC(=O)c2ccc(-c4c5nc(c(-c6ccccc6)c6ccc([nH]6)c(-c6ccccc6)c6nc(c(-c7ccccc7)c7ccc4[nH]7)C=C6)C=C5)cc2)=C3)cc1F
REMARK SMILES IDX 24 1 23 2 22 3 20 4 21 5 19 6 6 7 7 8 12 9 8 10 11 11 13 12
REMARK SMILES IDX 9 13 10 14 76 15 14 16 5 17 1 18 2 19 3 20 78 21 4 22 77 23
REMARK SMILES IDX 79 24 15 25 16 26 17 27 18 28 25 29 26 30 27 31 28 32 29 33
REMARK SMILES IDX 75 34 30 35 74 36 31 37 32 38 33 39 68 40 34 41 73 42 67 43
REMARK SMILES IDX 69 44 35 45 72 46 66 47 65 48 36 50 58 51 43 52 57 53 44 54
REMARK SMILES IDX 47 55 56 56 70 57 45 58 46 59 55 61 71 62 48 63 37 64 38 65
REMARK SMILES IDX 42 66 39 67 41 68 40 69 59 70 60 71 64 72 61 73 63 74 62 75
REMARK SMILES IDX 49 76 50 77 54 78 51 79 53 80 52 81
REMARK H PARENT 69 49 47 60
REMARK Flexibility Score: inf
ROOT
ATOM      1  C   UNL A   1      33.847  33.754  28.129  1.00  0.00     0.275 C 
ENDROOT
BRANCH   1   2
ATOM      2  C   UNL A   1      34.430  34.950  28.882  1.00  0.00     0.275 C 
BRANCH   2   3
ATOM      3  O   UNL A   1      34.148  34.872  30.298  1.00  0.00    -0.459 OA
BRANCH   3   4
ATOM      4  C   UNL A   1      34.646  33.791  30.941  1.00  0.00     0.338 C 
ATOM      5  O   UNL A   1      34.166  32.668  30.958  1.00  0.00    -0.246 OA
BRANCH   4   6
ATOM      6  C   UNL A   1      35.916  34.131  31.611  1.00  0.00     0.087 C 
ATOM      7  C   UNL A   1      39.559  34.735  33.607  1.00  0.00     0.026 A 
ATOM      8  C   UNL A   1      40.755  34.560  32.887  1.00  0.00     0.033 A 
ATOM      9  C   UNL A   1      38.332  34.590  32.928  1.00  0.00     0.135 A 
ATOM     10  C   UNL A   1      40.728  34.248  31.529  1.00  0.00     0.042 A 
ATOM     11  C   UNL A   1      38.317  34.234  31.580  1.00  0.00     0.019 A 
ATOM     12  O   UNL A   1      37.181  34.850  33.629  1.00  0.00    -0.475 OA
ATOM     13  Cl  UNL A   1      42.200  34.049  30.664  1.00  0.00    -0.084 Cl
ATOM     14  C   UNL A   1      39.515  34.079  30.874  1.00  0.00     0.032 A 
ATOM     15  C   UNL A   1      37.053  33.988  30.920  1.00  0.00     0.027 C 
ATOM     16  C   UNL A   1      35.892  34.493  33.066  1.00  0.00     0.316 C 
BRANCH   7  17
ATOM     17  C   UNL A   1      39.603  35.030  35.046  1.00  0.00    -0.012 A 
ATOM     18  C   UNL A   1      39.537  35.973  39.260  1.00  0.00     0.047 C 
ATOM     19  C   UNL A   1      39.596  35.644  37.801  1.00  0.00    -0.015 A 
ATOM     20  C   UNL A   1      40.318  36.436  36.902  1.00  0.00     0.007 A 
ATOM     21  C   UNL A   1      38.900  34.538  37.311  1.00  0.00     0.126 A 
ATOM     22  C   UNL A   1      40.323  36.129  35.539  1.00  0.00     0.009 A 
ATOM     23  C   UNL A   1      38.905  34.226  35.958  1.00  0.00     0.048 A 
ATOM     24  F   UNL A   1      38.201  33.763  38.152  1.00  0.00    -0.207 F 
ENDBRANCH   7  17
BRANCH  16  25
ATOM     25  C   UNL A   1      35.291  33.355  33.907  1.00  0.00     0.430 C 
ATOM     26  F   UNL A   1      35.614  33.479  35.215  1.00  0.00    -0.167 F 
ATOM     27  F   UNL A   1      33.937  33.344  33.838  1.00  0.00    -0.167 F 
ATOM     28  F   UNL A   1      35.725  32.140  33.495  1.00  0.00    -0.167 F 
ENDBRANCH  16  25
ENDBRANCH   4   6
ENDBRANCH   3   4
ENDBRANCH   2   3
ENDBRANCH   1   2
BRANCH   1  29
ATOM     29  O   UNL A   1      34.900  32.925  27.606  1.00  0.00    -0.458 OA
BRANCH  29  30
ATOM     30  C   UNL A   1      34.726  31.594  27.768  1.00  0.00     0.338 C 
ATOM     31  O   UNL A   1      33.851  30.891  27.291  1.00  0.00    -0.246 OA
BRANCH  30  32
ATOM     32  C   UNL A   1      35.855  31.045  28.530  1.00  0.00     0.060 A 
ATOM     33  C   UNL A   1      35.745  29.885  29.285  1.00  0.00     0.016 A 
ATOM     34  C   UNL A   1      37.098  31.637  28.348  1.00  0.00     0.016 A 
ATOM     35  C   UNL A   1      36.900  29.343  29.866  1.00  0.00     0.010 A 
ATOM     36  C   UNL A   1      38.257  31.011  28.785  1.00  0.00     0.010 A 
ATOM     37  C   UNL A   1      38.179  29.876  29.594  1.00  0.00    -0.014 A 
BRANCH  37  38
ATOM     38  C   UNL A   1      39.425  29.274  30.151  1.00  0.00     0.031 A 
ATOM     39  C   UNL A   1      40.119  28.129  29.444  1.00  0.00     0.074 A 
ATOM     40  C   UNL A   1      39.921  29.727  31.321  1.00  0.00     0.049 A 
ATOM     41  N   UNL A   1      41.216  27.496  29.785  1.00  0.00    -0.248 NA
ATOM     42  C   UNL A   1      39.489  27.595  28.225  1.00  0.00     0.031 C 
ATOM     43  C   UNL A   1      39.307  30.760  32.158  1.00  0.00     0.029 A 
ATOM     44  N   UNL A   1      41.071  29.397  31.999  1.00  0.00    -0.354 N 
ATOM     45  C   UNL A   1      41.381  26.486  28.842  1.00  0.00     0.074 A 
ATOM     46  C   UNL A   1      40.237  26.534  27.965  1.00  0.00     0.031 C 
ATOM     47  C   UNL A   1      40.127  31.045  33.180  1.00  0.00     0.029 A 
ATOM     48  C   UNL A   1      41.300  30.180  33.107  1.00  0.00     0.049 A 
ATOM     49  H   UNL A   1      41.672  28.669  31.719  1.00  0.00     0.167 HD
ATOM     50  C   UNL A   1      42.415  25.626  28.685  1.00  0.00     0.031 A 
ATOM     51  C   UNL A   1      42.345  30.219  33.957  1.00  0.00     0.031 A 
ATOM     52  C   UNL A   1      43.585  25.618  29.518  1.00  0.00     0.049 A 
ATOM     53  C   UNL A   1      43.505  29.288  33.740  1.00  0.00     0.074 A 
ATOM     54  C   UNL A   1      44.723  24.841  29.390  1.00  0.00     0.029 A 
ATOM     55  N   UNL A   1      43.775  26.436  30.619  1.00  0.00    -0.354 N 
ATOM     56  N   UNL A   1      43.677  28.396  32.795  1.00  0.00    -0.248 NA
ATOM     57  C   UNL A   1      44.619  29.373  34.696  1.00  0.00     0.031 C 
ATOM     58  C   UNL A   1      45.582  25.154  30.443  1.00  0.00     0.029 A 
ATOM     59  C   UNL A   1      45.008  26.172  31.188  1.00  0.00     0.049 A 
ATOM     60  H   UNL A   1      43.131  27.104  30.947  1.00  0.00     0.167 HD
ATOM     61  C   UNL A   1      44.923  27.830  33.028  1.00  0.00     0.074 A 
ATOM     62  C   UNL A   1      45.474  28.491  34.193  1.00  0.00     0.031 C 
ATOM     63  C   UNL A   1      45.550  26.848  32.339  1.00  0.00     0.031 A 
BRANCH  50  64
ATOM     64  C   UNL A   1      42.363  24.650  27.538  1.00  0.00    -0.014 A 
ATOM     65  C   UNL A   1      41.769  23.390  27.710  1.00  0.00     0.009 A 
ATOM     66  C   UNL A   1      42.989  24.939  26.314  1.00  0.00     0.009 A 
ATOM     67  C   UNL A   1      41.811  22.439  26.689  1.00  0.00     0.001 A 
ATOM     68  C   UNL A   1      43.000  24.000  25.282  1.00  0.00     0.001 A 
ATOM     69  C   UNL A   1      42.420  22.746  25.473  1.00  0.00     0.000 A 
ENDBRANCH  50  64
BRANCH  51  70
ATOM     70  C   UNL A   1      42.366  31.236  35.044  1.00  0.00    -0.014 A 
ATOM     71  C   UNL A   1      41.724  30.998  36.270  1.00  0.00     0.009 A 
ATOM     72  C   UNL A   1      42.980  32.481  34.835  1.00  0.00     0.009 A 
ATOM     73  C   UNL A   1      41.673  31.992  37.250  1.00  0.00     0.001 A 
ATOM     74  C   UNL A   1      42.955  33.463  35.829  1.00  0.00     0.001 A 
ATOM     75  C   UNL A   1      42.291  33.221  37.030  1.00  0.00     0.000 A 
ENDBRANCH  51  70
BRANCH  63  76
ATOM     76  C   UNL A   1      46.917  26.421  32.792  1.00  0.00    -0.014 A 
ATOM     77  C   UNL A   1      48.054  27.031  32.236  1.00  0.00     0.009 A 
ATOM     78  C   UNL A   1      47.082  25.325  33.651  1.00  0.00     0.009 A 
ATOM     79  C   UNL A   1      49.329  26.536  32.510  1.00  0.00     0.001 A 
ATOM     80  C   UNL A   1      48.361  24.850  33.947  1.00  0.00     0.001 A 
ATOM     81  C   UNL A   1      49.482  25.446  33.367  1.00  0.00     0.000 A 
ENDBRANCH  63  76
ENDBRANCH  37  38
ENDBRANCH  30  32
ENDBRANCH  29  30
ENDBRANCH   1  29
TORSDOF 13
ENDMDL
MODEL 2
REMARK VINA RESULT:     -10.5      5.914     11.704
REMARK SMILES Cc1ccc(-c2cc(Cl)cc3c2O[C@H](C(F)(F)F)C(C(=O)OCCOC(=O)c2ccc(-c4c5nc(c(-c6ccccc6)c6ccc([nH]6)c(-c6ccccc6)c6nc(c(-c7ccccc7)c7ccc4[nH]7)C=C6)C=C5)cc2)=C3)cc1F
REMARK SMILES IDX 24 1 23 2 22 3 20 4 21 5 19 6 6 7 7 8 12 9 8 10 11 11 13 12
REMARK SMILES IDX 9 13 10 14 76 15 14 16 5 17 1 18 2 19 3 20 78 21 4 22 77 23
REMARK SMILES IDX 79 24 15 25 16 26 17 27 18 28 25 29 26 30 27 31 28 32 29 33
REMARK SMILES IDX 75 34 30 35 74 36 31 37 32 38 33 39 68 40 34 41 73 42 67 43
REMARK SMILES IDX 69 44 35 45 72 46 66 47 65 48 36 50 58 51 43 52 57 53 44 54
REMARK SMILES IDX 47 55 56 56 70 57 45 58 46 59 55 61 71 62 48 63 37 64 38 65
REMARK SMILES IDX 42 66 39 67 41 68 40 69 59 70 60 71 64 72 61 73 63 74 62 75
REMARK SMILES IDX 49 76 50 77 54 78 51 79 53 80 52 81
REMARK H PARENT 69 49 47 60
REMARK Flexibility Score: inf
ROOT
ATOM      1  C   UNL A   1      40.785  20.341  26.530  1.00  0.00     0.275 C 
ENDROOT
BRANCH   1   2
ATOM      2  C   UNL A   1      42.178  20.052  27.090  1.00  0.00     0.275 C 
BRANCH   2   3
ATOM      3  O   UNL A   1      43.213  20.410  26.147  1.00  0.00    -0.459 OA
BRANCH   3   4
ATOM      4  C   UNL A   1      43.222  21.701  25.741  1.00  0.00     0.338 C 
ATOM      5  O   UNL A   1      42.459  22.220  24.941  1.00  0.00    -0.246 OA
BRANCH   4   6
ATOM      6  C   UNL A   1      44.280  22.453  26.445  1.00  0.00     0.087 C 
ATOM      7  C   UNL A   1      47.148  24.902  28.287  1.00  0.00     0.026 A 
ATOM      8  C   UNL A   1      46.828  25.499  29.520  1.00  0.00     0.033 A 
ATOM      9  C   UNL A   1      46.211  24.032  27.691  1.00  0.00     0.135 A 
ATOM     10  C   UNL A   1      45.608  25.238  30.140  1.00  0.00     0.042 A 
ATOM     11  C   UNL A   1      44.976  23.814  28.300  1.00  0.00     0.019 A 
ATOM     12  O   UNL A   1      46.580  23.395  26.533  1.00  0.00    -0.475 OA
ATOM     13  Cl  UNL A   1      45.239  25.969  31.652  1.00  0.00    -0.084 Cl
ATOM     14  C   UNL A   1      44.679  24.402  29.534  1.00  0.00     0.032 A 
ATOM     15  C   UNL A   1      43.984  23.001  27.630  1.00  0.00     0.027 C 
ATOM     16  C   UNL A   1      45.589  22.681  25.750  1.00  0.00     0.316 C 
BRANCH   7  17
ATOM     17  C   UNL A   1      48.424  25.214  27.628  1.00  0.00    -0.012 A 
ATOM     18  C   UNL A   1      52.151  25.955  25.577  1.00  0.00     0.047 C 
ATOM     19  C   UNL A   1      50.870  25.721  26.313  1.00  0.00    -0.015 A 
ATOM     20  C   UNL A   1      50.860  25.245  27.629  1.00  0.00     0.007 A 
ATOM     21  C   UNL A   1      49.651  25.958  25.677  1.00  0.00     0.126 A 
ATOM     22  C   UNL A   1      49.648  24.997  28.279  1.00  0.00     0.009 A 
ATOM     23  C   UNL A   1      48.444  25.718  26.320  1.00  0.00     0.048 A 
ATOM     24  F   UNL A   1      49.634  26.416  24.417  1.00  0.00    -0.207 F 
ENDBRANCH   7  17
BRANCH  16  25
ATOM     25  C   UNL A   1      45.385  23.429  24.422  1.00  0.00     0.430 C 
ATOM     26  F   UNL A   1      44.998  22.591  23.434  1.00  0.00    -0.167 F 
ATOM     27  F   UNL A   1      44.425  24.380  24.527  1.00  0.00    -0.167 F 
ATOM     28  F   UNL A   1      46.519  24.044  24.012  1.00  0.00    -0.167 F 
ENDBRANCH  16  25
ENDBRANCH   4   6
ENDBRANCH   3   4
ENDBRANCH   2   3
ENDBRANCH   1   2
BRANCH   1  29
ATOM     29  O   UNL A   1      40.124  21.347  27.318  1.00  0.00    -0.458 OA
BRANCH  29  30
ATOM     30  C   UNL A   1      39.441  22.278  26.616  1.00  0.00     0.338 C 
ATOM     31  O   UNL A   1      38.428  22.123  25.956  1.00  0.00    -0.246 OA
BRANCH  30  32
ATOM     32  C   UNL A   1      40.030  23.601  26.862  1.00  0.00     0.060 A 
ATOM     33  C   UNL A   1      39.889  24.654  25.967  1.00  0.00     0.016 A 
ATOM     34  C   UNL A   1      40.609  23.823  28.105  1.00  0.00     0.016 A 
ATOM     35  C   UNL A   1      40.353  25.924  26.336  1.00  0.00     0.010 A 
ATOM     36  C   UNL A   1      40.918  25.108  28.529  1.00  0.00     0.010 A 
ATOM     37  C   UNL A   1      40.840  26.178  27.637  1.00  0.00    -0.014 A 
BRANCH  37  38
ATOM     38  C   UNL A   1      41.279  27.537  28.068  1.00  0.00     0.031 A 
ATOM     39  C   UNL A   1      40.280  28.548  28.591  1.00  0.00     0.074 A 
ATOM     40  C   UNL A   1      42.577  27.888  27.956  1.00  0.00     0.049 A 
ATOM     41  N   UNL A   1      40.492  29.770  29.017  1.00  0.00    -0.248 NA
ATOM     42  C   UNL A   1      38.858  28.163  28.600  1.00  0.00     0.031 C 
ATOM     43  C   UNL A   1      43.634  27.050  27.384  1.00  0.00     0.029 A 
ATOM     44  N   UNL A   1      43.238  29.031  28.341  1.00  0.00    -0.354 N 
ATOM     45  C   UNL A   1      39.238  30.294  29.314  1.00  0.00     0.074 A 
ATOM     46  C   UNL A   1      38.264  29.295  28.945  1.00  0.00     0.031 C 
ATOM     47  C   UNL A   1      44.816  27.664  27.542  1.00  0.00     0.029 A 
ATOM     48  C   UNL A   1      44.601  28.961  28.174  1.00  0.00     0.049 A 
ATOM     49  H   UNL A   1      42.778  29.823  28.701  1.00  0.00     0.167 HD
ATOM     50  C   UNL A   1      38.921  31.478  29.889  1.00  0.00     0.031 A 
ATOM     51  C   UNL A   1      45.576  29.828  28.513  1.00  0.00     0.031 A 
ATOM     52  C   UNL A   1      39.891  32.447  30.315  1.00  0.00     0.049 A 
ATOM     53  C   UNL A   1      45.208  31.118  29.192  1.00  0.00     0.074 A 
ATOM     54  C   UNL A   1      39.676  33.640  30.982  1.00  0.00     0.029 A 
ATOM     55  N   UNL A   1      41.259  32.326  30.135  1.00  0.00    -0.354 N 
ATOM     56  N   UNL A   1      44.022  31.557  29.536  1.00  0.00    -0.248 NA
ATOM     57  C   UNL A   1      46.310  32.028  29.540  1.00  0.00     0.031 C 
ATOM     58  C   UNL A   1      40.909  34.265  31.162  1.00  0.00     0.029 A 
ATOM     59  C   UNL A   1      41.899  33.431  30.666  1.00  0.00     0.049 A 
ATOM     60  H   UNL A   1      41.708  31.569  29.695  1.00  0.00     0.167 HD
ATOM     61  C   UNL A   1      44.236  32.780  30.158  1.00  0.00     0.074 A 
ATOM     62  C   UNL A   1      45.666  33.007  30.163  1.00  0.00     0.031 C 
ATOM     63  C   UNL A   1      43.324  33.637  30.676  1.00  0.00     0.031 A 
BRANCH  50  64
ATOM     64  C   UNL A   1      37.467  31.780  30.146  1.00  0.00    -0.014 A 
ATOM     65  C   UNL A   1      36.707  32.458  29.180  1.00  0.00     0.009 A 
ATOM     66  C   UNL A   1      36.874  31.480  31.382  1.00  0.00     0.009 A 
ATOM     67  C   UNL A   1      35.391  32.839  29.450  1.00  0.00     0.001 A 
ATOM     68  C   UNL A   1      35.547  31.830  31.638  1.00  0.00     0.001 A 
ATOM     69  C   UNL A   1      34.810  32.519  30.676  1.00  0.00     0.000 A 
ENDBRANCH  50  64
BRANCH  51  70
ATOM     70  C   UNL A   1      46.999  29.457  28.280  1.00  0.00    -0.014 A 
ATOM     71  C   UNL A   1      47.775  28.891  29.303  1.00  0.00     0.009 A 
ATOM     72  C   UNL A   1      47.605  29.729  27.043  1.00  0.00     0.009 A 
ATOM     73  C   UNL A   1      49.133  28.630  29.102  1.00  0.00     0.001 A 
ATOM     74  C   UNL A   1      48.956  29.438  26.835  1.00  0.00     0.001 A 
ATOM     75  C   UNL A   1      49.721  28.899  27.868  1.00  0.00     0.000 A 
ENDBRANCH  51  70
BRANCH  63  76
ATOM     76  C   UNL A   1      43.820  34.902  31.317  1.00  0.00    -0.014 A 
ATOM     77  C   UNL A   1      44.003  34.949  32.709  1.00  0.00     0.009 A 
ATOM     78  C   UNL A   1      43.965  36.080  30.570  1.00  0.00     0.009 A 
ATOM     79  C   UNL A   1      44.294  36.156  33.345  1.00  0.00     0.001 A 
ATOM     80  C   UNL A   1      44.286  37.281  31.206  1.00  0.00     0.001 A 
ATOM     81  C   UNL A   1      44.437  37.321  32.593  1.00  0.00     0.000 A 
ENDBRANCH  63  76
ENDBRANCH  37  38
ENDBRANCH  30  32
ENDBRANCH  29  30
ENDBRANCH   1  29
TORSDOF 13
ENDMDL
MODEL 3
REMARK VINA RESULT:     -10.3      0.436      5.791
REMARK SMILES Cc1ccc(-c2cc(Cl)cc3c2O[C@H](C(F)(F)F)C(C(=O)OCCOC(=O)c2ccc(-c4c5nc(c(-c6ccccc6)c6ccc([nH]6)c(-c6ccccc6)c6nc(c(-c7ccccc7)c7ccc4[nH]7)C=C6)C=C5)cc2)=C3)cc1F
REMARK SMILES IDX 24 1 23 2 22 3 20 4 21 5 19 6 6 7 7 8 12 9 8 10 11 11 13 12
REMARK SMILES IDX 9 13 10 14 76 15 14 16 5 17 1 18 2 19 3 20 78 21 4 22 77 23
REMARK SMILES IDX 79 24 15 25 16 26 17 27 18 28 25 29 26 30 27 31 28 32 29 33
REMARK SMILES IDX 75 34 30 35 74 36 31 37 32 38 33 39 68 40 34 41 73 42 67 43
REMARK SMILES IDX 69 44 35 45 72 46 66 47 65 48 36 50 58 51 43 52 57 53 44 54
REMARK SMILES IDX 47 55 56 56 70 57 45 58 46 59 55 61 71 62 48 63 37 64 38 65
REMARK SMILES IDX 42 66 39 67 41 68 40 69 59 70 60 71 64 72 61 73 63 74 62 75
REMARK SMILES IDX 49 76 50 77 54 78 51 79 53 80 52 81
REMARK H PARENT 69 49 47 60
REMARK Flexibility Score: inf
ROOT
ATOM      1  C   UNL A   1      33.819  33.617  28.140  1.00  0.00     0.275 C 
ENDROOT
BRANCH   1   2
ATOM      2  C   UNL A   1      34.410  34.872  28.784  1.00  0.00     0.275 C 
BRANCH   2   3
ATOM      3  O   UNL A   1      34.211  34.877  30.215  1.00  0.00    -0.459 OA
BRANCH   3   4
ATOM      4  C   UNL A   1      34.693  33.802  30.883  1.00  0.00     0.338 C 
ATOM      5  O   UNL A   1      34.208  32.682  30.908  1.00  0.00    -0.246 OA
BRANCH   4   6
ATOM      6  C   UNL A   1      35.955  34.147  31.568  1.00  0.00     0.087 C 
ATOM      7  C   UNL A   1      39.574  34.761  33.603  1.00  0.00     0.026 A 
ATOM      8  C   UNL A   1      40.778  34.608  32.891  1.00  0.00     0.033 A 
ATOM      9  C   UNL A   1      38.354  34.613  32.911  1.00  0.00     0.135 A 
ATOM     10  C   UNL A   1      40.765  34.314  31.529  1.00  0.00     0.042 A 
ATOM     11  C   UNL A   1      38.355  34.274  31.559  1.00  0.00     0.019 A 
ATOM     12  O   UNL A   1      37.194  34.851  33.606  1.00  0.00    -0.475 OA
ATOM     13  Cl  UNL A   1      42.247  34.141  30.675  1.00  0.00    -0.084 Cl
ATOM     14  C   UNL A   1      39.560  34.141  30.861  1.00  0.00     0.032 A 
ATOM     15  C   UNL A   1      37.099  34.025  30.884  1.00  0.00     0.027 C 
ATOM     16  C   UNL A   1      35.914  34.489  33.027  1.00  0.00     0.316 C 
BRANCH   7  17
ATOM     17  C   UNL A   1      39.603  35.037  35.046  1.00  0.00    -0.012 A 
ATOM     18  C   UNL A   1      39.494  35.932  39.269  1.00  0.00     0.047 C 
ATOM     19  C   UNL A   1      39.567  35.618  37.808  1.00  0.00    -0.015 A 
ATOM     20  C   UNL A   1      40.331  36.396  36.932  1.00  0.00     0.007 A 
ATOM     21  C   UNL A   1      38.845  34.542  37.293  1.00  0.00     0.126 A 
ATOM     22  C   UNL A   1      40.349  36.106  35.565  1.00  0.00     0.009 A 
ATOM     23  C   UNL A   1      38.862  34.246  35.936  1.00  0.00     0.048 A 
ATOM     24  F   UNL A   1      38.106  33.781  38.112  1.00  0.00    -0.207 F 
ENDBRANCH   7  17
BRANCH  16  25
ATOM     25  C   UNL A   1      35.317  33.333  33.848  1.00  0.00     0.430 C 
ATOM     26  F   UNL A   1      33.966  33.336  33.800  1.00  0.00    -0.167 F 
ATOM     27  F   UNL A   1      35.723  32.128  33.381  1.00  0.00    -0.167 F 
ATOM     28  F   UNL A   1      35.678  33.403  35.151  1.00  0.00    -0.167 F 
ENDBRANCH  16  25
ENDBRANCH   4   6
ENDBRANCH   3   4
ENDBRANCH   2   3
ENDBRANCH   1   2
BRANCH   1  29
ATOM     29  O   UNL A   1      34.866  32.773  27.627  1.00  0.00    -0.458 OA
BRANCH  29  30
ATOM     30  C   UNL A   1      34.696  31.448  27.832  1.00  0.00     0.338 C 
ATOM     31  O   UNL A   1      33.788  30.740  27.434  1.00  0.00    -0.246 OA
BRANCH  30  32
ATOM     32  C   UNL A   1      35.872  30.909  28.529  1.00  0.00     0.060 A 
ATOM     33  C   UNL A   1      35.828  29.723  29.249  1.00  0.00     0.016 A 
ATOM     34  C   UNL A   1      37.089  31.544  28.316  1.00  0.00     0.016 A 
ATOM     35  C   UNL A   1      37.021  29.198  29.763  1.00  0.00     0.010 A 
ATOM     36  C   UNL A   1      38.283  30.941  28.685  1.00  0.00     0.010 A 
ATOM     37  C   UNL A   1      38.271  29.778  29.457  1.00  0.00    -0.014 A 
BRANCH  37  38
ATOM     38  C   UNL A   1      39.557  29.197  29.943  1.00  0.00     0.031 A 
ATOM     39  C   UNL A   1      40.209  29.702  31.213  1.00  0.00     0.074 A 
ATOM     40  C   UNL A   1      40.169  28.233  29.223  1.00  0.00     0.049 A 
ATOM     41  N   UNL A   1      41.320  29.302  31.783  1.00  0.00    -0.248 NA
ATOM     42  C   UNL A   1      39.562  30.824  31.914  1.00  0.00     0.031 C 
ATOM     43  C   UNL A   1      39.704  27.715  27.934  1.00  0.00     0.029 A 
ATOM     44  N   UNL A   1      41.301  27.498  29.483  1.00  0.00    -0.354 N 
ATOM     45  C   UNL A   1      41.508  30.137  32.879  1.00  0.00     0.074 A 
ATOM     46  C   UNL A   1      40.449  31.115  32.853  1.00  0.00     0.031 C 
ATOM     47  C   UNL A   1      40.484  26.689  27.566  1.00  0.00     0.029 A 
ATOM     48  C   UNL A   1      41.538  26.507  28.559  1.00  0.00     0.049 A 
ATOM     49  H   UNL A   1      41.887  27.666  30.256  1.00  0.00     0.167 HD
ATOM     50  C   UNL A   1      42.447  30.068  33.853  1.00  0.00     0.031 A 
ATOM     51  C   UNL A   1      42.479  25.543  28.522  1.00  0.00     0.031 A 
ATOM     52  C   UNL A   1      43.464  29.057  33.916  1.00  0.00     0.049 A 
ATOM     53  C   UNL A   1      43.485  25.455  29.636  1.00  0.00     0.074 A 
ATOM     54  C   UNL A   1      44.410  28.853  34.905  1.00  0.00     0.029 A 
ATOM     55  N   UNL A   1      43.656  28.070  32.964  1.00  0.00    -0.354 N 
ATOM     56  N   UNL A   1      43.595  26.206  30.705  1.00  0.00    -0.248 NA
ATOM     57  C   UNL A   1      44.489  24.384  29.547  1.00  0.00     0.031 C 
ATOM     58  C   UNL A   1      45.207  27.773  34.528  1.00  0.00     0.029 A 
ATOM     59  C   UNL A   1      44.715  27.263  33.337  1.00  0.00     0.049 A 
ATOM     60  H   UNL A   1      43.120  27.959  32.146  1.00  0.00     0.167 HD
ATOM     61  C   UNL A   1      44.663  25.686  31.424  1.00  0.00     0.074 A 
ATOM     62  C   UNL A   1      45.157  24.546  30.682  1.00  0.00     0.031 C 
ATOM     63  C   UNL A   1      45.187  26.122  32.595  1.00  0.00     0.031 A 
BRANCH  50  64
ATOM     64  C   UNL A   1      42.394  31.082  34.966  1.00  0.00    -0.014 A 
ATOM     65  C   UNL A   1      41.597  30.846  36.098  1.00  0.00     0.009 A 
ATOM     66  C   UNL A   1      43.057  32.315  34.854  1.00  0.00     0.009 A 
ATOM     67  C   UNL A   1      41.456  31.824  37.084  1.00  0.00     0.001 A 
ATOM     68  C   UNL A   1      42.943  33.278  35.858  1.00  0.00     0.001 A 
ATOM     69  C   UNL A   1      42.134  33.037  36.967  1.00  0.00     0.000 A 
ENDBRANCH  50  64
BRANCH  51  70
ATOM     70  C   UNL A   1      42.454  24.538  27.424  1.00  0.00    -0.014 A 
ATOM     71  C   UNL A   1      41.731  23.341  27.554  1.00  0.00     0.009 A 
ATOM     72  C   UNL A   1      43.210  24.747  26.260  1.00  0.00     0.009 A 
ATOM     73  C   UNL A   1      41.787  22.366  26.556  1.00  0.00     0.001 A 
ATOM     74  C   UNL A   1      43.240  23.782  25.249  1.00  0.00     0.001 A 
ATOM     75  C   UNL A   1      42.538  22.589  25.403  1.00  0.00     0.000 A 
ENDBRANCH  51  70
BRANCH  63  76
ATOM     76  C   UNL A   1      46.345  25.366  33.181  1.00  0.00    -0.014 A 
ATOM     77  C   UNL A   1      46.108  24.350  34.122  1.00  0.00     0.009 A 
ATOM     78  C   UNL A   1      47.667  25.754  32.915  1.00  0.00     0.009 A 
ATOM     79  C   UNL A   1      47.168  23.756  34.806  1.00  0.00     0.001 A 
ATOM     80  C   UNL A   1      48.728  25.136  33.580  1.00  0.00     0.001 A 
ATOM     81  C   UNL A   1      48.477  24.148  34.534  1.00  0.00     0.000 A 
ENDBRANCH  63  76
ENDBRANCH  37  38
ENDBRANCH  30  32
ENDBRANCH  29  30
ENDBRANCH   1  29
TORSDOF 13
ENDMDL
