MODEL 1
REMARK VINA RESULT:     -11.4      0.000      0.000
REMARK SMILES O=C(OCCOC(=O)c1[nH]c2ccc(Cl)cc2c1-c1ccccc1)c1ccc(-c2c3nc(c(-c4ccccc4)c4ccc([nH]4)c(-c4ccccc4)c4nc(c(-c5ccccc5)c5ccc2[nH]5)C=C4)C=C3)cc1
REMARK SMILES IDX 4 1 3 2 2 3 1 4 25 5 26 6 72 7 27 8 71 9 28 10 29 11 30 12
REMARK SMILES IDX 65 13 31 14 70 15 64 16 66 17 32 18 69 19 63 20 62 21 33 23
REMARK SMILES IDX 55 24 40 25 54 26 41 27 44 28 53 29 67 30 42 31 43 32 52 34
REMARK SMILES IDX 68 35 45 36 34 37 35 38 39 39 36 40 38 41 37 42 56 43 57 44
REMARK SMILES IDX 61 45 58 46 60 47 59 48 46 49 47 50 51 51 48 52 50 53 49 54
REMARK SMILES IDX 5 55 6 56 7 57 8 58 9 59 10 60 18 61 11 62 17 64 12 65 16 66
REMARK SMILES IDX 13 67 14 68 15 69 19 70 20 71 24 72 21 73 23 74 22 75
REMARK H PARENT 66 22 44 33 10 63
REMARK Flexibility Score: inf
ROOT
ATOM      1  C   UNL A   1      31.562  32.334  26.948  1.00  0.00     0.275 C 
ENDROOT
BRANCH   1   2
ATOM      2  O   UNL A   1      32.174  33.617  27.192  1.00  0.00    -0.458 OA
BRANCH   2   3
ATOM      3  C   UNL A   1      32.943  34.091  28.197  1.00  0.00     0.338 C 
ATOM      4  O   UNL A   1      32.512  35.053  28.836  1.00  0.00    -0.246 OA
BRANCH   3   5
ATOM      5  C   UNL A   1      34.309  33.591  28.580  1.00  0.00     0.060 A 
ATOM      6  C   UNL A   1      35.520  33.912  27.968  1.00  0.00     0.016 A 
ATOM      7  C   UNL A   1      34.361  32.714  29.687  1.00  0.00     0.016 A 
ATOM      8  C   UNL A   1      36.732  33.394  28.444  1.00  0.00     0.010 A 
ATOM      9  C   UNL A   1      35.570  32.213  30.185  1.00  0.00     0.010 A 
ATOM     10  C   UNL A   1      36.768  32.553  29.560  1.00  0.00    -0.014 A 
BRANCH  10  11
ATOM     11  C   UNL A   1      38.068  32.011  30.013  1.00  0.00     0.031 A 
ATOM     12  C   UNL A   1      38.771  32.662  31.151  1.00  0.00     0.074 A 
ATOM     13  C   UNL A   1      38.563  30.886  29.467  1.00  0.00     0.049 A 
ATOM     14  N   UNL A   1      39.838  32.262  31.787  1.00  0.00    -0.248 NA
ATOM     15  C   UNL A   1      38.199  33.925  31.637  1.00  0.00     0.031 C 
ATOM     16  C   UNL A   1      37.941  30.190  28.358  1.00  0.00     0.029 A 
ATOM     17  N   UNL A   1      39.647  30.108  29.774  1.00  0.00    -0.354 N 
ATOM     18  C   UNL A   1      40.075  33.228  32.749  1.00  0.00     0.074 A 
ATOM     19  C   UNL A   1      39.045  34.236  32.608  1.00  0.00     0.031 C 
ATOM     20  C   UNL A   1      38.586  29.041  28.118  1.00  0.00     0.029 A 
ATOM     21  C   UNL A   1      39.722  28.957  29.021  1.00  0.00     0.049 A 
ATOM     22  H   UNL A   1      40.307  30.347  30.463  1.00  0.00     0.167 HD
ATOM     23  C   UNL A   1      41.077  33.272  33.655  1.00  0.00     0.031 A 
ATOM     24  C   UNL A   1      40.608  27.945  29.054  1.00  0.00     0.031 A 
ATOM     25  C   UNL A   1      42.129  32.295  33.734  1.00  0.00     0.049 A 
ATOM     26  C   UNL A   1      41.721  28.029  30.054  1.00  0.00     0.074 A 
ATOM     27  C   UNL A   1      43.235  32.279  34.564  1.00  0.00     0.029 A 
ATOM     28  N   UNL A   1      42.210  31.163  32.933  1.00  0.00    -0.354 N 
ATOM     29  N   UNL A   1      41.928  28.945  30.971  1.00  0.00    -0.248 NA
ATOM     30  C   UNL A   1      42.724  26.959  30.025  1.00  0.00     0.031 C 
ATOM     31  C   UNL A   1      44.005  31.155  34.238  1.00  0.00     0.029 A 
ATOM     32  C   UNL A   1      43.356  30.448  33.237  1.00  0.00     0.049 A 
ATOM     33  H   UNL A   1      41.550  30.906  32.250  1.00  0.00     0.167 HD
ATOM     34  C   UNL A   1      43.091  28.570  31.622  1.00  0.00     0.074 A 
ATOM     35  C   UNL A   1      43.519  27.319  31.024  1.00  0.00     0.031 C 
ATOM     36  C   UNL A   1      43.757  29.212  32.612  1.00  0.00     0.031 A 
BRANCH  23  37
ATOM     37  C   UNL A   1      41.092  34.470  34.553  1.00  0.00    -0.014 A 
ATOM     38  C   UNL A   1      41.815  35.625  34.210  1.00  0.00     0.009 A 
ATOM     39  C   UNL A   1      40.451  34.410  35.798  1.00  0.00     0.009 A 
ATOM     40  C   UNL A   1      41.933  36.677  35.119  1.00  0.00     0.001 A 
ATOM     41  C   UNL A   1      40.554  35.472  36.697  1.00  0.00     0.001 A 
ATOM     42  C   UNL A   1      41.305  36.598  36.363  1.00  0.00     0.000 A 
ENDBRANCH  23  37
BRANCH  24  43
ATOM     43  C   UNL A   1      40.482  26.790  28.124  1.00  0.00    -0.014 A 
ATOM     44  C   UNL A   1      39.743  25.653  28.488  1.00  0.00     0.009 A 
ATOM     45  C   UNL A   1      41.093  26.817  26.860  1.00  0.00     0.009 A 
ATOM     46  C   UNL A   1      39.633  24.566  27.616  1.00  0.00     0.001 A 
ATOM     47  C   UNL A   1      40.958  25.740  25.978  1.00  0.00     0.001 A 
ATOM     48  C   UNL A   1      40.234  24.613  26.360  1.00  0.00     0.000 A 
ENDBRANCH  24  43
BRANCH  36  49
ATOM     49  C   UNL A   1      45.017  28.562  33.092  1.00  0.00    -0.014 A 
ATOM     50  C   UNL A   1      46.256  28.877  32.511  1.00  0.00     0.009 A 
ATOM     51  C   UNL A   1      44.968  27.642  34.149  1.00  0.00     0.009 A 
ATOM     52  C   UNL A   1      47.421  28.259  32.964  1.00  0.00     0.001 A 
ATOM     53  C   UNL A   1      46.138  27.043  34.614  1.00  0.00     0.001 A 
ATOM     54  C   UNL A   1      47.362  27.346  34.017  1.00  0.00     0.000 A 
ENDBRANCH  36  49
ENDBRANCH  10  11
ENDBRANCH   3   5
ENDBRANCH   2   3
ENDBRANCH   1   2
BRANCH   1  55
ATOM     55  C   UNL A   1      32.562  31.177  26.882  1.00  0.00     0.275 C 
BRANCH  55  56
ATOM     56  O   UNL A   1      32.131  30.132  26.005  1.00  0.00    -0.457 OA
BRANCH  56  57
ATOM     57  C   UNL A   1      31.967  28.915  26.595  1.00  0.00     0.355 C 
ATOM     58  O   UNL A   1      31.401  28.715  27.661  1.00  0.00    -0.244 OA
BRANCH  57  59
ATOM     59  C   UNL A   1      32.384  27.873  25.699  1.00  0.00     0.134 A 
ATOM     60  N   UNL A   1      33.534  27.154  25.946  1.00  0.00    -0.349 N 
ATOM     61  C   UNL A   1      31.826  27.362  24.536  1.00  0.00     0.022 A 
ATOM     62  C   UNL A   1      33.651  26.106  25.068  1.00  0.00     0.047 A 
ATOM     63  H   UNL A   1      34.184  27.365  26.655  1.00  0.00     0.167 HD
ATOM     64  C   UNL A   1      32.671  26.287  24.092  1.00  0.00     0.010 A 
ATOM     65  C   UNL A   1      34.537  25.021  25.074  1.00  0.00     0.028 A 
ATOM     66  C   UNL A   1      32.654  25.394  22.998  1.00  0.00     0.031 A 
ATOM     67  C   UNL A   1      34.431  24.095  24.033  1.00  0.00     0.022 A 
ATOM     68  C   UNL A   1      33.519  24.293  23.001  1.00  0.00     0.041 A 
ATOM     69  Cl  UNL A   1      33.418  23.138  21.726  1.00  0.00    -0.084 Cl
BRANCH  61  70
ATOM     70  C   UNL A   1      30.553  27.823  23.999  1.00  0.00    -0.015 A 
ATOM     71  C   UNL A   1      29.413  27.024  24.060  1.00  0.00     0.009 A 
ATOM     72  C   UNL A   1      30.471  29.072  23.369  1.00  0.00     0.009 A 
ATOM     73  C   UNL A   1      28.207  27.483  23.516  1.00  0.00     0.001 A 
ATOM     74  C   UNL A   1      29.265  29.546  22.856  1.00  0.00     0.001 A 
ATOM     75  C   UNL A   1      28.130  28.746  22.926  1.00  0.00     0.000 A 
ENDBRANCH  61  70
ENDBRANCH  57  59
ENDBRANCH  56  57
ENDBRANCH  55  56
ENDBRANCH   1  55
TORSDOF 12
ENDMDL
MODEL 2
REMARK VINA RESULT:     -11.3      4.422      9.115
REMARK SMILES O=C(OCCOC(=O)c1[nH]c2ccc(Cl)cc2c1-c1ccccc1)c1ccc(-c2c3nc(c(-c4ccccc4)c4ccc([nH]4)c(-c4ccccc4)c4nc(c(-c5ccccc5)c5ccc2[nH]5)C=C4)C=C3)cc1
REMARK SMILES IDX 4 1 3 2 2 3 1 4 25 5 26 6 72 7 27 8 71 9 28 10 29 11 30 12
REMARK SMILES IDX 65 13 31 14 70 15 64 16 66 17 32 18 69 19 63 20 62 21 33 23
REMARK SMILES IDX 55 24 40 25 54 26 41 27 44 28 53 29 67 30 42 31 43 32 52 34
REMARK SMILES IDX 68 35 45 36 34 37 35 38 39 39 36 40 38 41 37 42 56 43 57 44
REMARK SMILES IDX 61 45 58 46 60 47 59 48 46 49 47 50 51 51 48 52 50 53 49 54
REMARK SMILES IDX 5 55 6 56 7 57 8 58 9 59 10 60 18 61 11 62 17 64 12 65 16 66
REMARK SMILES IDX 13 67 14 68 15 69 19 70 20 71 24 72 21 73 23 74 22 75
REMARK H PARENT 66 22 44 33 10 63
REMARK Flexibility Score: inf
ROOT
ATOM      1  C   UNL A   1      38.372  19.671  24.937  1.00  0.00     0.275 C 
ENDROOT
BRANCH   1   2
ATOM      2  O   UNL A   1      39.462  19.155  25.728  1.00  0.00    -0.458 OA
BRANCH   2   3
ATOM      3  C   UNL A   1      40.724  19.585  25.942  1.00  0.00     0.338 C 
ATOM      4  O   UNL A   1      41.643  18.827  25.625  1.00  0.00    -0.246 OA
BRANCH   3   5
ATOM      5  C   UNL A   1      41.121  20.885  26.586  1.00  0.00     0.060 A 
ATOM      6  C   UNL A   1      41.085  21.192  27.945  1.00  0.00     0.016 A 
ATOM      7  C   UNL A   1      41.591  21.891  25.712  1.00  0.00     0.016 A 
ATOM      8  C   UNL A   1      41.510  22.441  28.418  1.00  0.00     0.010 A 
ATOM      9  C   UNL A   1      42.044  23.132  26.178  1.00  0.00     0.010 A 
ATOM     10  C   UNL A   1      42.003  23.413  27.542  1.00  0.00    -0.014 A 
BRANCH  10  11
ATOM     11  C   UNL A   1      42.419  24.726  28.083  1.00  0.00     0.031 A 
ATOM     12  C   UNL A   1      43.868  25.043  28.189  1.00  0.00     0.074 A 
ATOM     13  C   UNL A   1      41.499  25.659  28.385  1.00  0.00     0.049 A 
ATOM     14  N   UNL A   1      44.435  26.177  28.499  1.00  0.00    -0.248 NA
ATOM     15  C   UNL A   1      44.801  23.942  27.910  1.00  0.00     0.031 C 
ATOM     16  C   UNL A   1      40.070  25.433  28.309  1.00  0.00     0.029 A 
ATOM     17  N   UNL A   1      41.602  26.970  28.767  1.00  0.00    -0.354 N 
ATOM     18  C   UNL A   1      45.795  25.929  28.460  1.00  0.00     0.074 A 
ATOM     19  C   UNL A   1      45.969  24.537  28.103  1.00  0.00     0.031 C 
ATOM     20  C   UNL A   1      39.411  26.576  28.543  1.00  0.00     0.029 A 
ATOM     21  C   UNL A   1      40.384  27.608  28.860  1.00  0.00     0.049 A 
ATOM     22  H   UNL A   1      42.459  27.414  28.955  1.00  0.00     0.167 HD
ATOM     23  C   UNL A   1      46.806  26.790  28.718  1.00  0.00     0.031 A 
ATOM     24  C   UNL A   1      40.084  28.883  29.168  1.00  0.00     0.031 A 
ATOM     25  C   UNL A   1      46.611  28.151  29.137  1.00  0.00     0.049 A 
ATOM     26  C   UNL A   1      41.222  29.810  29.470  1.00  0.00     0.074 A 
ATOM     27  C   UNL A   1      47.560  29.091  29.496  1.00  0.00     0.029 A 
ATOM     28  N   UNL A   1      45.371  28.762  29.269  1.00  0.00    -0.354 N 
ATOM     29  N   UNL A   1      42.511  29.566  29.416  1.00  0.00    -0.248 NA
ATOM     30  C   UNL A   1      40.876  31.175  29.882  1.00  0.00     0.031 C 
ATOM     31  C   UNL A   1      46.890  30.259  29.881  1.00  0.00     0.029 A 
ATOM     32  C   UNL A   1      45.526  30.061  29.719  1.00  0.00     0.049 A 
ATOM     33  H   UNL A   1      44.507  28.333  29.071  1.00  0.00     0.167 HD
ATOM     34  C   UNL A   1      43.132  30.743  29.799  1.00  0.00     0.074 A 
ATOM     35  C   UNL A   1      42.079  31.713  30.038  1.00  0.00     0.031 C 
ATOM     36  C   UNL A   1      44.454  30.994  29.958  1.00  0.00     0.031 A 
BRANCH  23  37
ATOM     37  C   UNL A   1      48.188  26.220  28.626  1.00  0.00    -0.014 A 
ATOM     38  C   UNL A   1      48.823  25.671  29.753  1.00  0.00     0.009 A 
ATOM     39  C   UNL A   1      48.896  26.315  27.421  1.00  0.00     0.009 A 
ATOM     40  C   UNL A   1      50.159  25.273  29.683  1.00  0.00     0.001 A 
ATOM     41  C   UNL A   1      50.226  25.897  27.349  1.00  0.00     0.001 A 
ATOM     42  C   UNL A   1      50.860  25.389  28.483  1.00  0.00     0.000 A 
ENDBRANCH  23  37
BRANCH  24  43
ATOM     43  C   UNL A   1      38.670  29.345  29.209  1.00  0.00    -0.014 A 
ATOM     44  C   UNL A   1      37.891  29.170  30.364  1.00  0.00     0.009 A 
ATOM     45  C   UNL A   1      38.088  29.974  28.095  1.00  0.00     0.009 A 
ATOM     46  C   UNL A   1      36.561  29.597  30.396  1.00  0.00     0.001 A 
ATOM     47  C   UNL A   1      36.766  30.425  28.140  1.00  0.00     0.001 A 
ATOM     48  C   UNL A   1      36.001  30.230  29.288  1.00  0.00     0.000 A 
ENDBRANCH  24  43
BRANCH  36  49
ATOM     49  C   UNL A   1      44.815  32.373  30.417  1.00  0.00    -0.014 A 
ATOM     50  C   UNL A   1      45.019  33.409  29.491  1.00  0.00     0.009 A 
ATOM     51  C   UNL A   1      44.930  32.645  31.788  1.00  0.00     0.009 A 
ATOM     52  C   UNL A   1      45.361  34.686  29.932  1.00  0.00     0.001 A 
ATOM     53  C   UNL A   1      45.249  33.929  32.226  1.00  0.00     0.001 A 
ATOM     54  C   UNL A   1      45.472  34.947  31.298  1.00  0.00     0.000 A 
ENDBRANCH  36  49
ENDBRANCH  10  11
ENDBRANCH   3   5
ENDBRANCH   2   3
ENDBRANCH   1   2
BRANCH   1  55
ATOM     55  C   UNL A   1      38.107  21.163  25.153  1.00  0.00     0.275 C 
BRANCH  55  56
ATOM     56  O   UNL A   1      36.710  21.474  25.160  1.00  0.00    -0.457 OA
BRANCH  56  57
ATOM     57  C   UNL A   1      36.326  22.421  24.258  1.00  0.00     0.355 C 
ATOM     58  O   UNL A   1      36.800  22.569  23.141  1.00  0.00    -0.244 OA
BRANCH  57  59
ATOM     59  C   UNL A   1      35.153  23.102  24.731  1.00  0.00     0.134 A 
ATOM     60  N   UNL A   1      35.244  24.371  25.261  1.00  0.00    -0.349 N 
ATOM     61  C   UNL A   1      33.812  22.745  24.758  1.00  0.00     0.022 A 
ATOM     62  C   UNL A   1      33.997  24.895  25.488  1.00  0.00     0.047 A 
ATOM     63  H   UNL A   1      36.090  24.837  25.452  1.00  0.00     0.167 HD
ATOM     64  C   UNL A   1      33.084  23.855  25.309  1.00  0.00     0.010 A 
ATOM     65  C   UNL A   1      33.616  26.201  25.825  1.00  0.00     0.028 A 
ATOM     66  C   UNL A   1      31.726  24.110  25.598  1.00  0.00     0.031 A 
ATOM     67  C   UNL A   1      32.253  26.449  26.004  1.00  0.00     0.022 A 
ATOM     68  C   UNL A   1      31.327  25.415  25.915  1.00  0.00     0.041 A 
ATOM     69  Cl  UNL A   1      29.654  25.751  26.151  1.00  0.00    -0.084 Cl
BRANCH  61  70
ATOM     70  C   UNL A   1      33.314  21.493  24.205  1.00  0.00    -0.015 A 
ATOM     71  C   UNL A   1      33.531  20.279  24.857  1.00  0.00     0.009 A 
ATOM     72  C   UNL A   1      32.641  21.489  22.976  1.00  0.00     0.009 A 
ATOM     73  C   UNL A   1      33.061  19.088  24.292  1.00  0.00     0.001 A 
ATOM     74  C   UNL A   1      32.144  20.308  22.427  1.00  0.00     0.001 A 
ATOM     75  C   UNL A   1      32.359  19.104  23.085  1.00  0.00     0.000 A 
ENDBRANCH  61  70
ENDBRANCH  57  59
ENDBRANCH  56  57
ENDBRANCH  55  56
ENDBRANCH   1  55
TORSDOF 12
ENDMDL
MODEL 3
REMARK VINA RESULT:     -11.3      0.519      6.108
REMARK SMILES O=C(OCCOC(=O)c1[nH]c2ccc(Cl)cc2c1-c1ccccc1)c1ccc(-c2c3nc(c(-c4ccccc4)c4ccc([nH]4)c(-c4ccccc4)c4nc(c(-c5ccccc5)c5ccc2[nH]5)C=C4)C=C3)cc1
REMARK SMILES IDX 4 1 3 2 2 3 1 4 25 5 26 6 72 7 27 8 71 9 28 10 29 11 30 12
REMARK SMILES IDX 65 13 31 14 70 15 64 16 66 17 32 18 69 19 63 20 62 21 33 23
REMARK SMILES IDX 55 24 40 25 54 26 41 27 44 28 53 29 67 30 42 31 43 32 52 34
REMARK SMILES IDX 68 35 45 36 34 37 35 38 39 39 36 40 38 41 37 42 56 43 57 44
REMARK SMILES IDX 61 45 58 46 60 47 59 48 46 49 47 50 51 51 48 52 50 53 49 54
REMARK SMILES IDX 5 55 6 56 7 57 8 58 9 59 10 60 18 61 11 62 17 64 12 65 16 66
REMARK SMILES IDX 13 67 14 68 15 69 19 70 20 71 24 72 21 73 23 74 22 75
REMARK H PARENT 66 22 44 33 10 63
REMARK Flexibility Score: inf
ROOT
ATOM      1  C   UNL A   1      31.567  32.250  26.902  1.00  0.00     0.275 C 
ENDROOT
BRANCH   1   2
ATOM      2  O   UNL A   1      32.240  33.509  27.111  1.00  0.00    -0.458 OA
BRANCH   2   3
ATOM      3  C   UNL A   1      32.998  33.988  28.122  1.00  0.00     0.338 C 
ATOM      4  O   UNL A   1      32.587  34.988  28.714  1.00  0.00    -0.246 OA
BRANCH   3   5
ATOM      5  C   UNL A   1      34.331  33.448  28.563  1.00  0.00     0.060 A 
ATOM      6  C   UNL A   1      35.551  33.589  27.904  1.00  0.00     0.016 A 
ATOM      7  C   UNL A   1      34.338  32.737  29.784  1.00  0.00     0.016 A 
ATOM      8  C   UNL A   1      36.731  33.057  28.442  1.00  0.00     0.010 A 
ATOM      9  C   UNL A   1      35.517  32.225  30.342  1.00  0.00     0.010 A 
ATOM     10  C   UNL A   1      36.725  32.382  29.667  1.00  0.00    -0.014 A 
BRANCH  10  11
ATOM     11  C   UNL A   1      37.990  31.817  30.184  1.00  0.00     0.031 A 
ATOM     12  C   UNL A   1      38.498  30.537  29.623  1.00  0.00     0.074 A 
ATOM     13  C   UNL A   1      38.722  32.499  31.082  1.00  0.00     0.049 A 
ATOM     14  N   UNL A   1      39.646  29.952  29.834  1.00  0.00    -0.248 NA
ATOM     15  C   UNL A   1      37.601  29.823  28.704  1.00  0.00     0.031 C 
ATOM     16  C   UNL A   1      38.302  33.752  31.677  1.00  0.00     0.029 A 
ATOM     17  N   UNL A   1      39.964  32.284  31.619  1.00  0.00    -0.354 N 
ATOM     18  C   UNL A   1      39.610  28.793  29.080  1.00  0.00     0.074 A 
ATOM     19  C   UNL A   1      38.327  28.754  28.411  1.00  0.00     0.031 C 
ATOM     20  C   UNL A   1      39.287  34.255  32.431  1.00  0.00     0.029 A 
ATOM     21  C   UNL A   1      40.393  33.313  32.428  1.00  0.00     0.049 A 
ATOM     22  H   UNL A   1      40.496  31.476  31.445  1.00  0.00     0.167 HD
ATOM     23  C   UNL A   1      40.563  27.839  28.973  1.00  0.00     0.031 A 
ATOM     24  C   UNL A   1      41.551  33.479  33.094  1.00  0.00     0.031 A 
ATOM     25  C   UNL A   1      41.804  27.862  29.698  1.00  0.00     0.049 A 
ATOM     26  C   UNL A   1      42.581  32.397  32.975  1.00  0.00     0.074 A 
ATOM     27  C   UNL A   1      42.810  26.914  29.723  1.00  0.00     0.029 A 
ATOM     28  N   UNL A   1      42.199  28.890  30.545  1.00  0.00    -0.354 N 
ATOM     29  N   UNL A   1      42.541  31.307  32.245  1.00  0.00    -0.248 NA
ATOM     30  C   UNL A   1      43.804  32.554  33.770  1.00  0.00     0.031 C 
ATOM     31  C   UNL A   1      43.797  27.352  30.616  1.00  0.00     0.029 A 
ATOM     32  C   UNL A   1      43.425  28.593  31.112  1.00  0.00     0.049 A 
ATOM     33  H   UNL A   1      41.681  29.709  30.718  1.00  0.00     0.167 HD
ATOM     34  C   UNL A   1      43.727  30.640  32.499  1.00  0.00     0.074 A 
ATOM     35  C   UNL A   1      44.485  31.471  33.417  1.00  0.00     0.031 C 
ATOM     36  C   UNL A   1      44.145  29.439  32.032  1.00  0.00     0.031 A 
BRANCH  23  37
ATOM     37  C   UNL A   1      40.223  26.672  28.098  1.00  0.00    -0.014 A 
ATOM     38  C   UNL A   1      39.497  25.578  28.597  1.00  0.00     0.009 A 
ATOM     39  C   UNL A   1      40.713  26.626  26.786  1.00  0.00     0.009 A 
ATOM     40  C   UNL A   1      39.310  24.440  27.812  1.00  0.00     0.001 A 
ATOM     41  C   UNL A   1      40.507  25.495  25.995  1.00  0.00     0.001 A 
ATOM     42  C   UNL A   1      39.818  24.398  26.512  1.00  0.00     0.000 A 
ENDBRANCH  23  37
BRANCH  24  43
ATOM     43  C   UNL A   1      41.788  34.694  33.920  1.00  0.00    -0.014 A 
ATOM     44  C   UNL A   1      42.446  35.811  33.381  1.00  0.00     0.009 A 
ATOM     45  C   UNL A   1      41.350  34.751  35.253  1.00  0.00     0.009 A 
ATOM     46  C   UNL A   1      42.674  36.948  34.161  1.00  0.00     0.001 A 
ATOM     47  C   UNL A   1      41.556  35.900  36.023  1.00  0.00     0.001 A 
ATOM     48  C   UNL A   1      42.224  36.994  35.479  1.00  0.00     0.000 A 
ENDBRANCH  24  43
BRANCH  36  49
ATOM     49  C   UNL A   1      45.479  28.966  32.521  1.00  0.00    -0.014 A 
ATOM     50  C   UNL A   1      45.583  28.181  33.680  1.00  0.00     0.009 A 
ATOM     51  C   UNL A   1      46.639  29.290  31.803  1.00  0.00     0.009 A 
ATOM     52  C   UNL A   1      46.833  27.754  34.127  1.00  0.00     0.001 A 
ATOM     53  C   UNL A   1      47.885  28.841  32.241  1.00  0.00     0.001 A 
ATOM     54  C   UNL A   1      47.981  28.080  33.406  1.00  0.00     0.000 A 
ENDBRANCH  36  49
ENDBRANCH  10  11
ENDBRANCH   3   5
ENDBRANCH   2   3
ENDBRANCH   1   2
BRANCH   1  55
ATOM     55  C   UNL A   1      32.509  31.044  26.889  1.00  0.00     0.275 C 
BRANCH  55  56
ATOM     56  O   UNL A   1      32.038  29.993  26.040  1.00  0.00    -0.457 OA
BRANCH  56  57
ATOM     57  C   UNL A   1      31.938  28.771  26.635  1.00  0.00     0.355 C 
ATOM     58  O   UNL A   1      31.410  28.551  27.716  1.00  0.00    -0.244 OA
BRANCH  57  59
ATOM     59  C   UNL A   1      32.370  27.745  25.728  1.00  0.00     0.134 A 
ATOM     60  N   UNL A   1      33.529  27.039  25.969  1.00  0.00    -0.349 N 
ATOM     61  C   UNL A   1      31.821  27.239  24.558  1.00  0.00     0.022 A 
ATOM     62  C   UNL A   1      33.662  26.002  25.080  1.00  0.00     0.047 A 
ATOM     63  H   UNL A   1      34.175  27.250  26.682  1.00  0.00     0.167 HD
ATOM     64  C   UNL A   1      32.681  26.181  24.104  1.00  0.00     0.010 A 
ATOM     65  C   UNL A   1      34.563  24.929  25.075  1.00  0.00     0.028 A 
ATOM     66  C   UNL A   1      32.678  25.300  23.001  1.00  0.00     0.031 A 
ATOM     67  C   UNL A   1      34.470  24.013  24.024  1.00  0.00     0.022 A 
ATOM     68  C   UNL A   1      33.557  24.210  22.992  1.00  0.00     0.041 A 
ATOM     69  Cl  UNL A   1      33.474  23.068  21.705  1.00  0.00    -0.084 Cl
BRANCH  61  70
ATOM     70  C   UNL A   1      30.543  27.689  24.024  1.00  0.00    -0.015 A 
ATOM     71  C   UNL A   1      29.387  26.925  24.180  1.00  0.00     0.009 A 
ATOM     72  C   UNL A   1      30.469  28.888  23.303  1.00  0.00     0.009 A 
ATOM     73  C   UNL A   1      28.176  27.370  23.637  1.00  0.00     0.001 A 
ATOM     74  C   UNL A   1      29.258  29.350  22.789  1.00  0.00     0.001 A 
ATOM     75  C   UNL A   1      28.109  28.586  22.953  1.00  0.00     0.000 A 
ENDBRANCH  61  70
ENDBRANCH  57  59
ENDBRANCH  56  57
ENDBRANCH  55  56
ENDBRANCH   1  55
TORSDOF 12
ENDMDL
