MODEL 1
REMARK VINA RESULT:     -10.7      0.000      0.000
REMARK SMILES C[C@@H]1[C@@H](C(=O)OCCOC(=O)c2ccc(-c3c4nc(c(-c5ccccc5)c5ccc([nH]5)c(-c5ccccc5)c5nc(c(-c6ccccc6)c6ccc3[nH]6)C=C5)C=C4)cc2)CCN1C(=O)[C@]1([NH3+])CCOC1
REMARK SMILES IDX 7 1 6 2 4 3 5 4 3 5 1 6 2 7 62 8 60 9 61 10 63 11 64 12
REMARK SMILES IDX 65 13 67 14 70 15 68 16 69 17 66 18 8 22 9 23 10 24 11 25
REMARK SMILES IDX 12 26 13 27 59 28 14 29 58 30 15 31 16 32 17 33 52 34 18 35
REMARK SMILES IDX 57 36 51 37 53 38 19 39 56 40 50 41 49 42 20 44 42 45 27 46
REMARK SMILES IDX 41 47 28 48 31 49 40 50 54 51 29 52 30 53 39 55 55 56 32 57
REMARK SMILES IDX 21 58 22 59 26 60 23 61 25 62 24 63 43 64 44 65 48 66 45 67
REMARK SMILES IDX 47 68 46 69 33 70 34 71 38 72 35 73 37 74 36 75
REMARK H PARENT 66 19 66 20 66 21 53 43 31 54
REMARK Flexibility Score: inf
ROOT
ATOM      1  C   UNL A   1      32.943  29.073  26.878  1.00  0.00     0.274 C 
ENDROOT
BRANCH   1   2
ATOM      2  O   UNL A   1      32.023  28.757  25.808  1.00  0.00    -0.462 OA
BRANCH   2   3
ATOM      3  C   UNL A   1      31.359  27.579  25.937  1.00  0.00     0.311 C 
ATOM      4  O   UNL A   1      31.043  27.078  27.011  1.00  0.00    -0.252 OA
BRANCH   3   5
ATOM      5  C   UNL A   1      31.187  26.851  24.615  1.00  0.00     0.123 C 
ATOM      6  C   UNL A   1      31.505  26.967  22.149  1.00  0.00     0.032 C 
ATOM      7  C   UNL A   1      30.958  27.723  23.369  1.00  0.00     0.096 C 
ATOM      8  N   UNL A   1      29.502  27.857  23.284  1.00  0.00    -0.334 N 
ATOM      9  C   UNL A   1      29.954  25.934  24.634  1.00  0.00     0.039 C 
ATOM     10  C   UNL A   1      28.865  26.703  23.900  1.00  0.00     0.121 C 
BRANCH   8  11
ATOM     11  C   UNL A   1      28.689  28.845  22.765  1.00  0.00     0.286 C 
ATOM     12  O   UNL A   1      27.486  28.581  22.578  1.00  0.00    -0.267 OA
BRANCH  11  13
ATOM     13  C   UNL A   1      29.184  30.282  22.358  1.00  0.00     0.199 C 
ATOM     14  C   UNL A   1      29.462  31.188  23.541  1.00  0.00     0.110 C 
ATOM     15  C   UNL A   1      28.214  31.067  21.485  1.00  0.00     0.239 C 
ATOM     16  C   UNL A   1      28.439  32.301  23.453  1.00  0.00     0.167 C 
ATOM     17  O   UNL A   1      27.650  32.122  22.278  1.00  0.00    -0.374 OA
BRANCH  13  18
ATOM     18  N   UNL A   1      30.483  30.098  21.628  1.00  0.00    -0.343 N 
ATOM     19  H   UNL A   1      30.296  29.777  20.678  1.00  0.00     0.345 HD
ATOM     20  H   UNL A   1      31.051  29.405  22.115  1.00  0.00     0.345 HD
ATOM     21  H   UNL A   1      30.983  30.985  21.596  1.00  0.00     0.345 HD
ENDBRANCH  13  18
ENDBRANCH  11  13
ENDBRANCH   8  11
ENDBRANCH   3   5
ENDBRANCH   2   3
ENDBRANCH   1   2
BRANCH   1  22
ATOM     22  C   UNL A   1      32.908  30.562  27.217  1.00  0.00     0.275 C 
BRANCH  22  23
ATOM     23  O   UNL A   1      34.246  31.084  27.223  1.00  0.00    -0.458 OA
BRANCH  23  24
ATOM     24  C   UNL A   1      34.835  31.192  28.437  1.00  0.00     0.338 C 
ATOM     25  O   UNL A   1      34.427  31.829  29.393  1.00  0.00    -0.246 OA
BRANCH  24  26
ATOM     26  C   UNL A   1      36.070  30.377  28.484  1.00  0.00     0.060 A 
ATOM     27  C   UNL A   1      36.490  29.767  29.665  1.00  0.00     0.016 A 
ATOM     28  C   UNL A   1      36.888  30.321  27.354  1.00  0.00     0.016 A 
ATOM     29  C   UNL A   1      37.762  29.198  29.747  1.00  0.00     0.010 A 
ATOM     30  C   UNL A   1      38.125  29.671  27.415  1.00  0.00     0.010 A 
ATOM     31  C   UNL A   1      38.602  29.141  28.626  1.00  0.00    -0.014 A 
BRANCH  31  32
ATOM     32  C   UNL A   1      39.988  28.596  28.725  1.00  0.00     0.031 A 
ATOM     33  C   UNL A   1      41.118  29.484  29.188  1.00  0.00     0.074 A 
ATOM     34  C   UNL A   1      40.262  27.310  28.425  1.00  0.00     0.049 A 
ATOM     35  N   UNL A   1      42.411  29.303  29.073  1.00  0.00    -0.248 NA
ATOM     36  C   UNL A   1      40.747  30.747  29.845  1.00  0.00     0.031 C 
ATOM     37  C   UNL A   1      39.285  26.293  28.035  1.00  0.00     0.029 A 
ATOM     38  N   UNL A   1      41.459  26.633  28.420  1.00  0.00    -0.354 N 
ATOM     39  C   UNL A   1      43.001  30.466  29.556  1.00  0.00     0.074 A 
ATOM     40  C   UNL A   1      41.927  31.337  29.984  1.00  0.00     0.031 C 
ATOM     41  C   UNL A   1      39.907  25.113  27.894  1.00  0.00     0.029 A 
ATOM     42  C   UNL A   1      41.342  25.311  28.070  1.00  0.00     0.049 A 
ATOM     43  H   UNL A   1      42.319  27.058  28.645  1.00  0.00     0.167 HD
ATOM     44  C   UNL A   1      44.317  30.781  29.623  1.00  0.00     0.031 A 
ATOM     45  C   UNL A   1      42.278  24.366  27.859  1.00  0.00     0.031 A 
ATOM     46  C   UNL A   1      45.389  29.884  29.281  1.00  0.00     0.049 A 
ATOM     47  C   UNL A   1      43.730  24.735  27.937  1.00  0.00     0.074 A 
ATOM     48  C   UNL A   1      46.754  30.117  29.309  1.00  0.00     0.029 A 
ATOM     49  N   UNL A   1      45.217  28.565  28.893  1.00  0.00    -0.354 N 
ATOM     50  N   UNL A   1      44.273  25.885  28.247  1.00  0.00    -0.248 NA
ATOM     51  C   UNL A   1      44.697  23.681  27.594  1.00  0.00     0.031 C 
ATOM     52  C   UNL A   1      47.408  28.942  28.920  1.00  0.00     0.029 A 
ATOM     53  C   UNL A   1      46.450  27.971  28.684  1.00  0.00     0.049 A 
ATOM     54  H   UNL A   1      44.348  28.118  28.782  1.00  0.00     0.167 HD
ATOM     55  C   UNL A   1      45.643  25.698  28.126  1.00  0.00     0.074 A 
ATOM     56  C   UNL A   1      45.850  24.317  27.747  1.00  0.00     0.031 C 
ATOM     57  C   UNL A   1      46.640  26.599  28.299  1.00  0.00     0.031 A 
BRANCH  44  58
ATOM     58  C   UNL A   1      44.679  32.176  30.047  1.00  0.00    -0.014 A 
ATOM     59  C   UNL A   1      44.824  32.524  31.397  1.00  0.00     0.009 A 
ATOM     60  C   UNL A   1      44.938  33.144  29.061  1.00  0.00     0.009 A 
ATOM     61  C   UNL A   1      45.199  33.823  31.752  1.00  0.00     0.001 A 
ATOM     62  C   UNL A   1      45.334  34.434  29.419  1.00  0.00     0.001 A 
ATOM     63  C   UNL A   1      45.459  34.773  30.764  1.00  0.00     0.000 A 
ENDBRANCH  44  58
BRANCH  45  64
ATOM     64  C   UNL A   1      41.866  22.991  27.481  1.00  0.00    -0.014 A 
ATOM     65  C   UNL A   1      41.592  22.675  26.142  1.00  0.00     0.009 A 
ATOM     66  C   UNL A   1      41.759  21.986  28.455  1.00  0.00     0.009 A 
ATOM     67  C   UNL A   1      41.218  21.377  25.786  1.00  0.00     0.001 A 
ATOM     68  C   UNL A   1      41.412  20.684  28.092  1.00  0.00     0.001 A 
ATOM     69  C   UNL A   1      41.137  20.381  26.760  1.00  0.00     0.000 A 
ENDBRANCH  45  64
BRANCH  57  70
ATOM     70  C   UNL A   1      48.041  26.107  28.090  1.00  0.00    -0.014 A 
ATOM     71  C   UNL A   1      48.795  25.609  29.163  1.00  0.00     0.009 A 
ATOM     72  C   UNL A   1      48.605  26.127  26.805  1.00  0.00     0.009 A 
ATOM     73  C   UNL A   1      50.104  25.167  28.957  1.00  0.00     0.001 A 
ATOM     74  C   UNL A   1      49.907  25.668  26.601  1.00  0.00     0.001 A 
ATOM     75  C   UNL A   1      50.657  25.196  27.677  1.00  0.00     0.000 A 
ENDBRANCH  57  70
ENDBRANCH  31  32
ENDBRANCH  24  26
ENDBRANCH  23  24
ENDBRANCH  22  23
ENDBRANCH   1  22
TORSDOF 14
ENDMDL
MODEL 2
REMARK VINA RESULT:     -10.7      4.092      6.471
REMARK SMILES C[C@@H]1[C@@H](C(=O)OCCOC(=O)c2ccc(-c3c4nc(c(-c5ccccc5)c5ccc([nH]5)c(-c5ccccc5)c5nc(c(-c6ccccc6)c6ccc3[nH]6)C=C5)C=C4)cc2)CCN1C(=O)[C@]1([NH3+])CCOC1
REMARK SMILES IDX 7 1 6 2 4 3 5 4 3 5 1 6 2 7 62 8 60 9 61 10 63 11 64 12
REMARK SMILES IDX 65 13 67 14 70 15 68 16 69 17 66 18 8 22 9 23 10 24 11 25
REMARK SMILES IDX 12 26 13 27 59 28 14 29 58 30 15 31 16 32 17 33 52 34 18 35
REMARK SMILES IDX 57 36 51 37 53 38 19 39 56 40 50 41 49 42 20 44 42 45 27 46
REMARK SMILES IDX 41 47 28 48 31 49 40 50 54 51 29 52 30 53 39 55 55 56 32 57
REMARK SMILES IDX 21 58 22 59 26 60 23 61 25 62 24 63 43 64 44 65 48 66 45 67
REMARK SMILES IDX 47 68 46 69 33 70 34 71 38 72 35 73 37 74 36 75
REMARK H PARENT 66 19 66 20 66 21 53 43 31 54
REMARK Flexibility Score: inf
ROOT
ATOM      1  C   UNL A   1      34.182  34.786  28.116  1.00  0.00     0.274 C 
ENDROOT
BRANCH   1   2
ATOM      2  O   UNL A   1      34.013  35.253  29.474  1.00  0.00    -0.462 OA
BRANCH   2   3
ATOM      3  C   UNL A   1      32.940  36.060  29.686  1.00  0.00     0.311 C 
ATOM      4  O   UNL A   1      32.168  36.426  28.807  1.00  0.00    -0.252 OA
BRANCH   3   5
ATOM      5  C   UNL A   1      32.882  36.604  31.103  1.00  0.00     0.123 C 
ATOM      6  C   UNL A   1      34.070  37.922  32.848  1.00  0.00     0.032 C 
ATOM      7  C   UNL A   1      34.225  36.781  31.832  1.00  0.00     0.096 C 
ATOM      8  N   UNL A   1      34.434  35.503  32.518  1.00  0.00    -0.334 N 
ATOM      9  C   UNL A   1      32.097  35.666  32.033  1.00  0.00     0.039 C 
ATOM     10  C   UNL A   1      33.151  34.880  32.800  1.00  0.00     0.121 C 
BRANCH   8  11
ATOM     11  C   UNL A   1      35.579  34.831  32.899  1.00  0.00     0.286 C 
ATOM     12  O   UNL A   1      36.114  35.144  33.979  1.00  0.00    -0.267 OA
BRANCH  11  13
ATOM     13  C   UNL A   1      36.280  33.712  32.043  1.00  0.00     0.199 C 
ATOM     14  C   UNL A   1      35.512  32.405  32.004  1.00  0.00     0.110 C 
ATOM     15  C   UNL A   1      37.676  33.330  32.515  1.00  0.00     0.239 C 
ATOM     16  C   UNL A   1      36.385  31.397  32.720  1.00  0.00     0.167 C 
ATOM     17  O   UNL A   1      37.609  32.022  33.102  1.00  0.00    -0.374 OA
BRANCH  13  18
ATOM     18  N   UNL A   1      36.347  34.227  30.635  1.00  0.00    -0.343 N 
ATOM     19  H   UNL A   1      35.408  34.465  30.315  1.00  0.00     0.345 HD
ATOM     20  H   UNL A   1      36.741  33.508  30.028  1.00  0.00     0.345 HD
ATOM     21  H   UNL A   1      36.937  35.057  30.605  1.00  0.00     0.345 HD
ENDBRANCH  13  18
ENDBRANCH  11  13
ENDBRANCH   8  11
ENDBRANCH   3   5
ENDBRANCH   2   3
ENDBRANCH   1   2
BRANCH   1  22
ATOM     22  C   UNL A   1      33.711  33.342  27.964  1.00  0.00     0.275 C 
BRANCH  22  23
ATOM     23  O   UNL A   1      34.778  32.449  28.322  1.00  0.00    -0.458 OA
BRANCH  23  24
ATOM     24  C   UNL A   1      34.570  31.139  28.054  1.00  0.00     0.338 C 
ATOM     25  O   UNL A   1      33.546  30.633  27.629  1.00  0.00    -0.246 OA
BRANCH  24  26
ATOM     26  C   UNL A   1      35.803  30.360  28.311  1.00  0.00     0.060 A 
ATOM     27  C   UNL A   1      35.972  29.646  29.497  1.00  0.00     0.016 A 
ATOM     28  C   UNL A   1      36.859  30.443  27.402  1.00  0.00     0.016 A 
ATOM     29  C   UNL A   1      37.220  29.109  29.819  1.00  0.00     0.010 A 
ATOM     30  C   UNL A   1      38.081  29.826  27.689  1.00  0.00     0.010 A 
ATOM     31  C   UNL A   1      38.296  29.190  28.924  1.00  0.00    -0.014 A 
BRANCH  31  32
ATOM     32  C   UNL A   1      39.649  28.678  29.292  1.00  0.00     0.031 A 
ATOM     33  C   UNL A   1      40.546  29.493  30.192  1.00  0.00     0.074 A 
ATOM     34  C   UNL A   1      40.093  27.483  28.852  1.00  0.00     0.049 A 
ATOM     35  N   UNL A   1      41.835  29.377  30.397  1.00  0.00    -0.248 NA
ATOM     36  C   UNL A   1      39.918  30.594  30.939  1.00  0.00     0.031 C 
ATOM     37  C   UNL A   1      39.334  26.532  28.039  1.00  0.00     0.029 A 
ATOM     38  N   UNL A   1      41.301  26.857  29.047  1.00  0.00    -0.354 N 
ATOM     39  C   UNL A   1      42.186  30.442  31.220  1.00  0.00     0.074 A 
ATOM     40  C   UNL A   1      40.970  31.181  31.493  1.00  0.00     0.031 C 
ATOM     41  C   UNL A   1      40.065  25.421  27.861  1.00  0.00     0.029 A 
ATOM     42  C   UNL A   1      41.385  25.625  28.448  1.00  0.00     0.049 A 
ATOM     43  H   UNL A   1      42.038  27.256  29.566  1.00  0.00     0.167 HD
ATOM     44  C   UNL A   1      43.410  30.778  31.693  1.00  0.00     0.031 A 
ATOM     45  C   UNL A   1      42.417  24.767  28.331  1.00  0.00     0.031 A 
ATOM     46  C   UNL A   1      44.603  29.998  31.496  1.00  0.00     0.049 A 
ATOM     47  C   UNL A   1      43.766  25.157  28.860  1.00  0.00     0.074 A 
ATOM     48  C   UNL A   1      45.891  30.262  31.930  1.00  0.00     0.029 A 
ATOM     49  N   UNL A   1      44.643  28.774  30.848  1.00  0.00    -0.354 N 
ATOM     50  N   UNL A   1      44.116  26.242  29.505  1.00  0.00    -0.248 NA
ATOM     51  C   UNL A   1      44.870  24.219  28.606  1.00  0.00     0.031 C 
ATOM     52  C   UNL A   1      46.716  29.205  31.527  1.00  0.00     0.029 A 
ATOM     53  C   UNL A   1      45.932  28.269  30.874  1.00  0.00     0.049 A 
ATOM     54  H   UNL A   1      43.871  28.331  30.429  1.00  0.00     0.167 HD
ATOM     55  C   UNL A   1      45.481  26.124  29.724  1.00  0.00     0.074 A 
ATOM     56  C   UNL A   1      45.889  24.849  29.174  1.00  0.00     0.031 C 
ATOM     57  C   UNL A   1      46.324  27.004  30.315  1.00  0.00     0.031 A 
BRANCH  44  58
ATOM     58  C   UNL A   1      43.537  32.075  32.440  1.00  0.00    -0.014 A 
ATOM     59  C   UNL A   1      43.448  32.135  33.837  1.00  0.00     0.009 A 
ATOM     60  C   UNL A   1      43.812  33.253  31.723  1.00  0.00     0.009 A 
ATOM     61  C   UNL A   1      43.609  33.355  34.501  1.00  0.00     0.001 A 
ATOM     62  C   UNL A   1      43.996  34.465  32.391  1.00  0.00     0.001 A 
ATOM     63  C   UNL A   1      43.888  34.515  33.778  1.00  0.00     0.000 A 
ENDBRANCH  44  58
BRANCH  45  64
ATOM     64  C   UNL A   1      42.228  23.480  27.617  1.00  0.00    -0.014 A 
ATOM     65  C   UNL A   1      42.569  23.363  26.261  1.00  0.00     0.009 A 
ATOM     66  C   UNL A   1      41.721  22.357  28.292  1.00  0.00     0.009 A 
ATOM     67  C   UNL A   1      42.403  22.146  25.595  1.00  0.00     0.001 A 
ATOM     68  C   UNL A   1      41.584  21.137  27.631  1.00  0.00     0.001 A 
ATOM     69  C   UNL A   1      41.920  21.033  26.283  1.00  0.00     0.000 A 
ENDBRANCH  45  64
BRANCH  57  70
ATOM     70  C   UNL A   1      47.767  26.604  30.405  1.00  0.00    -0.014 A 
ATOM     71  C   UNL A   1      48.663  26.911  29.371  1.00  0.00     0.009 A 
ATOM     72  C   UNL A   1      48.236  25.927  31.541  1.00  0.00     0.009 A 
ATOM     73  C   UNL A   1      50.000  26.520  29.459  1.00  0.00     0.001 A 
ATOM     74  C   UNL A   1      49.577  25.553  31.633  1.00  0.00     0.001 A 
ATOM     75  C   UNL A   1      50.456  25.842  30.591  1.00  0.00     0.000 A 
ENDBRANCH  57  70
ENDBRANCH  31  32
ENDBRANCH  24  26
ENDBRANCH  23  24
ENDBRANCH  22  23
ENDBRANCH   1  22
TORSDOF 14
ENDMDL
MODEL 3
REMARK VINA RESULT:     -10.6      3.289      7.000
REMARK SMILES C[C@@H]1[C@@H](C(=O)OCCOC(=O)c2ccc(-c3c4nc(c(-c5ccccc5)c5ccc([nH]5)c(-c5ccccc5)c5nc(c(-c6ccccc6)c6ccc3[nH]6)C=C5)C=C4)cc2)CCN1C(=O)[C@]1([NH3+])CCOC1
REMARK SMILES IDX 7 1 6 2 4 3 5 4 3 5 1 6 2 7 62 8 60 9 61 10 63 11 64 12
REMARK SMILES IDX 65 13 67 14 70 15 68 16 69 17 66 18 8 22 9 23 10 24 11 25
REMARK SMILES IDX 12 26 13 27 59 28 14 29 58 30 15 31 16 32 17 33 52 34 18 35
REMARK SMILES IDX 57 36 51 37 53 38 19 39 56 40 50 41 49 42 20 44 42 45 27 46
REMARK SMILES IDX 41 47 28 48 31 49 40 50 54 51 29 52 30 53 39 55 55 56 32 57
REMARK SMILES IDX 21 58 22 59 26 60 23 61 25 62 24 63 43 64 44 65 48 66 45 67
REMARK SMILES IDX 47 68 46 69 33 70 34 71 38 72 35 73 37 74 36 75
REMARK H PARENT 66 19 66 20 66 21 53 43 31 54
REMARK Flexibility Score: inf
ROOT
ATOM      1  C   UNL A   1      34.743  20.800  24.627  1.00  0.00     0.274 C 
ENDROOT
BRANCH   1   2
ATOM      2  O   UNL A   1      33.995  21.228  25.788  1.00  0.00    -0.462 OA
BRANCH   2   3
ATOM      3  C   UNL A   1      32.676  21.472  25.577  1.00  0.00     0.311 C 
ATOM      4  O   UNL A   1      31.878  20.640  25.160  1.00  0.00    -0.252 OA
BRANCH   3   5
ATOM      5  C   UNL A   1      32.311  22.936  25.753  1.00  0.00     0.123 C 
ATOM      6  C   UNL A   1      30.756  24.761  25.086  1.00  0.00     0.032 C 
ATOM      7  C   UNL A   1      31.652  23.635  24.551  1.00  0.00     0.096 C 
ATOM      8  N   UNL A   1      32.778  24.187  23.793  1.00  0.00    -0.334 N 
ATOM      9  C   UNL A   1      33.556  23.797  26.021  1.00  0.00     0.039 C 
ATOM     10  C   UNL A   1      33.894  24.449  24.688  1.00  0.00     0.121 C 
BRANCH   8  11
ATOM     11  C   UNL A   1      32.946  24.463  22.450  1.00  0.00     0.286 C 
ATOM     12  O   UNL A   1      33.428  23.575  21.722  1.00  0.00    -0.267 OA
BRANCH  11  13
ATOM     13  C   UNL A   1      32.600  25.840  21.774  1.00  0.00     0.199 C 
ATOM     14  C   UNL A   1      33.654  26.908  21.993  1.00  0.00     0.110 C 
ATOM     15  C   UNL A   1      31.299  26.474  22.249  1.00  0.00     0.239 C 
ATOM     16  C   UNL A   1      32.987  27.973  22.839  1.00  0.00     0.167 C 
ATOM     17  O   UNL A   1      31.623  27.615  23.056  1.00  0.00    -0.374 OA
BRANCH  13  18
ATOM     18  N   UNL A   1      32.528  25.588  20.296  1.00  0.00    -0.343 N 
ATOM     19  H   UNL A   1      31.567  25.714  19.976  1.00  0.00     0.345 HD
ATOM     20  H   UNL A   1      32.829  24.634  20.099  1.00  0.00     0.345 HD
ATOM     21  H   UNL A   1      33.138  26.244  19.810  1.00  0.00     0.345 HD
ENDBRANCH  13  18
ENDBRANCH  11  13
ENDBRANCH   8  11
ENDBRANCH   3   5
ENDBRANCH   2   3
ENDBRANCH   1   2
BRANCH   1  22
ATOM     22  C   UNL A   1      36.147  20.341  25.010  1.00  0.00     0.275 C 
BRANCH  22  23
ATOM     23  O   UNL A   1      36.925  21.474  25.430  1.00  0.00    -0.458 OA
BRANCH  23  24
ATOM     24  C   UNL A   1      38.239  21.241  25.654  1.00  0.00     0.338 C 
ATOM     25  O   UNL A   1      38.862  20.231  25.372  1.00  0.00    -0.246 OA
BRANCH  24  26
ATOM     26  C   UNL A   1      38.872  22.426  26.276  1.00  0.00     0.060 A 
ATOM     27  C   UNL A   1      38.340  23.704  26.105  1.00  0.00     0.016 A 
ATOM     28  C   UNL A   1      40.088  22.272  26.944  1.00  0.00     0.016 A 
ATOM     29  C   UNL A   1      39.069  24.825  26.504  1.00  0.00     0.010 A 
ATOM     30  C   UNL A   1      40.773  23.395  27.422  1.00  0.00     0.010 A 
ATOM     31  C   UNL A   1      40.297  24.692  27.167  1.00  0.00    -0.014 A 
BRANCH  31  32
ATOM     32  C   UNL A   1      41.111  25.889  27.534  1.00  0.00     0.031 A 
ATOM     33  C   UNL A   1      40.574  26.893  28.525  1.00  0.00     0.074 A 
ATOM     34  C   UNL A   1      42.337  26.093  27.011  1.00  0.00     0.049 A 
ATOM     35  N   UNL A   1      40.976  28.118  28.760  1.00  0.00    -0.248 NA
ATOM     36  C   UNL A   1      39.423  26.475  29.340  1.00  0.00     0.031 C 
ATOM     37  C   UNL A   1      43.043  25.191  26.099  1.00  0.00     0.029 A 
ATOM     38  N   UNL A   1      43.219  27.132  27.191  1.00  0.00    -0.354 N 
ATOM     39  C   UNL A   1      40.074  28.644  29.677  1.00  0.00     0.074 A 
ATOM     40  C   UNL A   1      39.115  27.600  29.972  1.00  0.00     0.031 C 
ATOM     41  C   UNL A   1      44.268  25.681  25.854  1.00  0.00     0.029 A 
ATOM     42  C   UNL A   1      44.393  26.984  26.496  1.00  0.00     0.049 A 
ATOM     43  H   UNL A   1      43.026  27.910  27.764  1.00  0.00     0.167 HD
ATOM     44  C   UNL A   1      40.042  29.888  30.214  1.00  0.00     0.031 A 
ATOM     45  C   UNL A   1      45.440  27.818  26.341  1.00  0.00     0.031 A 
ATOM     46  C   UNL A   1      41.043  30.898  29.992  1.00  0.00     0.049 A 
ATOM     47  C   UNL A   1      45.386  29.191  26.942  1.00  0.00     0.074 A 
ATOM     48  C   UNL A   1      41.091  32.191  30.485  1.00  0.00     0.029 A 
ATOM     49  N   UNL A   1      42.196  30.712  29.246  1.00  0.00    -0.354 N 
ATOM     50  N   UNL A   1      44.451  29.730  27.684  1.00  0.00    -0.248 NA
ATOM     51  C   UNL A   1      46.516  30.084  26.647  1.00  0.00     0.031 C 
ATOM     52  C   UNL A   1      42.268  32.794  30.023  1.00  0.00     0.029 A 
ATOM     53  C   UNL A   1      42.964  31.863  29.271  1.00  0.00     0.049 A 
ATOM     54  H   UNL A   1      42.432  29.885  28.769  1.00  0.00     0.167 HD
ATOM     55  C   UNL A   1      44.874  31.028  27.935  1.00  0.00     0.074 A 
ATOM     56  C   UNL A   1      46.162  31.185  27.295  1.00  0.00     0.031 C 
ATOM     57  C   UNL A   1      44.239  32.008  28.623  1.00  0.00     0.031 A 
BRANCH  44  58
ATOM     58  C   UNL A   1      38.861  30.249  31.068  1.00  0.00    -0.014 A 
ATOM     59  C   UNL A   1      38.898  30.138  32.465  1.00  0.00     0.009 A 
ATOM     60  C   UNL A   1      37.707  30.768  30.456  1.00  0.00     0.009 A 
ATOM     61  C   UNL A   1      37.792  30.519  33.231  1.00  0.00     0.001 A 
ATOM     62  C   UNL A   1      36.613  31.169  31.225  1.00  0.00     0.001 A 
ATOM     63  C   UNL A   1      36.655  31.039  32.611  1.00  0.00     0.000 A 
ENDBRANCH  44  58
BRANCH  45  64
ATOM     64  C   UNL A   1      46.602  27.397  25.519  1.00  0.00    -0.014 A 
ATOM     65  C   UNL A   1      47.583  26.551  26.057  1.00  0.00     0.009 A 
ATOM     66  C   UNL A   1      46.727  27.826  24.188  1.00  0.00     0.009 A 
ATOM     67  C   UNL A   1      48.668  26.144  25.277  1.00  0.00     0.001 A 
ATOM     68  C   UNL A   1      47.797  27.396  23.403  1.00  0.00     0.001 A 
ATOM     69  C   UNL A   1      48.770  26.560  23.949  1.00  0.00     0.000 A 
ENDBRANCH  45  64
BRANCH  57  70
ATOM     70  C   UNL A   1      44.943  33.328  28.724  1.00  0.00    -0.014 A 
ATOM     71  C   UNL A   1      45.846  33.583  29.767  1.00  0.00     0.009 A 
ATOM     72  C   UNL A   1      44.712  34.320  27.759  1.00  0.00     0.009 A 
ATOM     73  C   UNL A   1      46.483  34.822  29.859  1.00  0.00     0.001 A 
ATOM     74  C   UNL A   1      45.365  35.550  27.844  1.00  0.00     0.001 A 
ATOM     75  C   UNL A   1      46.242  35.803  28.897  1.00  0.00     0.000 A 
ENDBRANCH  57  70
ENDBRANCH  31  32
ENDBRANCH  24  26
ENDBRANCH  23  24
ENDBRANCH  22  23
ENDBRANCH   1  22
TORSDOF 14
ENDMDL
