MODEL 1
REMARK VINA RESULT:     -12.0      0.000      0.000
REMARK SMILES COc1ccc(-c2cnc(N)c(C(=O)OCCOC(=O)c3ccc(-c4c5nc(c(-c6ccccc6)c6ccc([nH]6)c(-c6ccccc6)c6nc(c(-c7ccccc7)c7ccc4[nH]7)C=C6)C=C5)cc3)c2)c(C)c1
REMARK SMILES IDX 16 1 15 2 13 3 14 4 12 5 7 6 8 7 69 8 9 9 10 10 6 11 3 12
REMARK SMILES IDX 4 13 72 14 5 15 70 16 71 17 2 18 1 19 11 20 17 23 18 24
REMARK SMILES IDX 19 25 20 26 21 27 22 28 68 29 23 30 67 31 24 32 25 33 26 34
REMARK SMILES IDX 61 35 27 36 66 37 60 38 62 39 28 40 65 41 59 42 58 43 29 45
REMARK SMILES IDX 51 46 36 47 50 48 37 49 40 50 49 51 63 52 38 53 39 54 48 56
REMARK SMILES IDX 64 57 41 58 30 59 31 60 35 61 32 62 34 63 33 64 52 65 53 66
REMARK SMILES IDX 57 67 54 68 56 69 55 70 42 71 43 72 47 73 44 74 46 75 45 76
REMARK H PARENT 11 21 11 22 62 44 40 55
REMARK Flexibility Score: inf
ROOT
ATOM      1  C   UNL A   1      31.219  31.579  26.599  1.00  0.00     0.275 C 
ENDROOT
BRANCH   1   2
ATOM      2  O   UNL A   1      31.534  30.592  25.601  1.00  0.00    -0.458 OA
BRANCH   2   3
ATOM      3  C   UNL A   1      30.659  30.391  24.593  1.00  0.00     0.342 C 
ATOM      4  O   UNL A   1      29.735  31.120  24.286  1.00  0.00    -0.246 OA
BRANCH   3   5
ATOM      5  C   UNL A   1      30.892  29.074  23.979  1.00  0.00     0.102 A 
ATOM      6  C   UNL A   1      31.319  26.689  24.344  1.00  0.00     0.001 A 
ATOM      7  C   UNL A   1      31.107  26.582  22.965  1.00  0.00     0.122 A 
ATOM      8  C   UNL A   1      31.169  27.991  24.831  1.00  0.00     0.030 A 
ATOM      9  N   UNL A   1      30.874  27.614  22.104  1.00  0.00    -0.238 NA
ATOM     10  C   UNL A   1      30.799  28.856  22.613  1.00  0.00     0.138 A 
BRANCH   6  11
ATOM     11  C   UNL A   1      31.704  25.510  25.185  1.00  0.00    -0.014 A 
ATOM     12  C   UNL A   1      32.224  23.233  26.852  1.00  0.00     0.119 A 
ATOM     13  C   UNL A   1      30.927  23.682  26.679  1.00  0.00     0.047 A 
ATOM     14  C   UNL A   1      33.254  23.904  26.202  1.00  0.00     0.050 A 
ATOM     15  C   UNL A   1      30.677  24.788  25.851  1.00  0.00     0.013 A 
ATOM     16  C   UNL A   1      33.025  25.034  25.382  1.00  0.00    -0.040 A 
ATOM     17  C   UNL A   1      34.260  25.620  24.746  1.00  0.00     0.045 C 
BRANCH  12  18
ATOM     18  O   UNL A   1      32.615  22.207  27.664  1.00  0.00    -0.497 OA
ATOM     19  C   UNL A   1      33.999  21.881  27.641  1.00  0.00     0.278 C 
ENDBRANCH  12  18
ENDBRANCH   6  11
BRANCH  10  20
ATOM     20  N   UNL A   1      30.564  29.850  21.685  1.00  0.00    -0.383 N 
ATOM     21  H   UNL A   1      30.972  30.738  21.801  1.00  0.00     0.158 HD
ATOM     22  H   UNL A   1      29.988  29.671  20.906  1.00  0.00     0.158 HD
ENDBRANCH  10  20
ENDBRANCH   3   5
ENDBRANCH   2   3
ENDBRANCH   1   2
BRANCH   1  23
ATOM     23  C   UNL A   1      32.318  32.499  27.197  1.00  0.00     0.275 C 
BRANCH  23  24
ATOM     24  O   UNL A   1      32.155  33.881  27.643  1.00  0.00    -0.458 OA
BRANCH  24  25
ATOM     25  C   UNL A   1      32.923  34.572  28.513  1.00  0.00     0.338 C 
ATOM     26  O   UNL A   1      32.719  35.730  28.854  1.00  0.00    -0.246 OA
BRANCH  25  27
ATOM     27  C   UNL A   1      34.145  33.871  28.898  1.00  0.00     0.060 A 
ATOM     28  C   UNL A   1      34.140  32.967  29.971  1.00  0.00     0.016 A 
ATOM     29  C   UNL A   1      35.267  34.055  28.101  1.00  0.00     0.016 A 
ATOM     30  C   UNL A   1      35.232  32.139  30.167  1.00  0.00     0.010 A 
ATOM     31  C   UNL A   1      36.271  33.138  28.181  1.00  0.00     0.010 A 
ATOM     32  C   UNL A   1      36.279  32.239  29.254  1.00  0.00    -0.014 A 
BRANCH  32  33
ATOM     33  C   UNL A   1      37.622  31.798  29.539  1.00  0.00     0.031 A 
ATOM     34  C   UNL A   1      38.139  30.535  29.011  1.00  0.00     0.074 A 
ATOM     35  C   UNL A   1      38.343  32.790  30.120  1.00  0.00     0.049 A 
ATOM     36  N   UNL A   1      39.099  29.886  29.565  1.00  0.00    -0.248 NA
ATOM     37  C   UNL A   1      37.614  29.872  27.811  1.00  0.00     0.031 C 
ATOM     38  C   UNL A   1      39.773  32.955  30.278  1.00  0.00     0.029 A 
ATOM     39  N   UNL A   1      37.840  33.933  30.763  1.00  0.00    -0.354 N 
ATOM     40  C   UNL A   1      39.569  29.013  28.611  1.00  0.00     0.074 A 
ATOM     41  C   UNL A   1      38.521  28.900  27.625  1.00  0.00     0.031 C 
ATOM     42  C   UNL A   1      39.977  33.882  31.241  1.00  0.00     0.029 A 
ATOM     43  C   UNL A   1      38.679  34.189  31.837  1.00  0.00     0.049 A 
ATOM     44  H   UNL A   1      37.046  34.452  30.501  1.00  0.00     0.167 HD
ATOM     45  C   UNL A   1      40.888  28.676  28.625  1.00  0.00     0.031 A 
ATOM     46  C   UNL A   1      38.274  33.869  33.109  1.00  0.00     0.031 A 
ATOM     47  C   UNL A   1      41.598  29.394  29.684  1.00  0.00     0.049 A 
ATOM     48  C   UNL A   1      39.100  32.722  33.683  1.00  0.00     0.074 A 
ATOM     49  C   UNL A   1      42.406  30.520  29.689  1.00  0.00     0.029 A 
ATOM     50  N   UNL A   1      41.190  29.216  30.994  1.00  0.00    -0.354 N 
ATOM     51  N   UNL A   1      39.876  31.959  32.961  1.00  0.00    -0.248 NA
ATOM     52  C   UNL A   1      39.065  32.293  35.080  1.00  0.00     0.031 C 
ATOM     53  C   UNL A   1      42.471  31.014  31.027  1.00  0.00     0.029 A 
ATOM     54  C   UNL A   1      41.709  30.184  31.829  1.00  0.00     0.049 A 
ATOM     55  H   UNL A   1      40.599  28.487  31.294  1.00  0.00     0.167 HD
ATOM     56  C   UNL A   1      40.469  31.013  33.740  1.00  0.00     0.074 A 
ATOM     57  C   UNL A   1      39.895  31.233  35.057  1.00  0.00     0.031 C 
ATOM     58  C   UNL A   1      41.376  30.122  33.244  1.00  0.00     0.031 A 
BRANCH  45  59
ATOM     59  C   UNL A   1      41.579  27.948  27.505  1.00  0.00    -0.014 A 
ATOM     60  C   UNL A   1      41.805  28.611  26.286  1.00  0.00     0.009 A 
ATOM     61  C   UNL A   1      42.049  26.627  27.597  1.00  0.00     0.009 A 
ATOM     62  C   UNL A   1      42.414  27.981  25.196  1.00  0.00     0.001 A 
ATOM     63  C   UNL A   1      42.642  25.981  26.501  1.00  0.00     0.001 A 
ATOM     64  C   UNL A   1      42.821  26.658  25.299  1.00  0.00     0.000 A 
ENDBRANCH  45  59
BRANCH  46  65
ATOM     65  C   UNL A   1      36.809  34.076  33.385  1.00  0.00    -0.014 A 
ATOM     66  C   UNL A   1      36.212  35.301  33.004  1.00  0.00     0.009 A 
ATOM     67  C   UNL A   1      35.955  33.021  33.735  1.00  0.00     0.009 A 
ATOM     68  C   UNL A   1      34.824  35.424  32.859  1.00  0.00     0.001 A 
ATOM     69  C   UNL A   1      34.560  33.156  33.619  1.00  0.00     0.001 A 
ATOM     70  C   UNL A   1      33.999  34.343  33.148  1.00  0.00     0.000 A 
ENDBRANCH  46  65
BRANCH  58  71
ATOM     71  C   UNL A   1      42.038  29.064  34.073  1.00  0.00    -0.014 A 
ATOM     72  C   UNL A   1      43.175  29.315  34.847  1.00  0.00     0.009 A 
ATOM     73  C   UNL A   1      41.590  27.727  34.002  1.00  0.00     0.009 A 
ATOM     74  C   UNL A   1      43.778  28.293  35.588  1.00  0.00     0.001 A 
ATOM     75  C   UNL A   1      42.204  26.701  34.712  1.00  0.00     0.001 A 
ATOM     76  C   UNL A   1      43.289  26.990  35.524  1.00  0.00     0.000 A 
ENDBRANCH  58  71
ENDBRANCH  32  33
ENDBRANCH  25  27
ENDBRANCH  24  25
ENDBRANCH  23  24
ENDBRANCH   1  23
TORSDOF 14
ENDMDL
MODEL 2
REMARK VINA RESULT:     -11.5      2.828      4.475
REMARK SMILES COc1ccc(-c2cnc(N)c(C(=O)OCCOC(=O)c3ccc(-c4c5nc(c(-c6ccccc6)c6ccc([nH]6)c(-c6ccccc6)c6nc(c(-c7ccccc7)c7ccc4[nH]7)C=C6)C=C5)cc3)c2)c(C)c1
REMARK SMILES IDX 16 1 15 2 13 3 14 4 12 5 7 6 8 7 69 8 9 9 10 10 6 11 3 12
REMARK SMILES IDX 4 13 72 14 5 15 70 16 71 17 2 18 1 19 11 20 17 23 18 24
REMARK SMILES IDX 19 25 20 26 21 27 22 28 68 29 23 30 67 31 24 32 25 33 26 34
REMARK SMILES IDX 61 35 27 36 66 37 60 38 62 39 28 40 65 41 59 42 58 43 29 45
REMARK SMILES IDX 51 46 36 47 50 48 37 49 40 50 49 51 63 52 38 53 39 54 48 56
REMARK SMILES IDX 64 57 41 58 30 59 31 60 35 61 32 62 34 63 33 64 52 65 53 66
REMARK SMILES IDX 57 67 54 68 56 69 55 70 42 71 43 72 47 73 44 74 46 75 45 76
REMARK H PARENT 11 21 11 22 62 44 40 55
REMARK Flexibility Score: inf
ROOT
ATOM      1  C   UNL A   1      33.851  29.023  27.115  1.00  0.00     0.275 C 
ENDROOT
BRANCH   1   2
ATOM      2  O   UNL A   1      34.086  28.341  25.870  1.00  0.00    -0.458 OA
BRANCH   2   3
ATOM      3  C   UNL A   1      33.057  28.196  25.010  1.00  0.00     0.342 C 
ATOM      4  O   UNL A   1      31.968  28.733  25.093  1.00  0.00    -0.246 OA
BRANCH   3   5
ATOM      5  C   UNL A   1      33.383  27.175  24.002  1.00  0.00     0.102 A 
ATOM      6  C   UNL A   1      34.109  24.874  23.575  1.00  0.00     0.001 A 
ATOM      7  C   UNL A   1      33.789  25.167  22.244  1.00  0.00     0.122 A 
ATOM      8  C   UNL A   1      33.856  25.931  24.454  1.00  0.00     0.030 A 
ATOM      9  N   UNL A   1      33.365  26.371  21.765  1.00  0.00    -0.238 NA
ATOM     10  C   UNL A   1      33.195  27.375  22.642  1.00  0.00     0.138 A 
BRANCH   6  11
ATOM     11  C   UNL A   1      34.699  23.558  23.982  1.00  0.00    -0.014 A 
ATOM     12  C   UNL A   1      36.028  21.116  24.694  1.00  0.00     0.119 A 
ATOM     13  C   UNL A   1      36.759  22.187  24.213  1.00  0.00     0.047 A 
ATOM     14  C   UNL A   1      34.650  21.255  24.825  1.00  0.00     0.050 A 
ATOM     15  C   UNL A   1      36.105  23.385  23.879  1.00  0.00     0.013 A 
ATOM     16  C   UNL A   1      33.970  22.445  24.473  1.00  0.00    -0.040 A 
ATOM     17  C   UNL A   1      32.480  22.417  24.699  1.00  0.00     0.045 C 
BRANCH  12  18
ATOM     18  O   UNL A   1      36.523  19.883  25.008  1.00  0.00    -0.497 OA
ATOM     19  C   UNL A   1      37.937  19.742  24.952  1.00  0.00     0.278 C 
ENDBRANCH  12  18
ENDBRANCH   6  11
BRANCH  10  20
ATOM     20  N   UNL A   1      32.766  28.564  22.087  1.00  0.00    -0.383 N 
ATOM     21  H   UNL A   1      32.550  29.329  22.668  1.00  0.00     0.158 HD
ATOM     22  H   UNL A   1      32.677  28.648  21.110  1.00  0.00     0.158 HD
ENDBRANCH  10  20
ENDBRANCH   3   5
ENDBRANCH   2   3
ENDBRANCH   1   2
BRANCH   1  23
ATOM     23  C   UNL A   1      33.939  30.570  27.216  1.00  0.00     0.275 C 
BRANCH  23  24
ATOM     24  O   UNL A   1      35.044  31.349  27.770  1.00  0.00    -0.458 OA
BRANCH  24  25
ATOM     25  C   UNL A   1      35.523  31.335  29.033  1.00  0.00     0.338 C 
ATOM     26  O   UNL A   1      35.105  32.036  29.944  1.00  0.00    -0.246 OA
BRANCH  25  27
ATOM     27  C   UNL A   1      36.723  30.518  29.193  1.00  0.00     0.060 A 
ATOM     28  C   UNL A   1      36.771  29.503  30.161  1.00  0.00     0.016 A 
ATOM     29  C   UNL A   1      37.759  30.715  28.288  1.00  0.00     0.016 A 
ATOM     30  C   UNL A   1      37.811  28.590  30.137  1.00  0.00     0.010 A 
ATOM     31  C   UNL A   1      38.691  29.731  28.152  1.00  0.00     0.010 A 
ATOM     32  C   UNL A   1      38.752  28.722  29.119  1.00  0.00    -0.014 A 
BRANCH  32  33
ATOM     33  C   UNL A   1      40.081  28.166  29.192  1.00  0.00     0.031 A 
ATOM     34  C   UNL A   1      40.383  26.838  28.657  1.00  0.00     0.074 A 
ATOM     35  C   UNL A   1      40.977  29.107  29.580  1.00  0.00     0.049 A 
ATOM     36  N   UNL A   1      41.365  26.123  29.073  1.00  0.00    -0.248 NA
ATOM     37  C   UNL A   1      39.597  26.179  27.607  1.00  0.00     0.031 C 
ATOM     38  C   UNL A   1      42.421  29.141  29.479  1.00  0.00     0.029 A 
ATOM     39  N   UNL A   1      40.698  30.319  30.233  1.00  0.00    -0.354 N 
ATOM     40  C   UNL A   1      41.581  25.170  28.105  1.00  0.00     0.074 A 
ATOM     41  C   UNL A   1      40.368  25.117  27.324  1.00  0.00     0.031 C 
ATOM     42  C   UNL A   1      42.873  30.083  30.336  1.00  0.00     0.029 A 
ATOM     43  C   UNL A   1      41.734  30.538  31.129  1.00  0.00     0.049 A 
ATOM     44  H   UNL A   1      39.918  30.901  30.083  1.00  0.00     0.167 HD
ATOM     45  C   UNL A   1      42.847  24.708  27.910  1.00  0.00     0.031 A 
ATOM     46  C   UNL A   1      41.536  30.313  32.468  1.00  0.00     0.031 A 
ATOM     47  C   UNL A   1      43.793  25.399  28.786  1.00  0.00     0.049 A 
ATOM     48  C   UNL A   1      42.346  29.117  32.956  1.00  0.00     0.074 A 
ATOM     49  C   UNL A   1      44.685  26.441  28.586  1.00  0.00     0.029 A 
ATOM     50  N   UNL A   1      43.611  25.316  30.155  1.00  0.00    -0.354 N 
ATOM     51  N   UNL A   1      42.912  28.252  32.157  1.00  0.00    -0.248 NA
ATOM     52  C   UNL A   1      42.523  28.752  34.361  1.00  0.00     0.031 C 
ATOM     53  C   UNL A   1      45.030  26.982  29.860  1.00  0.00     0.029 A 
ATOM     54  C   UNL A   1      44.353  26.264  30.829  1.00  0.00     0.049 A 
ATOM     55  H   UNL A   1      43.022  24.661  30.594  1.00  0.00     0.167 HD
ATOM     56  C   UNL A   1      43.550  27.288  32.874  1.00  0.00     0.074 A 
ATOM     57  C   UNL A   1      43.240  27.617  34.257  1.00  0.00     0.031 C 
ATOM     58  C   UNL A   1      44.273  26.293  32.282  1.00  0.00     0.031 A 
BRANCH  45  59
ATOM     59  C   UNL A   1      43.261  23.871  26.732  1.00  0.00    -0.014 A 
ATOM     60  C   UNL A   1      43.091  22.476  26.782  1.00  0.00     0.009 A 
ATOM     61  C   UNL A   1      43.797  24.395  25.543  1.00  0.00     0.009 A 
ATOM     62  C   UNL A   1      43.484  21.639  25.732  1.00  0.00     0.001 A 
ATOM     63  C   UNL A   1      44.213  23.560  24.495  1.00  0.00     0.001 A 
ATOM     64  C   UNL A   1      44.059  22.181  24.591  1.00  0.00     0.000 A 
ENDBRANCH  45  59
BRANCH  46  65
ATOM     65  C   UNL A   1      40.166  30.671  32.981  1.00  0.00    -0.014 A 
ATOM     66  C   UNL A   1      39.693  31.990  32.791  1.00  0.00     0.009 A 
ATOM     67  C   UNL A   1      39.235  29.700  33.377  1.00  0.00     0.009 A 
ATOM     68  C   UNL A   1      38.329  32.296  32.872  1.00  0.00     0.001 A 
ATOM     69  C   UNL A   1      37.870  30.016  33.488  1.00  0.00     0.001 A 
ATOM     70  C   UNL A   1      37.414  31.302  33.200  1.00  0.00     0.000 A 
ENDBRANCH  46  65
BRANCH  58  71
ATOM     71  C   UNL A   1      44.977  25.212  33.044  1.00  0.00    -0.014 A 
ATOM     72  C   UNL A   1      46.320  25.308  33.420  1.00  0.00     0.009 A 
ATOM     73  C   UNL A   1      44.320  23.991  33.307  1.00  0.00     0.009 A 
ATOM     74  C   UNL A   1      46.947  24.265  34.110  1.00  0.00     0.001 A 
ATOM     75  C   UNL A   1      44.949  22.938  33.964  1.00  0.00     0.001 A 
ATOM     76  C   UNL A   1      46.260  23.085  34.385  1.00  0.00     0.000 A 
ENDBRANCH  58  71
ENDBRANCH  32  33
ENDBRANCH  25  27
ENDBRANCH  24  25
ENDBRANCH  23  24
ENDBRANCH   1  23
TORSDOF 14
ENDMDL
MODEL 3
REMARK VINA RESULT:     -11.5      2.892      4.494
REMARK SMILES COc1ccc(-c2cnc(N)c(C(=O)OCCOC(=O)c3ccc(-c4c5nc(c(-c6ccccc6)c6ccc([nH]6)c(-c6ccccc6)c6nc(c(-c7ccccc7)c7ccc4[nH]7)C=C6)C=C5)cc3)c2)c(C)c1
REMARK SMILES IDX 16 1 15 2 13 3 14 4 12 5 7 6 8 7 69 8 9 9 10 10 6 11 3 12
REMARK SMILES IDX 4 13 72 14 5 15 70 16 71 17 2 18 1 19 11 20 17 23 18 24
REMARK SMILES IDX 19 25 20 26 21 27 22 28 68 29 23 30 67 31 24 32 25 33 26 34
REMARK SMILES IDX 61 35 27 36 66 37 60 38 62 39 28 40 65 41 59 42 58 43 29 45
REMARK SMILES IDX 51 46 36 47 50 48 37 49 40 50 49 51 63 52 38 53 39 54 48 56
REMARK SMILES IDX 64 57 41 58 30 59 31 60 35 61 32 62 34 63 33 64 52 65 53 66
REMARK SMILES IDX 57 67 54 68 56 69 55 70 42 71 43 72 47 73 44 74 46 75 45 76
REMARK H PARENT 11 21 11 22 62 44 40 55
REMARK Flexibility Score: inf
ROOT
ATOM      1  C   UNL A   1      33.631  28.581  26.463  1.00  0.00     0.275 C 
ENDROOT
BRANCH   1   2
ATOM      2  O   UNL A   1      33.422  28.284  25.071  1.00  0.00    -0.458 OA
BRANCH   2   3
ATOM      3  C   UNL A   1      32.405  27.464  24.732  1.00  0.00     0.342 C 
ATOM      4  O   UNL A   1      31.285  27.472  25.208  1.00  0.00    -0.246 OA
BRANCH   3   5
ATOM      5  C   UNL A   1      32.874  26.447  23.778  1.00  0.00     0.102 A 
ATOM      6  C   UNL A   1      33.265  24.067  23.348  1.00  0.00     0.001 A 
ATOM      7  C   UNL A   1      33.501  24.486  22.033  1.00  0.00     0.122 A 
ATOM      8  C   UNL A   1      32.916  25.110  24.210  1.00  0.00     0.030 A 
ATOM      9  N   UNL A   1      33.506  25.774  21.588  1.00  0.00    -0.238 NA
ATOM     10  C   UNL A   1      33.223  26.748  22.470  1.00  0.00     0.138 A 
BRANCH   6  11
ATOM     11  C   UNL A   1      33.417  22.637  23.767  1.00  0.00    -0.014 A 
ATOM     12  C   UNL A   1      33.503  19.859  24.485  1.00  0.00     0.119 A 
ATOM     13  C   UNL A   1      32.417  20.361  23.789  1.00  0.00     0.047 A 
ATOM     14  C   UNL A   1      34.538  20.725  24.820  1.00  0.00     0.050 A 
ATOM     15  C   UNL A   1      32.388  21.718  23.428  1.00  0.00     0.013 A 
ATOM     16  C   UNL A   1      34.516  22.100  24.485  1.00  0.00    -0.040 A 
ATOM     17  C   UNL A   1      35.733  22.879  24.914  1.00  0.00     0.045 C 
BRANCH  12  18
ATOM     18  O   UNL A   1      33.640  18.580  24.942  1.00  0.00    -0.497 OA
ATOM     19  C   UNL A   1      34.273  17.662  24.060  1.00  0.00     0.278 C 
ENDBRANCH  12  18
ENDBRANCH   6  11
BRANCH  10  20
ATOM     20  N   UNL A   1      33.249  28.027  21.951  1.00  0.00    -0.383 N 
ATOM     21  H   UNL A   1      33.109  28.170  20.988  1.00  0.00     0.158 HD
ATOM     22  H   UNL A   1      33.407  28.797  22.545  1.00  0.00     0.158 HD
ENDBRANCH  10  20
ENDBRANCH   3   5
ENDBRANCH   2   3
ENDBRANCH   1   2
BRANCH   1  23
ATOM     23  C   UNL A   1      33.697  30.047  26.971  1.00  0.00     0.275 C 
BRANCH  23  24
ATOM     24  O   UNL A   1      34.902  30.800  27.317  1.00  0.00    -0.458 OA
BRANCH  24  25
ATOM     25  C   UNL A   1      35.435  31.003  28.541  1.00  0.00     0.338 C 
ATOM     26  O   UNL A   1      35.041  31.841  29.341  1.00  0.00    -0.246 OA
BRANCH  25  27
ATOM     27  C   UNL A   1      36.659  30.242  28.778  1.00  0.00     0.060 A 
ATOM     28  C   UNL A   1      36.773  29.409  29.902  1.00  0.00     0.016 A 
ATOM     29  C   UNL A   1      37.646  30.295  27.803  1.00  0.00     0.016 A 
ATOM     30  C   UNL A   1      37.831  28.519  29.983  1.00  0.00     0.010 A 
ATOM     31  C   UNL A   1      38.592  29.314  27.790  1.00  0.00     0.010 A 
ATOM     32  C   UNL A   1      38.720  28.487  28.912  1.00  0.00    -0.014 A 
BRANCH  32  33
ATOM     33  C   UNL A   1      40.062  27.969  29.013  1.00  0.00     0.031 A 
ATOM     34  C   UNL A   1      40.407  26.639  28.511  1.00  0.00     0.074 A 
ATOM     35  C   UNL A   1      40.927  28.943  29.390  1.00  0.00     0.049 A 
ATOM     36  N   UNL A   1      41.403  25.961  28.954  1.00  0.00    -0.248 NA
ATOM     37  C   UNL A   1      39.653  25.935  27.467  1.00  0.00     0.031 C 
ATOM     38  C   UNL A   1      42.371  29.014  29.305  1.00  0.00     0.029 A 
ATOM     39  N   UNL A   1      40.607  30.161  30.013  1.00  0.00    -0.354 N 
ATOM     40  C   UNL A   1      41.657  24.992  28.010  1.00  0.00     0.074 A 
ATOM     41  C   UNL A   1      40.455  24.889  27.216  1.00  0.00     0.031 C 
ATOM     42  C   UNL A   1      42.787  29.987  30.147  1.00  0.00     0.029 A 
ATOM     43  C   UNL A   1      41.626  30.428  30.916  1.00  0.00     0.049 A 
ATOM     44  H   UNL A   1      39.814  30.717  29.841  1.00  0.00     0.167 HD
ATOM     45  C   UNL A   1      42.937  24.562  27.840  1.00  0.00     0.031 A 
ATOM     46  C   UNL A   1      41.418  30.226  32.257  1.00  0.00     0.031 A 
ATOM     47  C   UNL A   1      43.853  25.297  28.712  1.00  0.00     0.049 A 
ATOM     48  C   UNL A   1      42.255  29.064  32.781  1.00  0.00     0.074 A 
ATOM     49  C   UNL A   1      44.719  26.359  28.499  1.00  0.00     0.029 A 
ATOM     50  N   UNL A   1      43.657  25.239  30.080  1.00  0.00    -0.354 N 
ATOM     51  N   UNL A   1      42.854  28.198  32.008  1.00  0.00    -0.248 NA
ATOM     52  C   UNL A   1      42.424  28.735  34.195  1.00  0.00     0.031 C 
ATOM     53  C   UNL A   1      45.033  26.937  29.765  1.00  0.00     0.029 A 
ATOM     54  C   UNL A   1      44.364  26.222  30.742  1.00  0.00     0.049 A 
ATOM     55  H   UNL A   1      43.080  24.578  30.527  1.00  0.00     0.167 HD
ATOM     56  C   UNL A   1      43.508  27.267  32.754  1.00  0.00     0.074 A 
ATOM     57  C   UNL A   1      43.173  27.618  34.125  1.00  0.00     0.031 C 
ATOM     58  C   UNL A   1      44.266  26.280  32.192  1.00  0.00     0.031 A 
BRANCH  45  59
ATOM     59  C   UNL A   1      43.388  23.711  26.686  1.00  0.00    -0.014 A 
ATOM     60  C   UNL A   1      43.990  24.322  25.571  1.00  0.00     0.009 A 
ATOM     61  C   UNL A   1      43.272  22.311  26.647  1.00  0.00     0.009 A 
ATOM     62  C   UNL A   1      44.403  23.590  24.452  1.00  0.00     0.001 A 
ATOM     63  C   UNL A   1      43.665  21.572  25.520  1.00  0.00     0.001 A 
ATOM     64  C   UNL A   1      44.228  22.213  24.421  1.00  0.00     0.000 A 
ENDBRANCH  45  59
BRANCH  46  65
ATOM     65  C   UNL A   1      40.033  30.558  32.746  1.00  0.00    -0.014 A 
ATOM     66  C   UNL A   1      39.484  31.821  32.426  1.00  0.00     0.009 A 
ATOM     67  C   UNL A   1      39.161  29.583  33.251  1.00  0.00     0.009 A 
ATOM     68  C   UNL A   1      38.104  32.056  32.490  1.00  0.00     0.001 A 
ATOM     69  C   UNL A   1      37.781  29.830  33.344  1.00  0.00     0.001 A 
ATOM     70  C   UNL A   1      37.250  31.052  32.930  1.00  0.00     0.000 A 
ENDBRANCH  46  65
BRANCH  58  71
ATOM     71  C   UNL A   1      44.989  25.236  32.986  1.00  0.00    -0.014 A 
ATOM     72  C   UNL A   1      44.360  24.084  33.465  1.00  0.00     0.009 A 
ATOM     73  C   UNL A   1      46.327  25.450  33.380  1.00  0.00     0.009 A 
ATOM     74  C   UNL A   1      45.065  23.145  34.225  1.00  0.00     0.001 A 
ATOM     75  C   UNL A   1      47.025  24.534  34.162  1.00  0.00     0.001 A 
ATOM     76  C   UNL A   1      46.396  23.368  34.568  1.00  0.00     0.000 A 
ENDBRANCH  58  71
ENDBRANCH  32  33
ENDBRANCH  25  27
ENDBRANCH  24  25
ENDBRANCH  23  24
ENDBRANCH   1  23
TORSDOF 14
ENDMDL
