MODEL 1
REMARK VINA RESULT:     -11.1      0.000      0.000
REMARK SMILES O=C(CC(=O)c1ccccc1)Nc1cccc(C(=O)OCCOC(=O)c2ccc(-c3c4nc(c(-c5ccccc5)c5ccc([nH]5)c(-c5ccccc5)c5nc(c(-c6ccccc6)c6ccc3[nH]6)C=C5)C=C4)cc2)c1
REMARK SMILES IDX 21 1 20 2 18 3 19 4 17 5 13 6 14 7 74 8 15 9 16 10 12 11
REMARK SMILES IDX 1 12 2 13 3 15 4 16 5 17 6 18 7 19 11 20 8 21 10 22 9 23
REMARK SMILES IDX 22 24 23 25 24 26 25 27 26 28 27 29 73 30 28 31 72 32 29 33
REMARK SMILES IDX 30 34 31 35 66 36 32 37 71 38 65 39 67 40 33 41 70 42 64 43
REMARK SMILES IDX 63 44 34 46 56 47 41 48 55 49 42 50 45 51 54 52 68 53 43 54
REMARK SMILES IDX 44 55 53 57 69 58 46 59 35 60 36 61 40 62 37 63 39 64 38 65
REMARK SMILES IDX 57 66 58 67 62 68 59 69 61 70 60 71 47 72 48 73 52 74 49 75
REMARK SMILES IDX 51 76 50 77
REMARK H PARENT 12 14 67 45 45 56
REMARK Flexibility Score: inf
ROOT
ATOM      1  C   UNL A   1      33.285  34.745  28.516  1.00  0.00     0.275 C 
ENDROOT
BRANCH   1   2
ATOM      2  O   UNL A   1      33.872  33.535  29.034  1.00  0.00    -0.458 OA
BRANCH   2   3
ATOM      3  C   UNL A   1      35.074  33.168  28.516  1.00  0.00     0.338 C 
ATOM      4  O   UNL A   1      36.107  33.804  28.552  1.00  0.00    -0.246 OA
BRANCH   3   5
ATOM      5  C   UNL A   1      34.994  31.777  27.994  1.00  0.00     0.062 A 
ATOM      6  C   UNL A   1      33.740  29.888  27.149  1.00  0.00     0.042 A 
ATOM      7  C   UNL A   1      34.895  29.098  27.216  1.00  0.00     0.026 A 
ATOM      8  C   UNL A   1      33.783  31.213  27.589  1.00  0.00     0.041 A 
ATOM      9  C   UNL A   1      36.114  29.670  27.574  1.00  0.00     0.003 A 
ATOM     10  C   UNL A   1      36.171  31.020  27.914  1.00  0.00     0.016 A 
BRANCH   6  11
ATOM     11  N   UNL A   1      32.610  29.317  26.533  1.00  0.00    -0.326 N 
ATOM     12  O   UNL A   1      33.300  29.402  24.307  1.00  0.00    -0.274 OA
ATOM     13  C   UNL A   1      32.530  29.013  25.182  1.00  0.00     0.232 C 
ATOM     14  H   UNL A   1      31.826  29.123  27.095  1.00  0.00     0.169 HD
BRANCH  13  15
ATOM     15  C   UNL A   1      31.421  28.063  24.832  1.00  0.00     0.181 C 
BRANCH  15  16
ATOM     16  C   UNL A   1      30.749  28.305  23.507  1.00  0.00     0.172 C 
ATOM     17  O   UNL A   1      31.101  27.698  22.496  1.00  0.00    -0.294 OA
BRANCH  16  18
ATOM     18  C   UNL A   1      29.638  29.287  23.391  1.00  0.00     0.018 A 
ATOM     19  C   UNL A   1      29.886  30.600  23.809  1.00  0.00     0.012 A 
ATOM     20  C   UNL A   1      28.349  28.923  22.985  1.00  0.00     0.012 A 
ATOM     21  C   UNL A   1      28.856  31.542  23.811  1.00  0.00     0.001 A 
ATOM     22  C   UNL A   1      27.317  29.864  23.011  1.00  0.00     0.001 A 
ATOM     23  C   UNL A   1      27.571  31.172  23.421  1.00  0.00     0.000 A 
ENDBRANCH  16  18
ENDBRANCH  15  16
ENDBRANCH  13  15
ENDBRANCH   6  11
ENDBRANCH   3   5
ENDBRANCH   2   3
ENDBRANCH   1   2
BRANCH   1  24
ATOM     24  C   UNL A   1      33.066  35.765  29.634  1.00  0.00     0.275 C 
BRANCH  24  25
ATOM     25  O   UNL A   1      32.500  35.113  30.787  1.00  0.00    -0.458 OA
BRANCH  25  26
ATOM     26  C   UNL A   1      32.762  35.693  31.978  1.00  0.00     0.338 C 
ATOM     27  O   UNL A   1      32.131  36.568  32.544  1.00  0.00    -0.246 OA
BRANCH  26  28
ATOM     28  C   UNL A   1      33.905  35.014  32.604  1.00  0.00     0.060 A 
ATOM     29  C   UNL A   1      35.144  35.643  32.519  1.00  0.00     0.016 A 
ATOM     30  C   UNL A   1      33.806  33.725  33.118  1.00  0.00     0.016 A 
ATOM     31  C   UNL A   1      36.304  34.975  32.891  1.00  0.00     0.010 A 
ATOM     32  C   UNL A   1      34.971  33.064  33.537  1.00  0.00     0.010 A 
ATOM     33  C   UNL A   1      36.236  33.667  33.387  1.00  0.00    -0.014 A 
BRANCH  33  34
ATOM     34  C   UNL A   1      37.497  32.910  33.616  1.00  0.00     0.031 A 
ATOM     35  C   UNL A   1      38.230  33.059  34.924  1.00  0.00     0.074 A 
ATOM     36  C   UNL A   1      37.947  32.025  32.706  1.00  0.00     0.049 A 
ATOM     37  N   UNL A   1      39.369  32.533  35.303  1.00  0.00    -0.248 NA
ATOM     38  C   UNL A   1      37.601  33.918  35.941  1.00  0.00     0.031 C 
ATOM     39  C   UNL A   1      37.305  31.722  31.425  1.00  0.00     0.029 A 
ATOM     40  N   UNL A   1      39.041  31.195  32.734  1.00  0.00    -0.354 N 
ATOM     41  C   UNL A   1      39.614  33.034  36.576  1.00  0.00     0.074 A 
ATOM     42  C   UNL A   1      38.513  33.914  36.902  1.00  0.00     0.031 C 
ATOM     43  C   UNL A   1      37.992  30.743  30.812  1.00  0.00     0.029 A 
ATOM     44  C   UNL A   1      39.156  30.394  31.623  1.00  0.00     0.049 A 
ATOM     45  H   UNL A   1      39.684  31.175  33.480  1.00  0.00     0.167 HD
ATOM     46  C   UNL A   1      40.657  32.786  37.403  1.00  0.00     0.031 A 
ATOM     47  C   UNL A   1      40.098  29.493  31.285  1.00  0.00     0.031 A 
ATOM     48  C   UNL A   1      41.738  31.884  37.105  1.00  0.00     0.049 A 
ATOM     49  C   UNL A   1      41.261  29.255  32.207  1.00  0.00     0.074 A 
ATOM     50  C   UNL A   1      42.846  31.578  37.877  1.00  0.00     0.029 A 
ATOM     51  N   UNL A   1      41.834  31.126  35.950  1.00  0.00    -0.354 N 
ATOM     52  N   UNL A   1      41.506  29.781  33.383  1.00  0.00    -0.248 NA
ATOM     53  C   UNL A   1      42.279  28.298  31.750  1.00  0.00     0.031 C 
ATOM     54  C   UNL A   1      43.630  30.656  37.174  1.00  0.00     0.029 A 
ATOM     55  C   UNL A   1      42.983  30.354  35.987  1.00  0.00     0.049 A 
ATOM     56  H   UNL A   1      41.183  31.135  35.212  1.00  0.00     0.167 HD
ATOM     57  C   UNL A   1      42.694  29.203  33.814  1.00  0.00     0.074 A 
ATOM     58  C   UNL A   1      43.108  28.272  32.785  1.00  0.00     0.031 C 
ATOM     59  C   UNL A   1      43.382  29.427  34.960  1.00  0.00     0.031 A 
BRANCH  46  60
ATOM     60  C   UNL A   1      40.698  33.541  38.703  1.00  0.00    -0.014 A 
ATOM     61  C   UNL A   1      40.099  33.034  39.867  1.00  0.00     0.009 A 
ATOM     62  C   UNL A   1      41.362  34.777  38.761  1.00  0.00     0.009 A 
ATOM     63  C   UNL A   1      40.132  33.770  41.054  1.00  0.00     0.001 A 
ATOM     64  C   UNL A   1      41.416  35.496  39.956  1.00  0.00     0.001 A 
ATOM     65  C   UNL A   1      40.793  34.998  41.098  1.00  0.00     0.000 A 
ENDBRANCH  46  60
BRANCH  47  66
ATOM     66  C   UNL A   1      39.997  28.755  29.998  1.00  0.00    -0.014 A 
ATOM     67  C   UNL A   1      40.438  29.341  28.801  1.00  0.00     0.009 A 
ATOM     68  C   UNL A   1      39.439  27.468  29.957  1.00  0.00     0.009 A 
ATOM     69  C   UNL A   1      40.300  28.662  27.588  1.00  0.00     0.001 A 
ATOM     70  C   UNL A   1      39.331  26.780  28.748  1.00  0.00     0.001 A 
ATOM     71  C   UNL A   1      39.753  27.380  27.564  1.00  0.00     0.000 A 
ENDBRANCH  47  66
BRANCH  59  72
ATOM     72  C   UNL A   1      44.625  28.614  35.180  1.00  0.00    -0.014 A 
ATOM     73  C   UNL A   1      45.894  29.111  34.844  1.00  0.00     0.009 A 
ATOM     74  C   UNL A   1      44.524  27.334  35.749  1.00  0.00     0.009 A 
ATOM     75  C   UNL A   1      47.032  28.325  35.034  1.00  0.00     0.001 A 
ATOM     76  C   UNL A   1      45.667  26.561  35.962  1.00  0.00     0.001 A 
ATOM     77  C   UNL A   1      46.918  27.053  35.594  1.00  0.00     0.000 A 
ENDBRANCH  59  72
ENDBRANCH  33  34
ENDBRANCH  26  28
ENDBRANCH  25  26
ENDBRANCH  24  25
ENDBRANCH   1  24
TORSDOF 15
ENDMDL
MODEL 2
REMARK VINA RESULT:     -10.7      5.288      9.746
REMARK SMILES O=C(CC(=O)c1ccccc1)Nc1cccc(C(=O)OCCOC(=O)c2ccc(-c3c4nc(c(-c5ccccc5)c5ccc([nH]5)c(-c5ccccc5)c5nc(c(-c6ccccc6)c6ccc3[nH]6)C=C5)C=C4)cc2)c1
REMARK SMILES IDX 21 1 20 2 18 3 19 4 17 5 13 6 14 7 74 8 15 9 16 10 12 11
REMARK SMILES IDX 1 12 2 13 3 15 4 16 5 17 6 18 7 19 11 20 8 21 10 22 9 23
REMARK SMILES IDX 22 24 23 25 24 26 25 27 26 28 27 29 73 30 28 31 72 32 29 33
REMARK SMILES IDX 30 34 31 35 66 36 32 37 71 38 65 39 67 40 33 41 70 42 64 43
REMARK SMILES IDX 63 44 34 46 56 47 41 48 55 49 42 50 45 51 54 52 68 53 43 54
REMARK SMILES IDX 44 55 53 57 69 58 46 59 35 60 36 61 40 62 37 63 39 64 38 65
REMARK SMILES IDX 57 66 58 67 62 68 59 69 61 70 60 71 47 72 48 73 52 74 49 75
REMARK SMILES IDX 51 76 50 77
REMARK H PARENT 12 14 67 45 45 56
REMARK Flexibility Score: inf
ROOT
ATOM      1  C   UNL A   1      42.768  21.075  25.784  1.00  0.00     0.275 C 
ENDROOT
BRANCH   1   2
ATOM      2  O   UNL A   1      41.604  21.614  26.440  1.00  0.00    -0.458 OA
BRANCH   2   3
ATOM      3  C   UNL A   1      40.456  20.894  26.339  1.00  0.00     0.338 C 
ATOM      4  O   UNL A   1      40.331  19.698  26.501  1.00  0.00    -0.246 OA
BRANCH   3   5
ATOM      5  C   UNL A   1      39.303  21.810  26.127  1.00  0.00     0.062 A 
ATOM      6  C   UNL A   1      37.164  22.346  25.131  1.00  0.00     0.042 A 
ATOM      7  C   UNL A   1      37.273  23.656  25.612  1.00  0.00     0.026 A 
ATOM      8  C   UNL A   1      38.206  21.441  25.346  1.00  0.00     0.041 A 
ATOM      9  C   UNL A   1      38.343  24.014  26.430  1.00  0.00     0.003 A 
ATOM     10  C   UNL A   1      39.330  23.076  26.727  1.00  0.00     0.016 A 
BRANCH   6  11
ATOM     11  N   UNL A   1      35.939  21.982  24.537  1.00  0.00    -0.326 N 
ATOM     12  O   UNL A   1      34.769  21.321  26.443  1.00  0.00    -0.274 OA
ATOM     13  C   UNL A   1      34.808  21.614  25.250  1.00  0.00     0.232 C 
ATOM     14  H   UNL A   1      35.883  21.989  23.554  1.00  0.00     0.169 HD
BRANCH  13  15
ATOM     15  C   UNL A   1      33.537  21.666  24.452  1.00  0.00     0.181 C 
BRANCH  15  16
ATOM     16  C   UNL A   1      32.482  20.664  24.841  1.00  0.00     0.172 C 
ATOM     17  O   UNL A   1      31.433  21.023  25.375  1.00  0.00    -0.294 OA
BRANCH  16  18
ATOM     18  C   UNL A   1      32.686  19.213  24.584  1.00  0.00     0.018 A 
ATOM     19  C   UNL A   1      32.880  18.380  25.692  1.00  0.00     0.012 A 
ATOM     20  C   UNL A   1      32.790  18.684  23.293  1.00  0.00     0.012 A 
ATOM     21  C   UNL A   1      33.168  17.026  25.510  1.00  0.00     0.001 A 
ATOM     22  C   UNL A   1      33.100  17.333  23.117  1.00  0.00     0.001 A 
ATOM     23  C   UNL A   1      33.286  16.506  24.223  1.00  0.00     0.000 A 
ENDBRANCH  16  18
ENDBRANCH  15  16
ENDBRANCH  13  15
ENDBRANCH   6  11
ENDBRANCH   3   5
ENDBRANCH   2   3
ENDBRANCH   1   2
BRANCH   1  24
ATOM     24  C   UNL A   1      43.570  22.184  25.100  1.00  0.00     0.275 C 
BRANCH  24  25
ATOM     25  O   UNL A   1      43.976  23.164  26.074  1.00  0.00    -0.458 OA
BRANCH  25  26
ATOM     26  C   UNL A   1      44.023  24.442  25.638  1.00  0.00     0.338 C 
ATOM     27  O   UNL A   1      44.546  24.873  24.625  1.00  0.00    -0.246 OA
BRANCH  26  28
ATOM     28  C   UNL A   1      43.211  25.284  26.526  1.00  0.00     0.060 A 
ATOM     29  C   UNL A   1      43.532  26.636  26.591  1.00  0.00     0.016 A 
ATOM     30  C   UNL A   1      42.267  24.744  27.395  1.00  0.00     0.016 A 
ATOM     31  C   UNL A   1      42.961  27.455  27.558  1.00  0.00     0.010 A 
ATOM     32  C   UNL A   1      41.655  25.578  28.343  1.00  0.00     0.010 A 
ATOM     33  C   UNL A   1      42.028  26.931  28.461  1.00  0.00    -0.014 A 
BRANCH  33  34
ATOM     34  C   UNL A   1      41.559  27.778  29.593  1.00  0.00     0.031 A 
ATOM     35  C   UNL A   1      42.323  27.775  30.893  1.00  0.00     0.074 A 
ATOM     36  C   UNL A   1      40.514  28.614  29.445  1.00  0.00     0.049 A 
ATOM     37  N   UNL A   1      42.053  28.397  32.015  1.00  0.00    -0.248 NA
ATOM     38  C   UNL A   1      43.550  26.963  30.938  1.00  0.00     0.031 C 
ATOM     39  C   UNL A   1      39.723  28.778  28.223  1.00  0.00     0.029 A 
ATOM     40  N   UNL A   1      39.954  29.508  30.325  1.00  0.00    -0.354 N 
ATOM     41  C   UNL A   1      43.046  28.012  32.909  1.00  0.00     0.074 A 
ATOM     42  C   UNL A   1      43.917  27.096  32.204  1.00  0.00     0.031 C 
ATOM     43  C   UNL A   1      38.811  29.745  28.419  1.00  0.00     0.029 A 
ATOM     44  C   UNL A   1      38.908  30.224  29.795  1.00  0.00     0.049 A 
ATOM     45  H   UNL A   1      40.272  29.624  31.250  1.00  0.00     0.167 HD
ATOM     46  C   UNL A   1      43.223  28.386  34.199  1.00  0.00     0.031 A 
ATOM     47  C   UNL A   1      38.107  31.150  30.355  1.00  0.00     0.031 A 
ATOM     48  C   UNL A   1      42.385  29.324  34.898  1.00  0.00     0.049 A 
ATOM     49  C   UNL A   1      38.305  31.529  31.796  1.00  0.00     0.074 A 
ATOM     50  C   UNL A   1      42.480  29.755  36.210  1.00  0.00     0.029 A 
ATOM     51  N   UNL A   1      41.313  29.994  34.334  1.00  0.00    -0.354 N 
ATOM     52  N   UNL A   1      39.214  31.112  32.644  1.00  0.00    -0.248 NA
ATOM     53  C   UNL A   1      37.361  32.506  32.357  1.00  0.00     0.031 C 
ATOM     54  C   UNL A   1      41.442  30.664  36.450  1.00  0.00     0.029 A 
ATOM     55  C   UNL A   1      40.734  30.833  35.271  1.00  0.00     0.049 A 
ATOM     56  H   UNL A   1      41.006  29.888  33.405  1.00  0.00     0.167 HD
ATOM     57  C   UNL A   1      38.964  31.791  33.829  1.00  0.00     0.074 A 
ATOM     58  C   UNL A   1      37.833  32.661  33.586  1.00  0.00     0.031 C 
ATOM     59  C   UNL A   1      39.613  31.699  35.016  1.00  0.00     0.031 A 
BRANCH  46  60
ATOM     60  C   UNL A   1      44.351  27.738  34.953  1.00  0.00    -0.014 A 
ATOM     61  C   UNL A   1      44.176  26.527  35.640  1.00  0.00     0.009 A 
ATOM     62  C   UNL A   1      45.614  28.350  34.962  1.00  0.00     0.009 A 
ATOM     63  C   UNL A   1      45.236  25.961  36.352  1.00  0.00     0.001 A 
ATOM     64  C   UNL A   1      46.679  27.768  35.652  1.00  0.00     0.001 A 
ATOM     65  C   UNL A   1      46.487  26.580  36.356  1.00  0.00     0.000 A 
ENDBRANCH  46  60
BRANCH  47  66
ATOM     66  C   UNL A   1      37.020  31.778  29.557  1.00  0.00    -0.014 A 
ATOM     67  C   UNL A   1      35.760  31.167  29.459  1.00  0.00     0.009 A 
ATOM     68  C   UNL A   1      37.245  32.982  28.871  1.00  0.00     0.009 A 
ATOM     69  C   UNL A   1      34.758  31.737  28.671  1.00  0.00     0.001 A 
ATOM     70  C   UNL A   1      36.231  33.565  28.110  1.00  0.00     0.001 A 
ATOM     71  C   UNL A   1      34.991  32.938  28.003  1.00  0.00     0.000 A 
ENDBRANCH  47  66
BRANCH  59  72
ATOM     72  C   UNL A   1      39.144  32.599  36.123  1.00  0.00    -0.014 A 
ATOM     73  C   UNL A   1      39.710  33.868  36.324  1.00  0.00     0.009 A 
ATOM     74  C   UNL A   1      38.106  32.175  36.967  1.00  0.00     0.009 A 
ATOM     75  C   UNL A   1      39.274  34.675  37.376  1.00  0.00     0.001 A 
ATOM     76  C   UNL A   1      37.654  32.996  38.002  1.00  0.00     0.001 A 
ATOM     77  C   UNL A   1      38.246  34.240  38.212  1.00  0.00     0.000 A 
ENDBRANCH  59  72
ENDBRANCH  33  34
ENDBRANCH  26  28
ENDBRANCH  25  26
ENDBRANCH  24  25
ENDBRANCH   1  24
TORSDOF 15
ENDMDL
MODEL 3
REMARK VINA RESULT:     -10.7      5.052     10.088
REMARK SMILES O=C(CC(=O)c1ccccc1)Nc1cccc(C(=O)OCCOC(=O)c2ccc(-c3c4nc(c(-c5ccccc5)c5ccc([nH]5)c(-c5ccccc5)c5nc(c(-c6ccccc6)c6ccc3[nH]6)C=C5)C=C4)cc2)c1
REMARK SMILES IDX 21 1 20 2 18 3 19 4 17 5 13 6 14 7 74 8 15 9 16 10 12 11
REMARK SMILES IDX 1 12 2 13 3 15 4 16 5 17 6 18 7 19 11 20 8 21 10 22 9 23
REMARK SMILES IDX 22 24 23 25 24 26 25 27 26 28 27 29 73 30 28 31 72 32 29 33
REMARK SMILES IDX 30 34 31 35 66 36 32 37 71 38 65 39 67 40 33 41 70 42 64 43
REMARK SMILES IDX 63 44 34 46 56 47 41 48 55 49 42 50 45 51 54 52 68 53 43 54
REMARK SMILES IDX 44 55 53 57 69 58 46 59 35 60 36 61 40 62 37 63 39 64 38 65
REMARK SMILES IDX 57 66 58 67 62 68 59 69 61 70 60 71 47 72 48 73 52 74 49 75
REMARK SMILES IDX 51 76 50 77
REMARK H PARENT 12 14 67 45 45 56
REMARK Flexibility Score: inf
ROOT
ATOM      1  C   UNL A   1      42.122  20.888  26.148  1.00  0.00     0.275 C 
ENDROOT
BRANCH   1   2
ATOM      2  O   UNL A   1      40.810  21.126  26.695  1.00  0.00    -0.458 OA
BRANCH   2   3
ATOM      3  C   UNL A   1      39.754  20.682  25.964  1.00  0.00     0.338 C 
ATOM      4  O   UNL A   1      39.615  19.577  25.482  1.00  0.00    -0.246 OA
BRANCH   3   5
ATOM      5  C   UNL A   1      38.687  21.720  25.938  1.00  0.00     0.062 A 
ATOM      6  C   UNL A   1      36.478  22.488  25.318  1.00  0.00     0.042 A 
ATOM      7  C   UNL A   1      36.810  23.778  25.752  1.00  0.00     0.026 A 
ATOM      8  C   UNL A   1      37.438  21.474  25.365  1.00  0.00     0.041 A 
ATOM      9  C   UNL A   1      38.039  24.014  26.367  1.00  0.00     0.003 A 
ATOM     10  C   UNL A   1      38.955  22.973  26.504  1.00  0.00     0.016 A 
BRANCH   6  11
ATOM     11  N   UNL A   1      35.137  22.262  24.952  1.00  0.00    -0.326 N 
ATOM     12  O   UNL A   1      35.125  23.308  22.868  1.00  0.00    -0.274 OA
ATOM     13  C   UNL A   1      34.603  22.584  23.713  1.00  0.00     0.232 C 
ATOM     14  H   UNL A   1      34.540  21.850  25.617  1.00  0.00     0.169 HD
BRANCH  13  15
ATOM     15  C   UNL A   1      33.302  21.899  23.409  1.00  0.00     0.181 C 
BRANCH  15  16
ATOM     16  C   UNL A   1      32.891  20.822  24.377  1.00  0.00     0.172 C 
ATOM     17  O   UNL A   1      32.218  21.088  25.373  1.00  0.00    -0.294 OA
BRANCH  16  18
ATOM     18  C   UNL A   1      33.290  19.408  24.150  1.00  0.00     0.018 A 
ATOM     19  C   UNL A   1      34.542  19.002  24.628  1.00  0.00     0.012 A 
ATOM     20  C   UNL A   1      32.515  18.518  23.398  1.00  0.00     0.012 A 
ATOM     21  C   UNL A   1      35.010  17.714  24.363  1.00  0.00     0.001 A 
ATOM     22  C   UNL A   1      32.998  17.237  23.118  1.00  0.00     0.001 A 
ATOM     23  C   UNL A   1      34.242  16.835  23.601  1.00  0.00     0.000 A 
ENDBRANCH  16  18
ENDBRANCH  15  16
ENDBRANCH  13  15
ENDBRANCH   6  11
ENDBRANCH   3   5
ENDBRANCH   2   3
ENDBRANCH   1   2
BRANCH   1  24
ATOM     24  C   UNL A   1      42.724  22.181  25.595  1.00  0.00     0.275 C 
BRANCH  24  25
ATOM     25  O   UNL A   1      42.483  23.264  26.514  1.00  0.00    -0.458 OA
BRANCH  25  26
ATOM     26  C   UNL A   1      42.749  24.502  26.045  1.00  0.00     0.338 C 
ATOM     27  O   UNL A   1      43.300  24.810  25.003  1.00  0.00    -0.246 OA
BRANCH  26  28
ATOM     28  C   UNL A   1      42.147  25.496  26.943  1.00  0.00     0.060 A 
ATOM     29  C   UNL A   1      42.725  26.762  26.973  1.00  0.00     0.016 A 
ATOM     30  C   UNL A   1      41.146  25.161  27.851  1.00  0.00     0.016 A 
ATOM     31  C   UNL A   1      42.358  27.687  27.942  1.00  0.00     0.010 A 
ATOM     32  C   UNL A   1      40.740  26.109  28.802  1.00  0.00     0.010 A 
ATOM     33  C   UNL A   1      41.372  27.365  28.884  1.00  0.00    -0.014 A 
BRANCH  33  34
ATOM     34  C   UNL A   1      41.116  28.300  30.014  1.00  0.00     0.031 A 
ATOM     35  C   UNL A   1      39.956  29.261  29.940  1.00  0.00     0.074 A 
ATOM     36  C   UNL A   1      41.850  28.239  31.142  1.00  0.00     0.049 A 
ATOM     37  N   UNL A   1      39.593  30.190  30.790  1.00  0.00    -0.248 NA
ATOM     38  C   UNL A   1      39.094  29.166  28.751  1.00  0.00     0.031 C 
ATOM     39  C   UNL A   1      42.958  27.313  31.386  1.00  0.00     0.029 A 
ATOM     40  N   UNL A   1      41.754  28.958  32.308  1.00  0.00    -0.354 N 
ATOM     41  C   UNL A   1      38.495  30.820  30.215  1.00  0.00     0.074 A 
ATOM     42  C   UNL A   1      38.257  30.176  28.942  1.00  0.00     0.031 C 
ATOM     43  C   UNL A   1      43.408  27.490  32.640  1.00  0.00     0.029 A 
ATOM     44  C   UNL A   1      42.667  28.583  33.265  1.00  0.00     0.049 A 
ATOM     45  H   UNL A   1      41.094  29.675  32.447  1.00  0.00     0.167 HD
ATOM     46  C   UNL A   1      37.747  31.840  30.701  1.00  0.00     0.031 A 
ATOM     47  C   UNL A   1      42.895  29.071  34.498  1.00  0.00     0.031 A 
ATOM     48  C   UNL A   1      37.951  32.463  31.982  1.00  0.00     0.049 A 
ATOM     49  C   UNL A   1      42.071  30.221  35.005  1.00  0.00     0.074 A 
ATOM     50  C   UNL A   1      37.251  33.511  32.553  1.00  0.00     0.029 A 
ATOM     51  N   UNL A   1      38.914  32.078  32.900  1.00  0.00    -0.354 N 
ATOM     52  N   UNL A   1      41.073  30.843  34.424  1.00  0.00    -0.248 NA
ATOM     53  C   UNL A   1      42.409  30.739  36.339  1.00  0.00     0.031 C 
ATOM     54  C   UNL A   1      37.812  33.782  33.807  1.00  0.00     0.029 A 
ATOM     55  C   UNL A   1      38.829  32.869  34.033  1.00  0.00     0.049 A 
ATOM     56  H   UNL A   1      39.563  31.350  32.766  1.00  0.00     0.167 HD
ATOM     57  C   UNL A   1      40.651  31.808  35.330  1.00  0.00     0.074 A 
ATOM     58  C   UNL A   1      41.487  31.678  36.505  1.00  0.00     0.031 C 
ATOM     59  C   UNL A   1      39.661  32.725  35.198  1.00  0.00     0.031 A 
BRANCH  46  60
ATOM     60  C   UNL A   1      36.658  32.376  29.814  1.00  0.00    -0.014 A 
ATOM     61  C   UNL A   1      35.328  31.945  29.941  1.00  0.00     0.009 A 
ATOM     62  C   UNL A   1      36.972  33.340  28.842  1.00  0.00     0.009 A 
ATOM     63  C   UNL A   1      34.342  32.443  29.086  1.00  0.00     0.001 A 
ATOM     64  C   UNL A   1      35.978  33.855  28.009  1.00  0.00     0.001 A 
ATOM     65  C   UNL A   1      34.667  33.399  28.123  1.00  0.00     0.000 A 
ENDBRANCH  46  60
BRANCH  47  66
ATOM     66  C   UNL A   1      43.970  28.489  35.345  1.00  0.00    -0.014 A 
ATOM     67  C   UNL A   1      43.688  27.445  36.241  1.00  0.00     0.009 A 
ATOM     68  C   UNL A   1      45.280  28.989  35.277  1.00  0.00     0.009 A 
ATOM     69  C   UNL A   1      44.692  26.932  37.067  1.00  0.00     0.001 A 
ATOM     70  C   UNL A   1      46.286  28.453  36.081  1.00  0.00     0.001 A 
ATOM     71  C   UNL A   1      45.990  27.431  36.982  1.00  0.00     0.000 A 
ENDBRANCH  47  66
BRANCH  59  72
ATOM     72  C   UNL A   1      39.399  33.621  36.374  1.00  0.00    -0.014 A 
ATOM     73  C   UNL A   1      38.618  33.195  37.460  1.00  0.00     0.009 A 
ATOM     74  C   UNL A   1      39.958  34.909  36.402  1.00  0.00     0.009 A 
ATOM     75  C   UNL A   1      38.367  34.056  38.529  1.00  0.00     0.001 A 
ATOM     76  C   UNL A   1      39.727  35.758  37.485  1.00  0.00     0.001 A 
ATOM     77  C   UNL A   1      38.923  35.336  38.542  1.00  0.00     0.000 A 
ENDBRANCH  59  72
ENDBRANCH  33  34
ENDBRANCH  26  28
ENDBRANCH  25  26
ENDBRANCH  24  25
ENDBRANCH   1  24
TORSDOF 15
ENDMDL
