MODEL 1
REMARK VINA RESULT:     -10.4      0.000      0.000
REMARK SMILES CC1(C)CCSC[C@@]1(Nc1ccccc1Br)C(=O)OCCOC(=O)c1ccc(-c2c3nc(c(-c4ccccc4)c4ccc([nH]4)c(-c4ccccc4)c4nc(c(-c5ccccc5)c5ccc2[nH]5)C=C4)C=C3)cc1
REMARK SMILES IDX 20 1 19 2 17 3 18 4 8 5 1 6 2 7 3 8 4 9 5 10 7 11 6 12 9 13
REMARK SMILES IDX 10 15 11 16 15 17 12 18 14 19 16 20 13 21 21 22 22 23 23 24
REMARK SMILES IDX 24 25 25 26 26 27 72 28 27 29 71 30 28 31 29 32 30 33 65 34
REMARK SMILES IDX 31 35 70 36 64 37 66 38 32 39 69 40 63 41 62 42 33 44 55 45
REMARK SMILES IDX 40 46 54 47 41 48 44 49 53 50 67 51 42 52 43 53 52 55 68 56
REMARK SMILES IDX 45 57 34 58 35 59 39 60 36 61 38 62 37 63 56 64 57 65 61 66
REMARK SMILES IDX 58 67 60 68 59 69 46 70 47 71 51 72 48 73 50 74 49 75
REMARK H PARENT 9 14 66 43 44 54
REMARK Flexibility Score: inf
ROOT
ATOM      1  C   UNL A   1      31.803  30.000  26.511  1.00  0.00     0.274 C 
ENDROOT
BRANCH   1   2
ATOM      2  O   UNL A   1      31.490  29.023  25.493  1.00  0.00    -0.460 OA
BRANCH   2   3
ATOM      3  C   UNL A   1      31.351  27.742  25.914  1.00  0.00     0.333 C 
ATOM      4  O   UNL A   1      31.131  27.451  27.089  1.00  0.00    -0.249 OA
BRANCH   3   5
ATOM      5  C   UNL A   1      31.602  26.657  24.814  1.00  0.00     0.150 C 
ATOM      6  C   UNL A   1      34.044  26.776  25.762  1.00  0.00     0.014 C 
ATOM      7  C   UNL A   1      33.168  26.675  24.479  1.00  0.00     0.000 C 
ATOM      8  C   UNL A   1      33.543  27.898  23.606  1.00  0.00     0.014 C 
ATOM      9  C   UNL A   1      33.620  25.401  23.704  1.00  0.00     0.020 C 
ATOM     10  C   UNL A   1      33.403  24.079  24.431  1.00  0.00     0.070 C 
ATOM     11  C   UNL A   1      31.193  25.308  25.486  1.00  0.00     0.110 C 
ATOM     12  S   UNL A   1      31.646  23.761  24.635  1.00  0.00    -0.159 SA
BRANCH   5  13
ATOM     13  N   UNL A   1      30.817  26.900  23.541  1.00  0.00    -0.368 N 
ATOM     14  H   UNL A   1      31.262  26.719  22.682  1.00  0.00     0.161 HD
BRANCH  13  15
ATOM     15  C   UNL A   1      29.500  27.368  23.510  1.00  0.00     0.049 A 
ATOM     16  C   UNL A   1      28.451  26.507  23.876  1.00  0.00     0.027 A 
ATOM     17  C   UNL A   1      29.119  28.611  22.973  1.00  0.00     0.041 A 
ATOM     18  C   UNL A   1      27.114  26.918  23.892  1.00  0.00     0.002 A 
ATOM     19  C   UNL A   1      27.784  29.047  23.019  1.00  0.00     0.018 A 
ATOM     20  Br  UNL A   1      30.326  29.714  22.001  1.00  0.00    -0.049 Br
ATOM     21  C   UNL A   1      26.784  28.206  23.501  1.00  0.00     0.001 A 
ENDBRANCH  13  15
ENDBRANCH   5  13
ENDBRANCH   3   5
ENDBRANCH   2   3
ENDBRANCH   1   2
BRANCH   1  22
ATOM     22  C   UNL A   1      33.301  30.318  26.542  1.00  0.00     0.275 C 
BRANCH  22  23
ATOM     23  O   UNL A   1      33.871  29.834  27.769  1.00  0.00    -0.458 OA
BRANCH  23  24
ATOM     24  C   UNL A   1      34.752  30.650  28.386  1.00  0.00     0.338 C 
ATOM     25  O   UNL A   1      34.510  31.745  28.878  1.00  0.00    -0.246 OA
BRANCH  24  26
ATOM     26  C   UNL A   1      36.097  30.019  28.409  1.00  0.00     0.060 A 
ATOM     27  C   UNL A   1      36.591  29.420  29.568  1.00  0.00     0.016 A 
ATOM     28  C   UNL A   1      36.916  30.078  27.282  1.00  0.00     0.016 A 
ATOM     29  C   UNL A   1      37.906  28.964  29.642  1.00  0.00     0.010 A 
ATOM     30  C   UNL A   1      38.207  29.527  27.322  1.00  0.00     0.010 A 
ATOM     31  C   UNL A   1      38.729  28.987  28.512  1.00  0.00    -0.014 A 
BRANCH  31  32
ATOM     32  C   UNL A   1      40.131  28.483  28.582  1.00  0.00     0.031 A 
ATOM     33  C   UNL A   1      41.251  29.414  28.969  1.00  0.00     0.074 A 
ATOM     34  C   UNL A   1      40.419  27.193  28.311  1.00  0.00     0.049 A 
ATOM     35  N   UNL A   1      42.545  29.237  28.876  1.00  0.00    -0.248 NA
ATOM     36  C   UNL A   1      40.864  30.722  29.522  1.00  0.00     0.031 C 
ATOM     37  C   UNL A   1      39.446  26.149  27.979  1.00  0.00     0.029 A 
ATOM     38  N   UNL A   1      41.626  26.535  28.281  1.00  0.00    -0.354 N 
ATOM     39  C   UNL A   1      43.122  30.433  29.285  1.00  0.00     0.074 A 
ATOM     40  C   UNL A   1      42.039  31.325  29.639  1.00  0.00     0.031 C 
ATOM     41  C   UNL A   1      40.085  24.980  27.830  1.00  0.00     0.029 A 
ATOM     42  C   UNL A   1      41.521  25.204  27.956  1.00  0.00     0.049 A 
ATOM     43  H   UNL A   1      42.485  26.976  28.474  1.00  0.00     0.167 HD
ATOM     44  C   UNL A   1      44.434  30.762  29.350  1.00  0.00     0.031 A 
ATOM     45  C   UNL A   1      42.467  24.272  27.736  1.00  0.00     0.031 A 
ATOM     46  C   UNL A   1      45.517  29.860  29.052  1.00  0.00     0.049 A 
ATOM     47  C   UNL A   1      43.915  24.663  27.795  1.00  0.00     0.074 A 
ATOM     48  C   UNL A   1      46.879  30.107  29.081  1.00  0.00     0.029 A 
ATOM     49  N   UNL A   1      45.359  28.531  28.696  1.00  0.00    -0.354 N 
ATOM     50  N   UNL A   1      44.443  25.827  28.087  1.00  0.00    -0.248 NA
ATOM     51  C   UNL A   1      44.896  23.618  27.469  1.00  0.00     0.031 C 
ATOM     52  C   UNL A   1      47.546  28.931  28.717  1.00  0.00     0.029 A 
ATOM     53  C   UNL A   1      46.598  27.945  28.501  1.00  0.00     0.049 A 
ATOM     54  H   UNL A   1      44.493  28.072  28.597  1.00  0.00     0.167 HD
ATOM     55  C   UNL A   1      45.816  25.654  27.978  1.00  0.00     0.074 A 
ATOM     56  C   UNL A   1      46.041  24.268  27.623  1.00  0.00     0.031 C 
ATOM     57  C   UNL A   1      46.803  26.567  28.142  1.00  0.00     0.031 A 
BRANCH  44  58
ATOM     58  C   UNL A   1      44.777  32.178  29.716  1.00  0.00    -0.014 A 
ATOM     59  C   UNL A   1      44.893  32.585  31.054  1.00  0.00     0.009 A 
ATOM     60  C   UNL A   1      45.027  33.111  28.697  1.00  0.00     0.009 A 
ATOM     61  C   UNL A   1      45.230  33.905  31.361  1.00  0.00     0.001 A 
ATOM     62  C   UNL A   1      45.387  34.423  29.007  1.00  0.00     0.001 A 
ATOM     63  C   UNL A   1      45.481  34.822  30.339  1.00  0.00     0.000 A 
ENDBRANCH  44  58
BRANCH  45  64
ATOM     64  C   UNL A   1      42.075  22.884  27.375  1.00  0.00    -0.014 A 
ATOM     65  C   UNL A   1      41.944  22.507  26.031  1.00  0.00     0.009 A 
ATOM     66  C   UNL A   1      41.832  21.929  28.376  1.00  0.00     0.009 A 
ATOM     67  C   UNL A   1      41.567  21.204  25.696  1.00  0.00     0.001 A 
ATOM     68  C   UNL A   1      41.485  20.620  28.037  1.00  0.00     0.001 A 
ATOM     69  C   UNL A   1      41.347  20.260  26.698  1.00  0.00     0.000 A 
ENDBRANCH  45  64
BRANCH  57  70
ATOM     70  C   UNL A   1      48.211  26.081  27.962  1.00  0.00    -0.014 A 
ATOM     71  C   UNL A   1      48.957  25.608  29.051  1.00  0.00     0.009 A 
ATOM     72  C   UNL A   1      48.794  26.090  26.685  1.00  0.00     0.009 A 
ATOM     73  C   UNL A   1      50.276  25.184  28.871  1.00  0.00     0.001 A 
ATOM     74  C   UNL A   1      50.105  25.647  26.505  1.00  0.00     0.001 A 
ATOM     75  C   UNL A   1      50.847  25.203  27.598  1.00  0.00     0.000 A 
ENDBRANCH  57  70
ENDBRANCH  31  32
ENDBRANCH  24  26
ENDBRANCH  23  24
ENDBRANCH  22  23
ENDBRANCH   1  22
TORSDOF 13
ENDMDL
MODEL 2
REMARK VINA RESULT:     -10.4      1.839      3.153
REMARK SMILES CC1(C)CCSC[C@@]1(Nc1ccccc1Br)C(=O)OCCOC(=O)c1ccc(-c2c3nc(c(-c4ccccc4)c4ccc([nH]4)c(-c4ccccc4)c4nc(c(-c5ccccc5)c5ccc2[nH]5)C=C4)C=C3)cc1
REMARK SMILES IDX 20 1 19 2 17 3 18 4 8 5 1 6 2 7 3 8 4 9 5 10 7 11 6 12 9 13
REMARK SMILES IDX 10 15 11 16 15 17 12 18 14 19 16 20 13 21 21 22 22 23 23 24
REMARK SMILES IDX 24 25 25 26 26 27 72 28 27 29 71 30 28 31 29 32 30 33 65 34
REMARK SMILES IDX 31 35 70 36 64 37 66 38 32 39 69 40 63 41 62 42 33 44 55 45
REMARK SMILES IDX 40 46 54 47 41 48 44 49 53 50 67 51 42 52 43 53 52 55 68 56
REMARK SMILES IDX 45 57 34 58 35 59 39 60 36 61 38 62 37 63 56 64 57 65 61 66
REMARK SMILES IDX 58 67 60 68 59 69 46 70 47 71 51 72 48 73 50 74 49 75
REMARK H PARENT 9 14 66 43 44 54
REMARK Flexibility Score: inf
ROOT
ATOM      1  C   UNL A   1      32.018  28.976  27.480  1.00  0.00     0.274 C 
ENDROOT
BRANCH   1   2
ATOM      2  O   UNL A   1      32.514  27.846  26.729  1.00  0.00    -0.460 OA
BRANCH   2   3
ATOM      3  C   UNL A   1      31.583  26.963  26.290  1.00  0.00     0.333 C 
ATOM      4  O   UNL A   1      30.617  26.624  26.973  1.00  0.00    -0.249 OA
BRANCH   3   5
ATOM      5  C   UNL A   1      31.889  26.323  24.894  1.00  0.00     0.150 C 
ATOM      6  C   UNL A   1      30.492  28.375  24.047  1.00  0.00     0.014 C 
ATOM      7  C   UNL A   1      30.774  26.854  23.875  1.00  0.00     0.000 C 
ATOM      8  C   UNL A   1      29.419  26.139  24.100  1.00  0.00     0.014 C 
ATOM      9  C   UNL A   1      31.175  26.619  22.387  1.00  0.00     0.020 C 
ATOM     10  C   UNL A   1      32.458  27.308  21.937  1.00  0.00     0.070 C 
ATOM     11  C   UNL A   1      33.301  26.870  24.508  1.00  0.00     0.110 C 
ATOM     12  S   UNL A   1      33.874  26.611  22.796  1.00  0.00    -0.159 SA
BRANCH   5  13
ATOM     13  N   UNL A   1      31.870  24.808  24.911  1.00  0.00    -0.368 N 
ATOM     14  H   UNL A   1      31.318  24.346  24.239  1.00  0.00     0.161 HD
BRANCH  13  15
ATOM     15  C   UNL A   1      32.585  24.026  25.822  1.00  0.00     0.049 A 
ATOM     16  C   UNL A   1      33.972  23.867  25.659  1.00  0.00     0.027 A 
ATOM     17  C   UNL A   1      31.986  23.234  26.819  1.00  0.00     0.041 A 
ATOM     18  C   UNL A   1      34.751  23.118  26.547  1.00  0.00     0.002 A 
ATOM     19  C   UNL A   1      32.763  22.509  27.738  1.00  0.00     0.018 A 
ATOM     20  Br  UNL A   1      30.108  22.942  26.897  1.00  0.00    -0.049 Br
ATOM     21  C   UNL A   1      34.150  22.472  27.615  1.00  0.00     0.001 A 
ENDBRANCH  13  15
ENDBRANCH   5  13
ENDBRANCH   3   5
ENDBRANCH   2   3
ENDBRANCH   1   2
BRANCH   1  22
ATOM     22  C   UNL A   1      32.603  30.293  26.963  1.00  0.00     0.275 C 
BRANCH  22  23
ATOM     23  O   UNL A   1      34.038  30.220  26.972  1.00  0.00    -0.458 OA
BRANCH  23  24
ATOM     24  C   UNL A   1      34.666  30.843  27.993  1.00  0.00     0.338 C 
ATOM     25  O   UNL A   1      34.233  31.783  28.648  1.00  0.00    -0.246 OA
BRANCH  24  26
ATOM     26  C   UNL A   1      35.987  30.209  28.239  1.00  0.00     0.060 A 
ATOM     27  C   UNL A   1      36.244  29.520  29.424  1.00  0.00     0.016 A 
ATOM     28  C   UNL A   1      37.016  30.356  27.309  1.00  0.00     0.016 A 
ATOM     29  C   UNL A   1      37.523  29.057  29.727  1.00  0.00     0.010 A 
ATOM     30  C   UNL A   1      38.279  29.800  27.567  1.00  0.00     0.010 A 
ATOM     31  C   UNL A   1      38.557  29.167  28.792  1.00  0.00    -0.014 A 
BRANCH  31  32
ATOM     32  C   UNL A   1      39.923  28.656  29.106  1.00  0.00     0.031 A 
ATOM     33  C   UNL A   1      40.899  29.520  29.862  1.00  0.00     0.074 A 
ATOM     34  C   UNL A   1      40.304  27.417  28.728  1.00  0.00     0.049 A 
ATOM     35  N   UNL A   1      42.186  29.356  30.039  1.00  0.00    -0.248 NA
ATOM     36  C   UNL A   1      40.358  30.736  30.491  1.00  0.00     0.031 C 
ATOM     37  C   UNL A   1      39.462  26.434  28.043  1.00  0.00     0.029 A 
ATOM     38  N   UNL A   1      41.507  26.769  28.880  1.00  0.00    -0.354 N 
ATOM     39  C   UNL A   1      42.620  30.480  30.731  1.00  0.00     0.074 A 
ATOM     40  C   UNL A   1      41.458  31.315  30.953  1.00  0.00     0.031 C 
ATOM     41  C   UNL A   1      40.154  25.296  27.881  1.00  0.00     0.029 A 
ATOM     42  C   UNL A   1      41.518  25.498  28.357  1.00  0.00     0.049 A 
ATOM     43  H   UNL A   1      42.286  27.176  29.322  1.00  0.00     0.167 HD
ATOM     44  C   UNL A   1      43.873  30.794  31.135  1.00  0.00     0.031 A 
ATOM     45  C   UNL A   1      42.518  24.606  28.228  1.00  0.00     0.031 A 
ATOM     46  C   UNL A   1      45.022  29.943  30.966  1.00  0.00     0.049 A 
ATOM     47  C   UNL A   1      43.903  24.982  28.667  1.00  0.00     0.074 A 
ATOM     48  C   UNL A   1      46.336  30.181  31.336  1.00  0.00     0.029 A 
ATOM     49  N   UNL A   1      44.989  28.679  30.401  1.00  0.00    -0.354 N 
ATOM     50  N   UNL A   1      44.316  26.091  29.229  1.00  0.00    -0.248 NA
ATOM     51  C   UNL A   1      44.963  23.993  28.428  1.00  0.00     0.031 C 
ATOM     52  C   UNL A   1      47.102  29.068  30.971  1.00  0.00     0.029 A 
ATOM     53  C   UNL A   1      46.258  28.125  30.411  1.00  0.00     0.049 A 
ATOM     54  H   UNL A   1      44.182  28.240  30.046  1.00  0.00     0.167 HD
ATOM     55  C   UNL A   1      45.684  25.933  29.410  1.00  0.00     0.074 A 
ATOM     56  C   UNL A   1      46.024  24.612  28.925  1.00  0.00     0.031 C 
ATOM     57  C   UNL A   1      46.580  26.812  29.919  1.00  0.00     0.031 A 
BRANCH  44  58
ATOM     58  C   UNL A   1      44.082  32.143  31.764  1.00  0.00    -0.014 A 
ATOM     59  C   UNL A   1      44.002  32.328  33.153  1.00  0.00     0.009 A 
ATOM     60  C   UNL A   1      44.405  33.240  30.948  1.00  0.00     0.009 A 
ATOM     61  C   UNL A   1      44.218  33.592  33.707  1.00  0.00     0.001 A 
ATOM     62  C   UNL A   1      44.644  34.495  31.508  1.00  0.00     0.001 A 
ATOM     63  C   UNL A   1      44.543  34.673  32.887  1.00  0.00     0.000 A 
ENDBRANCH  44  58
BRANCH  45  64
ATOM     64  C   UNL A   1      42.259  23.285  27.597  1.00  0.00    -0.014 A 
ATOM     65  C   UNL A   1      42.628  23.046  26.266  1.00  0.00     0.009 A 
ATOM     66  C   UNL A   1      41.643  22.255  28.327  1.00  0.00     0.009 A 
ATOM     67  C   UNL A   1      42.375  21.805  25.674  1.00  0.00     0.001 A 
ATOM     68  C   UNL A   1      41.419  21.007  27.743  1.00  0.00     0.001 A 
ATOM     69  C   UNL A   1      41.780  20.785  26.415  1.00  0.00     0.000 A 
ENDBRANCH  45  64
BRANCH  57  70
ATOM     70  C   UNL A   1      48.007  26.355  29.995  1.00  0.00    -0.014 A 
ATOM     71  C   UNL A   1      48.877  26.519  28.907  1.00  0.00     0.009 A 
ATOM     72  C   UNL A   1      48.488  25.760  31.172  1.00  0.00     0.009 A 
ATOM     73  C   UNL A   1      50.195  26.064  28.984  1.00  0.00     0.001 A 
ATOM     74  C   UNL A   1      49.812  25.326  31.253  1.00  0.00     0.001 A 
ATOM     75  C   UNL A   1      50.661  25.469  30.156  1.00  0.00     0.000 A 
ENDBRANCH  57  70
ENDBRANCH  31  32
ENDBRANCH  24  26
ENDBRANCH  23  24
ENDBRANCH  22  23
ENDBRANCH   1  22
TORSDOF 13
ENDMDL
MODEL 3
REMARK VINA RESULT:     -10.3      1.913      3.573
REMARK SMILES CC1(C)CCSC[C@@]1(Nc1ccccc1Br)C(=O)OCCOC(=O)c1ccc(-c2c3nc(c(-c4ccccc4)c4ccc([nH]4)c(-c4ccccc4)c4nc(c(-c5ccccc5)c5ccc2[nH]5)C=C4)C=C3)cc1
REMARK SMILES IDX 20 1 19 2 17 3 18 4 8 5 1 6 2 7 3 8 4 9 5 10 7 11 6 12 9 13
REMARK SMILES IDX 10 15 11 16 15 17 12 18 14 19 16 20 13 21 21 22 22 23 23 24
REMARK SMILES IDX 24 25 25 26 26 27 72 28 27 29 71 30 28 31 29 32 30 33 65 34
REMARK SMILES IDX 31 35 70 36 64 37 66 38 32 39 69 40 63 41 62 42 33 44 55 45
REMARK SMILES IDX 40 46 54 47 41 48 44 49 53 50 67 51 42 52 43 53 52 55 68 56
REMARK SMILES IDX 45 57 34 58 35 59 39 60 36 61 38 62 37 63 56 64 57 65 61 66
REMARK SMILES IDX 58 67 60 68 59 69 46 70 47 71 51 72 48 73 50 74 49 75
REMARK H PARENT 9 14 66 43 44 54
REMARK Flexibility Score: inf
ROOT
ATOM      1  C   UNL A   1      33.085  28.186  26.536  1.00  0.00     0.274 C 
ENDROOT
BRANCH   1   2
ATOM      2  O   UNL A   1      33.517  26.816  26.383  1.00  0.00    -0.460 OA
BRANCH   2   3
ATOM      3  C   UNL A   1      33.621  26.358  25.112  1.00  0.00     0.333 C 
ATOM      4  O   UNL A   1      33.930  27.086  24.169  1.00  0.00    -0.249 OA
BRANCH   3   5
ATOM      5  C   UNL A   1      33.211  24.860  24.915  1.00  0.00     0.150 C 
ATOM      6  C   UNL A   1      30.938  25.950  24.192  1.00  0.00     0.014 C 
ATOM      7  C   UNL A   1      31.613  24.793  24.986  1.00  0.00     0.000 C 
ATOM      8  C   UNL A   1      31.108  24.922  26.445  1.00  0.00     0.014 C 
ATOM      9  C   UNL A   1      31.053  23.451  24.423  1.00  0.00     0.020 C 
ATOM     10  C   UNL A   1      31.381  23.166  22.963  1.00  0.00     0.070 C 
ATOM     11  C   UNL A   1      33.721  24.492  23.485  1.00  0.00     0.110 C 
ATOM     12  S   UNL A   1      33.149  22.922  22.756  1.00  0.00    -0.159 SA
BRANCH   5  13
ATOM     13  N   UNL A   1      33.796  23.936  25.964  1.00  0.00    -0.368 N 
ATOM     14  H   UNL A   1      33.267  23.764  26.776  1.00  0.00     0.161 HD
BRANCH  13  15
ATOM     15  C   UNL A   1      35.042  23.311  25.851  1.00  0.00     0.049 A 
ATOM     16  C   UNL A   1      36.185  24.086  25.593  1.00  0.00     0.027 A 
ATOM     17  C   UNL A   1      35.221  21.916  25.815  1.00  0.00     0.041 A 
ATOM     18  C   UNL A   1      37.464  23.528  25.494  1.00  0.00     0.002 A 
ATOM     19  C   UNL A   1      36.505  21.348  25.752  1.00  0.00     0.018 A 
ATOM     20  Br  UNL A   1      33.762  20.704  25.672  1.00  0.00    -0.049 Br
ATOM     21  C   UNL A   1      37.629  22.158  25.615  1.00  0.00     0.001 A 
ENDBRANCH  13  15
ENDBRANCH   5  13
ENDBRANCH   3   5
ENDBRANCH   2   3
ENDBRANCH   1   2
BRANCH   1  22
ATOM     22  C   UNL A   1      33.721  28.841  27.765  1.00  0.00     0.275 C 
BRANCH  22  23
ATOM     23  O   UNL A   1      33.860  30.254  27.539  1.00  0.00    -0.458 OA
BRANCH  23  24
ATOM     24  C   UNL A   1      34.671  30.922  28.389  1.00  0.00     0.338 C 
ATOM     25  O   UNL A   1      34.380  31.916  29.042  1.00  0.00    -0.246 OA
BRANCH  24  26
ATOM     26  C   UNL A   1      36.001  30.262  28.446  1.00  0.00     0.060 A 
ATOM     27  C   UNL A   1      36.472  29.695  29.630  1.00  0.00     0.016 A 
ATOM     28  C   UNL A   1      36.829  30.262  27.324  1.00  0.00     0.016 A 
ATOM     29  C   UNL A   1      37.776  29.212  29.730  1.00  0.00     0.010 A 
ATOM     30  C   UNL A   1      38.106  29.684  27.394  1.00  0.00     0.010 A 
ATOM     31  C   UNL A   1      38.607  29.176  28.608  1.00  0.00    -0.014 A 
BRANCH  31  32
ATOM     32  C   UNL A   1      39.997  28.643  28.707  1.00  0.00     0.031 A 
ATOM     33  C   UNL A   1      41.121  29.542  29.152  1.00  0.00     0.074 A 
ATOM     34  C   UNL A   1      40.270  27.355  28.411  1.00  0.00     0.049 A 
ATOM     35  N   UNL A   1      42.414  29.343  29.094  1.00  0.00    -0.248 NA
ATOM     36  C   UNL A   1      40.741  30.843  29.727  1.00  0.00     0.031 C 
ATOM     37  C   UNL A   1      39.288  26.339  28.024  1.00  0.00     0.029 A 
ATOM     38  N   UNL A   1      41.465  26.675  28.402  1.00  0.00    -0.354 N 
ATOM     39  C   UNL A   1      43.000  30.517  29.551  1.00  0.00     0.074 A 
ATOM     40  C   UNL A   1      41.923  31.421  29.895  1.00  0.00     0.031 C 
ATOM     41  C   UNL A   1      39.910  25.161  27.864  1.00  0.00     0.029 A 
ATOM     42  C   UNL A   1      41.345  25.355  28.040  1.00  0.00     0.049 A 
ATOM     43  H   UNL A   1      42.325  27.094  28.632  1.00  0.00     0.167 HD
ATOM     44  C   UNL A   1      44.316  30.819  29.664  1.00  0.00     0.031 A 
ATOM     45  C   UNL A   1      42.280  24.411  27.824  1.00  0.00     0.031 A 
ATOM     46  C   UNL A   1      45.390  29.904  29.376  1.00  0.00     0.049 A 
ATOM     47  C   UNL A   1      43.733  24.773  27.938  1.00  0.00     0.074 A 
ATOM     48  C   UNL A   1      46.755  30.124  29.453  1.00  0.00     0.029 A 
ATOM     49  N   UNL A   1      45.219  28.588  28.981  1.00  0.00    -0.354 N 
ATOM     50  N   UNL A   1      44.273  25.918  28.275  1.00  0.00    -0.248 NA
ATOM     51  C   UNL A   1      44.704  23.717  27.615  1.00  0.00     0.031 C 
ATOM     52  C   UNL A   1      47.411  28.945  29.080  1.00  0.00     0.029 A 
ATOM     53  C   UNL A   1      46.452  27.983  28.810  1.00  0.00     0.049 A 
ATOM     54  H   UNL A   1      44.348  28.148  28.844  1.00  0.00     0.167 HD
ATOM     55  C   UNL A   1      45.645  25.721  28.203  1.00  0.00     0.074 A 
ATOM     56  C   UNL A   1      45.855  24.340  27.821  1.00  0.00     0.031 C 
ATOM     57  C   UNL A   1      46.643  26.611  28.422  1.00  0.00     0.031 A 
BRANCH  44  58
ATOM     58  C   UNL A   1      44.673  32.219  30.077  1.00  0.00    -0.014 A 
ATOM     59  C   UNL A   1      44.806  33.252  29.138  1.00  0.00     0.009 A 
ATOM     60  C   UNL A   1      44.842  32.511  31.440  1.00  0.00     0.009 A 
ATOM     61  C   UNL A   1      45.123  34.547  29.557  1.00  0.00     0.001 A 
ATOM     62  C   UNL A   1      45.134  33.810  31.857  1.00  0.00     0.001 A 
ATOM     63  C   UNL A   1      45.283  34.826  30.915  1.00  0.00     0.000 A 
ENDBRANCH  44  58
BRANCH  45  64
ATOM     64  C   UNL A   1      41.874  23.040  27.416  1.00  0.00    -0.014 A 
ATOM     65  C   UNL A   1      41.853  22.677  26.061  1.00  0.00     0.009 A 
ATOM     66  C   UNL A   1      41.507  22.088  28.381  1.00  0.00     0.009 A 
ATOM     67  C   UNL A   1      41.462  21.390  25.681  1.00  0.00     0.001 A 
ATOM     68  C   UNL A   1      41.146  20.795  28.000  1.00  0.00     0.001 A 
ATOM     69  C   UNL A   1      41.118  20.449  26.650  1.00  0.00     0.000 A 
ENDBRANCH  45  64
BRANCH  57  70
ATOM     70  C   UNL A   1      48.047  26.103  28.272  1.00  0.00    -0.014 A 
ATOM     71  C   UNL A   1      48.773  25.646  29.382  1.00  0.00     0.009 A 
ATOM     72  C   UNL A   1      48.646  26.073  27.003  1.00  0.00     0.009 A 
ATOM     73  C   UNL A   1      50.087  25.202  29.230  1.00  0.00     0.001 A 
ATOM     74  C   UNL A   1      49.953  25.609  26.851  1.00  0.00     0.001 A 
ATOM     75  C   UNL A   1      50.676  25.182  27.965  1.00  0.00     0.000 A 
ENDBRANCH  57  70
ENDBRANCH  31  32
ENDBRANCH  24  26
ENDBRANCH  23  24
ENDBRANCH  22  23
ENDBRANCH   1  22
TORSDOF 13
ENDMDL
