MODEL 1
REMARK VINA RESULT:     -10.2      0.000      0.000
REMARK SMILES C[C@H](NC(=O)N[C@](C)(C(=O)OCCOC(=O)c1ccc(-c2c3nc(c(-c4ccccc4)c4ccc([nH]4)c(-c4ccccc4)c4nc(c(-c5ccccc5)c5ccc2[nH]5)C=C4)C=C3)cc1)C(F)(F)F)C(N)=O
REMARK SMILES IDX 12 1 11 2 9 3 10 4 7 5 8 6 6 7 3 8 4 9 5 11 2 13 1 14 69 15
REMARK SMILES IDX 70 16 71 17 65 20 66 21 67 22 68 23 13 24 14 25 15 26 16 27
REMARK SMILES IDX 17 28 18 29 64 30 19 31 63 32 20 33 21 34 22 35 57 36 23 37
REMARK SMILES IDX 62 38 56 39 58 40 24 41 61 42 55 43 54 44 25 46 47 47 32 48
REMARK SMILES IDX 46 49 33 50 36 51 45 52 59 53 34 54 35 55 44 57 60 58 37 59
REMARK SMILES IDX 26 60 27 61 31 62 28 63 30 64 29 65 48 66 49 67 53 68 50 69
REMARK SMILES IDX 52 70 51 71 38 72 39 73 43 74 40 75 42 76 41 77
REMARK H PARENT 3 10 6 12 70 18 70 19 58 45 36 56
REMARK Flexibility Score: inf
ROOT
ATOM      1  C   UNL A   1      31.670  28.220  26.434  1.00  0.00     0.274 C 
ENDROOT
BRANCH   1   2
ATOM      2  O   UNL A   1      32.076  27.040  25.701  1.00  0.00    -0.460 OA
BRANCH   2   3
ATOM      3  C   UNL A   1      31.361  25.903  25.952  1.00  0.00     0.341 C 
ATOM      4  O   UNL A   1      30.262  25.944  26.484  1.00  0.00    -0.249 OA
BRANCH   3   5
ATOM      5  C   UNL A   1      32.117  24.606  25.629  1.00  0.00     0.232 C 
ATOM      6  C   UNL A   1      33.586  24.912  25.237  1.00  0.00     0.058 C 
BRANCH   5   7
ATOM      7  N   UNL A   1      32.180  23.743  26.851  1.00  0.00    -0.315 N 
ATOM      8  N   UNL A   1      32.990  21.487  26.663  1.00  0.00    -0.327 N 
ATOM      9  C   UNL A   1      32.583  22.568  27.284  1.00  0.00     0.316 C 
ATOM     10  H   UNL A   1      33.340  20.884  27.358  1.00  0.00     0.166 HD
ATOM     11  O   UNL A   1      32.566  22.470  28.521  1.00  0.00    -0.249 OA
ATOM     12  H   UNL A   1      31.774  24.232  27.603  1.00  0.00     0.166 HD
BRANCH   8  13
ATOM     13  C   UNL A   1      33.155  20.778  25.380  1.00  0.00     0.169 C 
ATOM     14  C   UNL A   1      34.432  21.074  24.616  1.00  0.00     0.041 C 
BRANCH  13  15
ATOM     15  C   UNL A   1      32.690  19.305  25.354  1.00  0.00     0.239 C 
ATOM     16  N   UNL A   1      32.903  18.585  26.500  1.00  0.00    -0.368 N 
ATOM     17  O   UNL A   1      32.256  18.742  24.353  1.00  0.00    -0.273 OA
ATOM     18  H   UNL A   1      33.252  19.031  27.305  1.00  0.00     0.159 HD
ATOM     19  H   UNL A   1      32.709  17.619  26.518  1.00  0.00     0.159 HD
ENDBRANCH  13  15
ENDBRANCH   8  13
ENDBRANCH   5   7
BRANCH   5  20
ATOM     20  C   UNL A   1      31.484  23.952  24.408  1.00  0.00     0.422 C 
ATOM     21  F   UNL A   1      30.657  22.939  24.765  1.00  0.00    -0.168 F 
ATOM     22  F   UNL A   1      30.726  24.832  23.712  1.00  0.00    -0.168 F 
ATOM     23  F   UNL A   1      32.389  23.434  23.562  1.00  0.00    -0.168 F 
ENDBRANCH   5  20
ENDBRANCH   3   5
ENDBRANCH   2   3
ENDBRANCH   1   2
BRANCH   1  24
ATOM     24  C   UNL A   1      31.785  29.516  25.625  1.00  0.00     0.275 C 
BRANCH  24  25
ATOM     25  O   UNL A   1      33.089  30.118  25.740  1.00  0.00    -0.458 OA
BRANCH  25  26
ATOM     26  C   UNL A   1      33.226  30.975  26.773  1.00  0.00     0.338 C 
ATOM     27  O   UNL A   1      32.357  31.704  27.241  1.00  0.00    -0.246 OA
BRANCH  26  28
ATOM     28  C   UNL A   1      34.524  30.778  27.433  1.00  0.00     0.060 A 
ATOM     29  C   UNL A   1      34.790  29.485  27.875  1.00  0.00     0.016 A 
ATOM     30  C   UNL A   1      35.426  31.803  27.710  1.00  0.00     0.016 A 
ATOM     31  C   UNL A   1      35.944  29.183  28.579  1.00  0.00     0.010 A 
ATOM     32  C   UNL A   1      36.593  31.509  28.438  1.00  0.00     0.010 A 
ATOM     33  C   UNL A   1      36.852  30.197  28.876  1.00  0.00    -0.014 A 
BRANCH  33  34
ATOM     34  C   UNL A   1      38.021  29.852  29.715  1.00  0.00     0.031 A 
ATOM     35  C   UNL A   1      39.135  29.033  29.134  1.00  0.00     0.074 A 
ATOM     36  C   UNL A   1      38.147  30.386  30.944  1.00  0.00     0.049 A 
ATOM     37  N   UNL A   1      40.228  28.602  29.707  1.00  0.00    -0.248 NA
ATOM     38  C   UNL A   1      39.011  28.673  27.713  1.00  0.00     0.031 C 
ATOM     39  C   UNL A   1      37.199  31.312  31.566  1.00  0.00     0.029 A 
ATOM     40  N   UNL A   1      39.142  30.246  31.878  1.00  0.00    -0.354 N 
ATOM     41  C   UNL A   1      40.915  27.901  28.724  1.00  0.00     0.074 A 
ATOM     42  C   UNL A   1      40.119  27.973  27.517  1.00  0.00     0.031 C 
ATOM     43  C   UNL A   1      37.666  31.664  32.776  1.00  0.00     0.029 A 
ATOM     44  C   UNL A   1      38.910  30.942  33.037  1.00  0.00     0.049 A 
ATOM     45  H   UNL A   1      39.946  29.697  31.730  1.00  0.00     0.167 HD
ATOM     46  C   UNL A   1      42.095  27.244  28.825  1.00  0.00     0.031 A 
ATOM     47  C   UNL A   1      39.603  30.960  34.192  1.00  0.00     0.031 A 
ATOM     48  C   UNL A   1      42.871  27.151  30.032  1.00  0.00     0.049 A 
ATOM     49  C   UNL A   1      40.835  30.105  34.323  1.00  0.00     0.074 A 
ATOM     50  C   UNL A   1      44.042  26.450  30.255  1.00  0.00     0.029 A 
ATOM     51  N   UNL A   1      42.548  27.780  31.225  1.00  0.00    -0.354 N 
ATOM     52  N   UNL A   1      41.439  29.382  33.412  1.00  0.00    -0.248 NA
ATOM     53  C   UNL A   1      41.467  30.053  35.650  1.00  0.00     0.031 C 
ATOM     54  C   UNL A   1      44.399  26.611  31.599  1.00  0.00     0.029 A 
ATOM     55  C   UNL A   1      43.481  27.460  32.195  1.00  0.00     0.049 A 
ATOM     56  H   UNL A   1      41.769  28.369  31.360  1.00  0.00     0.167 HD
ATOM     57  C   UNL A   1      42.527  28.798  34.051  1.00  0.00     0.074 A 
ATOM     58  C   UNL A   1      42.514  29.272  35.419  1.00  0.00     0.031 C 
ATOM     59  C   UNL A   1      43.449  27.939  33.553  1.00  0.00     0.031 A 
BRANCH  46  60
ATOM     60  C   UNL A   1      42.568  26.500  27.610  1.00  0.00    -0.014 A 
ATOM     61  C   UNL A   1      43.423  27.095  26.671  1.00  0.00     0.009 A 
ATOM     62  C   UNL A   1      42.149  25.176  27.410  1.00  0.00     0.009 A 
ATOM     63  C   UNL A   1      43.824  26.385  25.535  1.00  0.00     0.001 A 
ATOM     64  C   UNL A   1      42.571  24.462  26.287  1.00  0.00     0.001 A 
ATOM     65  C   UNL A   1      43.400  25.070  25.347  1.00  0.00     0.000 A 
ENDBRANCH  46  60
BRANCH  47  66
ATOM     66  C   UNL A   1      39.114  31.755  35.351  1.00  0.00    -0.014 A 
ATOM     67  C   UNL A   1      38.256  31.184  36.303  1.00  0.00     0.009 A 
ATOM     68  C   UNL A   1      39.470  33.107  35.485  1.00  0.00     0.009 A 
ATOM     69  C   UNL A   1      37.747  31.956  37.351  1.00  0.00     0.001 A 
ATOM     70  C   UNL A   1      38.985  33.867  36.550  1.00  0.00     0.001 A 
ATOM     71  C   UNL A   1      38.116  33.295  37.476  1.00  0.00     0.000 A 
ENDBRANCH  47  66
BRANCH  59  72
ATOM     72  C   UNL A   1      44.531  27.473  34.487  1.00  0.00    -0.014 A 
ATOM     73  C   UNL A   1      45.719  28.205  34.643  1.00  0.00     0.009 A 
ATOM     74  C   UNL A   1      44.340  26.313  35.253  1.00  0.00     0.009 A 
ATOM     75  C   UNL A   1      46.706  27.766  35.529  1.00  0.00     0.001 A 
ATOM     76  C   UNL A   1      45.316  25.891  36.156  1.00  0.00     0.001 A 
ATOM     77  C   UNL A   1      46.501  26.613  36.287  1.00  0.00     0.000 A 
ENDBRANCH  59  72
ENDBRANCH  33  34
ENDBRANCH  26  28
ENDBRANCH  25  26
ENDBRANCH  24  25
ENDBRANCH   1  24
TORSDOF 15
ENDMDL
MODEL 2
REMARK VINA RESULT:     -10.2      3.847      7.311
REMARK SMILES C[C@H](NC(=O)N[C@](C)(C(=O)OCCOC(=O)c1ccc(-c2c3nc(c(-c4ccccc4)c4ccc([nH]4)c(-c4ccccc4)c4nc(c(-c5ccccc5)c5ccc2[nH]5)C=C4)C=C3)cc1)C(F)(F)F)C(N)=O
REMARK SMILES IDX 12 1 11 2 9 3 10 4 7 5 8 6 6 7 3 8 4 9 5 11 2 13 1 14 69 15
REMARK SMILES IDX 70 16 71 17 65 20 66 21 67 22 68 23 13 24 14 25 15 26 16 27
REMARK SMILES IDX 17 28 18 29 64 30 19 31 63 32 20 33 21 34 22 35 57 36 23 37
REMARK SMILES IDX 62 38 56 39 58 40 24 41 61 42 55 43 54 44 25 46 47 47 32 48
REMARK SMILES IDX 46 49 33 50 36 51 45 52 59 53 34 54 35 55 44 57 60 58 37 59
REMARK SMILES IDX 26 60 27 61 31 62 28 63 30 64 29 65 48 66 49 67 53 68 50 69
REMARK SMILES IDX 52 70 51 71 38 72 39 73 43 74 40 75 42 76 41 77
REMARK H PARENT 3 10 6 12 70 18 70 19 58 45 36 56
REMARK Flexibility Score: inf
ROOT
ATOM      1  C   UNL A   1      38.209  21.178  25.536  1.00  0.00     0.274 C 
ENDROOT
BRANCH   1   2
ATOM      2  O   UNL A   1      36.804  21.076  25.206  1.00  0.00    -0.460 OA
BRANCH   2   3
ATOM      3  C   UNL A   1      36.340  21.966  24.279  1.00  0.00     0.341 C 
ATOM      4  O   UNL A   1      37.020  22.304  23.321  1.00  0.00    -0.249 OA
BRANCH   3   5
ATOM      5  C   UNL A   1      34.976  22.577  24.629  1.00  0.00     0.232 C 
ATOM      6  C   UNL A   1      34.362  23.287  23.394  1.00  0.00     0.058 C 
BRANCH   5   7
ATOM      7  N   UNL A   1      34.018  21.490  25.007  1.00  0.00    -0.315 N 
ATOM      8  N   UNL A   1      31.690  22.014  25.298  1.00  0.00    -0.327 N 
ATOM      9  C   UNL A   1      32.741  21.237  25.195  1.00  0.00     0.316 C 
ATOM     10  H   UNL A   1      30.905  21.420  25.285  1.00  0.00     0.166 HD
ATOM     11  O   UNL A   1      32.492  20.025  25.299  1.00  0.00    -0.249 OA
ATOM     12  H   UNL A   1      34.529  20.665  25.176  1.00  0.00     0.166 HD
BRANCH   8  13
ATOM     13  C   UNL A   1      31.168  23.388  25.426  1.00  0.00     0.169 C 
ATOM     14  C   UNL A   1      30.770  24.071  24.130  1.00  0.00     0.041 C 
BRANCH  13  15
ATOM     15  C   UNL A   1      30.235  23.650  26.629  1.00  0.00     0.239 C 
ATOM     16  N   UNL A   1      29.514  24.814  26.592  1.00  0.00    -0.368 N 
ATOM     17  O   UNL A   1      30.198  22.941  27.632  1.00  0.00    -0.273 OA
ATOM     18  H   UNL A   1      29.542  25.385  25.791  1.00  0.00     0.159 HD
ATOM     19  H   UNL A   1      28.969  25.080  27.368  1.00  0.00     0.159 HD
ENDBRANCH  13  15
ENDBRANCH   8  13
ENDBRANCH   5   7
BRANCH   5  20
ATOM     20  C   UNL A   1      35.171  23.661  25.682  1.00  0.00     0.422 C 
ATOM     21  F   UNL A   1      34.322  24.699  25.483  1.00  0.00    -0.168 F 
ATOM     22  F   UNL A   1      34.913  23.194  26.927  1.00  0.00    -0.168 F 
ATOM     23  F   UNL A   1      36.413  24.170  25.687  1.00  0.00    -0.168 F 
ENDBRANCH   5  20
ENDBRANCH   3   5
ENDBRANCH   2   3
ENDBRANCH   1   2
BRANCH   1  24
ATOM     24  C   UNL A   1      38.987  19.875  25.322  1.00  0.00     0.275 C 
BRANCH  24  25
ATOM     25  O   UNL A   1      39.835  19.554  26.442  1.00  0.00    -0.458 OA
BRANCH  25  26
ATOM     26  C   UNL A   1      41.157  19.648  26.194  1.00  0.00     0.338 C 
ATOM     27  O   UNL A   1      41.845  18.849  25.566  1.00  0.00    -0.246 OA
BRANCH  26  28
ATOM     28  C   UNL A   1      41.661  20.969  26.597  1.00  0.00     0.060 A 
ATOM     29  C   UNL A   1      41.466  21.312  27.932  1.00  0.00     0.016 A 
ATOM     30  C   UNL A   1      42.219  21.895  25.720  1.00  0.00     0.016 A 
ATOM     31  C   UNL A   1      41.826  22.556  28.421  1.00  0.00     0.010 A 
ATOM     32  C   UNL A   1      42.574  23.168  26.203  1.00  0.00     0.010 A 
ATOM     33  C   UNL A   1      42.375  23.501  27.555  1.00  0.00    -0.014 A 
BRANCH  33  34
ATOM     34  C   UNL A   1      42.652  24.851  28.095  1.00  0.00     0.031 A 
ATOM     35  C   UNL A   1      44.066  25.257  28.383  1.00  0.00     0.074 A 
ATOM     36  C   UNL A   1      41.658  25.752  28.192  1.00  0.00     0.049 A 
ATOM     37  N   UNL A   1      44.517  26.378  28.882  1.00  0.00    -0.248 NA
ATOM     38  C   UNL A   1      45.112  24.280  28.043  1.00  0.00     0.031 C 
ATOM     39  C   UNL A   1      40.265  25.521  27.807  1.00  0.00     0.029 A 
ATOM     40  N   UNL A   1      41.677  27.055  28.622  1.00  0.00    -0.354 N 
ATOM     41  C   UNL A   1      45.898  26.237  28.935  1.00  0.00     0.074 A 
ATOM     42  C   UNL A   1      46.210  24.924  28.410  1.00  0.00     0.031 C 
ATOM     43  C   UNL A   1      39.566  26.651  28.009  1.00  0.00     0.029 A 
ATOM     44  C   UNL A   1      40.446  27.660  28.593  1.00  0.00     0.049 A 
ATOM     45  H   UNL A   1      42.496  27.512  28.921  1.00  0.00     0.167 HD
ATOM     46  C   UNL A   1      46.819  27.115  29.396  1.00  0.00     0.031 A 
ATOM     47  C   UNL A   1      40.067  28.878  29.030  1.00  0.00     0.031 A 
ATOM     48  C   UNL A   1      46.505  28.408  29.943  1.00  0.00     0.049 A 
ATOM     49  C   UNL A   1      41.090  29.779  29.669  1.00  0.00     0.074 A 
ATOM     50  C   UNL A   1      47.360  29.342  30.501  1.00  0.00     0.029 A 
ATOM     51  N   UNL A   1      45.229  28.947  30.001  1.00  0.00    -0.354 N 
ATOM     52  N   UNL A   1      42.384  29.607  29.789  1.00  0.00    -0.248 NA
ATOM     53  C   UNL A   1      40.592  31.032  30.256  1.00  0.00     0.031 C 
ATOM     54  C   UNL A   1      46.593  30.424  30.946  1.00  0.00     0.029 A 
ATOM     55  C   UNL A   1      45.269  30.189  30.612  1.00  0.00     0.049 A 
ATOM     56  H   UNL A   1      44.415  28.511  29.658  1.00  0.00     0.167 HD
ATOM     57  C   UNL A   1      42.856  30.734  30.452  1.00  0.00     0.074 A 
ATOM     58  C   UNL A   1      41.715  31.593  30.687  1.00  0.00     0.031 C 
ATOM     59  C   UNL A   1      44.121  31.028  30.841  1.00  0.00     0.031 A 
BRANCH  46  60
ATOM     60  C   UNL A   1      48.250  26.661  29.407  1.00  0.00    -0.014 A 
ATOM     61  C   UNL A   1      48.789  25.954  30.491  1.00  0.00     0.009 A 
ATOM     62  C   UNL A   1      49.069  26.946  28.302  1.00  0.00     0.009 A 
ATOM     63  C   UNL A   1      50.133  25.568  30.482  1.00  0.00     0.001 A 
ATOM     64  C   UNL A   1      50.404  26.539  28.287  1.00  0.00     0.001 A 
ATOM     65  C   UNL A   1      50.936  25.858  29.380  1.00  0.00     0.000 A 
ENDBRANCH  46  60
BRANCH  47  66
ATOM     66  C   UNL A   1      38.642  29.296  28.950  1.00  0.00    -0.014 A 
ATOM     67  C   UNL A   1      37.768  29.075  30.025  1.00  0.00     0.009 A 
ATOM     68  C   UNL A   1      38.138  29.880  27.776  1.00  0.00     0.009 A 
ATOM     69  C   UNL A   1      36.415  29.410  29.918  1.00  0.00     0.001 A 
ATOM     70  C   UNL A   1      36.794  30.241  27.683  1.00  0.00     0.001 A 
ATOM     71  C   UNL A   1      35.931  29.996  28.749  1.00  0.00     0.000 A 
ENDBRANCH  47  66
BRANCH  59  72
ATOM     72  C   UNL A   1      44.339  32.339  31.541  1.00  0.00    -0.014 A 
ATOM     73  C   UNL A   1      44.277  32.434  32.940  1.00  0.00     0.009 A 
ATOM     74  C   UNL A   1      44.655  33.485  30.795  1.00  0.00     0.009 A 
ATOM     75  C   UNL A   1      44.500  33.658  33.575  1.00  0.00     0.001 A 
ATOM     76  C   UNL A   1      44.903  34.701  31.433  1.00  0.00     0.001 A 
ATOM     77  C   UNL A   1      44.817  34.788  32.821  1.00  0.00     0.000 A 
ENDBRANCH  59  72
ENDBRANCH  33  34
ENDBRANCH  26  28
ENDBRANCH  25  26
ENDBRANCH  24  25
ENDBRANCH   1  24
TORSDOF 15
ENDMDL
MODEL 3
REMARK VINA RESULT:     -10.0      2.991      3.798
REMARK SMILES C[C@H](NC(=O)N[C@](C)(C(=O)OCCOC(=O)c1ccc(-c2c3nc(c(-c4ccccc4)c4ccc([nH]4)c(-c4ccccc4)c4nc(c(-c5ccccc5)c5ccc2[nH]5)C=C4)C=C3)cc1)C(F)(F)F)C(N)=O
REMARK SMILES IDX 12 1 11 2 9 3 10 4 7 5 8 6 6 7 3 8 4 9 5 11 2 13 1 14 69 15
REMARK SMILES IDX 70 16 71 17 65 20 66 21 67 22 68 23 13 24 14 25 15 26 16 27
REMARK SMILES IDX 17 28 18 29 64 30 19 31 63 32 20 33 21 34 22 35 57 36 23 37
REMARK SMILES IDX 62 38 56 39 58 40 24 41 61 42 55 43 54 44 25 46 47 47 32 48
REMARK SMILES IDX 46 49 33 50 36 51 45 52 59 53 34 54 35 55 44 57 60 58 37 59
REMARK SMILES IDX 26 60 27 61 31 62 28 63 30 64 29 65 48 66 49 67 53 68 50 69
REMARK SMILES IDX 52 70 51 71 38 72 39 73 43 74 40 75 42 76 41 77
REMARK H PARENT 3 10 6 12 70 18 70 19 58 45 36 56
REMARK Flexibility Score: inf
ROOT
ATOM      1  C   UNL A   1      31.316  31.880  26.521  1.00  0.00     0.274 C 
ENDROOT
BRANCH   1   2
ATOM      2  O   UNL A   1      31.848  30.749  25.791  1.00  0.00    -0.460 OA
BRANCH   2   3
ATOM      3  C   UNL A   1      31.803  29.545  26.434  1.00  0.00     0.341 C 
ATOM      4  O   UNL A   1      31.710  29.474  27.651  1.00  0.00    -0.249 OA
BRANCH   3   5
ATOM      5  C   UNL A   1      32.010  28.336  25.512  1.00  0.00     0.232 C 
ATOM      6  C   UNL A   1      31.236  27.102  26.045  1.00  0.00     0.058 C 
BRANCH   5   7
ATOM      7  N   UNL A   1      31.443  28.633  24.158  1.00  0.00    -0.315 N 
ATOM      8  N   UNL A   1      31.060  26.828  22.616  1.00  0.00    -0.327 N 
ATOM      9  C   UNL A   1      31.000  28.061  23.059  1.00  0.00     0.316 C 
ATOM     10  H   UNL A   1      30.478  26.791  21.822  1.00  0.00     0.166 HD
ATOM     11  O   UNL A   1      30.419  28.850  22.297  1.00  0.00    -0.249 OA
ATOM     12  H   UNL A   1      31.378  29.610  24.051  1.00  0.00     0.166 HD
BRANCH   8  13
ATOM     13  C   UNL A   1      31.618  25.473  22.783  1.00  0.00     0.169 C 
ATOM     14  C   UNL A   1      30.623  24.386  23.146  1.00  0.00     0.041 C 
BRANCH  13  15
ATOM     15  C   UNL A   1      32.716  25.062  21.778  1.00  0.00     0.239 C 
ATOM     16  N   UNL A   1      32.816  23.722  21.507  1.00  0.00    -0.368 N 
ATOM     17  O   UNL A   1      33.544  25.840  21.314  1.00  0.00    -0.273 OA
ATOM     18  H   UNL A   1      32.155  23.094  21.878  1.00  0.00     0.159 HD
ATOM     19  H   UNL A   1      33.551  23.388  20.943  1.00  0.00     0.159 HD
ENDBRANCH  13  15
ENDBRANCH   8  13
ENDBRANCH   5   7
BRANCH   5  20
ATOM     20  C   UNL A   1      33.482  27.946  25.524  1.00  0.00     0.422 C 
ATOM     21  F   UNL A   1      33.781  27.185  26.606  1.00  0.00    -0.168 F 
ATOM     22  F   UNL A   1      33.807  27.204  24.439  1.00  0.00    -0.168 F 
ATOM     23  F   UNL A   1      34.306  29.005  25.555  1.00  0.00    -0.168 F 
ENDBRANCH   5  20
ENDBRANCH   3   5
ENDBRANCH   2   3
ENDBRANCH   1   2
BRANCH   1  24
ATOM     24  C   UNL A   1      32.366  32.944  26.857  1.00  0.00     0.275 C 
BRANCH  24  25
ATOM     25  O   UNL A   1      32.115  33.579  28.126  1.00  0.00    -0.458 OA
BRANCH  25  26
ATOM     26  C   UNL A   1      33.000  34.541  28.460  1.00  0.00     0.338 C 
ATOM     27  O   UNL A   1      32.760  35.734  28.619  1.00  0.00    -0.246 OA
BRANCH  26  28
ATOM     28  C   UNL A   1      34.291  33.944  28.830  1.00  0.00     0.060 A 
ATOM     29  C   UNL A   1      34.256  33.018  29.869  1.00  0.00     0.016 A 
ATOM     30  C   UNL A   1      35.513  34.315  28.275  1.00  0.00     0.016 A 
ATOM     31  C   UNL A   1      35.412  32.439  30.363  1.00  0.00     0.010 A 
ATOM     32  C   UNL A   1      36.695  33.744  28.781  1.00  0.00     0.010 A 
ATOM     33  C   UNL A   1      36.646  32.807  29.829  1.00  0.00    -0.014 A 
BRANCH  33  34
ATOM     34  C   UNL A   1      37.863  32.241  30.453  1.00  0.00     0.031 A 
ATOM     35  C   UNL A   1      38.527  31.049  29.833  1.00  0.00     0.074 A 
ATOM     36  C   UNL A   1      38.446  32.877  31.485  1.00  0.00     0.049 A 
ATOM     37  N   UNL A   1      39.581  30.388  30.237  1.00  0.00    -0.248 NA
ATOM     38  C   UNL A   1      37.941  30.549  28.579  1.00  0.00     0.031 C 
ATOM     39  C   UNL A   1      37.975  34.126  32.086  1.00  0.00     0.029 A 
ATOM     40  N   UNL A   1      39.581  32.571  32.193  1.00  0.00    -0.354 N 
ATOM     41  C   UNL A   1      39.774  29.381  29.300  1.00  0.00     0.074 A 
ATOM     42  C   UNL A   1      38.734  29.524  28.303  1.00  0.00     0.031 C 
ATOM     43  C   UNL A   1      38.821  34.484  33.066  1.00  0.00     0.029 A 
ATOM     44  C   UNL A   1      39.856  33.460  33.202  1.00  0.00     0.049 A 
ATOM     45  H   UNL A   1      40.144  31.788  31.996  1.00  0.00     0.167 HD
ATOM     46  C   UNL A   1      40.723  28.415  29.282  1.00  0.00     0.031 A 
ATOM     47  C   UNL A   1      40.810  33.426  34.152  1.00  0.00     0.031 A 
ATOM     48  C   UNL A   1      41.740  28.259  30.288  1.00  0.00     0.049 A 
ATOM     49  C   UNL A   1      41.765  32.262  34.193  1.00  0.00     0.074 A 
ATOM     50  C   UNL A   1      42.702  27.271  30.398  1.00  0.00     0.029 A 
ATOM     51  N   UNL A   1      41.922  29.116  31.362  1.00  0.00    -0.354 N 
ATOM     52  N   UNL A   1      41.894  31.269  33.348  1.00  0.00    -0.248 NA
ATOM     53  C   UNL A   1      42.690  32.205  35.334  1.00  0.00     0.031 C 
ATOM     54  C   UNL A   1      43.433  27.502  31.569  1.00  0.00     0.029 A 
ATOM     55  C   UNL A   1      42.962  28.665  32.155  1.00  0.00     0.049 A 
ATOM     56  H   UNL A   1      41.389  29.928  31.533  1.00  0.00     0.167 HD
ATOM     57  C   UNL A   1      42.919  30.476  33.848  1.00  0.00     0.074 A 
ATOM     58  C   UNL A   1      43.396  31.117  35.056  1.00  0.00     0.031 C 
ATOM     59  C   UNL A   1      43.418  29.315  33.357  1.00  0.00     0.031 A 
BRANCH  46  60
ATOM     60  C   UNL A   1      40.644  27.401  28.179  1.00  0.00    -0.014 A 
ATOM     61  C   UNL A   1      41.303  27.593  26.955  1.00  0.00     0.009 A 
ATOM     62  C   UNL A   1      39.899  26.228  28.376  1.00  0.00     0.009 A 
ATOM     63  C   UNL A   1      41.188  26.641  25.938  1.00  0.00     0.001 A 
ATOM     64  C   UNL A   1      39.805  25.269  27.366  1.00  0.00     0.001 A 
ATOM     65  C   UNL A   1      40.442  25.481  26.145  1.00  0.00     0.000 A 
ENDBRANCH  46  60
BRANCH  47  66
ATOM     66  C   UNL A   1      40.872  34.486  35.194  1.00  0.00    -0.014 A 
ATOM     67  C   UNL A   1      41.690  35.613  35.024  1.00  0.00     0.009 A 
ATOM     68  C   UNL A   1      40.144  34.352  36.387  1.00  0.00     0.009 A 
ATOM     69  C   UNL A   1      41.795  36.571  36.036  1.00  0.00     0.001 A 
ATOM     70  C   UNL A   1      40.226  35.325  37.383  1.00  0.00     0.001 A 
ATOM     71  C   UNL A   1      41.059  36.428  37.212  1.00  0.00     0.000 A 
ENDBRANCH  47  66
BRANCH  59  72
ATOM     72  C   UNL A   1      44.548  28.676  34.114  1.00  0.00    -0.014 A 
ATOM     73  C   UNL A   1      45.883  29.027  33.858  1.00  0.00     0.009 A 
ATOM     74  C   UNL A   1      44.271  27.746  35.127  1.00  0.00     0.009 A 
ATOM     75  C   UNL A   1      46.919  28.435  34.584  1.00  0.00     0.001 A 
ATOM     76  C   UNL A   1      45.306  27.176  35.869  1.00  0.00     0.001 A 
ATOM     77  C   UNL A   1      46.629  27.515  35.592  1.00  0.00     0.000 A 
ENDBRANCH  59  72
ENDBRANCH  33  34
ENDBRANCH  26  28
ENDBRANCH  25  26
ENDBRANCH  24  25
ENDBRANCH   1  24
TORSDOF 15
ENDMDL
