MODEL 1
REMARK VINA RESULT:     -10.0      0.000      0.000
REMARK SMILES CC[C@@H]1[C@@H](C(=O)OCCOC(=O)c2ccc(-c3c4nc(c(-c5ccccc5)c5ccc([nH]5)c(-c5ccccc5)c5nc(c(-c6ccccc6)c6ccc3[nH]6)C=C5)C=C4)cc2)CCCN1C(=O)OCc1ccccc1
REMARK SMILES IDX 8 1 7 2 5 3 6 4 4 5 3 6 64 7 61 8 63 9 62 10 2 11 1 12 65 13
REMARK SMILES IDX 66 14 67 15 68 16 69 17 70 18 74 19 71 20 73 21 72 22 9 23
REMARK SMILES IDX 10 24 11 25 12 26 13 27 14 28 60 29 15 30 59 31 16 32 17 33
REMARK SMILES IDX 18 34 53 35 19 36 58 37 52 38 54 39 20 40 57 41 51 42 50 43
REMARK SMILES IDX 21 45 43 46 28 47 42 48 29 49 32 50 41 51 55 52 30 53 31 54
REMARK SMILES IDX 40 56 56 57 33 58 22 59 23 60 27 61 24 62 26 63 25 64 44 65
REMARK SMILES IDX 45 66 49 67 46 68 48 69 47 70 34 71 35 72 39 73 36 74 38 75
REMARK SMILES IDX 37 76
REMARK H PARENT 54 44 32 55
REMARK Flexibility Score: inf
ROOT
ATOM      1  C   UNL A   1      32.058  29.033  27.257  1.00  0.00     0.274 C 
ENDROOT
BRANCH   1   2
ATOM      2  O   UNL A   1      32.053  28.309  26.010  1.00  0.00    -0.462 OA
BRANCH   2   3
ATOM      3  C   UNL A   1      32.966  27.309  25.932  1.00  0.00     0.311 C 
ATOM      4  O   UNL A   1      34.048  27.330  26.508  1.00  0.00    -0.252 OA
BRANCH   3   5
ATOM      5  C   UNL A   1      32.545  26.152  25.041  1.00  0.00     0.122 C 
ATOM      6  C   UNL A   1      32.393  26.591  23.574  1.00  0.00     0.102 C 
ATOM      7  N   UNL A   1      32.006  25.396  22.772  1.00  0.00    -0.304 N 
ATOM      8  C   UNL A   1      31.300  25.409  25.562  1.00  0.00     0.019 C 
ATOM      9  C   UNL A   1      30.763  24.748  23.197  1.00  0.00     0.123 C 
ATOM     10  C   UNL A   1      30.918  24.255  24.636  1.00  0.00     0.023 C 
BRANCH   6  11
ATOM     11  C   UNL A   1      33.620  27.398  23.072  1.00  0.00     0.023 C 
ATOM     12  C   UNL A   1      33.307  28.818  22.642  1.00  0.00     0.006 C 
ENDBRANCH   6  11
BRANCH   7  13
ATOM     13  C   UNL A   1      32.860  24.729  21.903  1.00  0.00     0.410 C 
ATOM     14  O   UNL A   1      33.212  25.141  20.804  1.00  0.00    -0.224 OA
BRANCH  13  15
ATOM     15  O   UNL A   1      33.187  23.494  22.375  1.00  0.00    -0.445 OA
BRANCH  15  16
ATOM     16  C   UNL A   1      34.415  23.408  23.116  1.00  0.00     0.270 C 
BRANCH  16  17
ATOM     17  C   UNL A   1      34.229  22.858  24.519  1.00  0.00    -0.011 A 
ATOM     18  C   UNL A   1      33.527  21.673  24.775  1.00  0.00     0.007 A 
ATOM     19  C   UNL A   1      34.815  23.524  25.605  1.00  0.00     0.007 A 
ATOM     20  C   UNL A   1      33.482  21.118  26.055  1.00  0.00     0.000 A 
ATOM     21  C   UNL A   1      34.736  22.991  26.896  1.00  0.00     0.000 A 
ATOM     22  C   UNL A   1      34.090  21.778  27.116  1.00  0.00     0.000 A 
ENDBRANCH  16  17
ENDBRANCH  15  16
ENDBRANCH  13  15
ENDBRANCH   7  13
ENDBRANCH   3   5
ENDBRANCH   2   3
ENDBRANCH   1   2
BRANCH   1  23
ATOM     23  C   UNL A   1      32.598  30.464  27.116  1.00  0.00     0.275 C 
BRANCH  23  24
ATOM     24  O   UNL A   1      34.034  30.520  26.981  1.00  0.00    -0.458 OA
BRANCH  24  25
ATOM     25  C   UNL A   1      34.694  30.975  28.073  1.00  0.00     0.338 C 
ATOM     26  O   UNL A   1      34.283  31.776  28.898  1.00  0.00    -0.246 OA
BRANCH  25  27
ATOM     27  C   UNL A   1      35.975  30.269  28.247  1.00  0.00     0.060 A 
ATOM     28  C   UNL A   1      36.247  29.710  29.496  1.00  0.00     0.016 A 
ATOM     29  C   UNL A   1      36.958  30.280  27.264  1.00  0.00     0.016 A 
ATOM     30  C   UNL A   1      37.492  29.179  29.793  1.00  0.00     0.010 A 
ATOM     31  C   UNL A   1      38.213  29.726  27.550  1.00  0.00     0.010 A 
ATOM     32  C   UNL A   1      38.490  29.187  28.822  1.00  0.00    -0.014 A 
BRANCH  32  33
ATOM     33  C   UNL A   1      39.839  28.690  29.175  1.00  0.00     0.031 A 
ATOM     34  C   UNL A   1      40.777  29.573  29.943  1.00  0.00     0.074 A 
ATOM     35  C   UNL A   1      40.202  27.438  28.843  1.00  0.00     0.049 A 
ATOM     36  N   UNL A   1      42.034  29.379  30.246  1.00  0.00    -0.248 NA
ATOM     37  C   UNL A   1      40.228  30.849  30.428  1.00  0.00     0.031 C 
ATOM     38  C   UNL A   1      39.348  26.458  28.170  1.00  0.00     0.029 A 
ATOM     39  N   UNL A   1      41.392  26.780  29.024  1.00  0.00    -0.354 N 
ATOM     40  C   UNL A   1      42.436  30.520  30.928  1.00  0.00     0.074 A 
ATOM     41  C   UNL A   1      41.297  31.411  30.972  1.00  0.00     0.031 C 
ATOM     42  C   UNL A   1      40.044  25.325  27.988  1.00  0.00     0.029 A 
ATOM     43  C   UNL A   1      41.406  25.523  28.470  1.00  0.00     0.049 A 
ATOM     44  H   UNL A   1      42.158  27.168  29.503  1.00  0.00     0.167 HD
ATOM     45  C   UNL A   1      43.648  30.798  31.466  1.00  0.00     0.031 A 
ATOM     46  C   UNL A   1      42.416  24.647  28.324  1.00  0.00     0.031 A 
ATOM     47  C   UNL A   1      44.776  29.906  31.407  1.00  0.00     0.049 A 
ATOM     48  C   UNL A   1      43.776  25.012  28.847  1.00  0.00     0.074 A 
ATOM     49  C   UNL A   1      46.051  30.090  31.913  1.00  0.00     0.029 A 
ATOM     50  N   UNL A   1      44.763  28.658  30.800  1.00  0.00    -0.354 N 
ATOM     51  N   UNL A   1      44.158  26.102  29.468  1.00  0.00    -0.248 NA
ATOM     52  C   UNL A   1      44.845  24.025  28.650  1.00  0.00     0.031 C 
ATOM     53  C   UNL A   1      46.826  28.981  31.557  1.00  0.00     0.029 A 
ATOM     54  C   UNL A   1      46.016  28.073  30.893  1.00  0.00     0.049 A 
ATOM     55  H   UNL A   1      43.980  28.248  30.366  1.00  0.00     0.167 HD
ATOM     56  C   UNL A   1      45.504  25.925  29.757  1.00  0.00     0.074 A 
ATOM     57  C   UNL A   1      45.867  24.613  29.258  1.00  0.00     0.031 C 
ATOM     58  C   UNL A   1      46.362  26.770  30.380  1.00  0.00     0.031 A 
BRANCH  45  59
ATOM     59  C   UNL A   1      43.818  32.147  32.111  1.00  0.00    -0.014 A 
ATOM     60  C   UNL A   1      43.559  32.351  33.476  1.00  0.00     0.009 A 
ATOM     61  C   UNL A   1      44.240  33.237  31.333  1.00  0.00     0.009 A 
ATOM     62  C   UNL A   1      43.668  33.626  34.035  1.00  0.00     0.001 A 
ATOM     63  C   UNL A   1      44.383  34.504  31.902  1.00  0.00     0.001 A 
ATOM     64  C   UNL A   1      44.083  34.700  33.249  1.00  0.00     0.000 A 
ENDBRANCH  45  59
BRANCH  46  65
ATOM     65  C   UNL A   1      42.182  23.367  27.607  1.00  0.00    -0.014 A 
ATOM     66  C   UNL A   1      42.539  23.218  26.260  1.00  0.00     0.009 A 
ATOM     67  C   UNL A   1      41.616  22.272  28.283  1.00  0.00     0.009 A 
ATOM     68  C   UNL A   1      42.319  22.007  25.599  1.00  0.00     0.001 A 
ATOM     69  C   UNL A   1      41.426  21.053  27.629  1.00  0.00     0.001 A 
ATOM     70  C   UNL A   1      41.770  20.925  26.285  1.00  0.00     0.000 A 
ENDBRANCH  46  65
BRANCH  58  71
ATOM     71  C   UNL A   1      47.769  26.285  30.588  1.00  0.00    -0.014 A 
ATOM     72  C   UNL A   1      48.184  25.740  31.813  1.00  0.00     0.009 A 
ATOM     73  C   UNL A   1      48.686  26.343  29.525  1.00  0.00     0.009 A 
ATOM     74  C   UNL A   1      49.497  25.295  31.979  1.00  0.00     0.001 A 
ATOM     75  C   UNL A   1      49.988  25.868  29.683  1.00  0.00     0.001 A 
ATOM     76  C   UNL A   1      50.395  25.354  30.914  1.00  0.00     0.000 A 
ENDBRANCH  58  71
ENDBRANCH  32  33
ENDBRANCH  25  27
ENDBRANCH  24  25
ENDBRANCH  23  24
ENDBRANCH   1  23
TORSDOF 16
ENDMDL
MODEL 2
REMARK VINA RESULT:     -10.0      2.138      7.291
REMARK SMILES CC[C@@H]1[C@@H](C(=O)OCCOC(=O)c2ccc(-c3c4nc(c(-c5ccccc5)c5ccc([nH]5)c(-c5ccccc5)c5nc(c(-c6ccccc6)c6ccc3[nH]6)C=C5)C=C4)cc2)CCCN1C(=O)OCc1ccccc1
REMARK SMILES IDX 8 1 7 2 5 3 6 4 4 5 3 6 64 7 61 8 63 9 62 10 2 11 1 12 65 13
REMARK SMILES IDX 66 14 67 15 68 16 69 17 70 18 74 19 71 20 73 21 72 22 9 23
REMARK SMILES IDX 10 24 11 25 12 26 13 27 14 28 60 29 15 30 59 31 16 32 17 33
REMARK SMILES IDX 18 34 53 35 19 36 58 37 52 38 54 39 20 40 57 41 51 42 50 43
REMARK SMILES IDX 21 45 43 46 28 47 42 48 29 49 32 50 41 51 55 52 30 53 31 54
REMARK SMILES IDX 40 56 56 57 33 58 22 59 23 60 27 61 24 62 26 63 25 64 44 65
REMARK SMILES IDX 45 66 49 67 46 68 48 69 47 70 34 71 35 72 39 73 36 74 38 75
REMARK SMILES IDX 37 76
REMARK H PARENT 54 44 32 55
REMARK Flexibility Score: inf
ROOT
ATOM      1  C   UNL A   1      37.557  21.298  25.243  1.00  0.00     0.274 C 
ENDROOT
BRANCH   1   2
ATOM      2  O   UNL A   1      37.204  22.382  24.360  1.00  0.00    -0.462 OA
BRANCH   2   3
ATOM      3  C   UNL A   1      36.452  23.356  24.932  1.00  0.00     0.311 C 
ATOM      4  O   UNL A   1      36.864  24.103  25.814  1.00  0.00    -0.252 OA
BRANCH   3   5
ATOM      5  C   UNL A   1      35.030  23.435  24.401  1.00  0.00     0.122 C 
ATOM      6  C   UNL A   1      34.079  22.516  25.187  1.00  0.00     0.102 C 
ATOM      7  N   UNL A   1      32.710  22.675  24.620  1.00  0.00    -0.304 N 
ATOM      8  C   UNL A   1      34.939  23.211  22.881  1.00  0.00     0.019 C 
ATOM      9  C   UNL A   1      32.595  22.358  23.195  1.00  0.00     0.123 C 
ATOM     10  C   UNL A   1      33.493  23.303  22.394  1.00  0.00     0.023 C 
BRANCH   6  11
ATOM     11  C   UNL A   1      34.222  22.696  26.721  1.00  0.00     0.023 C 
ATOM     12  C   UNL A   1      33.928  21.448  27.532  1.00  0.00     0.006 C 
ENDBRANCH   6  11
BRANCH   7  13
ATOM     13  C   UNL A   1      31.678  23.356  25.253  1.00  0.00     0.410 C 
ATOM     14  O   UNL A   1      30.659  22.841  25.696  1.00  0.00    -0.224 OA
BRANCH  13  15
ATOM     15  O   UNL A   1      31.883  24.703  25.232  1.00  0.00    -0.445 OA
BRANCH  15  16
ATOM     16  C   UNL A   1      31.614  25.399  26.460  1.00  0.00     0.270 C 
BRANCH  16  17
ATOM     17  C   UNL A   1      32.175  26.810  26.482  1.00  0.00    -0.011 A 
ATOM     18  C   UNL A   1      31.499  27.878  27.086  1.00  0.00     0.007 A 
ATOM     19  C   UNL A   1      33.436  27.061  25.921  1.00  0.00     0.007 A 
ATOM     20  C   UNL A   1      32.092  29.136  27.210  1.00  0.00     0.000 A 
ATOM     21  C   UNL A   1      34.015  28.331  26.008  1.00  0.00     0.000 A 
ATOM     22  C   UNL A   1      33.353  29.361  26.672  1.00  0.00     0.000 A 
ENDBRANCH  16  17
ENDBRANCH  15  16
ENDBRANCH  13  15
ENDBRANCH   7  13
ENDBRANCH   3   5
ENDBRANCH   2   3
ENDBRANCH   1   2
BRANCH   1  23
ATOM     23  C   UNL A   1      39.015  21.367  25.721  1.00  0.00     0.275 C 
BRANCH  23  24
ATOM     24  O   UNL A   1      39.543  20.085  26.123  1.00  0.00    -0.458 OA
BRANCH  24  25
ATOM     25  C   UNL A   1      40.892  19.979  26.066  1.00  0.00     0.338 C 
ATOM     26  O   UNL A   1      41.537  19.073  25.562  1.00  0.00    -0.246 OA
BRANCH  25  27
ATOM     27  C   UNL A   1      41.538  21.199  26.581  1.00  0.00     0.060 A 
ATOM     28  C   UNL A   1      41.474  21.442  27.953  1.00  0.00     0.016 A 
ATOM     29  C   UNL A   1      42.065  22.165  25.730  1.00  0.00     0.016 A 
ATOM     30  C   UNL A   1      41.905  22.642  28.495  1.00  0.00     0.010 A 
ATOM     31  C   UNL A   1      42.523  23.373  26.274  1.00  0.00     0.010 A 
ATOM     32  C   UNL A   1      42.430  23.623  27.657  1.00  0.00    -0.014 A 
BRANCH  32  33
ATOM     33  C   UNL A   1      42.814  24.930  28.235  1.00  0.00     0.031 A 
ATOM     34  C   UNL A   1      41.762  25.971  28.480  1.00  0.00     0.074 A 
ATOM     35  C   UNL A   1      44.094  25.165  28.575  1.00  0.00     0.049 A 
ATOM     36  N   UNL A   1      41.900  27.213  28.862  1.00  0.00    -0.248 NA
ATOM     37  C   UNL A   1      40.367  25.557  28.257  1.00  0.00     0.031 C 
ATOM     38  C   UNL A   1      45.191  24.202  28.462  1.00  0.00     0.029 A 
ATOM     39  N   UNL A   1      44.687  26.294  29.080  1.00  0.00    -0.354 N 
ATOM     40  C   UNL A   1      40.616  27.741  28.894  1.00  0.00     0.074 A 
ATOM     41  C   UNL A   1      39.715  26.691  28.469  1.00  0.00     0.031 C 
ATOM     42  C   UNL A   1      46.326  24.784  28.879  1.00  0.00     0.029 A 
ATOM     43  C   UNL A   1      46.047  26.173  29.224  1.00  0.00     0.049 A 
ATOM     44  H   UNL A   1      44.188  27.108  29.317  1.00  0.00     0.167 HD
ATOM     45  C   UNL A   1      40.226  28.990  29.246  1.00  0.00     0.031 A 
ATOM     46  C   UNL A   1      46.974  27.093  29.551  1.00  0.00     0.031 A 
ATOM     47  C   UNL A   1      41.134  30.028  29.658  1.00  0.00     0.049 A 
ATOM     48  C   UNL A   1      46.530  28.497  29.848  1.00  0.00     0.074 A 
ATOM     49  C   UNL A   1      40.847  31.330  30.029  1.00  0.00     0.029 A 
ATOM     50  N   UNL A   1      42.511  29.880  29.751  1.00  0.00    -0.354 N 
ATOM     51  N   UNL A   1      45.318  28.998  29.853  1.00  0.00    -0.248 NA
ATOM     52  C   UNL A   1      47.583  29.463  30.187  1.00  0.00     0.031 C 
ATOM     53  C   UNL A   1      42.055  31.987  30.285  1.00  0.00     0.029 A 
ATOM     54  C   UNL A   1      43.090  31.075  30.145  1.00  0.00     0.049 A 
ATOM     55  H   UNL A   1      43.004  29.049  29.563  1.00  0.00     0.167 HD
ATOM     56  C   UNL A   1      45.458  30.330  30.216  1.00  0.00     0.074 A 
ATOM     57  C   UNL A   1      46.873  30.554  30.441  1.00  0.00     0.031 C 
ATOM     58  C   UNL A   1      44.502  31.282  30.353  1.00  0.00     0.031 A 
BRANCH  45  59
ATOM     59  C   UNL A   1      38.758  29.305  29.139  1.00  0.00    -0.014 A 
ATOM     60  C   UNL A   1      38.184  29.754  27.939  1.00  0.00     0.009 A 
ATOM     61  C   UNL A   1      37.936  29.156  30.268  1.00  0.00     0.009 A 
ATOM     62  C   UNL A   1      36.831  30.096  27.885  1.00  0.00     0.001 A 
ATOM     63  C   UNL A   1      36.575  29.465  30.202  1.00  0.00     0.001 A 
ATOM     64  C   UNL A   1      36.028  29.948  29.015  1.00  0.00     0.000 A 
ENDBRANCH  45  59
BRANCH  46  65
ATOM     65  C   UNL A   1      48.412  26.718  29.560  1.00  0.00    -0.014 A 
ATOM     66  C   UNL A   1      48.977  26.056  30.659  1.00  0.00     0.009 A 
ATOM     67  C   UNL A   1      49.224  27.005  28.450  1.00  0.00     0.009 A 
ATOM     68  C   UNL A   1      50.329  25.704  30.652  1.00  0.00     0.001 A 
ATOM     69  C   UNL A   1      50.567  26.623  28.434  1.00  0.00     0.001 A 
ATOM     70  C   UNL A   1      51.120  25.981  29.539  1.00  0.00     0.000 A 
ENDBRANCH  46  65
BRANCH  58  71
ATOM     71  C   UNL A   1      44.953  32.645  30.800  1.00  0.00    -0.014 A 
ATOM     72  C   UNL A   1      45.020  32.986  32.159  1.00  0.00     0.009 A 
ATOM     73  C   UNL A   1      45.352  33.591  29.842  1.00  0.00     0.009 A 
ATOM     74  C   UNL A   1      45.445  34.258  32.548  1.00  0.00     0.001 A 
ATOM     75  C   UNL A   1      45.807  34.850  30.233  1.00  0.00     0.001 A 
ATOM     76  C   UNL A   1      45.842  35.186  31.586  1.00  0.00     0.000 A 
ENDBRANCH  58  71
ENDBRANCH  32  33
ENDBRANCH  25  27
ENDBRANCH  24  25
ENDBRANCH  23  24
ENDBRANCH   1  23
TORSDOF 16
ENDMDL
MODEL 3
REMARK VINA RESULT:      -9.9      1.331      2.206
REMARK SMILES CC[C@@H]1[C@@H](C(=O)OCCOC(=O)c2ccc(-c3c4nc(c(-c5ccccc5)c5ccc([nH]5)c(-c5ccccc5)c5nc(c(-c6ccccc6)c6ccc3[nH]6)C=C5)C=C4)cc2)CCCN1C(=O)OCc1ccccc1
REMARK SMILES IDX 8 1 7 2 5 3 6 4 4 5 3 6 64 7 61 8 63 9 62 10 2 11 1 12 65 13
REMARK SMILES IDX 66 14 67 15 68 16 69 17 70 18 74 19 71 20 73 21 72 22 9 23
REMARK SMILES IDX 10 24 11 25 12 26 13 27 14 28 60 29 15 30 59 31 16 32 17 33
REMARK SMILES IDX 18 34 53 35 19 36 58 37 52 38 54 39 20 40 57 41 51 42 50 43
REMARK SMILES IDX 21 45 43 46 28 47 42 48 29 49 32 50 41 51 55 52 30 53 31 54
REMARK SMILES IDX 40 56 56 57 33 58 22 59 23 60 27 61 24 62 26 63 25 64 44 65
REMARK SMILES IDX 45 66 49 67 46 68 48 69 47 70 34 71 35 72 39 73 36 74 38 75
REMARK SMILES IDX 37 76
REMARK H PARENT 54 44 32 55
REMARK Flexibility Score: inf
ROOT
ATOM      1  C   UNL A   1      32.514  28.412  27.343  1.00  0.00     0.274 C 
ENDROOT
BRANCH   1   2
ATOM      2  O   UNL A   1      33.576  27.701  26.675  1.00  0.00    -0.462 OA
BRANCH   2   3
ATOM      3  C   UNL A   1      33.341  27.433  25.366  1.00  0.00     0.311 C 
ATOM      4  O   UNL A   1      33.934  27.981  24.442  1.00  0.00    -0.252 OA
BRANCH   3   5
ATOM      5  C   UNL A   1      32.252  26.400  25.129  1.00  0.00     0.122 C 
ATOM      6  C   UNL A   1      32.805  25.137  24.446  1.00  0.00     0.102 C 
ATOM      7  N   UNL A   1      31.682  24.173  24.276  1.00  0.00    -0.304 N 
ATOM      8  C   UNL A   1      31.024  26.972  24.396  1.00  0.00     0.019 C 
ATOM      9  C   UNL A   1      30.555  24.676  23.487  1.00  0.00     0.123 C 
ATOM     10  C   UNL A   1      29.957  25.899  24.184  1.00  0.00     0.023 C 
BRANCH   6  11
ATOM     11  C   UNL A   1      34.082  24.602  25.147  1.00  0.00     0.023 C 
ATOM     12  C   UNL A   1      35.148  24.081  24.202  1.00  0.00     0.006 C 
ENDBRANCH   6  11
BRANCH   7  13
ATOM     13  C   UNL A   1      31.523  23.019  25.033  1.00  0.00     0.410 C 
ATOM     14  O   UNL A   1      31.105  22.980  26.183  1.00  0.00    -0.224 OA
BRANCH  13  15
ATOM     15  O   UNL A   1      31.993  21.923  24.374  1.00  0.00    -0.445 OA
BRANCH  15  16
ATOM     16  C   UNL A   1      32.584  20.902  25.194  1.00  0.00     0.270 C 
BRANCH  16  17
ATOM     17  C   UNL A   1      33.002  19.672  24.407  1.00  0.00    -0.011 A 
ATOM     18  C   UNL A   1      34.148  18.930  24.725  1.00  0.00     0.007 A 
ATOM     19  C   UNL A   1      32.198  19.221  23.351  1.00  0.00     0.007 A 
ATOM     20  C   UNL A   1      34.440  17.730  24.073  1.00  0.00     0.000 A 
ATOM     21  C   UNL A   1      32.511  18.040  22.669  1.00  0.00     0.000 A 
ATOM     22  C   UNL A   1      33.618  17.284  23.045  1.00  0.00     0.000 A 
ENDBRANCH  16  17
ENDBRANCH  15  16
ENDBRANCH  13  15
ENDBRANCH   7  13
ENDBRANCH   3   5
ENDBRANCH   2   3
ENDBRANCH   1   2
BRANCH   1  23
ATOM     23  C   UNL A   1      32.650  29.938  27.223  1.00  0.00     0.275 C 
BRANCH  23  24
ATOM     24  O   UNL A   1      34.001  30.370  26.956  1.00  0.00    -0.458 OA
BRANCH  24  25
ATOM     25  C   UNL A   1      34.667  30.860  28.029  1.00  0.00     0.338 C 
ATOM     26  O   UNL A   1      34.258  31.681  28.835  1.00  0.00    -0.246 OA
BRANCH  25  27
ATOM     27  C   UNL A   1      35.953  30.165  28.212  1.00  0.00     0.060 A 
ATOM     28  C   UNL A   1      36.236  29.637  29.472  1.00  0.00     0.016 A 
ATOM     29  C   UNL A   1      36.930  30.158  27.223  1.00  0.00     0.016 A 
ATOM     30  C   UNL A   1      37.486  29.120  29.775  1.00  0.00     0.010 A 
ATOM     31  C   UNL A   1      38.190  29.617  27.515  1.00  0.00     0.010 A 
ATOM     32  C   UNL A   1      38.478  29.110  28.797  1.00  0.00    -0.014 A 
BRANCH  32  33
ATOM     33  C   UNL A   1      39.831  28.630  29.154  1.00  0.00     0.031 A 
ATOM     34  C   UNL A   1      40.761  29.528  29.914  1.00  0.00     0.074 A 
ATOM     35  C   UNL A   1      40.207  27.379  28.831  1.00  0.00     0.049 A 
ATOM     36  N   UNL A   1      42.020  29.348  30.218  1.00  0.00    -0.248 NA
ATOM     37  C   UNL A   1      40.199  30.802  30.389  1.00  0.00     0.031 C 
ATOM     38  C   UNL A   1      39.362  26.385  28.167  1.00  0.00     0.029 A 
ATOM     39  N   UNL A   1      41.403  26.733  29.017  1.00  0.00    -0.354 N 
ATOM     40  C   UNL A   1      42.411  30.498  30.891  1.00  0.00     0.074 A 
ATOM     41  C   UNL A   1      41.263  31.379  30.929  1.00  0.00     0.031 C 
ATOM     42  C   UNL A   1      40.068  25.258  27.993  1.00  0.00     0.029 A 
ATOM     43  C   UNL A   1      41.429  25.473  28.473  1.00  0.00     0.049 A 
ATOM     44  H   UNL A   1      42.165  27.133  29.492  1.00  0.00     0.167 HD
ATOM     45  C   UNL A   1      43.620  30.793  31.427  1.00  0.00     0.031 A 
ATOM     46  C   UNL A   1      42.448  24.605  28.333  1.00  0.00     0.031 A 
ATOM     47  C   UNL A   1      44.757  29.911  31.374  1.00  0.00     0.049 A 
ATOM     48  C   UNL A   1      43.804  24.988  28.853  1.00  0.00     0.074 A 
ATOM     49  C   UNL A   1      46.030  30.112  31.878  1.00  0.00     0.029 A 
ATOM     50  N   UNL A   1      44.756  28.658  30.777  1.00  0.00    -0.354 N 
ATOM     51  N   UNL A   1      44.175  26.086  29.465  1.00  0.00    -0.248 NA
ATOM     52  C   UNL A   1      44.883  24.009  28.663  1.00  0.00     0.031 C 
ATOM     53  C   UNL A   1      46.815  29.007  31.531  1.00  0.00     0.029 A 
ATOM     54  C   UNL A   1      46.014  28.086  30.874  1.00  0.00     0.049 A 
ATOM     55  H   UNL A   1      43.977  28.238  30.347  1.00  0.00     0.167 HD
ATOM     56  C   UNL A   1      45.523  25.925  29.755  1.00  0.00     0.074 A 
ATOM     57  C   UNL A   1      45.899  24.612  29.266  1.00  0.00     0.031 C 
ATOM     58  C   UNL A   1      46.373  26.783  30.371  1.00  0.00     0.031 A 
BRANCH  45  59
ATOM     59  C   UNL A   1      43.777  32.148  32.062  1.00  0.00    -0.014 A 
ATOM     60  C   UNL A   1      44.191  33.267  31.321  1.00  0.00     0.009 A 
ATOM     61  C   UNL A   1      43.512  32.304  33.432  1.00  0.00     0.009 A 
ATOM     62  C   UNL A   1      44.386  34.499  31.949  1.00  0.00     0.001 A 
ATOM     63  C   UNL A   1      43.674  33.545  34.051  1.00  0.00     0.001 A 
ATOM     64  C   UNL A   1      44.124  34.638  33.312  1.00  0.00     0.000 A 
ENDBRANCH  45  59
BRANCH  46  65
ATOM     65  C   UNL A   1      42.226  23.317  27.626  1.00  0.00    -0.014 A 
ATOM     66  C   UNL A   1      41.621  22.233  28.277  1.00  0.00     0.009 A 
ATOM     67  C   UNL A   1      42.601  23.176  26.279  1.00  0.00     0.009 A 
ATOM     68  C   UNL A   1      41.413  21.029  27.599  1.00  0.00     0.001 A 
ATOM     69  C   UNL A   1      42.363  21.983  25.596  1.00  0.00     0.001 A 
ATOM     70  C   UNL A   1      41.777  20.907  26.259  1.00  0.00     0.000 A 
ENDBRANCH  46  65
BRANCH  58  71
ATOM     71  C   UNL A   1      47.785  26.313  30.582  1.00  0.00    -0.014 A 
ATOM     72  C   UNL A   1      48.755  26.429  29.575  1.00  0.00     0.009 A 
ATOM     73  C   UNL A   1      48.158  25.777  31.826  1.00  0.00     0.009 A 
ATOM     74  C   UNL A   1      50.060  25.986  29.798  1.00  0.00     0.001 A 
ATOM     75  C   UNL A   1      49.470  25.366  32.057  1.00  0.00     0.001 A 
ATOM     76  C   UNL A   1      50.418  25.461  31.039  1.00  0.00     0.000 A 
ENDBRANCH  58  71
ENDBRANCH  32  33
ENDBRANCH  25  27
ENDBRANCH  24  25
ENDBRANCH  23  24
ENDBRANCH   1  23
TORSDOF 16
ENDMDL
