MODEL 1
REMARK VINA RESULT:     -13.0      0.000      0.000
REMARK SMILES O=C(OCCOC(=O)c1ccc([C@@H]2CC(O)=Nc3c2ncn3-c2cccc(Cl)c2)cc1)c1ccc(-c2c3nc(c(-c4ccccc4)c4ccc([nH]4)c(-c4ccccc4)c4nc(c(-c5ccccc5)c5ccc2[nH]5)C=C4)C=C3)cc1
REMARK SMILES IDX 4 1 3 2 2 3 1 4 32 5 33 6 79 7 34 8 78 9 35 10 36 11 37 12
REMARK SMILES IDX 72 13 38 14 77 15 71 16 73 17 39 18 76 19 70 20 69 21 40 23
REMARK SMILES IDX 62 24 47 25 61 26 48 27 51 28 60 29 74 30 49 31 50 32 59 34
REMARK SMILES IDX 75 35 52 36 41 37 42 38 46 39 43 40 45 41 44 42 63 43 64 44
REMARK SMILES IDX 68 45 65 46 67 47 66 48 53 49 54 50 58 51 55 52 57 53 56 54
REMARK SMILES IDX 5 55 6 56 7 57 8 58 9 59 10 60 31 61 11 62 30 63 12 64 13 65
REMARK SMILES IDX 14 66 19 67 15 68 18 69 20 70 17 71 22 72 21 73 16 74 23 76
REMARK SMILES IDX 24 77 29 78 25 79 27 80 26 81 28 82
REMARK H PARENT 73 22 51 33 16 75
REMARK Flexibility Score: inf
ROOT
ATOM      1  C   UNL A   1      32.609  30.602  27.263  1.00  0.00     0.275 C 
ENDROOT
BRANCH   1   2
ATOM      2  O   UNL A   1      33.994  30.888  26.976  1.00  0.00    -0.458 OA
BRANCH   2   3
ATOM      3  C   UNL A   1      34.753  31.540  27.884  1.00  0.00     0.338 C 
ATOM      4  O   UNL A   1      34.332  32.415  28.625  1.00  0.00    -0.246 OA
BRANCH   3   5
ATOM      5  C   UNL A   1      36.048  30.863  28.133  1.00  0.00     0.060 A 
ATOM      6  C   UNL A   1      36.284  29.525  27.806  1.00  0.00     0.016 A 
ATOM      7  C   UNL A   1      37.067  31.626  28.721  1.00  0.00     0.016 A 
ATOM      8  C   UNL A   1      37.495  28.934  28.150  1.00  0.00     0.010 A 
ATOM      9  C   UNL A   1      38.281  31.040  29.054  1.00  0.00     0.010 A 
ATOM     10  C   UNL A   1      38.480  29.683  28.808  1.00  0.00    -0.014 A 
BRANCH  10  11
ATOM     11  C   UNL A   1      39.763  29.045  29.095  1.00  0.00     0.031 A 
ATOM     12  C   UNL A   1      40.062  28.859  30.544  1.00  0.00     0.074 A 
ATOM     13  C   UNL A   1      40.588  28.504  28.173  1.00  0.00     0.049 A 
ATOM     14  N   UNL A   1      41.002  29.411  31.236  1.00  0.00    -0.248 NA
ATOM     15  C   UNL A   1      39.155  28.012  31.330  1.00  0.00     0.031 C 
ATOM     16  C   UNL A   1      40.368  28.289  26.742  1.00  0.00     0.029 A 
ATOM     17  N   UNL A   1      41.808  27.931  28.378  1.00  0.00    -0.354 N 
ATOM     18  C   UNL A   1      40.907  28.884  32.523  1.00  0.00     0.074 A 
ATOM     19  C   UNL A   1      39.698  28.100  32.545  1.00  0.00     0.031 C 
ATOM     20  C   UNL A   1      41.307  27.433  26.268  1.00  0.00     0.029 A 
ATOM     21  C   UNL A   1      42.278  27.168  27.317  1.00  0.00     0.049 A 
ATOM     22  H   UNL A   1      42.316  28.049  29.213  1.00  0.00     0.167 HD
ATOM     23  C   UNL A   1      41.921  28.997  33.428  1.00  0.00     0.031 A 
ATOM     24  C   UNL A   1      43.368  26.356  27.326  1.00  0.00     0.031 A 
ATOM     25  C   UNL A   1      42.890  29.982  33.024  1.00  0.00     0.049 A 
ATOM     26  C   UNL A   1      44.231  26.781  28.452  1.00  0.00     0.074 A 
ATOM     27  C   UNL A   1      42.845  31.337  32.758  1.00  0.00     0.029 A 
ATOM     28  N   UNL A   1      44.048  29.527  32.438  1.00  0.00    -0.354 N 
ATOM     29  N   UNL A   1      44.872  27.913  28.470  1.00  0.00    -0.248 NA
ATOM     30  C   UNL A   1      44.018  26.156  29.748  1.00  0.00     0.031 C 
ATOM     31  C   UNL A   1      43.653  31.496  31.592  1.00  0.00     0.029 A 
ATOM     32  C   UNL A   1      44.205  30.253  31.286  1.00  0.00     0.049 A 
ATOM     33  H   UNL A   1      44.644  28.822  32.779  1.00  0.00     0.167 HD
ATOM     34  C   UNL A   1      44.740  28.365  29.773  1.00  0.00     0.074 A 
ATOM     35  C   UNL A   1      44.279  27.204  30.535  1.00  0.00     0.031 C 
ATOM     36  C   UNL A   1      44.740  29.698  30.065  1.00  0.00     0.031 A 
BRANCH  23  37
ATOM     37  C   UNL A   1      42.243  27.969  34.484  1.00  0.00    -0.014 A 
ATOM     38  C   UNL A   1      42.836  26.754  34.087  1.00  0.00     0.009 A 
ATOM     39  C   UNL A   1      41.726  28.020  35.791  1.00  0.00     0.009 A 
ATOM     40  C   UNL A   1      42.822  25.627  34.916  1.00  0.00     0.001 A 
ATOM     41  C   UNL A   1      41.746  26.906  36.638  1.00  0.00     0.001 A 
ATOM     42  C   UNL A   1      42.265  25.700  36.187  1.00  0.00     0.000 A 
ENDBRANCH  23  37
BRANCH  24  43
ATOM     43  C   UNL A   1      43.620  25.088  26.609  1.00  0.00    -0.014 A 
ATOM     44  C   UNL A   1      42.721  24.011  26.711  1.00  0.00     0.009 A 
ATOM     45  C   UNL A   1      44.581  25.039  25.583  1.00  0.00     0.009 A 
ATOM     46  C   UNL A   1      42.754  22.950  25.795  1.00  0.00     0.001 A 
ATOM     47  C   UNL A   1      44.615  23.979  24.669  1.00  0.00     0.001 A 
ATOM     48  C   UNL A   1      43.690  22.942  24.764  1.00  0.00     0.000 A 
ENDBRANCH  24  43
BRANCH  36  49
ATOM     49  C   UNL A   1      45.074  30.678  28.969  1.00  0.00    -0.014 A 
ATOM     50  C   UNL A   1      46.389  30.982  28.573  1.00  0.00     0.009 A 
ATOM     51  C   UNL A   1      44.016  31.191  28.205  1.00  0.00     0.009 A 
ATOM     52  C   UNL A   1      46.632  31.800  27.464  1.00  0.00     0.001 A 
ATOM     53  C   UNL A   1      44.258  31.989  27.086  1.00  0.00     0.001 A 
ATOM     54  C   UNL A   1      45.566  32.300  26.719  1.00  0.00     0.000 A 
ENDBRANCH  36  49
ENDBRANCH  10  11
ENDBRANCH   3   5
ENDBRANCH   2   3
ENDBRANCH   1   2
BRANCH   1  55
ATOM     55  C   UNL A   1      31.641  30.548  26.082  1.00  0.00     0.275 C 
BRANCH  55  56
ATOM     56  O   UNL A   1      32.254  29.876  24.971  1.00  0.00    -0.458 OA
BRANCH  56  57
ATOM     57  C   UNL A   1      31.553  28.826  24.467  1.00  0.00     0.338 C 
ATOM     58  O   UNL A   1      30.551  28.841  23.792  1.00  0.00    -0.246 OA
BRANCH  57  59
ATOM     59  C   UNL A   1      32.265  27.602  24.864  1.00  0.00     0.060 A 
ATOM     60  C   UNL A   1      31.942  26.978  26.069  1.00  0.00     0.016 A 
ATOM     61  C   UNL A   1      33.270  27.098  24.041  1.00  0.00     0.016 A 
ATOM     62  C   UNL A   1      32.611  25.810  26.435  1.00  0.00     0.005 A 
ATOM     63  C   UNL A   1      33.963  25.953  24.430  1.00  0.00     0.005 A 
ATOM     64  C   UNL A   1      33.632  25.281  25.622  1.00  0.00    -0.038 A 
BRANCH  64  65
ATOM     65  C   UNL A   1      34.403  24.070  26.125  1.00  0.00     0.081 C 
ATOM     66  C   UNL A   1      35.821  24.027  25.522  1.00  0.00     0.111 C 
ATOM     67  C   UNL A   1      33.629  22.849  25.792  1.00  0.00     0.093 A 
ATOM     68  C   UNL A   1      36.088  22.866  24.577  1.00  0.00     0.188 C 
ATOM     69  C   UNL A   1      34.162  21.844  25.015  1.00  0.00     0.164 A 
ATOM     70  N   UNL A   1      32.336  22.586  26.146  1.00  0.00    -0.238 NA
ATOM     71  N   UNL A   1      35.355  21.818  24.374  1.00  0.00    -0.198 NA
ATOM     72  N   UNL A   1      33.148  20.912  24.886  1.00  0.00    -0.283 N 
ATOM     73  C   UNL A   1      32.061  21.442  25.553  1.00  0.00     0.206 A 
BRANCH  68  74
ATOM     74  O   UNL A   1      37.262  22.960  23.921  1.00  0.00    -0.496 OA
ATOM     75  H   UNL A   1      37.733  23.770  23.919  1.00  0.00     0.294 HD
ENDBRANCH  68  74
BRANCH  72  76
ATOM     76  C   UNL A   1      33.190  19.662  24.227  1.00  0.00     0.050 A 
ATOM     77  C   UNL A   1      32.374  19.432  23.113  1.00  0.00     0.027 A 
ATOM     78  C   UNL A   1      34.023  18.648  24.716  1.00  0.00     0.047 A 
ATOM     79  C   UNL A   1      32.414  18.193  22.472  1.00  0.00     0.004 A 
ATOM     80  C   UNL A   1      34.011  17.398  24.100  1.00  0.00     0.043 A 
ATOM     81  C   UNL A   1      33.221  17.171  22.973  1.00  0.00     0.020 A 
ATOM     82  Cl  UNL A   1      34.951  16.114  24.753  1.00  0.00    -0.084 Cl
ENDBRANCH  72  76
ENDBRANCH  64  65
ENDBRANCH  57  59
ENDBRANCH  56  57
ENDBRANCH  55  56
ENDBRANCH   1  55
TORSDOF 14
ENDMDL
MODEL 2
REMARK VINA RESULT:     -12.6      2.117      3.155
REMARK SMILES O=C(OCCOC(=O)c1ccc([C@@H]2CC(O)=Nc3c2ncn3-c2cccc(Cl)c2)cc1)c1ccc(-c2c3nc(c(-c4ccccc4)c4ccc([nH]4)c(-c4ccccc4)c4nc(c(-c5ccccc5)c5ccc2[nH]5)C=C4)C=C3)cc1
REMARK SMILES IDX 4 1 3 2 2 3 1 4 32 5 33 6 79 7 34 8 78 9 35 10 36 11 37 12
REMARK SMILES IDX 72 13 38 14 77 15 71 16 73 17 39 18 76 19 70 20 69 21 40 23
REMARK SMILES IDX 62 24 47 25 61 26 48 27 51 28 60 29 74 30 49 31 50 32 59 34
REMARK SMILES IDX 75 35 52 36 41 37 42 38 46 39 43 40 45 41 44 42 63 43 64 44
REMARK SMILES IDX 68 45 65 46 67 47 66 48 53 49 54 50 58 51 55 52 57 53 56 54
REMARK SMILES IDX 5 55 6 56 7 57 8 58 9 59 10 60 31 61 11 62 30 63 12 64 13 65
REMARK SMILES IDX 14 66 19 67 15 68 18 69 20 70 17 71 22 72 21 73 16 74 23 76
REMARK SMILES IDX 24 77 29 78 25 79 27 80 26 81 28 82
REMARK H PARENT 73 22 51 33 16 75
REMARK Flexibility Score: inf
ROOT
ATOM      1  C   UNL A   1      34.326  32.608  28.722  1.00  0.00     0.275 C 
ENDROOT
BRANCH   1   2
ATOM      2  O   UNL A   1      35.452  32.405  29.603  1.00  0.00    -0.458 OA
BRANCH   2   3
ATOM      3  C   UNL A   1      36.690  32.782  29.217  1.00  0.00     0.338 C 
ATOM      4  O   UNL A   1      37.023  33.942  29.027  1.00  0.00    -0.246 OA
BRANCH   3   5
ATOM      5  C   UNL A   1      37.690  31.699  29.379  1.00  0.00     0.060 A 
ATOM      6  C   UNL A   1      38.963  31.912  29.912  1.00  0.00     0.016 A 
ATOM      7  C   UNL A   1      37.310  30.412  28.971  1.00  0.00     0.016 A 
ATOM      8  C   UNL A   1      39.878  30.864  29.951  1.00  0.00     0.010 A 
ATOM      9  C   UNL A   1      38.219  29.363  29.021  1.00  0.00     0.010 A 
ATOM     10  C   UNL A   1      39.516  29.598  29.470  1.00  0.00    -0.014 A 
BRANCH  10  11
ATOM     11  C   UNL A   1      40.483  28.508  29.587  1.00  0.00     0.031 A 
ATOM     12  C   UNL A   1      41.008  28.279  30.964  1.00  0.00     0.074 A 
ATOM     13  C   UNL A   1      40.802  27.641  28.603  1.00  0.00     0.049 A 
ATOM     14  N   UNL A   1      42.219  28.433  31.386  1.00  0.00    -0.248 NA
ATOM     15  C   UNL A   1      40.050  27.906  32.013  1.00  0.00     0.031 C 
ATOM     16  C   UNL A   1      40.197  27.472  27.281  1.00  0.00     0.029 A 
ATOM     17  N   UNL A   1      41.719  26.632  28.644  1.00  0.00    -0.354 N 
ATOM     18  C   UNL A   1      42.224  28.045  32.725  1.00  0.00     0.074 A 
ATOM     19  C   UNL A   1      40.846  27.819  33.079  1.00  0.00     0.031 C 
ATOM     20  C   UNL A   1      40.599  26.289  26.752  1.00  0.00     0.029 A 
ATOM     21  C   UNL A   1      41.604  25.699  27.621  1.00  0.00     0.049 A 
ATOM     22  H   UNL A   1      42.409  26.570  29.343  1.00  0.00     0.167 HD
ATOM     23  C   UNL A   1      43.380  27.777  33.396  1.00  0.00     0.031 A 
ATOM     24  C   UNL A   1      42.268  24.517  27.527  1.00  0.00     0.031 A 
ATOM     25  C   UNL A   1      44.534  28.268  32.689  1.00  0.00     0.049 A 
ATOM     26  C   UNL A   1      43.459  24.604  28.402  1.00  0.00     0.074 A 
ATOM     27  C   UNL A   1      44.956  29.512  32.262  1.00  0.00     0.029 A 
ATOM     28  N   UNL A   1      45.261  27.358  31.957  1.00  0.00    -0.354 N 
ATOM     29  N   UNL A   1      44.473  25.380  28.150  1.00  0.00    -0.248 NA
ATOM     30  C   UNL A   1      43.323  24.175  29.786  1.00  0.00     0.031 C 
ATOM     31  C   UNL A   1      45.474  29.281  30.953  1.00  0.00     0.029 A 
ATOM     32  C   UNL A   1      45.419  27.908  30.711  1.00  0.00     0.049 A 
ATOM     33  H   UNL A   1      45.600  26.488  32.266  1.00  0.00     0.167 HD
ATOM     34  C   UNL A   1      44.826  25.902  29.384  1.00  0.00     0.074 A 
ATOM     35  C   UNL A   1      44.139  25.061  30.365  1.00  0.00     0.031 C 
ATOM     36  C   UNL A   1      45.406  27.133  29.494  1.00  0.00     0.031 A 
BRANCH  23  37
ATOM     37  C   UNL A   1      43.512  26.753  34.496  1.00  0.00    -0.014 A 
ATOM     38  C   UNL A   1      43.360  25.390  34.173  1.00  0.00     0.009 A 
ATOM     39  C   UNL A   1      43.483  27.083  35.863  1.00  0.00     0.009 A 
ATOM     40  C   UNL A   1      43.097  24.429  35.156  1.00  0.00     0.001 A 
ATOM     41  C   UNL A   1      43.260  26.119  36.851  1.00  0.00     0.001 A 
ATOM     42  C   UNL A   1      43.034  24.797  36.494  1.00  0.00     0.000 A 
ENDBRANCH  23  37
BRANCH  24  43
ATOM     43  C   UNL A   1      41.841  23.226  26.947  1.00  0.00    -0.014 A 
ATOM     44  C   UNL A   1      42.789  22.285  26.507  1.00  0.00     0.009 A 
ATOM     45  C   UNL A   1      40.514  22.788  27.105  1.00  0.00     0.009 A 
ATOM     46  C   UNL A   1      42.431  20.948  26.278  1.00  0.00     0.001 A 
ATOM     47  C   UNL A   1      40.157  21.454  26.876  1.00  0.00     0.001 A 
ATOM     48  C   UNL A   1      41.119  20.529  26.479  1.00  0.00     0.000 A 
ENDBRANCH  24  43
BRANCH  36  49
ATOM     49  C   UNL A   1      45.833  27.846  28.236  1.00  0.00    -0.014 A 
ATOM     50  C   UNL A   1      45.050  28.822  27.593  1.00  0.00     0.009 A 
ATOM     51  C   UNL A   1      47.142  27.637  27.777  1.00  0.00     0.009 A 
ATOM     52  C   UNL A   1      45.555  29.541  26.503  1.00  0.00     0.001 A 
ATOM     53  C   UNL A   1      47.653  28.369  26.704  1.00  0.00     0.001 A 
ATOM     54  C   UNL A   1      46.858  29.316  26.063  1.00  0.00     0.000 A 
ENDBRANCH  36  49
ENDBRANCH  10  11
ENDBRANCH   3   5
ENDBRANCH   2   3
ENDBRANCH   1   2
BRANCH   1  55
ATOM     55  C   UNL A   1      34.239  31.729  27.476  1.00  0.00     0.275 C 
BRANCH  55  56
ATOM     56  O   UNL A   1      33.217  30.735  27.642  1.00  0.00    -0.458 OA
BRANCH  56  57
ATOM     57  C   UNL A   1      32.124  30.884  26.848  1.00  0.00     0.338 C 
ATOM     58  O   UNL A   1      31.538  31.898  26.552  1.00  0.00    -0.246 OA
BRANCH  57  59
ATOM     59  C   UNL A   1      31.767  29.547  26.350  1.00  0.00     0.060 A 
ATOM     60  C   UNL A   1      31.821  28.453  27.213  1.00  0.00     0.016 A 
ATOM     61  C   UNL A   1      31.403  29.390  25.014  1.00  0.00     0.016 A 
ATOM     62  C   UNL A   1      31.469  27.189  26.740  1.00  0.00     0.005 A 
ATOM     63  C   UNL A   1      31.089  28.119  24.535  1.00  0.00     0.005 A 
ATOM     64  C   UNL A   1      31.099  27.003  25.394  1.00  0.00    -0.038 A 
BRANCH  64  65
ATOM     65  C   UNL A   1      30.834  25.587  24.906  1.00  0.00     0.081 C 
ATOM     66  C   UNL A   1      30.129  24.750  25.992  1.00  0.00     0.111 C 
ATOM     67  C   UNL A   1      32.125  24.980  24.499  1.00  0.00     0.093 A 
ATOM     68  C   UNL A   1      30.949  23.599  26.556  1.00  0.00     0.188 C 
ATOM     69  C   UNL A   1      32.593  23.820  25.075  1.00  0.00     0.164 A 
ATOM     70  N   UNL A   1      33.005  25.485  23.584  1.00  0.00    -0.238 NA
ATOM     71  N   UNL A   1      32.064  23.120  26.107  1.00  0.00    -0.198 NA
ATOM     72  N   UNL A   1      33.822  23.595  24.484  1.00  0.00    -0.283 N 
ATOM     73  C   UNL A   1      34.030  24.659  23.628  1.00  0.00     0.206 A 
BRANCH  68  74
ATOM     74  O   UNL A   1      30.386  23.009  27.629  1.00  0.00    -0.496 OA
ATOM     75  H   UNL A   1      30.919  22.759  28.359  1.00  0.00     0.294 HD
ENDBRANCH  68  74
BRANCH  72  76
ATOM     76  C   UNL A   1      34.699  22.504  24.682  1.00  0.00     0.050 A 
ATOM     77  C   UNL A   1      36.067  22.733  24.881  1.00  0.00     0.027 A 
ATOM     78  C   UNL A   1      34.200  21.196  24.641  1.00  0.00     0.047 A 
ATOM     79  C   UNL A   1      36.929  21.652  25.068  1.00  0.00     0.004 A 
ATOM     80  C   UNL A   1      35.082  20.124  24.774  1.00  0.00     0.043 A 
ATOM     81  C   UNL A   1      36.440  20.347  25.000  1.00  0.00     0.020 A 
ATOM     82  Cl  UNL A   1      34.497  18.513  24.622  1.00  0.00    -0.084 Cl
ENDBRANCH  72  76
ENDBRANCH  64  65
ENDBRANCH  57  59
ENDBRANCH  56  57
ENDBRANCH  55  56
ENDBRANCH   1  55
TORSDOF 14
ENDMDL
MODEL 3
REMARK VINA RESULT:     -12.6      3.069      5.684
REMARK SMILES O=C(OCCOC(=O)c1ccc([C@@H]2CC(O)=Nc3c2ncn3-c2cccc(Cl)c2)cc1)c1ccc(-c2c3nc(c(-c4ccccc4)c4ccc([nH]4)c(-c4ccccc4)c4nc(c(-c5ccccc5)c5ccc2[nH]5)C=C4)C=C3)cc1
REMARK SMILES IDX 4 1 3 2 2 3 1 4 32 5 33 6 79 7 34 8 78 9 35 10 36 11 37 12
REMARK SMILES IDX 72 13 38 14 77 15 71 16 73 17 39 18 76 19 70 20 69 21 40 23
REMARK SMILES IDX 62 24 47 25 61 26 48 27 51 28 60 29 74 30 49 31 50 32 59 34
REMARK SMILES IDX 75 35 52 36 41 37 42 38 46 39 43 40 45 41 44 42 63 43 64 44
REMARK SMILES IDX 68 45 65 46 67 47 66 48 53 49 54 50 58 51 55 52 57 53 56 54
REMARK SMILES IDX 5 55 6 56 7 57 8 58 9 59 10 60 31 61 11 62 30 63 12 64 13 65
REMARK SMILES IDX 14 66 19 67 15 68 18 69 20 70 17 71 22 72 21 73 16 74 23 76
REMARK SMILES IDX 24 77 29 78 25 79 27 80 26 81 28 82
REMARK H PARENT 73 22 51 33 16 75
REMARK Flexibility Score: inf
ROOT
ATOM      1  C   UNL A   1      35.570  31.302  28.325  1.00  0.00     0.275 C 
ENDROOT
BRANCH   1   2
ATOM      2  O   UNL A   1      36.889  30.788  28.041  1.00  0.00    -0.458 OA
BRANCH   2   3
ATOM      3  C   UNL A   1      37.888  30.956  28.934  1.00  0.00     0.338 C 
ATOM      4  O   UNL A   1      37.765  31.553  29.993  1.00  0.00    -0.246 OA
BRANCH   3   5
ATOM      5  C   UNL A   1      39.042  30.063  28.671  1.00  0.00     0.060 A 
ATOM      6  C   UNL A   1      40.024  29.787  29.625  1.00  0.00     0.016 A 
ATOM      7  C   UNL A   1      39.123  29.481  27.398  1.00  0.00     0.016 A 
ATOM      8  C   UNL A   1      41.124  29.009  29.276  1.00  0.00     0.010 A 
ATOM      9  C   UNL A   1      40.214  28.694  27.053  1.00  0.00     0.010 A 
ATOM     10  C   UNL A   1      41.237  28.493  27.977  1.00  0.00    -0.014 A 
BRANCH  10  11
ATOM     11  C   UNL A   1      42.373  27.629  27.669  1.00  0.00     0.031 A 
ATOM     12  C   UNL A   1      42.074  26.168  27.685  1.00  0.00     0.074 A 
ATOM     13  C   UNL A   1      43.582  28.053  27.244  1.00  0.00     0.049 A 
ATOM     14  N   UNL A   1      42.537  25.273  28.493  1.00  0.00    -0.248 NA
ATOM     15  C   UNL A   1      41.079  25.659  26.733  1.00  0.00     0.031 C 
ATOM     16  C   UNL A   1      44.012  29.397  26.858  1.00  0.00     0.029 A 
ATOM     17  N   UNL A   1      44.686  27.298  26.978  1.00  0.00    -0.354 N 
ATOM     18  C   UNL A   1      42.009  24.052  28.076  1.00  0.00     0.074 A 
ATOM     19  C   UNL A   1      41.049  24.363  27.049  1.00  0.00     0.031 C 
ATOM     20  C   UNL A   1      45.191  29.318  26.192  1.00  0.00     0.029 A 
ATOM     21  C   UNL A   1      45.672  27.946  26.245  1.00  0.00     0.049 A 
ATOM     22  H   UNL A   1      44.777  26.366  27.280  1.00  0.00     0.167 HD
ATOM     23  C   UNL A   1      42.525  22.861  28.493  1.00  0.00     0.031 A 
ATOM     24  C   UNL A   1      46.780  27.378  25.701  1.00  0.00     0.031 A 
ATOM     25  C   UNL A   1      43.395  23.024  29.629  1.00  0.00     0.049 A 
ATOM     26  C   UNL A   1      47.017  26.098  26.407  1.00  0.00     0.074 A 
ATOM     27  C   UNL A   1      43.239  23.516  30.910  1.00  0.00     0.029 A 
ATOM     28  N   UNL A   1      44.750  23.029  29.392  1.00  0.00    -0.354 N 
ATOM     29  N   UNL A   1      47.395  26.030  27.650  1.00  0.00    -0.248 NA
ATOM     30  C   UNL A   1      46.396  24.897  25.870  1.00  0.00     0.031 C 
ATOM     31  C   UNL A   1      44.416  24.289  31.139  1.00  0.00     0.029 A 
ATOM     32  C   UNL A   1      45.245  24.139  30.027  1.00  0.00     0.049 A 
ATOM     33  H   UNL A   1      45.261  22.369  28.871  1.00  0.00     0.167 HD
ATOM     34  C   UNL A   1      46.663  24.978  28.177  1.00  0.00     0.074 A 
ATOM     35  C   UNL A   1      46.129  24.264  27.016  1.00  0.00     0.031 C 
ATOM     36  C   UNL A   1      46.321  24.943  29.498  1.00  0.00     0.031 A 
BRANCH  23  37
ATOM     37  C   UNL A   1      42.549  21.602  27.662  1.00  0.00    -0.014 A 
ATOM     38  C   UNL A   1      43.434  21.531  26.568  1.00  0.00     0.009 A 
ATOM     39  C   UNL A   1      41.547  20.617  27.727  1.00  0.00     0.009 A 
ATOM     40  C   UNL A   1      43.262  20.588  25.548  1.00  0.00     0.001 A 
ATOM     41  C   UNL A   1      41.397  19.649  26.729  1.00  0.00     0.001 A 
ATOM     42  C   UNL A   1      42.235  19.655  25.623  1.00  0.00     0.000 A 
ENDBRANCH  23  37
BRANCH  24  43
ATOM     43  C   UNL A   1      47.513  27.712  24.461  1.00  0.00    -0.014 A 
ATOM     44  C   UNL A   1      48.824  27.249  24.252  1.00  0.00     0.009 A 
ATOM     45  C   UNL A   1      46.820  28.227  23.351  1.00  0.00     0.009 A 
ATOM     46  C   UNL A   1      49.402  27.260  22.974  1.00  0.00     0.001 A 
ATOM     47  C   UNL A   1      47.396  28.237  22.075  1.00  0.00     0.001 A 
ATOM     48  C   UNL A   1      48.682  27.738  21.883  1.00  0.00     0.000 A 
ENDBRANCH  24  43
BRANCH  36  49
ATOM     49  C   UNL A   1      46.908  25.977  30.424  1.00  0.00    -0.014 A 
ATOM     50  C   UNL A   1      46.313  27.227  30.671  1.00  0.00     0.009 A 
ATOM     51  C   UNL A   1      48.020  25.608  31.197  1.00  0.00     0.009 A 
ATOM     52  C   UNL A   1      46.836  28.091  31.639  1.00  0.00     0.001 A 
ATOM     53  C   UNL A   1      48.529  26.460  32.177  1.00  0.00     0.001 A 
ATOM     54  C   UNL A   1      47.942  27.705  32.394  1.00  0.00     0.000 A 
ENDBRANCH  36  49
ENDBRANCH  10  11
ENDBRANCH   3   5
ENDBRANCH   2   3
ENDBRANCH   1   2
BRANCH   1  55
ATOM     55  C   UNL A   1      34.511  31.168  27.233  1.00  0.00     0.275 C 
BRANCH  55  56
ATOM     56  O   UNL A   1      33.222  30.932  27.819  1.00  0.00    -0.458 OA
BRANCH  56  57
ATOM     57  C   UNL A   1      32.161  31.108  26.987  1.00  0.00     0.338 C 
ATOM     58  O   UNL A   1      31.597  32.135  26.691  1.00  0.00    -0.246 OA
BRANCH  57  59
ATOM     59  C   UNL A   1      31.809  29.785  26.450  1.00  0.00     0.060 A 
ATOM     60  C   UNL A   1      31.920  28.659  27.264  1.00  0.00     0.016 A 
ATOM     61  C   UNL A   1      31.394  29.675  25.125  1.00  0.00     0.016 A 
ATOM     62  C   UNL A   1      31.573  27.408  26.753  1.00  0.00     0.005 A 
ATOM     63  C   UNL A   1      31.085  28.418  24.606  1.00  0.00     0.005 A 
ATOM     64  C   UNL A   1      31.152  27.269  25.417  1.00  0.00    -0.038 A 
BRANCH  64  65
ATOM     65  C   UNL A   1      30.894  25.869  24.882  1.00  0.00     0.081 C 
ATOM     66  C   UNL A   1      30.140  25.011  25.917  1.00  0.00     0.111 C 
ATOM     67  C   UNL A   1      32.195  25.261  24.510  1.00  0.00     0.093 A 
ATOM     68  C   UNL A   1      30.927  23.838  26.482  1.00  0.00     0.188 C 
ATOM     69  C   UNL A   1      32.630  24.081  25.073  1.00  0.00     0.164 A 
ATOM     70  N   UNL A   1      33.115  25.780  23.644  1.00  0.00    -0.238 NA
ATOM     71  N   UNL A   1      32.055  23.360  26.065  1.00  0.00    -0.198 NA
ATOM     72  N   UNL A   1      33.880  23.860  24.525  1.00  0.00    -0.283 N 
ATOM     73  C   UNL A   1      34.131  24.943  23.707  1.00  0.00     0.206 A 
BRANCH  68  74
ATOM     74  O   UNL A   1      30.317  23.225  27.517  1.00  0.00    -0.496 OA
ATOM     75  H   UNL A   1      30.653  23.329  28.386  1.00  0.00     0.294 HD
ENDBRANCH  68  74
BRANCH  72  76
ATOM     76  C   UNL A   1      34.739  22.756  24.729  1.00  0.00     0.050 A 
ATOM     77  C   UNL A   1      34.243  21.451  24.601  1.00  0.00     0.027 A 
ATOM     78  C   UNL A   1      36.074  22.972  25.093  1.00  0.00     0.047 A 
ATOM     79  C   UNL A   1      35.094  20.365  24.812  1.00  0.00     0.004 A 
ATOM     80  C   UNL A   1      36.896  21.878  25.355  1.00  0.00     0.043 A 
ATOM     81  C   UNL A   1      36.416  20.578  25.203  1.00  0.00     0.020 A 
ATOM     82  Cl  UNL A   1      38.507  22.132  25.903  1.00  0.00    -0.084 Cl
ENDBRANCH  72  76
ENDBRANCH  64  65
ENDBRANCH  57  59
ENDBRANCH  56  57
ENDBRANCH  55  56
ENDBRANCH   1  55
TORSDOF 14
ENDMDL
