MODEL 1
REMARK VINA RESULT:     -11.6      0.000      0.000
REMARK SMILES CCc1ccc2c(CC(=O)OCCOC(=O)c3ccc(-c4c5nc(c(-c6ccccc6)c6ccc([nH]6)c(-c6ccccc6)c6nc(c(-c7ccccc7)c7ccc4[nH]7)C=C6)C=C5)cc3)c(C(=O)c3cc(C)ccn3)[nH]c2c1
REMARK SMILES IDX 12 1 11 2 9 3 10 4 8 5 7 6 3 7 4 8 77 9 5 10 76 11 6 12
REMARK SMILES IDX 75 13 65 14 2 16 1 17 66 18 67 19 68 20 69 21 74 22 70 23
REMARK SMILES IDX 73 24 71 25 72 26 13 27 14 28 15 29 16 30 17 31 18 32 64 33
REMARK SMILES IDX 19 34 63 35 20 36 21 37 22 38 57 39 23 40 62 41 56 42 58 43
REMARK SMILES IDX 24 44 61 45 55 46 54 47 25 49 47 50 32 51 46 52 33 53 36 54
REMARK SMILES IDX 45 55 59 56 34 57 35 58 44 60 60 61 37 62 26 63 27 64 31 65
REMARK SMILES IDX 28 66 30 67 29 68 48 69 49 70 53 71 50 72 52 73 51 74 38 75
REMARK SMILES IDX 39 76 43 77 40 78 42 79 41 80
REMARK H PARENT 75 15 58 48 36 59
REMARK Flexibility Score: inf
ROOT
ATOM      1  C   UNL A   1      36.182  22.818  23.720  1.00  0.00     0.274 C 
ENDROOT
BRANCH   1   2
ATOM      2  O   UNL A   1      35.170  22.721  22.696  1.00  0.00    -0.462 OA
BRANCH   2   3
ATOM      3  C   UNL A   1      34.096  23.538  22.859  1.00  0.00     0.310 C 
ATOM      4  O   UNL A   1      34.144  24.765  22.783  1.00  0.00    -0.252 OA
BRANCH   3   5
ATOM      5  C   UNL A   1      32.784  22.827  23.097  1.00  0.00     0.161 C 
BRANCH   5   6
ATOM      6  C   UNL A   1      32.717  21.880  24.257  1.00  0.00     0.000 A 
ATOM      7  C   UNL A   1      32.795  17.681  24.507  1.00  0.00    -0.046 A 
ATOM      8  C   UNL A   1      32.586  18.212  23.228  1.00  0.00     0.004 A 
ATOM      9  C   UNL A   1      32.804  18.533  25.624  1.00  0.00     0.030 A 
ATOM     10  C   UNL A   1      32.476  19.591  23.026  1.00  0.00     0.011 A 
ATOM     11  C   UNL A   1      32.712  19.913  25.399  1.00  0.00     0.046 A 
ATOM     12  C   UNL A   1      32.591  20.459  24.127  1.00  0.00     0.004 A 
ATOM     13  N   UNL A   1      32.747  20.965  26.282  1.00  0.00    -0.352 N 
ATOM     14  C   UNL A   1      32.951  22.151  25.607  1.00  0.00     0.093 A 
ATOM     15  H   UNL A   1      32.642  20.885  27.258  1.00  0.00     0.167 HD
BRANCH   7  16
ATOM     16  C   UNL A   1      33.028  16.199  24.684  1.00  0.00     0.032 C 
ATOM     17  C   UNL A   1      34.451  15.879  25.133  1.00  0.00     0.009 C 
ENDBRANCH   7  16
BRANCH  14  18
ATOM     18  C   UNL A   1      33.427  23.378  26.229  1.00  0.00     0.227 C 
ATOM     19  O   UNL A   1      34.447  23.435  26.912  1.00  0.00    -0.285 OA
BRANCH  18  20
ATOM     20  C   UNL A   1      32.596  24.605  26.152  1.00  0.00     0.113 A 
ATOM     21  C   UNL A   1      33.206  25.837  25.943  1.00  0.00     0.036 A 
ATOM     22  N   UNL A   1      31.259  24.428  26.232  1.00  0.00    -0.253 NA
ATOM     23  C   UNL A   1      32.389  26.962  25.799  1.00  0.00    -0.047 A 
ATOM     24  C   UNL A   1      30.491  25.515  26.028  1.00  0.00     0.112 A 
ATOM     25  C   UNL A   1      32.971  28.328  25.597  1.00  0.00     0.044 C 
ATOM     26  C   UNL A   1      31.002  26.786  25.815  1.00  0.00     0.023 A 
ENDBRANCH  18  20
ENDBRANCH  14  18
ENDBRANCH   5   6
ENDBRANCH   3   5
ENDBRANCH   2   3
ENDBRANCH   1   2
BRANCH   1  27
ATOM     27  C   UNL A   1      36.398  21.467  24.397  1.00  0.00     0.275 C 
BRANCH  27  28
ATOM     28  O   UNL A   1      36.939  21.666  25.714  1.00  0.00    -0.458 OA
BRANCH  28  29
ATOM     29  C   UNL A   1      38.266  21.429  25.828  1.00  0.00     0.338 C 
ATOM     30  O   UNL A   1      38.841  20.369  25.616  1.00  0.00    -0.246 OA
BRANCH  29  31
ATOM     31  C   UNL A   1      38.964  22.627  26.327  1.00  0.00     0.060 A 
ATOM     32  C   UNL A   1      38.442  23.909  26.150  1.00  0.00     0.016 A 
ATOM     33  C   UNL A   1      40.221  22.463  26.911  1.00  0.00     0.016 A 
ATOM     34  C   UNL A   1      39.213  25.026  26.474  1.00  0.00     0.010 A 
ATOM     35  C   UNL A   1      40.947  23.578  27.330  1.00  0.00     0.010 A 
ATOM     36  C   UNL A   1      40.464  24.876  27.092  1.00  0.00    -0.014 A 
BRANCH  36  37
ATOM     37  C   UNL A   1      41.260  26.060  27.511  1.00  0.00     0.031 A 
ATOM     38  C   UNL A   1      40.697  27.065  28.480  1.00  0.00     0.074 A 
ATOM     39  C   UNL A   1      42.490  26.256  26.993  1.00  0.00     0.049 A 
ATOM     40  N   UNL A   1      41.165  28.245  28.810  1.00  0.00    -0.248 NA
ATOM     41  C   UNL A   1      39.443  26.707  29.159  1.00  0.00     0.031 C 
ATOM     42  C   UNL A   1      43.177  25.352  26.069  1.00  0.00     0.029 A 
ATOM     43  N   UNL A   1      43.380  27.286  27.173  1.00  0.00    -0.354 N 
ATOM     44  C   UNL A   1      40.242  28.787  29.695  1.00  0.00     0.074 A 
ATOM     45  C   UNL A   1      39.184  27.809  29.850  1.00  0.00     0.031 C 
ATOM     46  C   UNL A   1      44.392  25.846  25.792  1.00  0.00     0.029 A 
ATOM     47  C   UNL A   1      44.538  27.138  26.451  1.00  0.00     0.049 A 
ATOM     48  H   UNL A   1      43.205  28.054  27.763  1.00  0.00     0.167 HD
ATOM     49  C   UNL A   1      40.270  29.990  30.317  1.00  0.00     0.031 A 
ATOM     50  C   UNL A   1      45.588  27.964  26.296  1.00  0.00     0.031 A 
ATOM     51  C   UNL A   1      41.337  30.949  30.194  1.00  0.00     0.049 A 
ATOM     52  C   UNL A   1      45.580  29.305  26.966  1.00  0.00     0.074 A 
ATOM     53  C   UNL A   1      41.456  32.190  30.799  1.00  0.00     0.029 A 
ATOM     54  N   UNL A   1      42.477  30.770  29.427  1.00  0.00    -0.354 N 
ATOM     55  N   UNL A   1      44.674  29.826  27.756  1.00  0.00    -0.248 NA
ATOM     56  C   UNL A   1      46.733  30.178  26.709  1.00  0.00     0.031 C 
ATOM     57  C   UNL A   1      42.654  32.775  30.372  1.00  0.00     0.029 A 
ATOM     58  C   UNL A   1      43.298  31.881  29.532  1.00  0.00     0.049 A 
ATOM     59  H   UNL A   1      42.674  29.972  28.886  1.00  0.00     0.167 HD
ATOM     60  C   UNL A   1      45.148  31.085  28.094  1.00  0.00     0.074 A 
ATOM     61  C   UNL A   1      46.431  31.241  27.440  1.00  0.00     0.031 C 
ATOM     62  C   UNL A   1      44.566  32.028  28.871  1.00  0.00     0.031 A 
BRANCH  49  63
ATOM     63  C   UNL A   1      39.093  30.358  31.174  1.00  0.00    -0.014 A 
ATOM     64  C   UNL A   1      37.971  31.005  30.635  1.00  0.00     0.009 A 
ATOM     65  C   UNL A   1      39.086  29.999  32.532  1.00  0.00     0.009 A 
ATOM     66  C   UNL A   1      36.873  31.305  31.446  1.00  0.00     0.001 A 
ATOM     67  C   UNL A   1      37.979  30.280  33.334  1.00  0.00     0.001 A 
ATOM     68  C   UNL A   1      36.877  30.939  32.793  1.00  0.00     0.000 A 
ENDBRANCH  49  63
BRANCH  50  69
ATOM     69  C   UNL A   1      46.720  27.557  25.426  1.00  0.00    -0.014 A 
ATOM     70  C   UNL A   1      46.747  27.929  24.075  1.00  0.00     0.009 A 
ATOM     71  C   UNL A   1      47.789  26.814  25.951  1.00  0.00     0.009 A 
ATOM     72  C   UNL A   1      47.819  27.556  23.262  1.00  0.00     0.001 A 
ATOM     73  C   UNL A   1      48.871  26.464  25.143  1.00  0.00     0.001 A 
ATOM     74  C   UNL A   1      48.882  26.830  23.798  1.00  0.00     0.000 A 
ENDBRANCH  50  69
BRANCH  62  75
ATOM     75  C   UNL A   1      45.330  33.303  29.072  1.00  0.00    -0.014 A 
ATOM     76  C   UNL A   1      45.127  34.406  28.228  1.00  0.00     0.009 A 
ATOM     77  C   UNL A   1      46.255  33.406  30.122  1.00  0.00     0.009 A 
ATOM     78  C   UNL A   1      45.859  35.581  28.416  1.00  0.00     0.001 A 
ATOM     79  C   UNL A   1      46.971  34.587  30.318  1.00  0.00     0.001 A 
ATOM     80  C   UNL A   1      46.778  35.670  29.462  1.00  0.00     0.000 A 
ENDBRANCH  62  75
ENDBRANCH  36  37
ENDBRANCH  29  31
ENDBRANCH  28  29
ENDBRANCH  27  28
ENDBRANCH   1  27
TORSDOF 15
ENDMDL
MODEL 2
REMARK VINA RESULT:     -11.5      3.512      7.472
REMARK SMILES CCc1ccc2c(CC(=O)OCCOC(=O)c3ccc(-c4c5nc(c(-c6ccccc6)c6ccc([nH]6)c(-c6ccccc6)c6nc(c(-c7ccccc7)c7ccc4[nH]7)C=C6)C=C5)cc3)c(C(=O)c3cc(C)ccn3)[nH]c2c1
REMARK SMILES IDX 12 1 11 2 9 3 10 4 8 5 7 6 3 7 4 8 77 9 5 10 76 11 6 12
REMARK SMILES IDX 75 13 65 14 2 16 1 17 66 18 67 19 68 20 69 21 74 22 70 23
REMARK SMILES IDX 73 24 71 25 72 26 13 27 14 28 15 29 16 30 17 31 18 32 64 33
REMARK SMILES IDX 19 34 63 35 20 36 21 37 22 38 57 39 23 40 62 41 56 42 58 43
REMARK SMILES IDX 24 44 61 45 55 46 54 47 25 49 47 50 32 51 46 52 33 53 36 54
REMARK SMILES IDX 45 55 59 56 34 57 35 58 44 60 60 61 37 62 26 63 27 64 31 65
REMARK SMILES IDX 28 66 30 67 29 68 48 69 49 70 53 71 50 72 52 73 51 74 38 75
REMARK SMILES IDX 39 76 43 77 40 78 42 79 41 80
REMARK H PARENT 75 15 58 48 36 59
REMARK Flexibility Score: inf
ROOT
ATOM      1  C   UNL A   1      31.875  28.162  27.565  1.00  0.00     0.274 C 
ENDROOT
BRANCH   1   2
ATOM      2  O   UNL A   1      31.058  27.833  26.421  1.00  0.00    -0.462 OA
BRANCH   2   3
ATOM      3  C   UNL A   1      30.930  26.505  26.159  1.00  0.00     0.310 C 
ATOM      4  O   UNL A   1      31.129  25.617  26.986  1.00  0.00    -0.252 OA
BRANCH   3   5
ATOM      5  C   UNL A   1      30.463  26.173  24.760  1.00  0.00     0.161 C 
BRANCH   5   6
ATOM      6  C   UNL A   1      30.792  27.153  23.675  1.00  0.00     0.000 A 
ATOM      7  C   UNL A   1      28.567  30.217  21.841  1.00  0.00    -0.046 A 
ATOM      8  C   UNL A   1      27.834  29.313  22.619  1.00  0.00     0.004 A 
ATOM      9  C   UNL A   1      29.928  29.975  21.586  1.00  0.00     0.030 A 
ATOM     10  C   UNL A   1      28.450  28.215  23.227  1.00  0.00     0.011 A 
ATOM     11  C   UNL A   1      30.531  28.881  22.220  1.00  0.00     0.046 A 
ATOM     12  C   UNL A   1      29.835  28.025  23.063  1.00  0.00     0.004 A 
ATOM     13  N   UNL A   1      31.834  28.443  22.195  1.00  0.00    -0.352 N 
ATOM     14  C   UNL A   1      32.053  27.536  23.211  1.00  0.00     0.093 A 
ATOM     15  H   UNL A   1      32.514  28.736  21.546  1.00  0.00     0.167 HD
BRANCH   7  16
ATOM     16  C   UNL A   1      27.904  31.458  21.293  1.00  0.00     0.032 C 
ATOM     17  C   UNL A   1      28.253  32.711  22.091  1.00  0.00     0.009 C 
ENDBRANCH   7  16
BRANCH  14  18
ATOM     18  C   UNL A   1      33.368  27.177  23.722  1.00  0.00     0.227 C 
ATOM     19  O   UNL A   1      34.195  28.007  24.093  1.00  0.00    -0.285 OA
BRANCH  18  20
ATOM     20  C   UNL A   1      33.801  25.758  23.691  1.00  0.00     0.113 A 
ATOM     21  C   UNL A   1      34.408  25.200  24.811  1.00  0.00     0.036 A 
ATOM     22  N   UNL A   1      33.514  25.070  22.565  1.00  0.00    -0.253 NA
ATOM     23  C   UNL A   1      34.735  23.842  24.775  1.00  0.00    -0.047 A 
ATOM     24  C   UNL A   1      33.780  23.750  22.577  1.00  0.00     0.112 A 
ATOM     25  C   UNL A   1      35.414  23.172  25.931  1.00  0.00     0.044 C 
ATOM     26  C   UNL A   1      34.385  23.100  23.643  1.00  0.00     0.023 A 
ENDBRANCH  18  20
ENDBRANCH  14  18
ENDBRANCH   5   6
ENDBRANCH   3   5
ENDBRANCH   2   3
ENDBRANCH   1   2
BRANCH   1  27
ATOM     27  C   UNL A   1      32.557  29.514  27.372  1.00  0.00     0.275 C 
BRANCH  27  28
ATOM     28  O   UNL A   1      33.981  29.360  27.498  1.00  0.00    -0.458 OA
BRANCH  28  29
ATOM     29  C   UNL A   1      34.624  30.421  28.037  1.00  0.00     0.338 C 
ATOM     30  O   UNL A   1      34.169  31.544  28.204  1.00  0.00    -0.246 OA
BRANCH  29  31
ATOM     31  C   UNL A   1      36.022  30.073  28.350  1.00  0.00     0.060 A 
ATOM     32  C   UNL A   1      37.043  30.221  27.410  1.00  0.00     0.016 A 
ATOM     33  C   UNL A   1      36.298  29.501  29.592  1.00  0.00     0.016 A 
ATOM     34  C   UNL A   1      38.316  29.715  27.679  1.00  0.00     0.010 A 
ATOM     35  C   UNL A   1      37.596  29.089  29.899  1.00  0.00     0.010 A 
ATOM     36  C   UNL A   1      38.615  29.167  28.936  1.00  0.00    -0.014 A 
BRANCH  36  37
ATOM     37  C   UNL A   1      39.988  28.694  29.259  1.00  0.00     0.031 A 
ATOM     38  C   UNL A   1      40.955  29.579  30.000  1.00  0.00     0.074 A 
ATOM     39  C   UNL A   1      40.385  27.469  28.859  1.00  0.00     0.049 A 
ATOM     40  N   UNL A   1      42.240  29.412  30.200  1.00  0.00    -0.248 NA
ATOM     41  C   UNL A   1      40.415  30.818  30.581  1.00  0.00     0.031 C 
ATOM     42  C   UNL A   1      39.549  26.490  28.161  1.00  0.00     0.029 A 
ATOM     43  N   UNL A   1      41.600  26.841  28.981  1.00  0.00    -0.354 N 
ATOM     44  C   UNL A   1      42.669  30.540  30.886  1.00  0.00     0.074 A 
ATOM     45  C   UNL A   1      41.508  31.389  31.067  1.00  0.00     0.031 C 
ATOM     46  C   UNL A   1      40.261  25.374  27.951  1.00  0.00     0.029 A 
ATOM     47  C   UNL A   1      41.624  25.587  28.423  1.00  0.00     0.049 A 
ATOM     48  H   UNL A   1      42.377  27.248  29.427  1.00  0.00     0.167 HD
ATOM     49  C   UNL A   1      43.915  30.844  31.322  1.00  0.00     0.031 A 
ATOM     50  C   UNL A   1      42.636  24.715  28.265  1.00  0.00     0.031 A 
ATOM     51  C   UNL A   1      45.064  29.988  31.178  1.00  0.00     0.049 A 
ATOM     52  C   UNL A   1      44.013  25.088  28.723  1.00  0.00     0.074 A 
ATOM     53  C   UNL A   1      46.364  30.208  31.600  1.00  0.00     0.029 A 
ATOM     54  N   UNL A   1      45.048  28.739  30.577  1.00  0.00    -0.354 N 
ATOM     55  N   UNL A   1      44.414  26.183  29.320  1.00  0.00    -0.248 NA
ATOM     56  C   UNL A   1      45.081  24.112  28.468  1.00  0.00     0.031 C 
ATOM     57  C   UNL A   1      47.142  29.106  31.227  1.00  0.00     0.029 A 
ATOM     58  C   UNL A   1      46.317  28.183  30.607  1.00  0.00     0.049 A 
ATOM     59  H   UNL A   1      44.253  28.310  30.186  1.00  0.00     0.167 HD
ATOM     60  C   UNL A   1      45.778  26.027  29.518  1.00  0.00     0.074 A 
ATOM     61  C   UNL A   1      46.132  24.723  28.995  1.00  0.00     0.031 C 
ATOM     62  C   UNL A   1      46.657  26.891  30.076  1.00  0.00     0.031 A 
BRANCH  49  63
ATOM     63  C   UNL A   1      44.116  32.180  31.978  1.00  0.00    -0.014 A 
ATOM     64  C   UNL A   1      44.016  32.335  33.368  1.00  0.00     0.009 A 
ATOM     65  C   UNL A   1      44.470  33.290  31.192  1.00  0.00     0.009 A 
ATOM     66  C   UNL A   1      44.243  33.582  33.957  1.00  0.00     0.001 A 
ATOM     67  C   UNL A   1      44.717  34.529  31.785  1.00  0.00     0.001 A 
ATOM     68  C   UNL A   1      44.597  34.676  33.166  1.00  0.00     0.000 A 
ENDBRANCH  49  63
BRANCH  50  69
ATOM     69  C   UNL A   1      42.385  23.413  27.596  1.00  0.00    -0.014 A 
ATOM     70  C   UNL A   1      41.858  22.334  28.319  1.00  0.00     0.009 A 
ATOM     71  C   UNL A   1      42.650  23.254  26.227  1.00  0.00     0.009 A 
ATOM     72  C   UNL A   1      41.611  21.115  27.684  1.00  0.00     0.001 A 
ATOM     73  C   UNL A   1      42.379  22.043  25.590  1.00  0.00     0.001 A 
ATOM     74  C   UNL A   1      41.865  20.972  26.320  1.00  0.00     0.000 A 
ENDBRANCH  50  69
BRANCH  62  75
ATOM     75  C   UNL A   1      48.084  26.437  30.169  1.00  0.00    -0.014 A 
ATOM     76  C   UNL A   1      48.549  25.745  31.298  1.00  0.00     0.009 A 
ATOM     77  C   UNL A   1      48.969  26.695  29.110  1.00  0.00     0.009 A 
ATOM     78  C   UNL A   1      49.885  25.345  31.377  1.00  0.00     0.001 A 
ATOM     79  C   UNL A   1      50.298  26.276  29.185  1.00  0.00     0.001 A 
ATOM     80  C   UNL A   1      50.756  25.609  30.320  1.00  0.00     0.000 A 
ENDBRANCH  62  75
ENDBRANCH  36  37
ENDBRANCH  29  31
ENDBRANCH  28  29
ENDBRANCH  27  28
ENDBRANCH   1  27
TORSDOF 15
ENDMDL
MODEL 3
REMARK VINA RESULT:     -11.4      2.283      2.957
REMARK SMILES CCc1ccc2c(CC(=O)OCCOC(=O)c3ccc(-c4c5nc(c(-c6ccccc6)c6ccc([nH]6)c(-c6ccccc6)c6nc(c(-c7ccccc7)c7ccc4[nH]7)C=C6)C=C5)cc3)c(C(=O)c3cc(C)ccn3)[nH]c2c1
REMARK SMILES IDX 12 1 11 2 9 3 10 4 8 5 7 6 3 7 4 8 77 9 5 10 76 11 6 12
REMARK SMILES IDX 75 13 65 14 2 16 1 17 66 18 67 19 68 20 69 21 74 22 70 23
REMARK SMILES IDX 73 24 71 25 72 26 13 27 14 28 15 29 16 30 17 31 18 32 64 33
REMARK SMILES IDX 19 34 63 35 20 36 21 37 22 38 57 39 23 40 62 41 56 42 58 43
REMARK SMILES IDX 24 44 61 45 55 46 54 47 25 49 47 50 32 51 46 52 33 53 36 54
REMARK SMILES IDX 45 55 59 56 34 57 35 58 44 60 60 61 37 62 26 63 27 64 31 65
REMARK SMILES IDX 28 66 30 67 29 68 48 69 49 70 53 71 50 72 52 73 51 74 38 75
REMARK SMILES IDX 39 76 43 77 40 78 42 79 41 80
REMARK H PARENT 75 15 58 48 36 59
REMARK Flexibility Score: inf
ROOT
ATOM      1  C   UNL A   1      38.042  21.144  25.397  1.00  0.00     0.274 C 
ENDROOT
BRANCH   1   2
ATOM      2  O   UNL A   1      37.357  21.652  24.233  1.00  0.00    -0.462 OA
BRANCH   2   3
ATOM      3  C   UNL A   1      36.257  22.410  24.488  1.00  0.00     0.310 C 
ATOM      4  O   UNL A   1      35.873  23.332  23.770  1.00  0.00    -0.252 OA
BRANCH   3   5
ATOM      5  C   UNL A   1      35.476  22.008  25.718  1.00  0.00     0.161 C 
BRANCH   5   6
ATOM      6  C   UNL A   1      34.209  21.235  25.506  1.00  0.00     0.000 A 
ATOM      7  C   UNL A   1      33.461  17.196  24.597  1.00  0.00    -0.046 A 
ATOM      8  C   UNL A   1      34.785  17.622  24.435  1.00  0.00     0.004 A 
ATOM      9  C   UNL A   1      32.455  18.135  24.884  1.00  0.00     0.030 A 
ATOM     10  C   UNL A   1      35.147  18.957  24.643  1.00  0.00     0.011 A 
ATOM     11  C   UNL A   1      32.841  19.463  25.109  1.00  0.00     0.046 A 
ATOM     12  C   UNL A   1      34.163  19.884  25.036  1.00  0.00     0.004 A 
ATOM     13  N   UNL A   1      32.092  20.563  25.454  1.00  0.00    -0.352 N 
ATOM     14  C   UNL A   1      32.912  21.583  25.889  1.00  0.00     0.093 A 
ATOM     15  H   UNL A   1      31.110  20.615  25.398  1.00  0.00     0.167 HD
BRANCH   7  16
ATOM     16  C   UNL A   1      33.117  15.730  24.481  1.00  0.00     0.032 C 
ATOM     17  C   UNL A   1      32.413  15.194  25.724  1.00  0.00     0.009 C 
ENDBRANCH   7  16
BRANCH  14  18
ATOM     18  C   UNL A   1      32.461  22.716  26.684  1.00  0.00     0.227 C 
ATOM     19  O   UNL A   1      32.501  22.734  27.913  1.00  0.00    -0.285 OA
BRANCH  18  20
ATOM     20  C   UNL A   1      31.806  23.866  26.012  1.00  0.00     0.113 A 
ATOM     21  C   UNL A   1      31.928  25.139  26.557  1.00  0.00     0.036 A 
ATOM     22  N   UNL A   1      31.170  23.597  24.851  1.00  0.00    -0.253 NA
ATOM     23  C   UNL A   1      31.364  26.211  25.859  1.00  0.00    -0.047 A 
ATOM     24  C   UNL A   1      30.691  24.652  24.165  1.00  0.00     0.112 A 
ATOM     25  C   UNL A   1      31.428  27.610  26.391  1.00  0.00     0.044 C 
ATOM     26  C   UNL A   1      30.758  25.959  24.624  1.00  0.00     0.023 A 
ENDBRANCH  18  20
ENDBRANCH  14  18
ENDBRANCH   5   6
ENDBRANCH   3   5
ENDBRANCH   2   3
ENDBRANCH   1   2
BRANCH   1  27
ATOM     27  C   UNL A   1      38.943  19.970  25.025  1.00  0.00     0.275 C 
BRANCH  27  28
ATOM     28  O   UNL A   1      39.793  19.640  26.138  1.00  0.00    -0.458 OA
BRANCH  28  29
ATOM     29  C   UNL A   1      41.115  19.825  25.921  1.00  0.00     0.338 C 
ATOM     30  O   UNL A   1      41.872  19.066  25.330  1.00  0.00    -0.246 OA
BRANCH  29  31
ATOM     31  C   UNL A   1      41.577  21.065  26.569  1.00  0.00     0.060 A 
ATOM     32  C   UNL A   1      41.633  21.191  27.957  1.00  0.00     0.016 A 
ATOM     33  C   UNL A   1      41.875  22.161  25.758  1.00  0.00     0.016 A 
ATOM     34  C   UNL A   1      41.902  22.434  28.533  1.00  0.00     0.010 A 
ATOM     35  C   UNL A   1      42.244  23.377  26.335  1.00  0.00     0.010 A 
ATOM     36  C   UNL A   1      42.236  23.536  27.731  1.00  0.00    -0.014 A 
BRANCH  36  37
ATOM     37  C   UNL A   1      42.597  24.845  28.338  1.00  0.00     0.031 A 
ATOM     38  C   UNL A   1      41.550  25.902  28.572  1.00  0.00     0.074 A 
ATOM     39  C   UNL A   1      43.881  25.104  28.654  1.00  0.00     0.049 A 
ATOM     40  N   UNL A   1      41.707  27.159  28.910  1.00  0.00    -0.248 NA
ATOM     41  C   UNL A   1      40.146  25.501  28.393  1.00  0.00     0.031 C 
ATOM     42  C   UNL A   1      44.998  24.168  28.513  1.00  0.00     0.029 A 
ATOM     43  N   UNL A   1      44.464  26.241  29.159  1.00  0.00    -0.354 N 
ATOM     44  C   UNL A   1      40.432  27.708  28.938  1.00  0.00     0.074 A 
ATOM     45  C   UNL A   1      39.510  26.649  28.581  1.00  0.00     0.031 C 
ATOM     46  C   UNL A   1      46.121  24.751  28.955  1.00  0.00     0.029 A 
ATOM     47  C   UNL A   1      45.821  26.127  29.333  1.00  0.00     0.049 A 
ATOM     48  H   UNL A   1      43.958  27.057  29.377  1.00  0.00     0.167 HD
ATOM     49  C   UNL A   1      40.063  28.978  29.231  1.00  0.00     0.031 A 
ATOM     50  C   UNL A   1      46.738  27.035  29.712  1.00  0.00     0.031 A 
ATOM     51  C   UNL A   1      40.972  30.025  29.622  1.00  0.00     0.049 A 
ATOM     52  C   UNL A   1      46.310  28.443  29.996  1.00  0.00     0.074 A 
ATOM     53  C   UNL A   1      40.686  31.340  29.950  1.00  0.00     0.029 A 
ATOM     54  N   UNL A   1      42.343  29.872  29.754  1.00  0.00    -0.354 N 
ATOM     55  N   UNL A   1      45.107  28.962  29.964  1.00  0.00    -0.248 NA
ATOM     56  C   UNL A   1      47.371  29.396  30.350  1.00  0.00     0.031 C 
ATOM     57  C   UNL A   1      41.888  31.991  30.250  1.00  0.00     0.029 A 
ATOM     58  C   UNL A   1      42.918  31.070  30.146  1.00  0.00     0.049 A 
ATOM     59  H   UNL A   1      42.837  29.035  29.593  1.00  0.00     0.167 HD
ATOM     60  C   UNL A   1      45.264  30.298  30.299  1.00  0.00     0.074 A 
ATOM     61  C   UNL A   1      46.676  30.507  30.549  1.00  0.00     0.031 C 
ATOM     62  C   UNL A   1      44.322  31.267  30.384  1.00  0.00     0.031 A 
BRANCH  49  63
ATOM     63  C   UNL A   1      38.607  29.325  29.112  1.00  0.00    -0.014 A 
ATOM     64  C   UNL A   1      37.755  29.298  30.226  1.00  0.00     0.009 A 
ATOM     65  C   UNL A   1      38.094  29.742  27.872  1.00  0.00     0.009 A 
ATOM     66  C   UNL A   1      36.412  29.659  30.096  1.00  0.00     0.001 A 
ATOM     67  C   UNL A   1      36.757  30.123  27.749  1.00  0.00     0.001 A 
ATOM     68  C   UNL A   1      35.915  30.075  28.859  1.00  0.00     0.000 A 
ENDBRANCH  49  63
BRANCH  50  69
ATOM     69  C   UNL A   1      48.167  26.643  29.799  1.00  0.00    -0.014 A 
ATOM     70  C   UNL A   1      48.679  26.083  30.978  1.00  0.00     0.009 A 
ATOM     71  C   UNL A   1      49.018  26.807  28.695  1.00  0.00     0.009 A 
ATOM     72  C   UNL A   1      50.021  25.704  31.052  1.00  0.00     0.001 A 
ATOM     73  C   UNL A   1      50.352  26.404  28.764  1.00  0.00     0.001 A 
ATOM     74  C   UNL A   1      50.853  25.858  29.944  1.00  0.00     0.000 A 
ENDBRANCH  50  69
BRANCH  62  75
ATOM     75  C   UNL A   1      44.792  32.633  30.786  1.00  0.00    -0.014 A 
ATOM     76  C   UNL A   1      45.165  33.581  29.820  1.00  0.00     0.009 A 
ATOM     77  C   UNL A   1      44.851  32.980  32.145  1.00  0.00     0.009 A 
ATOM     78  C   UNL A   1      45.618  34.843  30.212  1.00  0.00     0.001 A 
ATOM     79  C   UNL A   1      45.285  34.248  32.531  1.00  0.00     0.001 A 
ATOM     80  C   UNL A   1      45.676  35.175  31.566  1.00  0.00     0.000 A 
ENDBRANCH  62  75
ENDBRANCH  36  37
ENDBRANCH  29  31
ENDBRANCH  28  29
ENDBRANCH  27  28
ENDBRANCH   1  27
TORSDOF 15
ENDMDL
