MODEL 1
REMARK VINA RESULT:      -9.6      0.000      0.000
REMARK SMILES C[C@@H](Sc1nc2ccccc2c(=O)n1N)C(=O)OCCOC(=O)c1ccc(-c2c3nc(c(-c4ccccc4)c4ccc([nH]4)c(-c4ccccc4)c4nc(c(-c5ccccc5)c5ccc2[nH]5)C=C4)C=C3)cc1
REMARK SMILES IDX 19 1 18 2 16 3 17 4 2 5 1 6 3 7 4 8 5 9 14 10 6 11 12 12
REMARK SMILES IDX 7 13 11 14 13 15 8 16 10 17 9 18 15 19 20 22 21 23 22 24
REMARK SMILES IDX 23 25 24 26 25 27 71 28 26 29 70 30 27 31 28 32 29 33 64 34
REMARK SMILES IDX 30 35 69 36 63 37 65 38 31 39 68 40 62 41 61 42 32 44 54 45
REMARK SMILES IDX 39 46 53 47 40 48 43 49 52 50 66 51 41 52 42 53 51 55 67 56
REMARK SMILES IDX 44 57 33 58 34 59 38 60 35 61 37 62 36 63 55 64 56 65 60 66
REMARK SMILES IDX 57 67 59 68 58 69 45 70 46 71 50 72 47 73 49 74 48 75
REMARK H PARENT 15 20 15 21 65 43 43 54
REMARK Flexibility Score: inf
ROOT
ATOM      1  C   UNL A   1      33.159  34.808  28.801  1.00  0.00     0.274 C 
ENDROOT
BRANCH   1   2
ATOM      2  O   UNL A   1      32.897  34.831  30.217  1.00  0.00    -0.461 OA
BRANCH   2   3
ATOM      3  C   UNL A   1      33.083  36.024  30.847  1.00  0.00     0.319 C 
ATOM      4  O   UNL A   1      32.528  37.068  30.518  1.00  0.00    -0.251 OA
BRANCH   3   5
ATOM      5  C   UNL A   1      34.059  35.937  32.018  1.00  0.00     0.161 C 
ATOM      6  C   UNL A   1      33.664  36.756  33.240  1.00  0.00     0.032 C 
BRANCH   5   7
ATOM      7  S   UNL A   1      34.297  34.172  32.420  1.00  0.00    -0.071 SA
BRANCH   7   8
ATOM      8  C   UNL A   1      35.992  34.180  32.862  1.00  0.00     0.191 A 
ATOM      9  N   UNL A   1      36.847  34.245  31.893  1.00  0.00    -0.222 NA
ATOM     10  N   UNL A   1      36.348  34.177  34.209  1.00  0.00    -0.202 N 
ATOM     11  C   UNL A   1      38.207  34.332  32.212  1.00  0.00     0.079 A 
ATOM     12  C   UNL A   1      37.684  34.249  34.611  1.00  0.00     0.280 A 
ATOM     13  C   UNL A   1      39.133  34.443  31.172  1.00  0.00     0.029 A 
ATOM     14  C   UNL A   1      38.677  34.344  33.527  1.00  0.00     0.068 A 
ATOM     15  O   UNL A   1      38.035  34.251  35.790  1.00  0.00    -0.267 OA
ATOM     16  C   UNL A   1      40.499  34.568  31.442  1.00  0.00     0.002 A 
ATOM     17  C   UNL A   1      40.043  34.464  33.810  1.00  0.00     0.016 A 
ATOM     18  C   UNL A   1      40.953  34.579  32.761  1.00  0.00     0.001 A 
BRANCH  10  19
ATOM     19  N   UNL A   1      35.370  34.102  35.258  1.00  0.00    -0.334 N 
ATOM     20  H   UNL A   1      34.737  33.349  35.287  1.00  0.00     0.178 HD
ATOM     21  H   UNL A   1      35.333  34.804  35.947  1.00  0.00     0.178 HD
ENDBRANCH  10  19
ENDBRANCH   7   8
ENDBRANCH   5   7
ENDBRANCH   3   5
ENDBRANCH   2   3
ENDBRANCH   1   2
BRANCH   1  22
ATOM     22  C   UNL A   1      34.370  33.935  28.455  1.00  0.00     0.275 C 
BRANCH  22  23
ATOM     23  O   UNL A   1      34.318  32.647  29.098  1.00  0.00    -0.458 OA
BRANCH  23  24
ATOM     24  C   UNL A   1      34.569  31.594  28.286  1.00  0.00     0.338 C 
ATOM     25  O   UNL A   1      33.901  31.220  27.336  1.00  0.00    -0.246 OA
BRANCH  24  26
ATOM     26  C   UNL A   1      35.885  31.011  28.597  1.00  0.00     0.060 A 
ATOM     27  C   UNL A   1      35.899  29.770  29.237  1.00  0.00     0.016 A 
ATOM     28  C   UNL A   1      37.078  31.692  28.347  1.00  0.00     0.016 A 
ATOM     29  C   UNL A   1      37.104  29.198  29.631  1.00  0.00     0.010 A 
ATOM     30  C   UNL A   1      38.292  31.119  28.751  1.00  0.00     0.010 A 
ATOM     31  C   UNL A   1      38.309  29.873  29.402  1.00  0.00    -0.014 A 
BRANCH  31  32
ATOM     32  C   UNL A   1      39.568  29.268  29.894  1.00  0.00     0.031 A 
ATOM     33  C   UNL A   1      40.210  29.781  31.149  1.00  0.00     0.074 A 
ATOM     34  C   UNL A   1      40.089  28.205  29.253  1.00  0.00     0.049 A 
ATOM     35  N   UNL A   1      41.300  29.366  31.747  1.00  0.00    -0.248 NA
ATOM     36  C   UNL A   1      39.539  30.900  31.827  1.00  0.00     0.031 C 
ATOM     37  C   UNL A   1      39.527  27.584  28.052  1.00  0.00     0.029 A 
ATOM     38  N   UNL A   1      41.200  27.452  29.534  1.00  0.00    -0.354 N 
ATOM     39  C   UNL A   1      41.446  30.174  32.867  1.00  0.00     0.074 A 
ATOM     40  C   UNL A   1      40.347  31.117  32.855  1.00  0.00     0.031 C 
ATOM     41  C   UNL A   1      40.291  26.535  27.707  1.00  0.00     0.029 A 
ATOM     42  C   UNL A   1      41.410  26.432  28.640  1.00  0.00     0.049 A 
ATOM     43  H   UNL A   1      41.789  27.626  30.303  1.00  0.00     0.167 HD
ATOM     44  C   UNL A   1      42.407  30.131  33.821  1.00  0.00     0.031 A 
ATOM     45  C   UNL A   1      42.402  25.525  28.572  1.00  0.00     0.031 A 
ATOM     46  C   UNL A   1      43.504  29.202  33.832  1.00  0.00     0.049 A 
ATOM     47  C   UNL A   1      43.488  25.541  29.611  1.00  0.00     0.074 A 
ATOM     48  C   UNL A   1      44.537  29.095  34.749  1.00  0.00     0.029 A 
ATOM     49  N   UNL A   1      43.711  28.216  32.880  1.00  0.00    -0.354 N 
ATOM     50  N   UNL A   1      43.621  26.320  30.656  1.00  0.00    -0.248 NA
ATOM     51  C   UNL A   1      44.561  24.548  29.457  1.00  0.00     0.031 C 
ATOM     52  C   UNL A   1      45.389  28.067  34.332  1.00  0.00     0.029 A 
ATOM     53  C   UNL A   1      44.863  27.506  33.179  1.00  0.00     0.049 A 
ATOM     54  H   UNL A   1      43.127  28.045  32.107  1.00  0.00     0.167 HD
ATOM     55  C   UNL A   1      44.783  25.905  31.291  1.00  0.00     0.074 A 
ATOM     56  C   UNL A   1      45.304  24.788  30.528  1.00  0.00     0.031 C 
ATOM     57  C   UNL A   1      45.371  26.406  32.404  1.00  0.00     0.031 A 
BRANCH  44  58
ATOM     58  C   UNL A   1      42.327  31.145  34.925  1.00  0.00    -0.014 A 
ATOM     59  C   UNL A   1      41.589  30.890  36.092  1.00  0.00     0.009 A 
ATOM     60  C   UNL A   1      43.034  32.352  34.816  1.00  0.00     0.009 A 
ATOM     61  C   UNL A   1      41.544  31.834  37.119  1.00  0.00     0.001 A 
ATOM     62  C   UNL A   1      43.003  33.286  35.854  1.00  0.00     0.001 A 
ATOM     63  C   UNL A   1      42.254  33.029  37.001  1.00  0.00     0.000 A 
ENDBRANCH  44  58
BRANCH  45  64
ATOM     64  C   UNL A   1      42.436  24.541  27.460  1.00  0.00    -0.014 A 
ATOM     65  C   UNL A   1      41.809  23.293  27.586  1.00  0.00     0.009 A 
ATOM     66  C   UNL A   1      43.121  24.842  26.273  1.00  0.00     0.009 A 
ATOM     67  C   UNL A   1      41.890  22.356  26.553  1.00  0.00     0.001 A 
ATOM     68  C   UNL A   1      43.177  23.914  25.231  1.00  0.00     0.001 A 
ATOM     69  C   UNL A   1      42.570  22.668  25.377  1.00  0.00     0.000 A 
ENDBRANCH  45  64
BRANCH  57  70
ATOM     70  C   UNL A   1      46.634  25.738  32.864  1.00  0.00    -0.014 A 
ATOM     71  C   UNL A   1      47.882  26.106  32.336  1.00  0.00     0.009 A 
ATOM     72  C   UNL A   1      46.577  24.736  33.845  1.00  0.00     0.009 A 
ATOM     73  C   UNL A   1      49.044  25.459  32.756  1.00  0.00     0.001 A 
ATOM     74  C   UNL A   1      47.745  24.107  34.280  1.00  0.00     0.001 A 
ATOM     75  C   UNL A   1      48.975  24.462  33.729  1.00  0.00     0.000 A 
ENDBRANCH  57  70
ENDBRANCH  31  32
ENDBRANCH  24  26
ENDBRANCH  23  24
ENDBRANCH  22  23
ENDBRANCH   1  22
TORSDOF 14
ENDMDL
MODEL 2
REMARK VINA RESULT:      -9.4      3.828      7.020
REMARK SMILES C[C@@H](Sc1nc2ccccc2c(=O)n1N)C(=O)OCCOC(=O)c1ccc(-c2c3nc(c(-c4ccccc4)c4ccc([nH]4)c(-c4ccccc4)c4nc(c(-c5ccccc5)c5ccc2[nH]5)C=C4)C=C3)cc1
REMARK SMILES IDX 19 1 18 2 16 3 17 4 2 5 1 6 3 7 4 8 5 9 14 10 6 11 12 12
REMARK SMILES IDX 7 13 11 14 13 15 8 16 10 17 9 18 15 19 20 22 21 23 22 24
REMARK SMILES IDX 23 25 24 26 25 27 71 28 26 29 70 30 27 31 28 32 29 33 64 34
REMARK SMILES IDX 30 35 69 36 63 37 65 38 31 39 68 40 62 41 61 42 32 44 54 45
REMARK SMILES IDX 39 46 53 47 40 48 43 49 52 50 66 51 41 52 42 53 51 55 67 56
REMARK SMILES IDX 44 57 33 58 34 59 38 60 35 61 37 62 36 63 55 64 56 65 60 66
REMARK SMILES IDX 57 67 59 68 58 69 45 70 46 71 50 72 47 73 49 74 48 75
REMARK H PARENT 15 20 15 21 65 43 43 54
REMARK Flexibility Score: inf
ROOT
ATOM      1  C   UNL A   1      31.427  31.800  26.562  1.00  0.00     0.274 C 
ENDROOT
BRANCH   1   2
ATOM      2  O   UNL A   1      32.163  30.572  26.725  1.00  0.00    -0.461 OA
BRANCH   2   3
ATOM      3  C   UNL A   1      32.095  29.685  25.694  1.00  0.00     0.319 C 
ATOM      4  O   UNL A   1      31.261  29.740  24.795  1.00  0.00    -0.251 OA
BRANCH   3   5
ATOM      5  C   UNL A   1      33.170  28.603  25.763  1.00  0.00     0.161 C 
ATOM      6  C   UNL A   1      34.292  28.879  26.756  1.00  0.00     0.032 C 
BRANCH   5   7
ATOM      7  S   UNL A   1      32.342  27.009  26.088  1.00  0.00    -0.071 SA
BRANCH   7   8
ATOM      8  C   UNL A   1      33.374  25.930  25.174  1.00  0.00     0.191 A 
ATOM      9  N   UNL A   1      34.351  25.376  25.815  1.00  0.00    -0.222 NA
ATOM     10  N   UNL A   1      33.077  25.665  23.839  1.00  0.00    -0.202 N 
ATOM     11  C   UNL A   1      35.150  24.447  25.137  1.00  0.00     0.079 A 
ATOM     12  C   UNL A   1      33.831  24.761  23.087  1.00  0.00     0.280 A 
ATOM     13  C   UNL A   1      36.182  23.815  25.835  1.00  0.00     0.029 A 
ATOM     14  C   UNL A   1      34.939  24.101  23.801  1.00  0.00     0.068 A 
ATOM     15  O   UNL A   1      33.598  24.502  21.908  1.00  0.00    -0.267 OA
ATOM     16  C   UNL A   1      36.983  22.855  25.210  1.00  0.00     0.002 A 
ATOM     17  C   UNL A   1      35.737  23.145  23.162  1.00  0.00     0.016 A 
ATOM     18  C   UNL A   1      36.760  22.520  23.874  1.00  0.00     0.001 A 
BRANCH  10  19
ATOM     19  N   UNL A   1      31.984  26.302  23.158  1.00  0.00    -0.334 N 
ATOM     20  H   UNL A   1      31.285  25.755  22.732  1.00  0.00     0.178 HD
ATOM     21  H   UNL A   1      31.935  27.284  23.117  1.00  0.00     0.178 HD
ENDBRANCH  10  19
ENDBRANCH   7   8
ENDBRANCH   5   7
ENDBRANCH   3   5
ENDBRANCH   2   3
ENDBRANCH   1   2
BRANCH   1  22
ATOM     22  C   UNL A   1      32.303  33.032  26.814  1.00  0.00     0.275 C 
BRANCH  22  23
ATOM     23  O   UNL A   1      32.047  33.631  28.099  1.00  0.00    -0.458 OA
BRANCH  23  24
ATOM     24  C   UNL A   1      32.970  34.538  28.498  1.00  0.00     0.338 C 
ATOM     25  O   UNL A   1      32.788  35.722  28.726  1.00  0.00    -0.246 OA
BRANCH  24  26
ATOM     26  C   UNL A   1      34.250  33.871  28.788  1.00  0.00     0.060 A 
ATOM     27  C   UNL A   1      34.266  32.943  29.832  1.00  0.00     0.016 A 
ATOM     28  C   UNL A   1      35.429  34.200  28.116  1.00  0.00     0.016 A 
ATOM     29  C   UNL A   1      35.457  32.335  30.211  1.00  0.00     0.010 A 
ATOM     30  C   UNL A   1      36.632  33.593  28.503  1.00  0.00     0.010 A 
ATOM     31  C   UNL A   1      36.651  32.664  29.558  1.00  0.00    -0.014 A 
BRANCH  31  32
ATOM     32  C   UNL A   1      37.913  32.049  30.030  1.00  0.00     0.031 A 
ATOM     33  C   UNL A   1      38.709  32.704  31.121  1.00  0.00     0.074 A 
ATOM     34  C   UNL A   1      38.299  30.859  29.533  1.00  0.00     0.049 A 
ATOM     35  N   UNL A   1      39.825  32.308  31.680  1.00  0.00    -0.248 NA
ATOM     36  C   UNL A   1      38.180  33.967  31.658  1.00  0.00     0.031 C 
ATOM     37  C   UNL A   1      37.582  30.099  28.508  1.00  0.00     0.029 A 
ATOM     38  N   UNL A   1      39.383  30.076  29.836  1.00  0.00    -0.354 N 
ATOM     39  C   UNL A   1      40.133  33.271  32.631  1.00  0.00     0.074 A 
ATOM     40  C   UNL A   1      39.100  34.283  32.560  1.00  0.00     0.031 C 
ATOM     41  C   UNL A   1      38.241  28.952  28.277  1.00  0.00     0.029 A 
ATOM     42  C   UNL A   1      39.439  28.913  29.111  1.00  0.00     0.049 A 
ATOM     43  H   UNL A   1      40.057  30.325  30.511  1.00  0.00     0.167 HD
ATOM     44  C   UNL A   1      41.180  33.306  33.490  1.00  0.00     0.031 A 
ATOM     45  C   UNL A   1      40.360  27.931  29.108  1.00  0.00     0.031 A 
ATOM     46  C   UNL A   1      42.213  32.308  33.559  1.00  0.00     0.049 A 
ATOM     47  C   UNL A   1      41.544  28.029  30.029  1.00  0.00     0.074 A 
ATOM     48  C   UNL A   1      43.323  32.270  34.386  1.00  0.00     0.029 A 
ATOM     49  N   UNL A   1      42.261  31.169  32.772  1.00  0.00    -0.354 N 
ATOM     50  N   UNL A   1      41.829  28.953  30.913  1.00  0.00    -0.248 NA
ATOM     51  C   UNL A   1      42.531  26.943  29.950  1.00  0.00     0.031 C 
ATOM     52  C   UNL A   1      44.064  31.124  34.073  1.00  0.00     0.029 A 
ATOM     53  C   UNL A   1      43.390  30.428  33.082  1.00  0.00     0.049 A 
ATOM     54  H   UNL A   1      41.593  30.922  32.093  1.00  0.00     0.167 HD
ATOM     55  C   UNL A   1      43.021  28.556  31.503  1.00  0.00     0.074 A 
ATOM     56  C   UNL A   1      43.391  27.294  30.895  1.00  0.00     0.031 C 
ATOM     57  C   UNL A   1      43.748  29.182  32.460  1.00  0.00     0.031 A 
BRANCH  44  58
ATOM     58  C   UNL A   1      41.275  34.488  34.412  1.00  0.00    -0.014 A 
ATOM     59  C   UNL A   1      40.694  34.459  35.690  1.00  0.00     0.009 A 
ATOM     60  C   UNL A   1      41.992  35.626  34.015  1.00  0.00     0.009 A 
ATOM     61  C   UNL A   1      40.811  35.557  36.543  1.00  0.00     0.001 A 
ATOM     62  C   UNL A   1      42.125  36.716  34.878  1.00  0.00     0.001 A 
ATOM     63  C   UNL A   1      41.530  36.682  36.138  1.00  0.00     0.000 A 
ENDBRANCH  44  58
BRANCH  45  64
ATOM     64  C   UNL A   1      40.220  26.783  28.178  1.00  0.00    -0.014 A 
ATOM     65  C   UNL A   1      39.508  25.635  28.555  1.00  0.00     0.009 A 
ATOM     66  C   UNL A   1      40.825  26.822  26.912  1.00  0.00     0.009 A 
ATOM     67  C   UNL A   1      39.425  24.540  27.692  1.00  0.00     0.001 A 
ATOM     68  C   UNL A   1      40.718  25.737  26.040  1.00  0.00     0.001 A 
ATOM     69  C   UNL A   1      40.027  24.593  26.435  1.00  0.00     0.000 A 
ENDBRANCH  45  64
BRANCH  57  70
ATOM     70  C   UNL A   1      45.007  28.499  32.911  1.00  0.00    -0.014 A 
ATOM     71  C   UNL A   1      46.240  28.780  32.304  1.00  0.00     0.009 A 
ATOM     72  C   UNL A   1      44.959  27.572  33.964  1.00  0.00     0.009 A 
ATOM     73  C   UNL A   1      47.397  28.119  32.718  1.00  0.00     0.001 A 
ATOM     74  C   UNL A   1      46.123  26.931  34.392  1.00  0.00     0.001 A 
ATOM     75  C   UNL A   1      47.338  27.197  33.763  1.00  0.00     0.000 A 
ENDBRANCH  57  70
ENDBRANCH  31  32
ENDBRANCH  24  26
ENDBRANCH  23  24
ENDBRANCH  22  23
ENDBRANCH   1  22
TORSDOF 14
ENDMDL
MODEL 3
REMARK VINA RESULT:      -9.3      5.180     10.434
REMARK SMILES C[C@@H](Sc1nc2ccccc2c(=O)n1N)C(=O)OCCOC(=O)c1ccc(-c2c3nc(c(-c4ccccc4)c4ccc([nH]4)c(-c4ccccc4)c4nc(c(-c5ccccc5)c5ccc2[nH]5)C=C4)C=C3)cc1
REMARK SMILES IDX 19 1 18 2 16 3 17 4 2 5 1 6 3 7 4 8 5 9 14 10 6 11 12 12
REMARK SMILES IDX 7 13 11 14 13 15 8 16 10 17 9 18 15 19 20 22 21 23 22 24
REMARK SMILES IDX 23 25 24 26 25 27 71 28 26 29 70 30 27 31 28 32 29 33 64 34
REMARK SMILES IDX 30 35 69 36 63 37 65 38 31 39 68 40 62 41 61 42 32 44 54 45
REMARK SMILES IDX 39 46 53 47 40 48 43 49 52 50 66 51 41 52 42 53 51 55 67 56
REMARK SMILES IDX 44 57 33 58 34 59 38 60 35 61 37 62 36 63 55 64 56 65 60 66
REMARK SMILES IDX 57 67 59 68 58 69 45 70 46 71 50 72 47 73 49 74 48 75
REMARK H PARENT 15 20 15 21 65 43 43 54
REMARK Flexibility Score: inf
ROOT
ATOM      1  C   UNL A   1      38.550  20.895  25.369  1.00  0.00     0.274 C 
ENDROOT
BRANCH   1   2
ATOM      2  O   UNL A   1      37.281  20.807  24.692  1.00  0.00    -0.461 OA
BRANCH   2   3
ATOM      3  C   UNL A   1      36.673  21.988  24.393  1.00  0.00     0.319 C 
ATOM      4  O   UNL A   1      36.630  22.474  23.267  1.00  0.00    -0.251 OA
BRANCH   3   5
ATOM      5  C   UNL A   1      36.039  22.660  25.610  1.00  0.00     0.161 C 
ATOM      6  C   UNL A   1      36.543  24.068  25.897  1.00  0.00     0.032 C 
BRANCH   5   7
ATOM      7  S   UNL A   1      34.226  22.608  25.398  1.00  0.00    -0.071 SA
BRANCH   7   8
ATOM      8  C   UNL A   1      33.940  24.220  24.777  1.00  0.00     0.191 A 
ATOM      9  N   UNL A   1      33.876  25.177  25.646  1.00  0.00    -0.222 NA
ATOM     10  N   UNL A   1      33.854  24.419  23.401  1.00  0.00    -0.202 N 
ATOM     11  C   UNL A   1      33.726  26.489  25.180  1.00  0.00     0.079 A 
ATOM     12  C   UNL A   1      33.692  25.695  22.855  1.00  0.00     0.280 A 
ATOM     13  C   UNL A   1      33.697  27.530  26.110  1.00  0.00     0.029 A 
ATOM     14  C   UNL A   1      33.636  26.804  23.823  1.00  0.00     0.068 A 
ATOM     15  O   UNL A   1      33.614  25.907  21.646  1.00  0.00    -0.267 OA
ATOM     16  C   UNL A   1      33.584  28.859  25.691  1.00  0.00     0.002 A 
ATOM     17  C   UNL A   1      33.519  28.131  23.391  1.00  0.00     0.016 A 
ATOM     18  C   UNL A   1      33.496  29.159  24.331  1.00  0.00     0.001 A 
BRANCH  10  19
ATOM     19  N   UNL A   1      33.927  23.331  22.465  1.00  0.00    -0.334 N 
ATOM     20  H   UNL A   1      33.314  22.565  22.552  1.00  0.00     0.178 HD
ATOM     21  H   UNL A   1      34.591  23.351  21.739  1.00  0.00     0.178 HD
ENDBRANCH  10  19
ENDBRANCH   7   8
ENDBRANCH   5   7
ENDBRANCH   3   5
ENDBRANCH   2   3
ENDBRANCH   1   2
BRANCH   1  22
ATOM     22  C   UNL A   1      39.311  19.565  25.337  1.00  0.00     0.275 C 
BRANCH  22  23
ATOM     23  O   UNL A   1      40.294  19.472  26.386  1.00  0.00    -0.458 OA
BRANCH  23  24
ATOM     24  C   UNL A   1      41.561  19.759  26.007  1.00  0.00     0.338 C 
ATOM     25  O   UNL A   1      42.265  19.117  25.245  1.00  0.00    -0.246 OA
BRANCH  24  26
ATOM     26  C   UNL A   1      41.963  21.078  26.522  1.00  0.00     0.060 A 
ATOM     27  C   UNL A   1      41.820  21.299  27.894  1.00  0.00     0.016 A 
ATOM     28  C   UNL A   1      42.391  22.107  25.681  1.00  0.00     0.016 A 
ATOM     29  C   UNL A   1      42.106  22.546  28.437  1.00  0.00     0.010 A 
ATOM     30  C   UNL A   1      42.672  23.367  26.226  1.00  0.00     0.010 A 
ATOM     31  C   UNL A   1      42.522  23.594  27.606  1.00  0.00    -0.014 A 
BRANCH  31  32
ATOM     32  C   UNL A   1      42.753  24.929  28.205  1.00  0.00     0.031 A 
ATOM     33  C   UNL A   1      44.135  25.338  28.622  1.00  0.00     0.074 A 
ATOM     34  C   UNL A   1      41.732  25.801  28.299  1.00  0.00     0.049 A 
ATOM     35  N   UNL A   1      44.539  26.470  29.144  1.00  0.00    -0.248 NA
ATOM     36  C   UNL A   1      45.207  24.350  28.420  1.00  0.00     0.031 C 
ATOM     37  C   UNL A   1      40.355  25.538  27.879  1.00  0.00     0.029 A 
ATOM     38  N   UNL A   1      41.703  27.090  28.764  1.00  0.00    -0.354 N 
ATOM     39  C   UNL A   1      45.906  26.330  29.336  1.00  0.00     0.074 A 
ATOM     40  C   UNL A   1      46.263  24.998  28.895  1.00  0.00     0.031 C 
ATOM     41  C   UNL A   1      39.616  26.638  28.095  1.00  0.00     0.029 A 
ATOM     42  C   UNL A   1      40.459  27.668  28.697  1.00  0.00     0.049 A 
ATOM     43  H   UNL A   1      42.497  27.557  29.112  1.00  0.00     0.167 HD
ATOM     44  C   UNL A   1      46.787  27.233  29.830  1.00  0.00     0.031 A 
ATOM     45  C   UNL A   1      40.043  28.886  29.090  1.00  0.00     0.031 A 
ATOM     46  C   UNL A   1      46.437  28.554  30.277  1.00  0.00     0.049 A 
ATOM     47  C   UNL A   1      41.032  29.845  29.692  1.00  0.00     0.074 A 
ATOM     48  C   UNL A   1      47.260  29.532  30.810  1.00  0.00     0.029 A 
ATOM     49  N   UNL A   1      45.157  29.085  30.240  1.00  0.00    -0.354 N 
ATOM     50  N   UNL A   1      42.320  29.694  29.880  1.00  0.00    -0.248 NA
ATOM     51  C   UNL A   1      40.505  31.144  30.133  1.00  0.00     0.031 C 
ATOM     52  C   UNL A   1      46.470  30.643  31.129  1.00  0.00     0.029 A 
ATOM     53  C   UNL A   1      45.164  30.371  30.755  1.00  0.00     0.049 A 
ATOM     54  H   UNL A   1      44.361  28.618  29.898  1.00  0.00     0.167 HD
ATOM     55  C   UNL A   1      42.760  30.879  30.451  1.00  0.00     0.074 A 
ATOM     56  C   UNL A   1      41.606  31.750  30.554  1.00  0.00     0.031 C 
ATOM     57  C   UNL A   1      44.007  31.218  30.859  1.00  0.00     0.031 A 
BRANCH  44  58
ATOM     58  C   UNL A   1      48.222  26.805  29.941  1.00  0.00    -0.014 A 
ATOM     59  C   UNL A   1      48.679  26.083  31.055  1.00  0.00     0.009 A 
ATOM     60  C   UNL A   1      49.118  27.090  28.900  1.00  0.00     0.009 A 
ATOM     61  C   UNL A   1      50.011  25.673  31.132  1.00  0.00     0.001 A 
ATOM     62  C   UNL A   1      50.445  26.662  28.970  1.00  0.00     0.001 A 
ATOM     63  C   UNL A   1      50.891  25.959  30.088  1.00  0.00     0.000 A 
ENDBRANCH  44  58
BRANCH  45  64
ATOM     64  C   UNL A   1      38.613  29.262  28.957  1.00  0.00    -0.014 A 
ATOM     65  C   UNL A   1      37.729  29.115  30.036  1.00  0.00     0.009 A 
ATOM     66  C   UNL A   1      38.121  29.747  27.736  1.00  0.00     0.009 A 
ATOM     67  C   UNL A   1      36.374  29.423  29.885  1.00  0.00     0.001 A 
ATOM     68  C   UNL A   1      36.772  30.081  27.596  1.00  0.00     0.001 A 
ATOM     69  C   UNL A   1      35.899  29.909  28.668  1.00  0.00     0.000 A 
ENDBRANCH  45  64
BRANCH  57  70
ATOM     70  C   UNL A   1      44.182  32.591  31.439  1.00  0.00    -0.014 A 
ATOM     71  C   UNL A   1      44.459  33.694  30.617  1.00  0.00     0.009 A 
ATOM     72  C   UNL A   1      44.056  32.786  32.824  1.00  0.00     0.009 A 
ATOM     73  C   UNL A   1      44.642  34.961  31.174  1.00  0.00     0.001 A 
ATOM     74  C   UNL A   1      44.216  34.058  33.375  1.00  0.00     0.001 A 
ATOM     75  C   UNL A   1      44.519  35.141  32.551  1.00  0.00     0.000 A 
ENDBRANCH  57  70
ENDBRANCH  31  32
ENDBRANCH  24  26
ENDBRANCH  23  24
ENDBRANCH  22  23
ENDBRANCH   1  22
TORSDOF 14
ENDMDL
