MODEL 1
REMARK VINA RESULT:      -9.7      0.000      0.000
REMARK SMILES CC1(C)S[C@@H](c2ccsc2)[NH2+][C@@H]1C(=O)OCCOC(=O)c1ccc(-c2c3nc(c(-c4ccccc4)c4ccc([nH]4)c(-c4ccccc4)c4nc(c(-c5ccccc5)c5ccc2[nH]5)C=C4)C=C3)cc1
REMARK SMILES IDX 17 1 16 2 15 3 13 4 14 5 12 6 1 7 2 8 3 9 4 10 5 11 11 12
REMARK SMILES IDX 6 15 7 16 10 17 8 18 9 19 18 20 19 21 20 22 21 23 22 24
REMARK SMILES IDX 68 25 23 26 67 27 24 28 25 29 26 30 61 31 27 32 66 33 60 34
REMARK SMILES IDX 62 35 28 36 65 37 59 38 58 39 29 41 51 42 36 43 50 44 37 45
REMARK SMILES IDX 40 46 49 47 63 48 38 49 39 50 48 52 64 53 41 54 30 55 31 56
REMARK SMILES IDX 35 57 32 58 34 59 33 60 52 61 53 62 57 63 54 64 56 65 55 66
REMARK SMILES IDX 42 67 43 68 47 69 44 70 46 71 45 72
REMARK H PARENT 11 13 11 14 62 40 40 51
REMARK Flexibility Score: inf
ROOT
ATOM      1  C   UNL A   1      32.982  30.083  26.305  1.00  0.00     0.275 C 
ENDROOT
BRANCH   1   2
ATOM      2  C   UNL A   1      32.493  28.991  25.349  1.00  0.00     0.274 C 
BRANCH   2   3
ATOM      3  O   UNL A   1      31.559  28.102  25.991  1.00  0.00    -0.458 OA
BRANCH   3   4
ATOM      4  C   UNL A   1      31.942  26.790  26.084  1.00  0.00     0.366 C 
ATOM      5  O   UNL A   1      31.459  26.003  26.886  1.00  0.00    -0.245 OA
BRANCH   4   6
ATOM      6  C   UNL A   1      32.984  26.445  24.992  1.00  0.00     0.310 C 
ATOM      7  C   UNL A   1      33.488  25.771  22.597  1.00  0.00     0.030 C 
ATOM      8  C   UNL A   1      32.511  25.593  23.781  1.00  0.00     0.079 C 
ATOM      9  C   UNL A   1      31.097  25.781  23.225  1.00  0.00     0.030 C 
ATOM     10  S   UNL A   1      32.644  23.891  24.408  1.00  0.00    -0.081 SA
ATOM     11  C   UNL A   1      33.797  24.329  25.732  1.00  0.00     0.275 C 
ATOM     12  N   UNL A   1      34.162  25.742  25.601  1.00  0.00    -0.319 N 
ATOM     13  H   UNL A   1      34.978  25.839  24.997  1.00  0.00     0.348 HD
ATOM     14  H   UNL A   1      34.394  26.143  26.510  1.00  0.00     0.348 HD
BRANCH  11  15
ATOM     15  C   UNL A   1      35.025  23.461  25.664  1.00  0.00     0.031 A 
ATOM     16  C   UNL A   1      36.395  23.912  25.734  1.00  0.00     0.022 A 
ATOM     17  C   UNL A   1      34.993  22.090  25.459  1.00  0.00     0.075 A 
ATOM     18  C   UNL A   1      37.308  22.902  25.536  1.00  0.00     0.065 A 
ATOM     19  S   UNL A   1      36.547  21.392  25.314  1.00  0.00    -0.152 S 
ENDBRANCH  11  15
ENDBRANCH   4   6
ENDBRANCH   3   4
ENDBRANCH   2   3
ENDBRANCH   1   2
BRANCH   1  20
ATOM     20  O   UNL A   1      33.974  29.594  27.229  1.00  0.00    -0.458 OA
BRANCH  20  21
ATOM     21  C   UNL A   1      34.624  30.555  27.931  1.00  0.00     0.338 C 
ATOM     22  O   UNL A   1      34.159  31.604  28.342  1.00  0.00    -0.246 OA
BRANCH  21  23
ATOM     23  C   UNL A   1      35.968  30.085  28.322  1.00  0.00     0.060 A 
ATOM     24  C   UNL A   1      36.959  30.123  27.338  1.00  0.00     0.016 A 
ATOM     25  C   UNL A   1      36.265  29.588  29.594  1.00  0.00     0.016 A 
ATOM     26  C   UNL A   1      38.262  29.733  27.632  1.00  0.00     0.010 A 
ATOM     27  C   UNL A   1      37.572  29.164  29.880  1.00  0.00     0.010 A 
ATOM     28  C   UNL A   1      38.580  29.257  28.905  1.00  0.00    -0.014 A 
BRANCH  28  29
ATOM     29  C   UNL A   1      39.955  28.769  29.151  1.00  0.00     0.031 A 
ATOM     30  C   UNL A   1      40.916  29.649  29.892  1.00  0.00     0.074 A 
ATOM     31  C   UNL A   1      40.315  27.519  28.807  1.00  0.00     0.049 A 
ATOM     32  N   UNL A   1      42.168  29.433  30.200  1.00  0.00    -0.248 NA
ATOM     33  C   UNL A   1      40.387  30.938  30.364  1.00  0.00     0.031 C 
ATOM     34  C   UNL A   1      39.436  26.520  28.197  1.00  0.00     0.029 A 
ATOM     35  N   UNL A   1      41.520  26.873  28.935  1.00  0.00    -0.354 N 
ATOM     36  C   UNL A   1      42.581  30.559  30.899  1.00  0.00     0.074 A 
ATOM     37  C   UNL A   1      41.449  31.459  30.962  1.00  0.00     0.031 C 
ATOM     38  C   UNL A   1      40.138  25.392  27.993  1.00  0.00     0.029 A 
ATOM     39  C   UNL A   1      41.522  25.602  28.412  1.00  0.00     0.049 A 
ATOM     40  H   UNL A   1      42.308  27.283  29.360  1.00  0.00     0.167 HD
ATOM     41  C   UNL A   1      43.796  30.825  31.430  1.00  0.00     0.031 A 
ATOM     42  C   UNL A   1      42.535  24.726  28.260  1.00  0.00     0.031 A 
ATOM     43  C   UNL A   1      44.931  29.947  31.334  1.00  0.00     0.049 A 
ATOM     44  C   UNL A   1      43.917  25.109  28.728  1.00  0.00     0.074 A 
ATOM     45  C   UNL A   1      46.217  30.147  31.808  1.00  0.00     0.029 A 
ATOM     46  N   UNL A   1      44.921  28.709  30.711  1.00  0.00    -0.354 N 
ATOM     47  N   UNL A   1      44.306  26.187  29.365  1.00  0.00    -0.248 NA
ATOM     48  C   UNL A   1      44.999  24.153  28.451  1.00  0.00     0.031 C 
ATOM     49  C   UNL A   1      47.001  29.058  31.411  1.00  0.00     0.029 A 
ATOM     50  C   UNL A   1      46.187  28.148  30.756  1.00  0.00     0.049 A 
ATOM     51  H   UNL A   1      44.132  28.292  30.297  1.00  0.00     0.167 HD
ATOM     52  C   UNL A   1      45.669  26.024  29.591  1.00  0.00     0.074 A 
ATOM     53  C   UNL A   1      46.035  24.737  29.037  1.00  0.00     0.031 C 
ATOM     54  C   UNL A   1      46.538  26.864  30.205  1.00  0.00     0.031 A 
BRANCH  41  55
ATOM     55  C   UNL A   1      43.974  32.159  32.095  1.00  0.00    -0.014 A 
ATOM     56  C   UNL A   1      43.748  32.333  33.469  1.00  0.00     0.009 A 
ATOM     57  C   UNL A   1      44.383  33.261  31.327  1.00  0.00     0.009 A 
ATOM     58  C   UNL A   1      43.893  33.594  34.053  1.00  0.00     0.001 A 
ATOM     59  C   UNL A   1      44.556  34.512  31.919  1.00  0.00     0.001 A 
ATOM     60  C   UNL A   1      44.300  34.680  33.279  1.00  0.00     0.000 A 
ENDBRANCH  41  55
BRANCH  42  61
ATOM     61  C   UNL A   1      42.310  23.423  27.577  1.00  0.00    -0.014 A 
ATOM     62  C   UNL A   1      41.907  22.288  28.298  1.00  0.00     0.009 A 
ATOM     63  C   UNL A   1      42.553  23.295  26.200  1.00  0.00     0.009 A 
ATOM     64  C   UNL A   1      41.784  21.049  27.662  1.00  0.00     0.001 A 
ATOM     65  C   UNL A   1      42.398  22.064  25.560  1.00  0.00     0.001 A 
ATOM     66  C   UNL A   1      42.026  20.939  26.293  1.00  0.00     0.000 A 
ENDBRANCH  42  61
BRANCH  54  67
ATOM     67  C   UNL A   1      47.963  26.404  30.356  1.00  0.00    -0.014 A 
ATOM     68  C   UNL A   1      48.394  25.707  31.496  1.00  0.00     0.009 A 
ATOM     69  C   UNL A   1      48.876  26.625  29.311  1.00  0.00     0.009 A 
ATOM     70  C   UNL A   1      49.716  25.267  31.597  1.00  0.00     0.001 A 
ATOM     71  C   UNL A   1      50.187  26.155  29.401  1.00  0.00     0.001 A 
ATOM     72  C   UNL A   1      50.608  25.485  30.547  1.00  0.00     0.000 A 
ENDBRANCH  54  67
ENDBRANCH  28  29
ENDBRANCH  21  23
ENDBRANCH  20  21
ENDBRANCH   1  20
TORSDOF 12
ENDMDL
MODEL 2
REMARK VINA RESULT:      -9.7      3.135      7.931
REMARK SMILES CC1(C)S[C@@H](c2ccsc2)[NH2+][C@@H]1C(=O)OCCOC(=O)c1ccc(-c2c3nc(c(-c4ccccc4)c4ccc([nH]4)c(-c4ccccc4)c4nc(c(-c5ccccc5)c5ccc2[nH]5)C=C4)C=C3)cc1
REMARK SMILES IDX 17 1 16 2 15 3 13 4 14 5 12 6 1 7 2 8 3 9 4 10 5 11 11 12
REMARK SMILES IDX 6 15 7 16 10 17 8 18 9 19 18 20 19 21 20 22 21 23 22 24
REMARK SMILES IDX 68 25 23 26 67 27 24 28 25 29 26 30 61 31 27 32 66 33 60 34
REMARK SMILES IDX 62 35 28 36 65 37 59 38 58 39 29 41 51 42 36 43 50 44 37 45
REMARK SMILES IDX 40 46 49 47 63 48 38 49 39 50 48 52 64 53 41 54 30 55 31 56
REMARK SMILES IDX 35 57 32 58 34 59 33 60 52 61 53 62 57 63 54 64 56 65 55 66
REMARK SMILES IDX 42 67 43 68 47 69 44 70 46 71 45 72
REMARK H PARENT 11 13 11 14 62 40 40 51
REMARK Flexibility Score: inf
ROOT
ATOM      1  C   UNL A   1      39.540  19.537  26.092  1.00  0.00     0.275 C 
ENDROOT
BRANCH   1   2
ATOM      2  C   UNL A   1      38.452  20.074  25.156  1.00  0.00     0.274 C 
BRANCH   2   3
ATOM      3  O   UNL A   1      38.154  21.457  25.426  1.00  0.00    -0.458 OA
BRANCH   3   4
ATOM      4  C   UNL A   1      37.035  21.963  24.820  1.00  0.00     0.366 C 
ATOM      5  O   UNL A   1      36.969  22.205  23.623  1.00  0.00    -0.245 OA
BRANCH   4   6
ATOM      6  C   UNL A   1      35.874  22.093  25.836  1.00  0.00     0.310 C 
ATOM      7  C   UNL A   1      33.744  21.146  26.843  1.00  0.00     0.030 C 
ATOM      8  C   UNL A   1      34.562  21.311  25.543  1.00  0.00     0.079 C 
ATOM      9  C   UNL A   1      34.630  19.933  24.880  1.00  0.00     0.030 C 
ATOM     10  S   UNL A   1      33.669  22.429  24.419  1.00  0.00    -0.081 SA
ATOM     11  C   UNL A   1      34.609  23.893  24.917  1.00  0.00     0.275 C 
ATOM     12  N   UNL A   1      35.504  23.535  26.021  1.00  0.00    -0.319 N 
ATOM     13  H   UNL A   1      35.028  23.663  26.914  1.00  0.00     0.348 HD
ATOM     14  H   UNL A   1      36.335  24.127  26.022  1.00  0.00     0.348 HD
BRANCH  11  15
ATOM     15  C   UNL A   1      33.674  24.997  25.335  1.00  0.00     0.031 A 
ATOM     16  C   UNL A   1      34.054  26.330  25.740  1.00  0.00     0.022 A 
ATOM     17  C   UNL A   1      32.301  24.847  25.446  1.00  0.00     0.075 A 
ATOM     18  C   UNL A   1      32.990  27.088  26.171  1.00  0.00     0.065 A 
ATOM     19  S   UNL A   1      31.516  26.240  26.053  1.00  0.00    -0.152 S 
ENDBRANCH  11  15
ENDBRANCH   4   6
ENDBRANCH   3   4
ENDBRANCH   2   3
ENDBRANCH   1   2
BRANCH   1  20
ATOM     20  O   UNL A   1      40.625  18.921  25.369  1.00  0.00    -0.458 OA
BRANCH  20  21
ATOM     21  C   UNL A   1      41.826  18.963  25.997  1.00  0.00     0.338 C 
ATOM     22  O   UNL A   1      42.654  18.072  26.056  1.00  0.00    -0.246 OA
BRANCH  21  23
ATOM     23  C   UNL A   1      42.113  20.334  26.463  1.00  0.00     0.060 A 
ATOM     24  C   UNL A   1      42.367  21.293  25.479  1.00  0.00     0.016 A 
ATOM     25  C   UNL A   1      42.167  20.690  27.813  1.00  0.00     0.016 A 
ATOM     26  C   UNL A   1      42.610  22.617  25.828  1.00  0.00     0.010 A 
ATOM     27  C   UNL A   1      42.444  22.019  28.166  1.00  0.00     0.010 A 
ATOM     28  C   UNL A   1      42.645  22.992  27.172  1.00  0.00    -0.014 A 
BRANCH  28  29
ATOM     29  C   UNL A   1      42.994  24.392  27.504  1.00  0.00     0.031 A 
ATOM     30  C   UNL A   1      44.428  24.820  27.423  1.00  0.00     0.074 A 
ATOM     31  C   UNL A   1      42.035  25.295  27.777  1.00  0.00     0.049 A 
ATOM     32  N   UNL A   1      44.960  25.985  27.685  1.00  0.00    -0.248 NA
ATOM     33  C   UNL A   1      45.387  23.803  26.966  1.00  0.00     0.031 C 
ATOM     34  C   UNL A   1      40.596  25.035  27.761  1.00  0.00     0.029 A 
ATOM     35  N   UNL A   1      42.135  26.624  28.111  1.00  0.00    -0.354 N 
ATOM     36  C   UNL A   1      46.317  25.843  27.431  1.00  0.00     0.074 A 
ATOM     37  C   UNL A   1      46.528  24.476  27.001  1.00  0.00     0.031 C 
ATOM     38  C   UNL A   1      39.947  26.168  28.086  1.00  0.00     0.029 A 
ATOM     39  C   UNL A   1      40.923  27.216  28.376  1.00  0.00     0.049 A 
ATOM     40  H   UNL A   1      42.992  27.105  28.157  1.00  0.00     0.167 HD
ATOM     41  C   UNL A   1      47.301  26.763  27.555  1.00  0.00     0.031 A 
ATOM     42  C   UNL A   1      40.642  28.452  28.833  1.00  0.00     0.031 A 
ATOM     43  C   UNL A   1      47.097  28.109  28.018  1.00  0.00     0.049 A 
ATOM     44  C   UNL A   1      41.774  29.412  29.106  1.00  0.00     0.074 A 
ATOM     45  C   UNL A   1      48.039  29.104  28.214  1.00  0.00     0.029 A 
ATOM     46  N   UNL A   1      45.869  28.644  28.371  1.00  0.00    -0.354 N 
ATOM     47  N   UNL A   1      43.057  29.262  28.889  1.00  0.00    -0.248 NA
ATOM     48  C   UNL A   1      41.413  30.712  29.693  1.00  0.00     0.031 C 
ATOM     49  C   UNL A   1      47.388  30.220  28.750  1.00  0.00     0.029 A 
ATOM     50  C   UNL A   1      46.031  29.945  28.818  1.00  0.00     0.049 A 
ATOM     51  H   UNL A   1      45.008  28.170  28.314  1.00  0.00     0.167 HD
ATOM     52  C   UNL A   1      43.652  30.456  29.281  1.00  0.00     0.074 A 
ATOM     53  C   UNL A   1      42.587  31.326  29.736  1.00  0.00     0.031 C 
ATOM     54  C   UNL A   1      44.964  30.803  29.264  1.00  0.00     0.031 A 
BRANCH  41  55
ATOM     55  C   UNL A   1      48.701  26.310  27.256  1.00  0.00    -0.014 A 
ATOM     56  C   UNL A   1      49.524  25.755  28.248  1.00  0.00     0.009 A 
ATOM     57  C   UNL A   1      49.200  26.436  25.950  1.00  0.00     0.009 A 
ATOM     58  C   UNL A   1      50.832  25.370  27.944  1.00  0.00     0.001 A 
ATOM     59  C   UNL A   1      50.497  26.023  25.643  1.00  0.00     0.001 A 
ATOM     60  C   UNL A   1      51.315  25.501  26.643  1.00  0.00     0.000 A 
ENDBRANCH  41  55
BRANCH  42  61
ATOM     61  C   UNL A   1      39.238  28.846  29.131  1.00  0.00    -0.014 A 
ATOM     62  C   UNL A   1      38.459  29.523  28.181  1.00  0.00     0.009 A 
ATOM     63  C   UNL A   1      38.686  28.592  30.398  1.00  0.00     0.009 A 
ATOM     64  C   UNL A   1      37.172  29.966  28.503  1.00  0.00     0.001 A 
ATOM     65  C   UNL A   1      37.389  29.006  30.706  1.00  0.00     0.001 A 
ATOM     66  C   UNL A   1      36.637  29.703  29.763  1.00  0.00     0.000 A 
ENDBRANCH  42  61
BRANCH  54  67
ATOM     67  C   UNL A   1      45.322  32.196  29.705  1.00  0.00    -0.014 A 
ATOM     68  C   UNL A   1      45.320  33.275  28.808  1.00  0.00     0.009 A 
ATOM     69  C   UNL A   1      45.614  32.439  31.058  1.00  0.00     0.009 A 
ATOM     70  C   UNL A   1      45.630  34.563  29.251  1.00  0.00     0.001 A 
ATOM     71  C   UNL A   1      45.890  33.732  31.504  1.00  0.00     0.001 A 
ATOM     72  C   UNL A   1      45.907  34.792  30.599  1.00  0.00     0.000 A 
ENDBRANCH  54  67
ENDBRANCH  28  29
ENDBRANCH  21  23
ENDBRANCH  20  21
ENDBRANCH   1  20
TORSDOF 12
ENDMDL
MODEL 3
REMARK VINA RESULT:      -9.7      2.682      7.273
REMARK SMILES CC1(C)S[C@@H](c2ccsc2)[NH2+][C@@H]1C(=O)OCCOC(=O)c1ccc(-c2c3nc(c(-c4ccccc4)c4ccc([nH]4)c(-c4ccccc4)c4nc(c(-c5ccccc5)c5ccc2[nH]5)C=C4)C=C3)cc1
REMARK SMILES IDX 17 1 16 2 15 3 13 4 14 5 12 6 1 7 2 8 3 9 4 10 5 11 11 12
REMARK SMILES IDX 6 15 7 16 10 17 8 18 9 19 18 20 19 21 20 22 21 23 22 24
REMARK SMILES IDX 68 25 23 26 67 27 24 28 25 29 26 30 61 31 27 32 66 33 60 34
REMARK SMILES IDX 62 35 28 36 65 37 59 38 58 39 29 41 51 42 36 43 50 44 37 45
REMARK SMILES IDX 40 46 49 47 63 48 38 49 39 50 48 52 64 53 41 54 30 55 31 56
REMARK SMILES IDX 35 57 32 58 34 59 33 60 52 61 53 62 57 63 54 64 56 65 55 66
REMARK SMILES IDX 42 67 43 68 47 69 44 70 46 71 45 72
REMARK H PARENT 11 13 11 14 62 40 40 51
REMARK Flexibility Score: inf
ROOT
ATOM      1  C   UNL A   1      38.737  19.891  24.817  1.00  0.00     0.275 C 
ENDROOT
BRANCH   1   2
ATOM      2  C   UNL A   1      37.469  20.721  25.042  1.00  0.00     0.274 C 
BRANCH   2   3
ATOM      3  O   UNL A   1      37.623  22.069  24.562  1.00  0.00    -0.458 OA
BRANCH   3   4
ATOM      4  C   UNL A   1      36.494  22.668  24.072  1.00  0.00     0.366 C 
ATOM      5  O   UNL A   1      36.294  22.857  22.880  1.00  0.00    -0.245 OA
BRANCH   4   6
ATOM      6  C   UNL A   1      35.499  22.981  25.217  1.00  0.00     0.310 C 
ATOM      7  C   UNL A   1      33.381  22.388  26.485  1.00  0.00     0.030 C 
ATOM      8  C   UNL A   1      34.053  22.425  25.094  1.00  0.00     0.079 C 
ATOM      9  C   UNL A   1      33.816  21.057  24.448  1.00  0.00     0.030 C 
ATOM     10  S   UNL A   1      33.224  23.678  24.068  1.00  0.00    -0.081 SA
ATOM     11  C   UNL A   1      34.441  24.967  24.429  1.00  0.00     0.275 C 
ATOM     12  N   UNL A   1      35.393  24.463  25.424  1.00  0.00    -0.319 N 
ATOM     13  H   UNL A   1      35.054  24.662  26.365  1.00  0.00     0.348 HD
ATOM     14  H   UNL A   1      36.303  24.912  25.316  1.00  0.00     0.348 HD
BRANCH  11  15
ATOM     15  C   UNL A   1      33.755  26.206  24.939  1.00  0.00     0.031 A 
ATOM     16  C   UNL A   1      32.956  26.308  26.137  1.00  0.00     0.022 A 
ATOM     17  C   UNL A   1      33.755  27.421  24.272  1.00  0.00     0.075 A 
ATOM     18  C   UNL A   1      32.366  27.542  26.291  1.00  0.00     0.065 A 
ATOM     19  S   UNL A   1      32.797  28.613  25.036  1.00  0.00    -0.152 S 
ENDBRANCH  11  15
ENDBRANCH   4   6
ENDBRANCH   3   4
ENDBRANCH   2   3
ENDBRANCH   1   2
BRANCH   1  20
ATOM     20  O   UNL A   1      39.364  19.507  26.057  1.00  0.00    -0.458 OA
BRANCH  20  21
ATOM     21  C   UNL A   1      40.717  19.607  26.066  1.00  0.00     0.338 C 
ATOM     22  O   UNL A   1      41.512  18.847  25.542  1.00  0.00    -0.246 OA
BRANCH  21  23
ATOM     23  C   UNL A   1      41.131  20.900  26.647  1.00  0.00     0.060 A 
ATOM     24  C   UNL A   1      41.687  21.835  25.770  1.00  0.00     0.016 A 
ATOM     25  C   UNL A   1      41.019  21.200  28.007  1.00  0.00     0.016 A 
ATOM     26  C   UNL A   1      42.070  23.091  26.226  1.00  0.00     0.010 A 
ATOM     27  C   UNL A   1      41.436  22.456  28.473  1.00  0.00     0.010 A 
ATOM     28  C   UNL A   1      41.942  23.414  27.578  1.00  0.00    -0.014 A 
BRANCH  28  29
ATOM     29  C   UNL A   1      42.444  24.729  28.039  1.00  0.00     0.031 A 
ATOM     30  C   UNL A   1      41.460  25.826  28.310  1.00  0.00     0.074 A 
ATOM     31  C   UNL A   1      43.749  24.913  28.308  1.00  0.00     0.049 A 
ATOM     32  N   UNL A   1      41.677  27.055  28.701  1.00  0.00    -0.248 NA
ATOM     33  C   UNL A   1      40.039  25.485  28.135  1.00  0.00     0.031 C 
ATOM     34  C   UNL A   1      44.789  23.888  28.208  1.00  0.00     0.029 A 
ATOM     35  N   UNL A   1      44.420  26.033  28.733  1.00  0.00    -0.354 N 
ATOM     36  C   UNL A   1      40.422  27.638  28.814  1.00  0.00     0.074 A 
ATOM     37  C   UNL A   1      39.450  26.631  28.445  1.00  0.00     0.031 C 
ATOM     38  C   UNL A   1      45.970  24.433  28.551  1.00  0.00     0.029 A 
ATOM     39  C   UNL A   1      45.777  25.851  28.847  1.00  0.00     0.049 A 
ATOM     40  H   UNL A   1      43.971  26.886  28.935  1.00  0.00     0.167 HD
ATOM     41  C   UNL A   1      40.108  28.901  29.183  1.00  0.00     0.031 A 
ATOM     42  C   UNL A   1      46.753  26.739  29.125  1.00  0.00     0.031 A 
ATOM     43  C   UNL A   1      41.076  29.912  29.514  1.00  0.00     0.049 A 
ATOM     44  C   UNL A   1      46.387  28.179  29.387  1.00  0.00     0.074 A 
ATOM     45  C   UNL A   1      40.856  31.234  29.862  1.00  0.00     0.029 A 
ATOM     46  N   UNL A   1      42.448  29.718  29.523  1.00  0.00    -0.354 N 
ATOM     47  N   UNL A   1      45.200  28.730  29.467  1.00  0.00    -0.248 NA
ATOM     48  C   UNL A   1      47.499  29.119  29.591  1.00  0.00     0.031 C 
ATOM     49  C   UNL A   1      42.099  31.856  30.016  1.00  0.00     0.029 A 
ATOM     50  C   UNL A   1      43.091  30.905  29.837  1.00  0.00     0.049 A 
ATOM     51  H   UNL A   1      42.899  28.864  29.334  1.00  0.00     0.167 HD
ATOM     52  C   UNL A   1      45.422  30.071  29.761  1.00  0.00     0.074 A 
ATOM     53  C   UNL A   1      46.856  30.246  29.861  1.00  0.00     0.031 C 
ATOM     54  C   UNL A   1      44.518  31.067  29.937  1.00  0.00     0.031 A 
BRANCH  41  55
ATOM     55  C   UNL A   1      38.654  29.275  29.168  1.00  0.00    -0.014 A 
ATOM     56  C   UNL A   1      37.846  29.136  30.308  1.00  0.00     0.009 A 
ATOM     57  C   UNL A   1      38.087  29.785  27.990  1.00  0.00     0.009 A 
ATOM     58  C   UNL A   1      36.490  29.465  30.254  1.00  0.00     0.001 A 
ATOM     59  C   UNL A   1      36.739  30.141  27.948  1.00  0.00     0.001 A 
ATOM     60  C   UNL A   1      35.939  29.970  29.077  1.00  0.00     0.000 A 
ENDBRANCH  41  55
BRANCH  42  61
ATOM     61  C   UNL A   1      48.182  26.320  29.109  1.00  0.00    -0.014 A 
ATOM     62  C   UNL A   1      48.923  26.325  27.918  1.00  0.00     0.009 A 
ATOM     63  C   UNL A   1      48.797  25.859  30.285  1.00  0.00     0.009 A 
ATOM     64  C   UNL A   1      50.237  25.847  27.898  1.00  0.00     0.001 A 
ATOM     65  C   UNL A   1      50.119  25.413  30.268  1.00  0.00     0.001 A 
ATOM     66  C   UNL A   1      50.835  25.395  29.074  1.00  0.00     0.000 A 
ENDBRANCH  42  61
BRANCH  54  67
ATOM     67  C   UNL A   1      45.044  32.429  30.301  1.00  0.00    -0.014 A 
ATOM     68  C   UNL A   1      45.329  33.393  29.322  1.00  0.00     0.009 A 
ATOM     69  C   UNL A   1      45.203  32.769  31.655  1.00  0.00     0.009 A 
ATOM     70  C   UNL A   1      45.790  34.660  29.690  1.00  0.00     0.001 A 
ATOM     71  C   UNL A   1      45.632  34.046  32.021  1.00  0.00     0.001 A 
ATOM     72  C   UNL A   1      45.933  34.987  31.039  1.00  0.00     0.000 A 
ENDBRANCH  54  67
ENDBRANCH  28  29
ENDBRANCH  21  23
ENDBRANCH  20  21
ENDBRANCH   1  20
TORSDOF 12
ENDMDL
