MODEL 1
REMARK VINA RESULT:     -12.4      0.000      0.000
REMARK SMILES CCn1c(N2CCC(C(=O)OCCOC(=O)c3ccc(-c4c5nc(c(-c6ccccc6)c6ccc([nH]6)c(-c6ccccc6)c6nc(c(-c7ccccc7)c7ccc4[nH]7)C=C6)C=C5)cc3)CC2)nc2cc(C)ccc21
REMARK SMILES IDX 12 1 11 2 9 3 10 4 8 5 5 6 6 7 66 8 7 9 65 10 4 11 3 12
REMARK SMILES IDX 74 13 67 14 68 15 73 16 69 17 72 18 70 19 71 20 2 21 1 22
REMARK SMILES IDX 13 23 14 24 15 25 16 26 17 27 18 28 64 29 19 30 63 31 20 32
REMARK SMILES IDX 21 33 22 34 57 35 23 36 62 37 56 38 58 39 24 40 61 41 55 42
REMARK SMILES IDX 54 43 25 45 47 46 32 47 46 48 33 49 36 50 45 51 59 52 34 53
REMARK SMILES IDX 35 54 44 56 60 57 37 58 26 59 27 60 31 61 28 62 30 63 29 64
REMARK SMILES IDX 48 65 49 66 53 67 50 68 52 69 51 70 38 71 39 72 43 73 40 74
REMARK SMILES IDX 42 75 41 76
REMARK H PARENT 58 44 36 55
REMARK Flexibility Score: inf
ROOT
ATOM      1  C   UNL A   1      33.943  20.663  24.573  1.00  0.00     0.274 C 
ENDROOT
BRANCH   1   2
ATOM      2  O   UNL A   1      32.683  21.365  24.513  1.00  0.00    -0.462 OA
BRANCH   2   3
ATOM      3  C   UNL A   1      32.232  21.680  23.276  1.00  0.00     0.309 C 
ATOM      4  O   UNL A   1      32.095  20.882  22.354  1.00  0.00    -0.252 OA
BRANCH   3   5
ATOM      5  C   UNL A   1      31.829  23.128  23.141  1.00  0.00     0.103 C 
ATOM      6  N   UNL A   1      31.538  25.959  23.291  1.00  0.00    -0.342 N 
ATOM      7  C   UNL A   1      30.419  25.112  23.731  1.00  0.00     0.120 C 
ATOM      8  C   UNL A   1      32.487  25.355  22.353  1.00  0.00     0.120 C 
ATOM      9  C   UNL A   1      30.885  23.722  24.185  1.00  0.00     0.037 C 
ATOM     10  C   UNL A   1      33.020  24.053  22.944  1.00  0.00     0.037 C 
BRANCH   6  11
ATOM     11  C   UNL A   1      32.047  26.839  24.187  1.00  0.00     0.206 A 
ATOM     12  N   UNL A   1      31.526  28.118  24.327  1.00  0.00    -0.310 N 
ATOM     13  C   UNL A   1      32.322  28.785  25.231  1.00  0.00     0.070 A 
ATOM     14  N   UNL A   1      33.043  26.629  25.009  1.00  0.00    -0.213 NA
ATOM     15  C   UNL A   1      33.245  27.822  25.641  1.00  0.00     0.091 A 
ATOM     16  C   UNL A   1      32.352  30.086  25.750  1.00  0.00     0.029 A 
ATOM     17  C   UNL A   1      34.222  28.144  26.596  1.00  0.00     0.034 A 
ATOM     18  C   UNL A   1      33.328  30.388  26.710  1.00  0.00     0.006 A 
ATOM     19  C   UNL A   1      34.255  29.436  27.140  1.00  0.00    -0.049 A 
ATOM     20  C   UNL A   1      35.286  29.776  28.174  1.00  0.00     0.044 C 
BRANCH  12  21
ATOM     21  C   UNL A   1      30.309  28.540  23.659  1.00  0.00     0.122 C 
ATOM     22  C   UNL A   1      30.401  29.243  22.318  1.00  0.00     0.028 C 
ENDBRANCH  12  21
ENDBRANCH   6  11
ENDBRANCH   3   5
ENDBRANCH   2   3
ENDBRANCH   1   2
BRANCH   1  23
ATOM     23  C   UNL A   1      34.795  21.227  25.713  1.00  0.00     0.275 C 
BRANCH  23  24
ATOM     24  O   UNL A   1      36.023  21.735  25.167  1.00  0.00    -0.458 OA
BRANCH  24  25
ATOM     25  C   UNL A   1      37.112  20.930  25.277  1.00  0.00     0.338 C 
ATOM     26  O   UNL A   1      37.229  19.788  24.892  1.00  0.00    -0.246 OA
BRANCH  25  27
ATOM     27  C   UNL A   1      38.248  21.825  25.599  1.00  0.00     0.060 A 
ATOM     28  C   UNL A   1      39.487  21.321  26.008  1.00  0.00     0.016 A 
ATOM     29  C   UNL A   1      37.939  23.176  25.766  1.00  0.00     0.016 A 
ATOM     30  C   UNL A   1      40.334  22.126  26.764  1.00  0.00     0.010 A 
ATOM     31  C   UNL A   1      38.781  23.969  26.534  1.00  0.00     0.010 A 
ATOM     32  C   UNL A   1      39.931  23.419  27.110  1.00  0.00    -0.014 A 
BRANCH  32  33
ATOM     33  C   UNL A   1      40.826  24.268  27.892  1.00  0.00     0.031 A 
ATOM     34  C   UNL A   1      40.272  25.623  28.094  1.00  0.00     0.074 A 
ATOM     35  C   UNL A   1      41.989  23.931  28.489  1.00  0.00     0.049 A 
ATOM     36  N   UNL A   1      40.717  26.707  27.555  1.00  0.00    -0.248 NA
ATOM     37  C   UNL A   1      39.008  25.777  28.827  1.00  0.00     0.031 C 
ATOM     38  C   UNL A   1      42.630  22.630  28.597  1.00  0.00     0.029 A 
ATOM     39  N   UNL A   1      42.820  24.718  29.235  1.00  0.00    -0.354 N 
ATOM     40  C   UNL A   1      39.871  27.714  27.992  1.00  0.00     0.074 A 
ATOM     41  C   UNL A   1      38.745  27.063  28.607  1.00  0.00     0.031 C 
ATOM     42  C   UNL A   1      43.554  22.651  29.592  1.00  0.00     0.029 A 
ATOM     43  C   UNL A   1      43.703  24.020  30.054  1.00  0.00     0.049 A 
ATOM     44  H   UNL A   1      42.795  25.701  29.197  1.00  0.00     0.167 HD
ATOM     45  C   UNL A   1      40.267  29.014  28.011  1.00  0.00     0.031 A 
ATOM     46  C   UNL A   1      44.480  24.539  31.043  1.00  0.00     0.031 A 
ATOM     47  C   UNL A   1      41.457  29.226  27.230  1.00  0.00     0.049 A 
ATOM     48  C   UNL A   1      44.653  25.982  30.750  1.00  0.00     0.074 A 
ATOM     49  C   UNL A   1      41.783  29.015  25.904  1.00  0.00     0.029 A 
ATOM     50  N   UNL A   1      42.653  29.337  27.900  1.00  0.00    -0.354 N 
ATOM     51  N   UNL A   1      45.348  26.428  29.743  1.00  0.00    -0.248 NA
ATOM     52  C   UNL A   1      43.674  26.905  31.302  1.00  0.00     0.031 C 
ATOM     53  C   UNL A   1      43.114  28.510  25.931  1.00  0.00     0.029 A 
ATOM     54  C   UNL A   1      43.552  28.526  27.256  1.00  0.00     0.049 A 
ATOM     55  H   UNL A   1      42.831  29.894  28.692  1.00  0.00     0.167 HD
ATOM     56  C   UNL A   1      44.591  27.475  29.242  1.00  0.00     0.074 A 
ATOM     57  C   UNL A   1      43.613  27.775  30.291  1.00  0.00     0.031 C 
ATOM     58  C   UNL A   1      44.621  27.811  27.919  1.00  0.00     0.031 A 
BRANCH  45  59
ATOM     59  C   UNL A   1      39.769  30.003  29.027  1.00  0.00    -0.014 A 
ATOM     60  C   UNL A   1      38.666  30.853  28.808  1.00  0.00     0.009 A 
ATOM     61  C   UNL A   1      40.257  29.926  30.340  1.00  0.00     0.009 A 
ATOM     62  C   UNL A   1      38.085  31.595  29.835  1.00  0.00     0.001 A 
ATOM     63  C   UNL A   1      39.645  30.630  31.382  1.00  0.00     0.001 A 
ATOM     64  C   UNL A   1      38.562  31.464  31.130  1.00  0.00     0.000 A 
ENDBRANCH  45  59
BRANCH  46  65
ATOM     65  C   UNL A   1      44.744  23.999  32.403  1.00  0.00    -0.014 A 
ATOM     66  C   UNL A   1      43.808  23.156  33.026  1.00  0.00     0.009 A 
ATOM     67  C   UNL A   1      45.748  24.562  33.216  1.00  0.00     0.009 A 
ATOM     68  C   UNL A   1      43.836  22.935  34.409  1.00  0.00     0.001 A 
ATOM     69  C   UNL A   1      45.771  24.342  34.602  1.00  0.00     0.001 A 
ATOM     70  C   UNL A   1      44.802  23.544  35.201  1.00  0.00     0.000 A 
ENDBRANCH  46  65
BRANCH  58  71
ATOM     71  C   UNL A   1      45.661  27.186  27.015  1.00  0.00    -0.014 A 
ATOM     72  C   UNL A   1      46.690  28.015  26.536  1.00  0.00     0.009 A 
ATOM     73  C   UNL A   1      45.538  25.901  26.456  1.00  0.00     0.009 A 
ATOM     74  C   UNL A   1      47.545  27.593  25.518  1.00  0.00     0.001 A 
ATOM     75  C   UNL A   1      46.415  25.466  25.455  1.00  0.00     0.001 A 
ATOM     76  C   UNL A   1      47.408  26.319  24.976  1.00  0.00     0.000 A 
ENDBRANCH  58  71
ENDBRANCH  32  33
ENDBRANCH  25  27
ENDBRANCH  24  25
ENDBRANCH  23  24
ENDBRANCH   1  23
TORSDOF 13
ENDMDL
MODEL 2
REMARK VINA RESULT:     -11.9      0.844      2.191
REMARK SMILES CCn1c(N2CCC(C(=O)OCCOC(=O)c3ccc(-c4c5nc(c(-c6ccccc6)c6ccc([nH]6)c(-c6ccccc6)c6nc(c(-c7ccccc7)c7ccc4[nH]7)C=C6)C=C5)cc3)CC2)nc2cc(C)ccc21
REMARK SMILES IDX 12 1 11 2 9 3 10 4 8 5 5 6 6 7 66 8 7 9 65 10 4 11 3 12
REMARK SMILES IDX 74 13 67 14 68 15 73 16 69 17 72 18 70 19 71 20 2 21 1 22
REMARK SMILES IDX 13 23 14 24 15 25 16 26 17 27 18 28 64 29 19 30 63 31 20 32
REMARK SMILES IDX 21 33 22 34 57 35 23 36 62 37 56 38 58 39 24 40 61 41 55 42
REMARK SMILES IDX 54 43 25 45 47 46 32 47 46 48 33 49 36 50 45 51 59 52 34 53
REMARK SMILES IDX 35 54 44 56 60 57 37 58 26 59 27 60 31 61 28 62 30 63 29 64
REMARK SMILES IDX 48 65 49 66 53 67 50 68 52 69 51 70 38 71 39 72 43 73 40 74
REMARK SMILES IDX 42 75 41 76
REMARK H PARENT 58 44 36 55
REMARK Flexibility Score: inf
ROOT
ATOM      1  C   UNL A   1      33.760  21.212  25.668  1.00  0.00     0.274 C 
ENDROOT
BRANCH   1   2
ATOM      2  O   UNL A   1      32.669  21.104  24.730  1.00  0.00    -0.462 OA
BRANCH   2   3
ATOM      3  C   UNL A   1      32.680  21.977  23.696  1.00  0.00     0.309 C 
ATOM      4  O   UNL A   1      32.422  21.690  22.531  1.00  0.00    -0.252 OA
BRANCH   3   5
ATOM      5  C   UNL A   1      32.979  23.395  24.118  1.00  0.00     0.103 C 
ATOM      6  N   UNL A   1      32.957  26.180  24.721  1.00  0.00    -0.342 N 
ATOM      7  C   UNL A   1      33.921  25.683  23.729  1.00  0.00     0.120 C 
ATOM      8  C   UNL A   1      32.448  25.203  25.687  1.00  0.00     0.120 C 
ATOM      9  C   UNL A   1      33.448  24.388  23.056  1.00  0.00     0.037 C 
ATOM     10  C   UNL A   1      31.857  24.014  24.935  1.00  0.00     0.037 C 
BRANCH   6  11
ATOM     11  C   UNL A   1      32.095  27.149  24.326  1.00  0.00     0.206 A 
ATOM     12  N   UNL A   1      32.138  28.426  24.867  1.00  0.00    -0.310 N 
ATOM     13  C   UNL A   1      31.078  29.129  24.338  1.00  0.00     0.070 A 
ATOM     14  N   UNL A   1      31.152  27.034  23.427  1.00  0.00    -0.213 NA
ATOM     15  C   UNL A   1      30.498  28.233  23.438  1.00  0.00     0.091 A 
ATOM     16  C   UNL A   1      30.561  30.418  24.514  1.00  0.00     0.029 A 
ATOM     17  C   UNL A   1      29.379  28.620  22.682  1.00  0.00     0.034 A 
ATOM     18  C   UNL A   1      29.451  30.791  23.745  1.00  0.00     0.006 A 
ATOM     19  C   UNL A   1      28.860  29.913  22.833  1.00  0.00    -0.049 A 
ATOM     20  C   UNL A   1      27.678  30.334  22.012  1.00  0.00     0.044 C 
BRANCH  12  21
ATOM     21  C   UNL A   1      33.201  28.860  25.753  1.00  0.00     0.122 C 
ATOM     22  C   UNL A   1      33.001  28.777  27.254  1.00  0.00     0.028 C 
ENDBRANCH  12  21
ENDBRANCH   6  11
ENDBRANCH   3   5
ENDBRANCH   2   3
ENDBRANCH   1   2
BRANCH   1  23
ATOM     23  C   UNL A   1      34.953  20.391  25.171  1.00  0.00     0.275 C 
BRANCH  23  24
ATOM     24  O   UNL A   1      36.151  21.167  25.338  1.00  0.00    -0.458 OA
BRANCH  24  25
ATOM     25  C   UNL A   1      37.325  20.485  25.280  1.00  0.00     0.338 C 
ATOM     26  O   UNL A   1      37.522  19.394  24.793  1.00  0.00    -0.246 OA
BRANCH  25  27
ATOM     27  C   UNL A   1      38.386  21.479  25.565  1.00  0.00     0.060 A 
ATOM     28  C   UNL A   1      39.697  21.089  25.859  1.00  0.00     0.016 A 
ATOM     29  C   UNL A   1      37.957  22.782  25.822  1.00  0.00     0.016 A 
ATOM     30  C   UNL A   1      40.514  21.944  26.593  1.00  0.00     0.010 A 
ATOM     31  C   UNL A   1      38.770  23.624  26.566  1.00  0.00     0.010 A 
ATOM     32  C   UNL A   1      40.010  23.172  27.031  1.00  0.00    -0.014 A 
BRANCH  32  33
ATOM     33  C   UNL A   1      40.873  24.075  27.790  1.00  0.00     0.031 A 
ATOM     34  C   UNL A   1      40.273  25.417  27.945  1.00  0.00     0.074 A 
ATOM     35  C   UNL A   1      42.043  23.797  28.403  1.00  0.00     0.049 A 
ATOM     36  N   UNL A   1      40.684  26.497  27.373  1.00  0.00    -0.248 NA
ATOM     37  C   UNL A   1      39.000  25.552  28.666  1.00  0.00     0.031 C 
ATOM     38  C   UNL A   1      42.725  22.521  28.556  1.00  0.00     0.029 A 
ATOM     39  N   UNL A   1      42.842  24.634  29.127  1.00  0.00    -0.354 N 
ATOM     40  C   UNL A   1      39.804  27.489  27.773  1.00  0.00     0.074 A 
ATOM     41  C   UNL A   1      38.695  26.821  28.403  1.00  0.00     0.031 C 
ATOM     42  C   UNL A   1      43.642  22.606  29.554  1.00  0.00     0.029 A 
ATOM     43  C   UNL A   1      43.743  23.993  29.973  1.00  0.00     0.049 A 
ATOM     44  H   UNL A   1      42.785  25.614  29.057  1.00  0.00     0.167 HD
ATOM     45  C   UNL A   1      40.156  28.801  27.753  1.00  0.00     0.031 A 
ATOM     46  C   UNL A   1      44.496  24.569  30.947  1.00  0.00     0.031 A 
ATOM     47  C   UNL A   1      41.343  29.028  26.970  1.00  0.00     0.049 A 
ATOM     48  C   UNL A   1      44.623  26.007  30.609  1.00  0.00     0.074 A 
ATOM     49  C   UNL A   1      41.684  28.785  25.654  1.00  0.00     0.029 A 
ATOM     50  N   UNL A   1      42.531  29.200  27.642  1.00  0.00    -0.354 N 
ATOM     51  N   UNL A   1      45.309  26.442  29.591  1.00  0.00    -0.248 NA
ATOM     52  C   UNL A   1      43.611  26.914  31.126  1.00  0.00     0.031 C 
ATOM     53  C   UNL A   1      43.030  28.326  25.703  1.00  0.00     0.029 A 
ATOM     54  C   UNL A   1      43.460  28.398  27.029  1.00  0.00     0.049 A 
ATOM     55  H   UNL A   1      42.686  29.788  28.416  1.00  0.00     0.167 HD
ATOM     56  C   UNL A   1      44.521  27.447  29.054  1.00  0.00     0.074 A 
ATOM     57  C   UNL A   1      43.527  27.748  30.087  1.00  0.00     0.031 C 
ATOM     58  C   UNL A   1      44.548  27.741  27.720  1.00  0.00     0.031 A 
BRANCH  45  59
ATOM     59  C   UNL A   1      39.620  29.806  28.733  1.00  0.00    -0.014 A 
ATOM     60  C   UNL A   1      38.416  30.513  28.540  1.00  0.00     0.009 A 
ATOM     61  C   UNL A   1      40.202  29.882  30.007  1.00  0.00     0.009 A 
ATOM     62  C   UNL A   1      37.826  31.265  29.556  1.00  0.00     0.001 A 
ATOM     63  C   UNL A   1      39.587  30.593  31.043  1.00  0.00     0.001 A 
ATOM     64  C   UNL A   1      38.401  31.285  30.817  1.00  0.00     0.000 A 
ENDBRANCH  45  59
BRANCH  46  65
ATOM     65  C   UNL A   1      44.770  24.081  32.325  1.00  0.00    -0.014 A 
ATOM     66  C   UNL A   1      43.856  23.235  32.974  1.00  0.00     0.009 A 
ATOM     67  C   UNL A   1      45.755  24.699  33.122  1.00  0.00     0.009 A 
ATOM     68  C   UNL A   1      43.884  23.061  34.364  1.00  0.00     0.001 A 
ATOM     69  C   UNL A   1      45.780  24.526  34.515  1.00  0.00     0.001 A 
ATOM     70  C   UNL A   1      44.831  23.722  35.137  1.00  0.00     0.000 A 
ENDBRANCH  46  65
BRANCH  58  71
ATOM     71  C   UNL A   1      45.613  27.123  26.841  1.00  0.00    -0.014 A 
ATOM     72  C   UNL A   1      45.402  25.809  26.389  1.00  0.00     0.009 A 
ATOM     73  C   UNL A   1      46.881  27.694  26.634  1.00  0.00     0.009 A 
ATOM     74  C   UNL A   1      46.425  25.079  25.783  1.00  0.00     0.001 A 
ATOM     75  C   UNL A   1      47.899  26.973  25.997  1.00  0.00     0.001 A 
ATOM     76  C   UNL A   1      47.674  25.660  25.586  1.00  0.00     0.000 A 
ENDBRANCH  58  71
ENDBRANCH  32  33
ENDBRANCH  25  27
ENDBRANCH  24  25
ENDBRANCH  23  24
ENDBRANCH   1  23
TORSDOF 13
ENDMDL
MODEL 3
REMARK VINA RESULT:     -11.9      3.196      6.757
REMARK SMILES CCn1c(N2CCC(C(=O)OCCOC(=O)c3ccc(-c4c5nc(c(-c6ccccc6)c6ccc([nH]6)c(-c6ccccc6)c6nc(c(-c7ccccc7)c7ccc4[nH]7)C=C6)C=C5)cc3)CC2)nc2cc(C)ccc21
REMARK SMILES IDX 12 1 11 2 9 3 10 4 8 5 5 6 6 7 66 8 7 9 65 10 4 11 3 12
REMARK SMILES IDX 74 13 67 14 68 15 73 16 69 17 72 18 70 19 71 20 2 21 1 22
REMARK SMILES IDX 13 23 14 24 15 25 16 26 17 27 18 28 64 29 19 30 63 31 20 32
REMARK SMILES IDX 21 33 22 34 57 35 23 36 62 37 56 38 58 39 24 40 61 41 55 42
REMARK SMILES IDX 54 43 25 45 47 46 32 47 46 48 33 49 36 50 45 51 59 52 34 53
REMARK SMILES IDX 35 54 44 56 60 57 37 58 26 59 27 60 31 61 28 62 30 63 29 64
REMARK SMILES IDX 48 65 49 66 53 67 50 68 52 69 51 70 38 71 39 72 43 73 40 74
REMARK SMILES IDX 42 75 41 76
REMARK H PARENT 58 44 36 55
REMARK Flexibility Score: inf
ROOT
ATOM      1  C   UNL A   1      33.154  29.985  26.237  1.00  0.00     0.274 C 
ENDROOT
BRANCH   1   2
ATOM      2  O   UNL A   1      31.962  29.182  26.367  1.00  0.00    -0.462 OA
BRANCH   2   3
ATOM      3  C   UNL A   1      31.335  28.848  25.215  1.00  0.00     0.309 C 
ATOM      4  O   UNL A   1      30.824  29.647  24.436  1.00  0.00    -0.252 OA
BRANCH   3   5
ATOM      5  C   UNL A   1      31.379  27.368  24.923  1.00  0.00     0.103 C 
ATOM      6  N   UNL A   1      32.022  24.605  24.648  1.00  0.00    -0.342 N 
ATOM      7  C   UNL A   1      31.819  25.404  23.431  1.00  0.00     0.120 C 
ATOM      8  C   UNL A   1      31.396  25.108  25.874  1.00  0.00     0.120 C 
ATOM      9  C   UNL A   1      32.099  26.896  23.661  1.00  0.00     0.037 C 
ATOM     10  C   UNL A   1      31.845  26.547  26.114  1.00  0.00     0.037 C 
BRANCH   6  11
ATOM     11  C   UNL A   1      33.212  23.971  24.790  1.00  0.00     0.206 A 
ATOM     12  N   UNL A   1      33.339  22.607  24.569  1.00  0.00    -0.310 N 
ATOM     13  C   UNL A   1      34.632  22.261  24.895  1.00  0.00     0.070 A 
ATOM     14  N   UNL A   1      34.351  24.516  25.131  1.00  0.00    -0.213 NA
ATOM     15  C   UNL A   1      35.231  23.477  25.228  1.00  0.00     0.091 A 
ATOM     16  C   UNL A   1      35.355  21.062  24.933  1.00  0.00     0.029 A 
ATOM     17  C   UNL A   1      36.584  23.516  25.601  1.00  0.00     0.034 A 
ATOM     18  C   UNL A   1      36.706  21.120  25.298  1.00  0.00     0.006 A 
ATOM     19  C   UNL A   1      37.327  22.328  25.626  1.00  0.00    -0.049 A 
ATOM     20  C   UNL A   1      38.777  22.371  26.006  1.00  0.00     0.044 C 
BRANCH  12  21
ATOM     21  C   UNL A   1      32.267  21.805  24.011  1.00  0.00     0.122 C 
ATOM     22  C   UNL A   1      32.198  21.593  22.511  1.00  0.00     0.028 C 
ENDBRANCH  12  21
ENDBRANCH   6  11
ENDBRANCH   3   5
ENDBRANCH   2   3
ENDBRANCH   1   2
BRANCH   1  23
ATOM     23  C   UNL A   1      33.023  31.248  27.093  1.00  0.00     0.275 C 
BRANCH  23  24
ATOM     24  O   UNL A   1      34.023  31.214  28.124  1.00  0.00    -0.458 OA
BRANCH  24  25
ATOM     25  C   UNL A   1      35.128  31.980  27.920  1.00  0.00     0.338 C 
ATOM     26  O   UNL A   1      35.168  33.145  27.593  1.00  0.00    -0.246 OA
BRANCH  25  27
ATOM     27  C   UNL A   1      36.252  31.245  28.545  1.00  0.00     0.060 A 
ATOM     28  C   UNL A   1      37.382  31.910  29.034  1.00  0.00     0.016 A 
ATOM     29  C   UNL A   1      36.269  29.863  28.352  1.00  0.00     0.016 A 
ATOM     30  C   UNL A   1      38.586  31.222  29.138  1.00  0.00     0.010 A 
ATOM     31  C   UNL A   1      37.476  29.185  28.443  1.00  0.00     0.010 A 
ATOM     32  C   UNL A   1      38.651  29.881  28.745  1.00  0.00    -0.014 A 
BRANCH  32  33
ATOM     33  C   UNL A   1      39.913  29.155  28.867  1.00  0.00     0.031 A 
ATOM     34  C   UNL A   1      40.216  28.799  30.269  1.00  0.00     0.074 A 
ATOM     35  C   UNL A   1      40.729  28.725  27.882  1.00  0.00     0.049 A 
ATOM     36  N   UNL A   1      41.152  29.312  30.992  1.00  0.00    -0.248 NA
ATOM     37  C   UNL A   1      39.297  27.913  30.996  1.00  0.00     0.031 C 
ATOM     38  C   UNL A   1      40.547  28.781  26.440  1.00  0.00     0.029 A 
ATOM     39  N   UNL A   1      41.901  28.031  27.992  1.00  0.00    -0.354 N 
ATOM     40  C   UNL A   1      41.035  28.712  32.235  1.00  0.00     0.074 A 
ATOM     41  C   UNL A   1      39.777  28.013  32.234  1.00  0.00     0.031 C 
ATOM     42  C   UNL A   1      41.388  27.903  25.834  1.00  0.00     0.029 A 
ATOM     43  C   UNL A   1      42.298  27.371  26.833  1.00  0.00     0.049 A 
ATOM     44  H   UNL A   1      42.422  28.000  28.826  1.00  0.00     0.167 HD
ATOM     45  C   UNL A   1      42.084  28.652  33.096  1.00  0.00     0.031 A 
ATOM     46  C   UNL A   1      43.292  26.449  26.721  1.00  0.00     0.031 A 
ATOM     47  C   UNL A   1      43.142  29.553  32.719  1.00  0.00     0.049 A 
ATOM     48  C   UNL A   1      44.217  26.663  27.860  1.00  0.00     0.074 A 
ATOM     49  C   UNL A   1      43.214  30.919  32.527  1.00  0.00     0.029 A 
ATOM     50  N   UNL A   1      44.238  29.024  32.079  1.00  0.00    -0.354 N 
ATOM     51  N   UNL A   1      44.978  27.713  27.973  1.00  0.00    -0.248 NA
ATOM     52  C   UNL A   1      43.949  25.938  29.092  1.00  0.00     0.031 C 
ATOM     53  C   UNL A   1      44.041  31.084  31.381  1.00  0.00     0.029 A 
ATOM     54  C   UNL A   1      44.495  29.823  30.994  1.00  0.00     0.049 A 
ATOM     55  H   UNL A   1      44.743  28.223  32.348  1.00  0.00     0.167 HD
ATOM     56  C   UNL A   1      44.898  28.049  29.315  1.00  0.00     0.074 A 
ATOM     57  C   UNL A   1      44.317  26.874  29.970  1.00  0.00     0.031 C 
ATOM     58  C   UNL A   1      45.028  29.341  29.738  1.00  0.00     0.031 A 
BRANCH  45  59
ATOM     59  C   UNL A   1      42.281  27.521  34.065  1.00  0.00    -0.014 A 
ATOM     60  C   UNL A   1      43.157  26.441  33.832  1.00  0.00     0.009 A 
ATOM     61  C   UNL A   1      41.763  27.646  35.363  1.00  0.00     0.009 A 
ATOM     62  C   UNL A   1      43.493  25.529  34.832  1.00  0.00     0.001 A 
ATOM     63  C   UNL A   1      42.138  26.763  36.381  1.00  0.00     0.001 A 
ATOM     64  C   UNL A   1      43.001  25.705  36.115  1.00  0.00     0.000 A 
ENDBRANCH  45  59
BRANCH  46  65
ATOM     65  C   UNL A   1      43.296  25.170  25.963  1.00  0.00    -0.014 A 
ATOM     66  C   UNL A   1      42.393  24.146  26.294  1.00  0.00     0.009 A 
ATOM     67  C   UNL A   1      44.388  24.827  25.140  1.00  0.00     0.009 A 
ATOM     68  C   UNL A   1      42.603  22.826  25.874  1.00  0.00     0.001 A 
ATOM     69  C   UNL A   1      44.599  23.503  24.724  1.00  0.00     0.001 A 
ATOM     70  C   UNL A   1      43.716  22.499  25.108  1.00  0.00     0.000 A 
ENDBRANCH  46  65
BRANCH  58  71
ATOM     71  C   UNL A   1      45.489  30.402  28.764  1.00  0.00    -0.014 A 
ATOM     72  C   UNL A   1      44.529  30.955  27.899  1.00  0.00     0.009 A 
ATOM     73  C   UNL A   1      46.842  30.706  28.525  1.00  0.00     0.009 A 
ATOM     74  C   UNL A   1      44.902  31.753  26.818  1.00  0.00     0.001 A 
ATOM     75  C   UNL A   1      47.214  31.533  27.458  1.00  0.00     0.001 A 
ATOM     76  C   UNL A   1      46.245  32.043  26.596  1.00  0.00     0.000 A 
ENDBRANCH  58  71
ENDBRANCH  32  33
ENDBRANCH  25  27
ENDBRANCH  24  25
ENDBRANCH  23  24
ENDBRANCH   1  23
TORSDOF 13
ENDMDL
