MODEL 1
REMARK VINA RESULT:     -11.6      0.000      0.000
REMARK SMILES COc1ccc(-c2ccc3n(c2=O)C[C@H]2C[C@@H]3CN(C(=O)CCCC(=O)OCCOC(=O)c3ccc(-c4c5nc(c(-c6ccccc6)c6ccc([nH]6)c(-c6ccccc6)c6nc(c(-c7ccccc7)c7ccc4[nH]7)C=C6)C=C5)cc3)C2)cc1
REMARK SMILES IDX 25 1 26 2 24 3 23 4 22 5 20 6 21 7 19 8 7 9 8 10 12 11 9 12
REMARK SMILES IDX 11 13 13 14 10 15 14 16 17 17 15 18 16 19 18 20 81 21 6 22
REMARK SMILES IDX 3 23 4 24 83 25 5 26 82 27 2 28 1 29 27 30 28 31 29 32 30 33
REMARK SMILES IDX 31 34 32 35 33 36 34 37 80 38 35 39 79 40 36 41 37 42 38 43
REMARK SMILES IDX 73 44 39 45 78 46 72 47 74 48 40 49 77 50 71 51 70 52 41 54
REMARK SMILES IDX 63 55 48 56 62 57 49 58 52 59 61 60 75 61 50 62 51 63 60 65
REMARK SMILES IDX 76 66 53 67 42 68 43 69 47 70 44 71 46 72 45 73 64 74 65 75
REMARK SMILES IDX 69 76 66 77 68 78 67 79 54 80 55 81 59 82 56 83 58 84 57 85
REMARK H PARENT 74 53 52 64
REMARK Flexibility Score: inf
ROOT
ATOM      1  C   UNL A   1      36.540  22.783  23.982  1.00  0.00     0.305 C 
ATOM      2  O   UNL A   1      36.507  23.036  22.783  1.00  0.00    -0.252 OA
ENDROOT
BRANCH   1   3
ATOM      3  C   UNL A   1      35.438  23.210  24.931  1.00  0.00     0.123 C 
BRANCH   3   4
ATOM      4  C   UNL A   1      34.761  24.541  24.640  1.00  0.00     0.022 C 
BRANCH   4   5
ATOM      5  C   UNL A   1      34.421  25.385  25.868  1.00  0.00     0.101 C 
BRANCH   5   6
ATOM      6  C   UNL A   1      33.674  26.669  25.548  1.00  0.00     0.222 C 
ATOM      7  O   UNL A   1      34.230  27.748  25.770  1.00  0.00    -0.275 OA
BRANCH   6   8
ATOM      8  N   UNL A   1      32.412  26.595  24.971  1.00  0.00    -0.342 N 
ATOM      9  C   UNL A   1      32.118  21.431  24.292  1.00  0.00     0.047 A 
ATOM     10  C   UNL A   1      31.513  21.698  25.461  1.00  0.00     0.016 A 
ATOM     11  C   UNL A   1      32.188  22.523  23.255  1.00  0.00     0.258 A 
ATOM     12  C   UNL A   1      30.901  22.968  25.720  1.00  0.00     0.023 A 
ATOM     13  N   UNL A   1      31.560  23.741  23.580  1.00  0.00    -0.311 N 
ATOM     14  O   UNL A   1      32.757  22.330  22.180  1.00  0.00    -0.269 OA
ATOM     15  C   UNL A   1      30.922  23.946  24.801  1.00  0.00     0.026 A 
ATOM     16  C   UNL A   1      31.537  24.763  22.531  1.00  0.00     0.131 C 
ATOM     17  C   UNL A   1      30.281  25.288  25.098  1.00  0.00     0.056 C 
ATOM     18  C   UNL A   1      31.011  26.154  22.924  1.00  0.00     0.029 C 
ATOM     19  C   UNL A   1      29.795  25.970  23.820  1.00  0.00     0.019 C 
ATOM     20  C   UNL A   1      31.293  26.191  25.824  1.00  0.00     0.129 C 
ATOM     21  C   UNL A   1      32.041  27.055  23.635  1.00  0.00     0.125 C 
BRANCH   9  22
ATOM     22  C   UNL A   1      32.680  20.085  24.066  1.00  0.00    -0.013 A 
ATOM     23  C   UNL A   1      33.681  17.484  23.646  1.00  0.00     0.118 A 
ATOM     24  C   UNL A   1      34.199  18.289  24.662  1.00  0.00     0.047 A 
ATOM     25  C   UNL A   1      32.651  17.972  22.844  1.00  0.00     0.047 A 
ATOM     26  C   UNL A   1      33.712  19.585  24.866  1.00  0.00     0.013 A 
ATOM     27  C   UNL A   1      32.158  19.266  23.052  1.00  0.00     0.013 A 
BRANCH  23  28
ATOM     28  O   UNL A   1      34.228  16.233  23.549  1.00  0.00    -0.497 OA
ATOM     29  C   UNL A   1      34.865  15.744  24.724  1.00  0.00     0.278 C 
ENDBRANCH  23  28
ENDBRANCH   9  22
ENDBRANCH   6   8
ENDBRANCH   5   6
ENDBRANCH   4   5
ENDBRANCH   3   4
ENDBRANCH   1   3
BRANCH   1  30
ATOM     30  O   UNL A   1      37.556  22.117  24.586  1.00  0.00    -0.462 OA
BRANCH  30  31
ATOM     31  C   UNL A   1      37.310  20.726  24.867  1.00  0.00     0.274 C 
BRANCH  31  32
ATOM     32  C   UNL A   1      38.609  19.920  24.896  1.00  0.00     0.275 C 
BRANCH  32  33
ATOM     33  O   UNL A   1      39.303  20.077  26.145  1.00  0.00    -0.458 OA
BRANCH  33  34
ATOM     34  C   UNL A   1      40.633  19.855  26.090  1.00  0.00     0.338 C 
ATOM     35  O   UNL A   1      41.212  18.874  25.635  1.00  0.00    -0.246 OA
BRANCH  34  36
ATOM     36  C   UNL A   1      41.346  21.039  26.565  1.00  0.00     0.060 A 
ATOM     37  C   UNL A   1      41.561  21.194  27.937  1.00  0.00     0.016 A 
ATOM     38  C   UNL A   1      41.706  22.041  25.666  1.00  0.00     0.016 A 
ATOM     39  C   UNL A   1      42.115  22.363  28.433  1.00  0.00     0.010 A 
ATOM     40  C   UNL A   1      42.273  23.213  26.162  1.00  0.00     0.010 A 
ATOM     41  C   UNL A   1      42.459  23.381  27.547  1.00  0.00    -0.014 A 
BRANCH  41  42
ATOM     42  C   UNL A   1      42.930  24.672  28.073  1.00  0.00     0.031 A 
ATOM     43  C   UNL A   1      41.916  25.707  28.442  1.00  0.00     0.074 A 
ATOM     44  C   UNL A   1      44.246  24.898  28.213  1.00  0.00     0.049 A 
ATOM     45  N   UNL A   1      42.086  26.976  28.695  1.00  0.00    -0.248 NA
ATOM     46  C   UNL A   1      40.517  25.252  28.529  1.00  0.00     0.031 C 
ATOM     47  C   UNL A   1      45.305  23.913  27.986  1.00  0.00     0.029 A 
ATOM     48  N   UNL A   1      44.914  26.039  28.565  1.00  0.00    -0.354 N 
ATOM     49  C   UNL A   1      40.814  27.483  28.923  1.00  0.00     0.074 A 
ATOM     50  C   UNL A   1      39.882  26.385  28.787  1.00  0.00     0.031 C 
ATOM     51  C   UNL A   1      46.494  24.500  28.188  1.00  0.00     0.029 A 
ATOM     52  C   UNL A   1      46.278  25.911  28.486  1.00  0.00     0.049 A 
ATOM     53  H   UNL A   1      44.462  26.867  28.846  1.00  0.00     0.167 HD
ATOM     54  C   UNL A   1      40.465  28.758  29.205  1.00  0.00     0.031 A 
ATOM     55  C   UNL A   1      47.237  26.849  28.588  1.00  0.00     0.031 A 
ATOM     56  C   UNL A   1      41.418  29.827  29.339  1.00  0.00     0.049 A 
ATOM     57  C   UNL A   1      46.823  28.274  28.817  1.00  0.00     0.074 A 
ATOM     58  C   UNL A   1      41.189  31.164  29.603  1.00  0.00     0.029 A 
ATOM     59  N   UNL A   1      42.791  29.666  29.226  1.00  0.00    -0.354 N 
ATOM     60  N   UNL A   1      45.616  28.768  28.967  1.00  0.00    -0.248 NA
ATOM     61  C   UNL A   1      47.896  29.273  28.874  1.00  0.00     0.031 C 
ATOM     62  C   UNL A   1      42.424  31.821  29.610  1.00  0.00     0.029 A 
ATOM     63  C   UNL A   1      43.424  30.883  29.398  1.00  0.00     0.049 A 
ATOM     64  H   UNL A   1      43.248  28.813  29.049  1.00  0.00     0.167 HD
ATOM     65  C   UNL A   1      45.786  30.132  29.158  1.00  0.00     0.074 A 
ATOM     66  C   UNL A   1      47.213  30.384  29.113  1.00  0.00     0.031 C 
ATOM     67  C   UNL A   1      44.848  31.092  29.352  1.00  0.00     0.031 A 
BRANCH  54  68
ATOM     68  C   UNL A   1      39.000  29.064  29.316  1.00  0.00    -0.014 A 
ATOM     69  C   UNL A   1      38.245  29.464  28.203  1.00  0.00     0.009 A 
ATOM     70  C   UNL A   1      38.365  28.949  30.563  1.00  0.00     0.009 A 
ATOM     71  C   UNL A   1      36.890  29.774  28.344  1.00  0.00     0.001 A 
ATOM     72  C   UNL A   1      37.005  29.236  30.696  1.00  0.00     0.001 A 
ATOM     73  C   UNL A   1      36.272  29.657  29.588  1.00  0.00     0.000 A 
ENDBRANCH  54  68
BRANCH  55  74
ATOM     74  C   UNL A   1      48.662  26.473  28.405  1.00  0.00    -0.014 A 
ATOM     75  C   UNL A   1      49.452  26.112  29.506  1.00  0.00     0.009 A 
ATOM     76  C   UNL A   1      49.236  26.457  27.123  1.00  0.00     0.009 A 
ATOM     77  C   UNL A   1      50.791  25.756  29.326  1.00  0.00     0.001 A 
ATOM     78  C   UNL A   1      50.566  26.075  26.944  1.00  0.00     0.001 A 
ATOM     79  C   UNL A   1      51.346  25.732  28.046  1.00  0.00     0.000 A 
ENDBRANCH  55  74
BRANCH  67  80
ATOM     80  C   UNL A   1      45.345  32.489  29.570  1.00  0.00    -0.014 A 
ATOM     81  C   UNL A   1      45.675  32.950  30.853  1.00  0.00     0.009 A 
ATOM     82  C   UNL A   1      45.538  33.333  28.466  1.00  0.00     0.009 A 
ATOM     83  C   UNL A   1      46.171  34.242  31.028  1.00  0.00     0.001 A 
ATOM     84  C   UNL A   1      46.056  34.615  28.641  1.00  0.00     0.001 A 
ATOM     85  C   UNL A   1      46.366  35.071  29.922  1.00  0.00     0.000 A 
ENDBRANCH  67  80
ENDBRANCH  41  42
ENDBRANCH  34  36
ENDBRANCH  33  34
ENDBRANCH  32  33
ENDBRANCH  31  32
ENDBRANCH  30  31
ENDBRANCH   1  30
TORSDOF 17
ENDMDL
MODEL 2
REMARK VINA RESULT:     -11.4      0.807      5.701
REMARK SMILES COc1ccc(-c2ccc3n(c2=O)C[C@H]2C[C@@H]3CN(C(=O)CCCC(=O)OCCOC(=O)c3ccc(-c4c5nc(c(-c6ccccc6)c6ccc([nH]6)c(-c6ccccc6)c6nc(c(-c7ccccc7)c7ccc4[nH]7)C=C6)C=C5)cc3)C2)cc1
REMARK SMILES IDX 25 1 26 2 24 3 23 4 22 5 20 6 21 7 19 8 7 9 8 10 12 11 9 12
REMARK SMILES IDX 11 13 13 14 10 15 14 16 17 17 15 18 16 19 18 20 81 21 6 22
REMARK SMILES IDX 3 23 4 24 83 25 5 26 82 27 2 28 1 29 27 30 28 31 29 32 30 33
REMARK SMILES IDX 31 34 32 35 33 36 34 37 80 38 35 39 79 40 36 41 37 42 38 43
REMARK SMILES IDX 73 44 39 45 78 46 72 47 74 48 40 49 77 50 71 51 70 52 41 54
REMARK SMILES IDX 63 55 48 56 62 57 49 58 52 59 61 60 75 61 50 62 51 63 60 65
REMARK SMILES IDX 76 66 53 67 42 68 43 69 47 70 44 71 46 72 45 73 64 74 65 75
REMARK SMILES IDX 69 76 66 77 68 78 67 79 54 80 55 81 59 82 56 83 58 84 57 85
REMARK H PARENT 74 53 52 64
REMARK Flexibility Score: inf
ROOT
ATOM      1  C   UNL A   1      36.315  22.532  24.980  1.00  0.00     0.305 C 
ATOM      2  O   UNL A   1      36.234  22.737  23.774  1.00  0.00    -0.252 OA
ENDROOT
BRANCH   1   3
ATOM      3  C   UNL A   1      35.739  23.488  26.006  1.00  0.00     0.123 C 
BRANCH   3   4
ATOM      4  C   UNL A   1      34.513  24.285  25.586  1.00  0.00     0.022 C 
BRANCH   4   5
ATOM      5  C   UNL A   1      34.776  25.742  25.210  1.00  0.00     0.101 C 
BRANCH   5   6
ATOM      6  C   UNL A   1      33.689  26.703  25.660  1.00  0.00     0.222 C 
ATOM      7  O   UNL A   1      33.969  27.562  26.501  1.00  0.00    -0.275 OA
BRANCH   6   8
ATOM      8  N   UNL A   1      32.429  26.624  25.080  1.00  0.00    -0.342 N 
ATOM      9  C   UNL A   1      32.175  21.462  24.368  1.00  0.00     0.047 A 
ATOM     10  C   UNL A   1      31.566  21.717  25.538  1.00  0.00     0.016 A 
ATOM     11  C   UNL A   1      32.238  22.561  23.338  1.00  0.00     0.258 A 
ATOM     12  C   UNL A   1      30.944  22.981  25.804  1.00  0.00     0.023 A 
ATOM     13  N   UNL A   1      31.600  23.772  23.670  1.00  0.00    -0.311 N 
ATOM     14  O   UNL A   1      32.810  22.379  22.263  1.00  0.00    -0.269 OA
ATOM     15  C   UNL A   1      30.958  23.965  24.891  1.00  0.00     0.026 A 
ATOM     16  C   UNL A   1      31.571  24.801  22.628  1.00  0.00     0.131 C 
ATOM     17  C   UNL A   1      30.307  25.299  25.196  1.00  0.00     0.056 C 
ATOM     18  C   UNL A   1      31.034  26.185  23.028  1.00  0.00     0.029 C 
ATOM     19  C   UNL A   1      29.818  25.986  23.921  1.00  0.00     0.019 C 
ATOM     20  C   UNL A   1      31.311  26.206  25.929  1.00  0.00     0.129 C 
ATOM     21  C   UNL A   1      32.056  27.089  23.747  1.00  0.00     0.125 C 
BRANCH   9  22
ATOM     22  C   UNL A   1      32.747  20.122  24.135  1.00  0.00    -0.013 A 
ATOM     23  C   UNL A   1      33.771  17.530  23.707  1.00  0.00     0.118 A 
ATOM     24  C   UNL A   1      34.357  18.380  24.647  1.00  0.00     0.047 A 
ATOM     25  C   UNL A   1      32.662  17.969  22.987  1.00  0.00     0.047 A 
ATOM     26  C   UNL A   1      33.859  19.671  24.854  1.00  0.00     0.013 A 
ATOM     27  C   UNL A   1      32.158  19.258  23.198  1.00  0.00     0.013 A 
BRANCH  23  28
ATOM     28  O   UNL A   1      34.338  16.290  23.601  1.00  0.00    -0.497 OA
ATOM     29  C   UNL A   1      34.895  15.759  24.798  1.00  0.00     0.278 C 
ENDBRANCH  23  28
ENDBRANCH   9  22
ENDBRANCH   6   8
ENDBRANCH   5   6
ENDBRANCH   4   5
ENDBRANCH   3   4
ENDBRANCH   1   3
BRANCH   1  30
ATOM     30  O   UNL A   1      36.934  21.453  25.523  1.00  0.00    -0.462 OA
BRANCH  30  31
ATOM     31  C   UNL A   1      38.374  21.495  25.522  1.00  0.00     0.274 C 
BRANCH  31  32
ATOM     32  C   UNL A   1      38.976  20.100  25.354  1.00  0.00     0.275 C 
BRANCH  32  33
ATOM     33  O   UNL A   1      39.866  19.773  26.436  1.00  0.00    -0.458 OA
BRANCH  33  34
ATOM     34  C   UNL A   1      41.179  19.822  26.128  1.00  0.00     0.338 C 
ATOM     35  O   UNL A   1      41.844  18.976  25.537  1.00  0.00    -0.246 OA
BRANCH  34  36
ATOM     36  C   UNL A   1      41.722  21.126  26.506  1.00  0.00     0.060 A 
ATOM     37  C   UNL A   1      41.650  21.525  27.843  1.00  0.00     0.016 A 
ATOM     38  C   UNL A   1      42.203  21.990  25.525  1.00  0.00     0.016 A 
ATOM     39  C   UNL A   1      42.033  22.803  28.215  1.00  0.00     0.010 A 
ATOM     40  C   UNL A   1      42.599  23.272  25.899  1.00  0.00     0.010 A 
ATOM     41  C   UNL A   1      42.496  23.685  27.241  1.00  0.00    -0.014 A 
BRANCH  41  42
ATOM     42  C   UNL A   1      42.785  25.081  27.604  1.00  0.00     0.031 A 
ATOM     43  C   UNL A   1      44.212  25.491  27.788  1.00  0.00     0.074 A 
ATOM     44  C   UNL A   1      41.778  25.954  27.762  1.00  0.00     0.049 A 
ATOM     45  N   UNL A   1      44.695  26.576  28.329  1.00  0.00    -0.248 NA
ATOM     46  C   UNL A   1      45.233  24.544  27.305  1.00  0.00     0.031 C 
ATOM     47  C   UNL A   1      40.364  25.677  27.497  1.00  0.00     0.029 A 
ATOM     48  N   UNL A   1      41.792  27.249  28.203  1.00  0.00    -0.354 N 
ATOM     49  C   UNL A   1      46.074  26.424  28.296  1.00  0.00     0.074 A 
ATOM     50  C   UNL A   1      46.353  25.147  27.677  1.00  0.00     0.031 C 
ATOM     51  C   UNL A   1      39.645  26.768  27.797  1.00  0.00     0.029 A 
ATOM     52  C   UNL A   1      40.537  27.786  28.340  1.00  0.00     0.049 A 
ATOM     53  H   UNL A   1      42.619  27.746  28.400  1.00  0.00     0.167 HD
ATOM     54  C   UNL A   1      47.016  27.276  28.760  1.00  0.00     0.031 A 
ATOM     55  C   UNL A   1      40.155  28.948  28.899  1.00  0.00     0.031 A 
ATOM     56  C   UNL A   1      46.706  28.543  29.366  1.00  0.00     0.049 A 
ATOM     57  C   UNL A   1      41.211  29.841  29.484  1.00  0.00     0.074 A 
ATOM     58  C   UNL A   1      47.568  29.485  29.893  1.00  0.00     0.029 A 
ATOM     59  N   UNL A   1      45.420  29.042  29.515  1.00  0.00    -0.354 N 
ATOM     60  N   UNL A   1      42.512  29.670  29.516  1.00  0.00    -0.248 NA
ATOM     61  C   UNL A   1      40.749  31.078  30.127  1.00  0.00     0.031 C 
ATOM     62  C   UNL A   1      46.800  30.540  30.398  1.00  0.00     0.029 A 
ATOM     63  C   UNL A   1      45.463  30.274  30.141  1.00  0.00     0.049 A 
ATOM     64  H   UNL A   1      44.599  28.588  29.218  1.00  0.00     0.167 HD
ATOM     65  C   UNL A   1      43.026  30.786  30.160  1.00  0.00     0.074 A 
ATOM     66  C   UNL A   1      41.896  31.631  30.495  1.00  0.00     0.031 C 
ATOM     67  C   UNL A   1      44.315  31.087  30.452  1.00  0.00     0.031 A 
BRANCH  54  68
ATOM     68  C   UNL A   1      48.446  26.829  28.688  1.00  0.00    -0.014 A 
ATOM     69  C   UNL A   1      49.263  27.150  27.594  1.00  0.00     0.009 A 
ATOM     70  C   UNL A   1      48.984  26.070  29.740  1.00  0.00     0.009 A 
ATOM     71  C   UNL A   1      50.582  26.691  27.539  1.00  0.00     0.001 A 
ATOM     72  C   UNL A   1      50.310  25.634  29.694  1.00  0.00     0.001 A 
ATOM     73  C   UNL A   1      51.104  25.937  28.590  1.00  0.00     0.000 A 
ENDBRANCH  54  68
BRANCH  55  74
ATOM     74  C   UNL A   1      38.712  29.290  28.986  1.00  0.00    -0.014 A 
ATOM     75  C   UNL A   1      37.993  29.058  30.167  1.00  0.00     0.009 A 
ATOM     76  C   UNL A   1      38.050  29.868  27.890  1.00  0.00     0.009 A 
ATOM     77  C   UNL A   1      36.637  29.385  30.243  1.00  0.00     0.001 A 
ATOM     78  C   UNL A   1      36.701  30.218  27.979  1.00  0.00     0.001 A 
ATOM     79  C   UNL A   1      35.994  29.969  29.152  1.00  0.00     0.000 A 
ENDBRANCH  55  74
BRANCH  67  80
ATOM     80  C   UNL A   1      44.567  32.401  31.129  1.00  0.00    -0.014 A 
ATOM     81  C   UNL A   1      44.768  33.573  30.386  1.00  0.00     0.009 A 
ATOM     82  C   UNL A   1      44.544  32.470  32.530  1.00  0.00     0.009 A 
ATOM     83  C   UNL A   1      44.964  34.791  31.038  1.00  0.00     0.001 A 
ATOM     84  C   UNL A   1      44.717  33.692  33.178  1.00  0.00     0.001 A 
ATOM     85  C   UNL A   1      44.932  34.850  32.432  1.00  0.00     0.000 A 
ENDBRANCH  67  80
ENDBRANCH  41  42
ENDBRANCH  34  36
ENDBRANCH  33  34
ENDBRANCH  32  33
ENDBRANCH  31  32
ENDBRANCH  30  31
ENDBRANCH   1  30
TORSDOF 17
ENDMDL
MODEL 3
REMARK VINA RESULT:     -11.3      2.677      7.763
REMARK SMILES COc1ccc(-c2ccc3n(c2=O)C[C@H]2C[C@@H]3CN(C(=O)CCCC(=O)OCCOC(=O)c3ccc(-c4c5nc(c(-c6ccccc6)c6ccc([nH]6)c(-c6ccccc6)c6nc(c(-c7ccccc7)c7ccc4[nH]7)C=C6)C=C5)cc3)C2)cc1
REMARK SMILES IDX 25 1 26 2 24 3 23 4 22 5 20 6 21 7 19 8 7 9 8 10 12 11 9 12
REMARK SMILES IDX 11 13 13 14 10 15 14 16 17 17 15 18 16 19 18 20 81 21 6 22
REMARK SMILES IDX 3 23 4 24 83 25 5 26 82 27 2 28 1 29 27 30 28 31 29 32 30 33
REMARK SMILES IDX 31 34 32 35 33 36 34 37 80 38 35 39 79 40 36 41 37 42 38 43
REMARK SMILES IDX 73 44 39 45 78 46 72 47 74 48 40 49 77 50 71 51 70 52 41 54
REMARK SMILES IDX 63 55 48 56 62 57 49 58 52 59 61 60 75 61 50 62 51 63 60 65
REMARK SMILES IDX 76 66 53 67 42 68 43 69 47 70 44 71 46 72 45 73 64 74 65 75
REMARK SMILES IDX 69 76 66 77 68 78 67 79 54 80 55 81 59 82 56 83 58 84 57 85
REMARK H PARENT 74 53 52 64
REMARK Flexibility Score: inf
ROOT
ATOM      1  C   UNL A   1      34.392  32.752  28.299  1.00  0.00     0.305 C 
ATOM      2  O   UNL A   1      35.158  33.364  27.563  1.00  0.00    -0.252 OA
ENDROOT
BRANCH   1   3
ATOM      3  C   UNL A   1      34.240  31.245  28.239  1.00  0.00     0.123 C 
BRANCH   3   4
ATOM      4  C   UNL A   1      33.498  30.679  27.037  1.00  0.00     0.022 C 
BRANCH   4   5
ATOM      5  C   UNL A   1      32.926  29.275  27.224  1.00  0.00     0.101 C 
BRANCH   5   6
ATOM      6  C   UNL A   1      33.300  28.303  26.117  1.00  0.00     0.222 C 
ATOM      7  O   UNL A   1      34.216  27.501  26.319  1.00  0.00    -0.275 OA
BRANCH   6   8
ATOM      8  N   UNL A   1      32.572  28.307  24.934  1.00  0.00    -0.342 N 
ATOM      9  C   UNL A   1      32.417  23.168  24.045  1.00  0.00     0.047 A 
ATOM     10  C   UNL A   1      31.279  23.480  24.688  1.00  0.00     0.016 A 
ATOM     11  C   UNL A   1      33.113  24.249  23.256  1.00  0.00     0.258 A 
ATOM     12  C   UNL A   1      30.699  24.788  24.602  1.00  0.00     0.023 A 
ATOM     13  N   UNL A   1      32.480  25.506  23.216  1.00  0.00    -0.311 N 
ATOM     14  O   UNL A   1      34.173  24.014  22.674  1.00  0.00    -0.269 OA
ATOM     15  C   UNL A   1      31.282  25.758  23.881  1.00  0.00     0.026 A 
ATOM     16  C   UNL A   1      33.102  26.522  22.364  1.00  0.00     0.131 C 
ATOM     17  C   UNL A   1      30.661  27.139  23.814  1.00  0.00     0.056 C 
ATOM     18  C   UNL A   1      32.525  27.946  22.441  1.00  0.00     0.029 C 
ATOM     19  C   UNL A   1      31.008  27.845  22.503  1.00  0.00     0.019 C 
ATOM     20  C   UNL A   1      31.146  27.980  25.007  1.00  0.00     0.129 C 
ATOM     21  C   UNL A   1      33.033  28.783  23.632  1.00  0.00     0.125 C 
BRANCH   9  22
ATOM     22  C   UNL A   1      32.933  21.789  24.128  1.00  0.00    -0.013 A 
ATOM     23  C   UNL A   1      33.850  19.130  24.319  1.00  0.00     0.118 A 
ATOM     24  C   UNL A   1      34.563  20.173  24.915  1.00  0.00     0.047 A 
ATOM     25  C   UNL A   1      32.670  19.412  23.637  1.00  0.00     0.047 A 
ATOM     26  C   UNL A   1      34.116  21.495  24.812  1.00  0.00     0.013 A 
ATOM     27  C   UNL A   1      32.217  20.733  23.539  1.00  0.00     0.013 A 
BRANCH  23  28
ATOM     28  O   UNL A   1      34.379  17.880  24.496  1.00  0.00    -0.497 OA
ATOM     29  C   UNL A   1      34.130  16.949  23.450  1.00  0.00     0.278 C 
ENDBRANCH  23  28
ENDBRANCH   9  22
ENDBRANCH   6   8
ENDBRANCH   5   6
ENDBRANCH   4   5
ENDBRANCH   3   4
ENDBRANCH   1   3
BRANCH   1  30
ATOM     30  O   UNL A   1      33.595  33.346  29.223  1.00  0.00    -0.462 OA
BRANCH  30  31
ATOM     31  C   UNL A   1      34.186  34.447  29.940  1.00  0.00     0.274 C 
BRANCH  31  32
ATOM     32  C   UNL A   1      34.349  34.128  31.426  1.00  0.00     0.275 C 
BRANCH  32  33
ATOM     33  O   UNL A   1      34.542  32.721  31.649  1.00  0.00    -0.458 OA
BRANCH  33  34
ATOM     34  C   UNL A   1      35.516  32.411  32.530  1.00  0.00     0.338 C 
ATOM     35  O   UNL A   1      35.520  32.600  33.742  1.00  0.00    -0.246 OA
BRANCH  34  36
ATOM     36  C   UNL A   1      36.582  31.683  31.844  1.00  0.00     0.060 A 
ATOM     37  C   UNL A   1      37.332  30.747  32.561  1.00  0.00     0.016 A 
ATOM     38  C   UNL A   1      36.905  32.001  30.526  1.00  0.00     0.016 A 
ATOM     39  C   UNL A   1      38.430  30.135  31.982  1.00  0.00     0.010 A 
ATOM     40  C   UNL A   1      38.003  31.378  29.938  1.00  0.00     0.010 A 
ATOM     41  C   UNL A   1      38.777  30.460  30.672  1.00  0.00    -0.014 A 
BRANCH  41  42
ATOM     42  C   UNL A   1      40.013  29.911  30.092  1.00  0.00     0.031 A 
ATOM     43  C   UNL A   1      41.225  30.786  30.031  1.00  0.00     0.074 A 
ATOM     44  C   UNL A   1      40.034  28.651  29.631  1.00  0.00     0.049 A 
ATOM     45  N   UNL A   1      42.334  30.614  29.365  1.00  0.00    -0.248 NA
ATOM     46  C   UNL A   1      41.176  32.028  30.823  1.00  0.00     0.031 C 
ATOM     47  C   UNL A   1      38.938  27.686  29.747  1.00  0.00     0.029 A 
ATOM     48  N   UNL A   1      41.012  27.972  28.957  1.00  0.00    -0.354 N 
ATOM     49  C   UNL A   1      43.096  31.747  29.617  1.00  0.00     0.074 A 
ATOM     50  C   UNL A   1      42.329  32.595  30.502  1.00  0.00     0.031 C 
ATOM     51  C   UNL A   1      39.301  26.543  29.146  1.00  0.00     0.029 A 
ATOM     52  C   UNL A   1      40.618  26.724  28.547  1.00  0.00     0.049 A 
ATOM     53  H   UNL A   1      41.908  28.342  28.784  1.00  0.00     0.167 HD
ATOM     54  C   UNL A   1      44.322  32.048  29.132  1.00  0.00     0.031 A 
ATOM     55  C   UNL A   1      41.235  25.852  27.728  1.00  0.00     0.031 A 
ATOM     56  C   UNL A   1      45.062  31.179  28.258  1.00  0.00     0.049 A 
ATOM     57  C   UNL A   1      42.557  26.243  27.134  1.00  0.00     0.074 A 
ATOM     58  C   UNL A   1      46.303  31.379  27.684  1.00  0.00     0.029 A 
ATOM     59  N   UNL A   1      44.619  29.932  27.840  1.00  0.00    -0.354 N 
ATOM     60  N   UNL A   1      43.251  27.342  27.316  1.00  0.00    -0.248 NA
ATOM     61  C   UNL A   1      43.175  25.285  26.209  1.00  0.00     0.031 C 
ATOM     62  C   UNL A   1      46.595  30.268  26.886  1.00  0.00     0.029 A 
ATOM     63  C   UNL A   1      45.555  29.357  27.001  1.00  0.00     0.049 A 
ATOM     64  H   UNL A   1      43.766  29.518  28.101  1.00  0.00     0.167 HD
ATOM     65  C   UNL A   1      44.397  27.199  26.547  1.00  0.00     0.074 A 
ATOM     66  C   UNL A   1      44.307  25.903  25.903  1.00  0.00     0.031 C 
ATOM     67  C   UNL A   1      45.431  28.061  26.385  1.00  0.00     0.031 A 
BRANCH  54  68
ATOM     68  C   UNL A   1      44.893  33.390  29.486  1.00  0.00    -0.014 A 
ATOM     69  C   UNL A   1      45.705  33.570  30.616  1.00  0.00     0.009 A 
ATOM     70  C   UNL A   1      44.609  34.496  28.669  1.00  0.00     0.009 A 
ATOM     71  C   UNL A   1      46.194  34.838  30.938  1.00  0.00     0.001 A 
ATOM     72  C   UNL A   1      45.120  35.757  28.980  1.00  0.00     0.001 A 
ATOM     73  C   UNL A   1      45.905  35.929  30.118  1.00  0.00     0.000 A 
ENDBRANCH  54  68
BRANCH  55  74
ATOM     74  C   UNL A   1      40.574  24.569  27.379  1.00  0.00    -0.014 A 
ATOM     75  C   UNL A   1      39.406  24.555  26.604  1.00  0.00     0.009 A 
ATOM     76  C   UNL A   1      41.121  23.348  27.805  1.00  0.00     0.009 A 
ATOM     77  C   UNL A   1      38.792  23.344  26.275  1.00  0.00     0.001 A 
ATOM     78  C   UNL A   1      40.519  22.138  27.453  1.00  0.00     0.001 A 
ATOM     79  C   UNL A   1      39.351  22.137  26.695  1.00  0.00     0.000 A 
ENDBRANCH  55  74
BRANCH  67  80
ATOM     80  C   UNL A   1      46.560  27.606  25.509  1.00  0.00    -0.014 A 
ATOM     81  C   UNL A   1      46.626  27.976  24.158  1.00  0.00     0.009 A 
ATOM     82  C   UNL A   1      47.599  26.843  26.065  1.00  0.00     0.009 A 
ATOM     83  C   UNL A   1      47.705  27.571  23.373  1.00  0.00     0.001 A 
ATOM     84  C   UNL A   1      48.687  26.460  25.283  1.00  0.00     0.001 A 
ATOM     85  C   UNL A   1      48.737  26.819  23.936  1.00  0.00     0.000 A 
ENDBRANCH  67  80
ENDBRANCH  41  42
ENDBRANCH  34  36
ENDBRANCH  33  34
ENDBRANCH  32  33
ENDBRANCH  31  32
ENDBRANCH  30  31
ENDBRANCH   1  30
TORSDOF 17
ENDMDL
