MODEL 1
REMARK VINA RESULT:     -11.7      0.000      0.000
REMARK SMILES O=C(OCCOC(=O)[C@@H](Cc1ccc(F)cc1)NC(=O)c1ccn(C2CCCC2)n1)c1ccc(-c2c3nc(c(-c4ccccc4)c4ccc([nH]4)c(-c4ccccc4)c4nc(c(-c5ccccc5)c5ccc2[nH]5)C=C4)C=C3)cc1
REMARK SMILES IDX 5 1 4 2 3 3 2 4 1 5 31 6 32 7 78 8 33 9 77 10 34 11 35 12
REMARK SMILES IDX 36 13 71 14 37 15 76 16 70 17 72 18 38 19 75 20 69 21 68 22
REMARK SMILES IDX 39 24 61 25 46 26 60 27 47 28 50 29 59 30 73 31 48 32 49 33
REMARK SMILES IDX 58 35 74 36 51 37 40 38 41 39 45 40 42 41 44 42 43 43 62 44
REMARK SMILES IDX 63 45 67 46 64 47 66 48 65 49 52 50 53 51 57 52 54 53 56 54
REMARK SMILES IDX 55 55 6 56 7 57 8 58 9 59 10 60 11 61 12 62 17 63 13 64
REMARK SMILES IDX 16 65 14 66 15 67 18 68 19 69 20 71 21 72 22 73 30 74 23 75
REMARK SMILES IDX 24 76 25 77 26 78 29 79 27 80 28 81
REMARK H PARENT 72 23 50 34 18 70
REMARK Flexibility Score: inf
ROOT
ATOM      1  C   UNL A   1      33.555  28.978  25.746  1.00  0.00     0.274 C 
ENDROOT
BRANCH   1   2
ATOM      2  C   UNL A   1      34.012  29.450  27.126  1.00  0.00     0.275 C 
BRANCH   2   3
ATOM      3  O   UNL A   1      35.285  28.956  27.601  1.00  0.00    -0.458 OA
BRANCH   3   4
ATOM      4  C   UNL A   1      36.080  29.785  28.305  1.00  0.00     0.338 C 
ATOM      5  O   UNL A   1      35.708  30.789  28.904  1.00  0.00    -0.246 OA
BRANCH   4   6
ATOM      6  C   UNL A   1      37.478  29.308  28.331  1.00  0.00     0.060 A 
ATOM      7  C   UNL A   1      37.967  28.522  29.384  1.00  0.00     0.016 A 
ATOM      8  C   UNL A   1      38.298  29.602  27.233  1.00  0.00     0.016 A 
ATOM      9  C   UNL A   1      39.276  28.062  29.354  1.00  0.00     0.010 A 
ATOM     10  C   UNL A   1      39.613  29.160  27.213  1.00  0.00     0.010 A 
ATOM     11  C   UNL A   1      40.103  28.405  28.283  1.00  0.00    -0.014 A 
BRANCH  11  12
ATOM     12  C   UNL A   1      41.477  27.919  28.294  1.00  0.00     0.031 A 
ATOM     13  C   UNL A   1      41.742  26.645  27.563  1.00  0.00     0.074 A 
ATOM     14  C   UNL A   1      42.485  28.643  28.819  1.00  0.00     0.049 A 
ATOM     15  N   UNL A   1      42.233  25.540  28.026  1.00  0.00    -0.248 NA
ATOM     16  C   UNL A   1      41.368  26.579  26.142  1.00  0.00     0.031 C 
ATOM     17  C   UNL A   1      42.446  30.027  29.295  1.00  0.00     0.029 A 
ATOM     18  N   UNL A   1      43.804  28.316  28.924  1.00  0.00    -0.354 N 
ATOM     19  C   UNL A   1      42.384  24.686  26.932  1.00  0.00     0.074 A 
ATOM     20  C   UNL A   1      41.738  25.339  25.821  1.00  0.00     0.031 C 
ATOM     21  C   UNL A   1      43.711  30.491  29.411  1.00  0.00     0.029 A 
ATOM     22  C   UNL A   1      44.636  29.400  29.157  1.00  0.00     0.049 A 
ATOM     23  H   UNL A   1      44.135  27.393  28.840  1.00  0.00     0.167 HD
ATOM     24  C   UNL A   1      43.200  23.593  26.973  1.00  0.00     0.031 A 
ATOM     25  C   UNL A   1      45.990  29.417  29.081  1.00  0.00     0.031 A 
ATOM     26  C   UNL A   1      43.506  23.201  28.322  1.00  0.00     0.049 A 
ATOM     27  C   UNL A   1      46.469  28.019  29.176  1.00  0.00     0.074 A 
ATOM     28  C   UNL A   1      42.768  22.793  29.416  1.00  0.00     0.029 A 
ATOM     29  N   UNL A   1      44.746  23.525  28.815  1.00  0.00    -0.354 N 
ATOM     30  N   UNL A   1      46.369  27.301  30.256  1.00  0.00    -0.248 NA
ATOM     31  C   UNL A   1      46.658  27.272  27.943  1.00  0.00     0.031 C 
ATOM     32  C   UNL A   1      43.423  23.387  30.535  1.00  0.00     0.029 A 
ATOM     33  C   UNL A   1      44.545  24.065  30.055  1.00  0.00     0.049 A 
ATOM     34  H   UNL A   1      45.611  23.394  28.365  1.00  0.00     0.167 HD
ATOM     35  C   UNL A   1      46.044  26.030  29.806  1.00  0.00     0.074 A 
ATOM     36  C   UNL A   1      46.337  26.049  28.373  1.00  0.00     0.031 C 
ATOM     37  C   UNL A   1      45.307  25.175  30.576  1.00  0.00     0.031 A 
BRANCH  24  38
ATOM     38  C   UNL A   1      44.054  23.132  25.809  1.00  0.00    -0.014 A 
ATOM     39  C   UNL A   1      44.046  21.763  25.470  1.00  0.00     0.009 A 
ATOM     40  C   UNL A   1      45.086  23.908  25.249  1.00  0.00     0.009 A 
ATOM     41  C   UNL A   1      45.083  21.182  24.732  1.00  0.00     0.001 A 
ATOM     42  C   UNL A   1      46.101  23.338  24.472  1.00  0.00     0.001 A 
ATOM     43  C   UNL A   1      46.122  21.968  24.249  1.00  0.00     0.000 A 
ENDBRANCH  24  38
BRANCH  25  44
ATOM     44  C   UNL A   1      46.857  30.527  28.636  1.00  0.00    -0.014 A 
ATOM     45  C   UNL A   1      46.989  30.849  27.277  1.00  0.00     0.009 A 
ATOM     46  C   UNL A   1      47.358  31.443  29.579  1.00  0.00     0.009 A 
ATOM     47  C   UNL A   1      47.581  32.058  26.881  1.00  0.00     0.001 A 
ATOM     48  C   UNL A   1      47.950  32.646  29.184  1.00  0.00     0.001 A 
ATOM     49  C   UNL A   1      48.050  32.959  27.834  1.00  0.00     0.000 A 
ENDBRANCH  25  44
BRANCH  37  50
ATOM     50  C   UNL A   1      45.021  25.567  32.002  1.00  0.00    -0.014 A 
ATOM     51  C   UNL A   1      43.956  26.414  32.356  1.00  0.00     0.009 A 
ATOM     52  C   UNL A   1      45.734  24.929  33.027  1.00  0.00     0.009 A 
ATOM     53  C   UNL A   1      43.632  26.637  33.698  1.00  0.00     0.001 A 
ATOM     54  C   UNL A   1      45.398  25.136  34.367  1.00  0.00     0.001 A 
ATOM     55  C   UNL A   1      44.351  25.992  34.702  1.00  0.00     0.000 A 
ENDBRANCH  37  50
ENDBRANCH  11  12
ENDBRANCH   4   6
ENDBRANCH   3   4
ENDBRANCH   2   3
ENDBRANCH   1   2
BRANCH   1  56
ATOM     56  O   UNL A   1      32.750  27.802  25.946  1.00  0.00    -0.461 OA
BRANCH  56  57
ATOM     57  C   UNL A   1      32.602  26.957  24.899  1.00  0.00     0.329 C 
ATOM     58  O   UNL A   1      32.174  27.290  23.801  1.00  0.00    -0.250 OA
BRANCH  57  59
ATOM     59  C   UNL A   1      33.115  25.544  25.234  1.00  0.00     0.197 C 
BRANCH  59  60
ATOM     60  C   UNL A   1      34.624  25.320  25.487  1.00  0.00     0.072 C 
BRANCH  60  61
ATOM     61  C   UNL A   1      35.303  24.011  25.135  1.00  0.00    -0.045 A 
ATOM     62  C   UNL A   1      35.562  23.038  26.114  1.00  0.00     0.007 A 
ATOM     63  C   UNL A   1      35.822  23.799  23.847  1.00  0.00     0.007 A 
ATOM     64  C   UNL A   1      36.257  21.866  25.815  1.00  0.00     0.039 A 
ATOM     65  C   UNL A   1      36.557  22.643  23.555  1.00  0.00     0.039 A 
ATOM     66  C   UNL A   1      36.755  21.681  24.537  1.00  0.00     0.123 A 
ATOM     67  F   UNL A   1      37.456  20.575  24.257  1.00  0.00    -0.207 F 
ENDBRANCH  60  61
ENDBRANCH  59  60
BRANCH  59  68
ATOM     68  N   UNL A   1      32.312  24.962  26.309  1.00  0.00    -0.337 N 
ATOM     69  C   UNL A   1      31.618  23.771  26.316  1.00  0.00     0.272 C 
ATOM     70  H   UNL A   1      32.261  25.490  27.138  1.00  0.00     0.164 HD
ATOM     71  O   UNL A   1      30.823  23.583  27.237  1.00  0.00    -0.267 OA
BRANCH  69  72
ATOM     72  C   UNL A   1      31.867  22.770  25.263  1.00  0.00     0.150 A 
ATOM     73  C   UNL A   1      31.945  22.952  23.853  1.00  0.00     0.056 A 
ATOM     74  N   UNL A   1      32.109  21.485  25.576  1.00  0.00    -0.167 NA
ATOM     75  C   UNL A   1      32.190  21.704  23.328  1.00  0.00     0.110 A 
ATOM     76  N   UNL A   1      32.288  20.864  24.399  1.00  0.00    -0.269 N 
BRANCH  76  77
ATOM     77  C   UNL A   1      32.578  19.445  24.367  1.00  0.00     0.107 C 
ATOM     78  C   UNL A   1      32.314  18.791  23.012  1.00  0.00     0.027 C 
ATOM     79  C   UNL A   1      34.043  19.104  24.643  1.00  0.00     0.027 C 
ATOM     80  C   UNL A   1      33.068  17.472  23.093  1.00  0.00     0.002 C 
ATOM     81  C   UNL A   1      34.258  17.727  24.016  1.00  0.00     0.002 C 
ENDBRANCH  76  77
ENDBRANCH  69  72
ENDBRANCH  59  68
ENDBRANCH  57  59
ENDBRANCH  56  57
ENDBRANCH   1  56
TORSDOF 16
ENDMDL
MODEL 2
REMARK VINA RESULT:     -11.6      1.749      5.600
REMARK SMILES O=C(OCCOC(=O)[C@@H](Cc1ccc(F)cc1)NC(=O)c1ccn(C2CCCC2)n1)c1ccc(-c2c3nc(c(-c4ccccc4)c4ccc([nH]4)c(-c4ccccc4)c4nc(c(-c5ccccc5)c5ccc2[nH]5)C=C4)C=C3)cc1
REMARK SMILES IDX 5 1 4 2 3 3 2 4 1 5 31 6 32 7 78 8 33 9 77 10 34 11 35 12
REMARK SMILES IDX 36 13 71 14 37 15 76 16 70 17 72 18 38 19 75 20 69 21 68 22
REMARK SMILES IDX 39 24 61 25 46 26 60 27 47 28 50 29 59 30 73 31 48 32 49 33
REMARK SMILES IDX 58 35 74 36 51 37 40 38 41 39 45 40 42 41 44 42 43 43 62 44
REMARK SMILES IDX 63 45 67 46 64 47 66 48 65 49 52 50 53 51 57 52 54 53 56 54
REMARK SMILES IDX 55 55 6 56 7 57 8 58 9 59 10 60 11 61 12 62 17 63 13 64
REMARK SMILES IDX 16 65 14 66 15 67 18 68 19 69 20 71 21 72 22 73 30 74 23 75
REMARK SMILES IDX 24 76 25 77 26 78 29 79 27 80 28 81
REMARK H PARENT 72 23 50 34 18 70
REMARK Flexibility Score: inf
ROOT
ATOM      1  C   UNL A   1      31.866  29.589  26.237  1.00  0.00     0.274 C 
ENDROOT
BRANCH   1   2
ATOM      2  C   UNL A   1      32.616  30.341  27.336  1.00  0.00     0.275 C 
BRANCH   2   3
ATOM      3  O   UNL A   1      33.954  30.794  27.026  1.00  0.00    -0.458 OA
BRANCH   3   4
ATOM      4  C   UNL A   1      34.636  31.485  27.960  1.00  0.00     0.338 C 
ATOM      5  O   UNL A   1      34.232  32.488  28.538  1.00  0.00    -0.246 OA
BRANCH   4   6
ATOM      6  C   UNL A   1      35.936  30.852  28.265  1.00  0.00     0.060 A 
ATOM      7  C   UNL A   1      36.186  29.505  27.965  1.00  0.00     0.016 A 
ATOM      8  C   UNL A   1      36.951  31.653  28.806  1.00  0.00     0.016 A 
ATOM      9  C   UNL A   1      37.431  28.956  28.232  1.00  0.00     0.010 A 
ATOM     10  C   UNL A   1      38.190  31.098  29.095  1.00  0.00     0.010 A 
ATOM     11  C   UNL A   1      38.421  29.746  28.822  1.00  0.00    -0.014 A 
BRANCH  11  12
ATOM     12  C   UNL A   1      39.711  29.130  29.106  1.00  0.00     0.031 A 
ATOM     13  C   UNL A   1      40.030  28.876  30.541  1.00  0.00     0.074 A 
ATOM     14  C   UNL A   1      40.520  28.687  28.124  1.00  0.00     0.049 A 
ATOM     15  N   UNL A   1      41.032  29.317  31.231  1.00  0.00    -0.248 NA
ATOM     16  C   UNL A   1      39.084  28.063  31.321  1.00  0.00     0.031 C 
ATOM     17  C   UNL A   1      40.226  28.583  26.693  1.00  0.00     0.029 A 
ATOM     18  N   UNL A   1      41.753  28.117  28.229  1.00  0.00    -0.354 N 
ATOM     19  C   UNL A   1      40.942  28.715  32.488  1.00  0.00     0.074 A 
ATOM     20  C   UNL A   1      39.669  28.039  32.519  1.00  0.00     0.031 C 
ATOM     21  C   UNL A   1      41.143  27.780  26.109  1.00  0.00     0.029 A 
ATOM     22  C   UNL A   1      42.158  27.435  27.090  1.00  0.00     0.049 A 
ATOM     23  H   UNL A   1      42.306  28.182  29.040  1.00  0.00     0.167 HD
ATOM     24  C   UNL A   1      42.006  28.652  33.340  1.00  0.00     0.031 A 
ATOM     25  C   UNL A   1      43.214  26.592  26.981  1.00  0.00     0.031 A 
ATOM     26  C   UNL A   1      43.023  29.609  33.000  1.00  0.00     0.049 A 
ATOM     27  C   UNL A   1      44.137  26.869  28.104  1.00  0.00     0.074 A 
ATOM     28  C   UNL A   1      43.081  30.986  32.900  1.00  0.00     0.029 A 
ATOM     29  N   UNL A   1      44.147  29.147  32.359  1.00  0.00    -0.354 N 
ATOM     30  N   UNL A   1      44.814  27.974  28.218  1.00  0.00    -0.248 NA
ATOM     31  C   UNL A   1      43.975  26.105  29.331  1.00  0.00     0.031 C 
ATOM     32  C   UNL A   1      43.927  31.231  31.779  1.00  0.00     0.029 A 
ATOM     33  C   UNL A   1      44.375  29.994  31.310  1.00  0.00     0.049 A 
ATOM     34  H   UNL A   1      44.683  28.360  32.606  1.00  0.00     0.167 HD
ATOM     35  C   UNL A   1      44.785  28.267  29.573  1.00  0.00     0.074 A 
ATOM     36  C   UNL A   1      44.344  27.031  30.219  1.00  0.00     0.031 C 
ATOM     37  C   UNL A   1      44.848  29.557  30.019  1.00  0.00     0.031 A 
BRANCH  24  38
ATOM     38  C   UNL A   1      42.315  27.456  34.219  1.00  0.00    -0.014 A 
ATOM     39  C   UNL A   1      43.200  26.474  33.728  1.00  0.00     0.009 A 
ATOM     40  C   UNL A   1      41.548  27.100  35.343  1.00  0.00     0.009 A 
ATOM     41  C   UNL A   1      43.214  25.173  34.245  1.00  0.00     0.001 A 
ATOM     42  C   UNL A   1      41.592  25.814  35.891  1.00  0.00     0.001 A 
ATOM     43  C   UNL A   1      42.394  24.838  35.316  1.00  0.00     0.000 A 
ENDBRANCH  24  38
BRANCH  25  44
ATOM     44  C   UNL A   1      43.319  25.379  26.144  1.00  0.00    -0.014 A 
ATOM     45  C   UNL A   1      44.441  25.147  25.334  1.00  0.00     0.009 A 
ATOM     46  C   UNL A   1      42.421  24.313  26.342  1.00  0.00     0.009 A 
ATOM     47  C   UNL A   1      44.666  23.885  24.764  1.00  0.00     0.001 A 
ATOM     48  C   UNL A   1      42.644  23.057  25.772  1.00  0.00     0.001 A 
ATOM     49  C   UNL A   1      43.773  22.839  24.993  1.00  0.00     0.000 A 
ENDBRANCH  25  44
BRANCH  37  50
ATOM     50  C   UNL A   1      45.146  30.642  29.018  1.00  0.00    -0.014 A 
ATOM     51  C   UNL A   1      46.453  31.091  28.753  1.00  0.00     0.009 A 
ATOM     52  C   UNL A   1      44.106  31.099  28.195  1.00  0.00     0.009 A 
ATOM     53  C   UNL A   1      46.704  31.993  27.714  1.00  0.00     0.001 A 
ATOM     54  C   UNL A   1      44.360  31.983  27.146  1.00  0.00     0.001 A 
ATOM     55  C   UNL A   1      45.657  32.433  26.908  1.00  0.00     0.000 A 
ENDBRANCH  37  50
ENDBRANCH  11  12
ENDBRANCH   4   6
ENDBRANCH   3   4
ENDBRANCH   2   3
ENDBRANCH   1   2
BRANCH   1  56
ATOM     56  O   UNL A   1      32.210  28.198  26.364  1.00  0.00    -0.461 OA
BRANCH  56  57
ATOM     57  C   UNL A   1      31.700  27.338  25.453  1.00  0.00     0.329 C 
ATOM     58  O   UNL A   1      30.918  27.660  24.566  1.00  0.00    -0.250 OA
BRANCH  57  59
ATOM     59  C   UNL A   1      32.285  25.923  25.617  1.00  0.00     0.197 C 
BRANCH  59  60
ATOM     60  C   UNL A   1      33.796  25.750  25.899  1.00  0.00     0.072 C 
BRANCH  60  61
ATOM     61  C   UNL A   1      34.629  24.724  25.158  1.00  0.00    -0.045 A 
ATOM     62  C   UNL A   1      35.753  24.130  25.755  1.00  0.00     0.007 A 
ATOM     63  C   UNL A   1      34.386  24.448  23.802  1.00  0.00     0.007 A 
ATOM     64  C   UNL A   1      36.573  23.245  25.054  1.00  0.00     0.039 A 
ATOM     65  C   UNL A   1      35.232  23.594  23.085  1.00  0.00     0.039 A 
ATOM     66  C   UNL A   1      36.308  22.989  23.720  1.00  0.00     0.123 A 
ATOM     67  F   UNL A   1      37.115  22.170  23.034  1.00  0.00    -0.207 F 
ENDBRANCH  60  61
ENDBRANCH  59  60
BRANCH  59  68
ATOM     68  N   UNL A   1      31.483  25.158  26.571  1.00  0.00    -0.337 N 
ATOM     69  C   UNL A   1      30.889  23.926  26.401  1.00  0.00     0.272 C 
ATOM     70  H   UNL A   1      31.350  25.578  27.451  1.00  0.00     0.164 HD
ATOM     71  O   UNL A   1      30.070  23.570  27.249  1.00  0.00    -0.267 OA
BRANCH  69  72
ATOM     72  C   UNL A   1      31.268  23.079  25.255  1.00  0.00     0.150 A 
ATOM     73  C   UNL A   1      31.019  23.284  23.868  1.00  0.00     0.056 A 
ATOM     74  N   UNL A   1      31.987  21.958  25.434  1.00  0.00    -0.167 NA
ATOM     75  C   UNL A   1      31.576  22.202  23.226  1.00  0.00     0.110 A 
ATOM     76  N   UNL A   1      32.150  21.443  24.205  1.00  0.00    -0.269 N 
BRANCH  76  77
ATOM     77  C   UNL A   1      32.896  20.215  24.026  1.00  0.00     0.107 C 
ATOM     78  C   UNL A   1      34.306  20.259  24.611  1.00  0.00     0.027 C 
ATOM     79  C   UNL A   1      32.267  19.001  24.712  1.00  0.00     0.027 C 
ATOM     80  C   UNL A   1      34.711  18.794  24.690  1.00  0.00     0.002 C 
ATOM     81  C   UNL A   1      33.416  18.013  24.908  1.00  0.00     0.002 C 
ENDBRANCH  76  77
ENDBRANCH  69  72
ENDBRANCH  59  68
ENDBRANCH  57  59
ENDBRANCH  56  57
ENDBRANCH   1  56
TORSDOF 16
ENDMDL
MODEL 3
REMARK VINA RESULT:     -11.5      3.624      7.510
REMARK SMILES O=C(OCCOC(=O)[C@@H](Cc1ccc(F)cc1)NC(=O)c1ccn(C2CCCC2)n1)c1ccc(-c2c3nc(c(-c4ccccc4)c4ccc([nH]4)c(-c4ccccc4)c4nc(c(-c5ccccc5)c5ccc2[nH]5)C=C4)C=C3)cc1
REMARK SMILES IDX 5 1 4 2 3 3 2 4 1 5 31 6 32 7 78 8 33 9 77 10 34 11 35 12
REMARK SMILES IDX 36 13 71 14 37 15 76 16 70 17 72 18 38 19 75 20 69 21 68 22
REMARK SMILES IDX 39 24 61 25 46 26 60 27 47 28 50 29 59 30 73 31 48 32 49 33
REMARK SMILES IDX 58 35 74 36 51 37 40 38 41 39 45 40 42 41 44 42 43 43 62 44
REMARK SMILES IDX 63 45 67 46 64 47 66 48 65 49 52 50 53 51 57 52 54 53 56 54
REMARK SMILES IDX 55 55 6 56 7 57 8 58 9 59 10 60 11 61 12 62 17 63 13 64
REMARK SMILES IDX 16 65 14 66 15 67 18 68 19 69 20 71 21 72 22 73 30 74 23 75
REMARK SMILES IDX 24 76 25 77 26 78 29 79 27 80 28 81
REMARK H PARENT 72 23 50 34 18 70
REMARK Flexibility Score: inf
ROOT
ATOM      1  C   UNL A   1      36.384  21.470  24.470  1.00  0.00     0.274 C 
ENDROOT
BRANCH   1   2
ATOM      2  C   UNL A   1      37.557  21.341  25.441  1.00  0.00     0.275 C 
BRANCH   2   3
ATOM      3  O   UNL A   1      38.338  22.532  25.691  1.00  0.00    -0.458 OA
BRANCH   3   4
ATOM      4  C   UNL A   1      39.464  22.427  26.423  1.00  0.00     0.338 C 
ATOM      5  O   UNL A   1      40.186  21.437  26.478  1.00  0.00    -0.246 OA
BRANCH   4   6
ATOM      6  C   UNL A   1      39.777  23.689  27.124  1.00  0.00     0.060 A 
ATOM      7  C   UNL A   1      40.982  23.864  27.819  1.00  0.00     0.016 A 
ATOM      8  C   UNL A   1      38.864  24.747  27.021  1.00  0.00     0.016 A 
ATOM      9  C   UNL A   1      41.257  25.077  28.433  1.00  0.00     0.010 A 
ATOM     10  C   UNL A   1      39.128  25.954  27.654  1.00  0.00     0.010 A 
ATOM     11  C   UNL A   1      40.318  26.109  28.373  1.00  0.00    -0.014 A 
BRANCH  11  12
ATOM     12  C   UNL A   1      40.633  27.363  29.046  1.00  0.00     0.031 A 
ATOM     13  C   UNL A   1      41.656  28.232  28.396  1.00  0.00     0.074 A 
ATOM     14  C   UNL A   1      39.944  27.785  30.124  1.00  0.00     0.049 A 
ATOM     15  N   UNL A   1      42.776  28.658  28.885  1.00  0.00    -0.248 NA
ATOM     16  C   UNL A   1      41.424  28.640  27.002  1.00  0.00     0.031 C 
ATOM     17  C   UNL A   1      38.727  27.208  30.699  1.00  0.00     0.029 A 
ATOM     18  N   UNL A   1      40.134  28.911  30.868  1.00  0.00    -0.354 N 
ATOM     19  C   UNL A   1      43.322  29.520  27.931  1.00  0.00     0.074 A 
ATOM     20  C   UNL A   1      42.500  29.387  26.754  1.00  0.00     0.031 C 
ATOM     21  C   UNL A   1      38.163  28.106  31.537  1.00  0.00     0.029 A 
ATOM     22  C   UNL A   1      39.049  29.251  31.663  1.00  0.00     0.049 A 
ATOM     23  H   UNL A   1      40.967  29.436  30.843  1.00  0.00     0.167 HD
ATOM     24  C   UNL A   1      44.292  30.427  28.244  1.00  0.00     0.031 A 
ATOM     25  C   UNL A   1      38.861  30.420  32.323  1.00  0.00     0.031 A 
ATOM     26  C   UNL A   1      44.957  30.099  29.476  1.00  0.00     0.049 A 
ATOM     27  C   UNL A   1      40.176  31.085  32.458  1.00  0.00     0.074 A 
ATOM     28  C   UNL A   1      45.696  29.026  29.936  1.00  0.00     0.029 A 
ATOM     29  N   UNL A   1      44.621  30.821  30.595  1.00  0.00    -0.354 N 
ATOM     30  N   UNL A   1      41.138  30.623  33.202  1.00  0.00    -0.248 NA
ATOM     31  C   UNL A   1      40.581  32.023  31.424  1.00  0.00     0.031 C 
ATOM     32  C   UNL A   1      45.315  28.885  31.303  1.00  0.00     0.029 A 
ATOM     33  C   UNL A   1      44.418  29.914  31.599  1.00  0.00     0.049 A 
ATOM     34  H   UNL A   1      44.541  31.799  30.662  1.00  0.00     0.167 HD
ATOM     35  C   UNL A   1      42.293  30.858  32.472  1.00  0.00     0.074 A 
ATOM     36  C   UNL A   1      41.900  31.812  31.436  1.00  0.00     0.031 C 
ATOM     37  C   UNL A   1      43.386  30.047  32.598  1.00  0.00     0.031 A 
BRANCH  24  38
ATOM     38  C   UNL A   1      44.361  31.825  27.663  1.00  0.00    -0.014 A 
ATOM     39  C   UNL A   1      43.867  32.897  28.435  1.00  0.00     0.009 A 
ATOM     40  C   UNL A   1      44.588  32.089  26.300  1.00  0.00     0.009 A 
ATOM     41  C   UNL A   1      43.492  34.112  27.850  1.00  0.00     0.001 A 
ATOM     42  C   UNL A   1      44.258  33.318  25.720  1.00  0.00     0.001 A 
ATOM     43  C   UNL A   1      43.671  34.316  26.486  1.00  0.00     0.000 A 
ENDBRANCH  24  38
BRANCH  25  44
ATOM     44  C   UNL A   1      37.585  31.121  32.574  1.00  0.00    -0.014 A 
ATOM     45  C   UNL A   1      37.385  31.880  33.737  1.00  0.00     0.009 A 
ATOM     46  C   UNL A   1      36.646  31.257  31.533  1.00  0.00     0.009 A 
ATOM     47  C   UNL A   1      36.297  32.759  33.843  1.00  0.00     0.001 A 
ATOM     48  C   UNL A   1      35.560  32.131  31.640  1.00  0.00     0.001 A 
ATOM     49  C   UNL A   1      35.393  32.891  32.790  1.00  0.00     0.000 A 
ENDBRANCH  25  44
BRANCH  37  50
ATOM     50  C   UNL A   1      43.380  29.010  33.691  1.00  0.00    -0.014 A 
ATOM     51  C   UNL A   1      43.920  29.251  34.967  1.00  0.00     0.009 A 
ATOM     52  C   UNL A   1      42.658  27.826  33.486  1.00  0.00     0.009 A 
ATOM     53  C   UNL A   1      43.765  28.319  35.998  1.00  0.00     0.001 A 
ATOM     54  C   UNL A   1      42.486  26.905  34.521  1.00  0.00     0.001 A 
ATOM     55  C   UNL A   1      43.043  27.149  35.775  1.00  0.00     0.000 A 
ENDBRANCH  37  50
ENDBRANCH  11  12
ENDBRANCH   4   6
ENDBRANCH   3   4
ENDBRANCH   2   3
ENDBRANCH   1   2
BRANCH   1  56
ATOM     56  O   UNL A   1      35.638  22.638  24.859  1.00  0.00    -0.461 OA
BRANCH  56  57
ATOM     57  C   UNL A   1      34.338  22.704  24.490  1.00  0.00     0.329 C 
ATOM     58  O   UNL A   1      33.612  21.728  24.347  1.00  0.00    -0.250 OA
BRANCH  57  59
ATOM     59  C   UNL A   1      33.861  24.162  24.353  1.00  0.00     0.197 C 
BRANCH  59  60
ATOM     60  C   UNL A   1      34.387  25.233  25.337  1.00  0.00     0.072 C 
BRANCH  60  61
ATOM     61  C   UNL A   1      33.617  26.511  25.605  1.00  0.00    -0.045 A 
ATOM     62  C   UNL A   1      32.425  26.502  26.347  1.00  0.00     0.007 A 
ATOM     63  C   UNL A   1      33.999  27.717  24.995  1.00  0.00     0.007 A 
ATOM     64  C   UNL A   1      31.668  27.659  26.532  1.00  0.00     0.039 A 
ATOM     65  C   UNL A   1      33.218  28.870  25.143  1.00  0.00     0.039 A 
ATOM     66  C   UNL A   1      32.069  28.835  25.921  1.00  0.00     0.123 A 
ATOM     67  F   UNL A   1      31.324  29.938  26.065  1.00  0.00    -0.207 F 
ENDBRANCH  60  61
ENDBRANCH  59  60
BRANCH  59  68
ATOM     68  N   UNL A   1      34.006  24.607  22.967  1.00  0.00    -0.337 N 
ATOM     69  C   UNL A   1      33.053  25.151  22.135  1.00  0.00     0.272 C 
ATOM     70  H   UNL A   1      34.905  24.506  22.578  1.00  0.00     0.164 HD
ATOM     71  O   UNL A   1      33.330  25.241  20.938  1.00  0.00    -0.267 OA
BRANCH  69  72
ATOM     72  C   UNL A   1      31.774  25.626  22.694  1.00  0.00     0.150 A 
ATOM     73  C   UNL A   1      30.760  24.887  23.367  1.00  0.00     0.056 A 
ATOM     74  N   UNL A   1      31.444  26.928  22.651  1.00  0.00    -0.167 NA
ATOM     75  C   UNL A   1      29.778  25.799  23.678  1.00  0.00     0.110 A 
ATOM     76  N   UNL A   1      30.239  27.006  23.237  1.00  0.00    -0.269 N 
BRANCH  76  77
ATOM     77  C   UNL A   1      29.578  28.288  23.368  1.00  0.00     0.107 C 
ATOM     78  C   UNL A   1      30.087  29.348  22.393  1.00  0.00     0.027 C 
ATOM     79  C   UNL A   1      28.075  28.244  23.088  1.00  0.00     0.027 C 
ATOM     80  C   UNL A   1      29.002  30.414  22.417  1.00  0.00     0.002 C 
ATOM     81  C   UNL A   1      27.697  29.676  22.711  1.00  0.00     0.002 C 
ENDBRANCH  76  77
ENDBRANCH  69  72
ENDBRANCH  59  68
ENDBRANCH  57  59
ENDBRANCH  56  57
ENDBRANCH   1  56
TORSDOF 16
ENDMDL
