MODEL 1
REMARK VINA RESULT:     -11.5      0.000      0.000
REMARK SMILES COc1ccc(-n2ccnc2C[N@@H+]2Cc3[nH]cnc3C[C@@H]2C(=O)OCCOC(=O)c2ccc(-c3c4nc(c(-c5ccccc5)c5ccc([nH]5)c(-c5ccccc5)c5nc(c(-c6ccccc6)c6ccc3[nH]6)C=C5)C=C4)cc2)cc1
REMARK SMILES IDX 25 1 24 2 22 3 23 4 21 5 13 6 14 7 15 9 20 10 16 11 19 12
REMARK SMILES IDX 17 13 18 15 12 16 11 17 7 18 8 19 9 20 10 21 6 22 3 23 4 24
REMARK SMILES IDX 79 25 5 26 78 27 2 28 1 29 26 30 27 31 28 32 29 33 30 34
REMARK SMILES IDX 31 35 77 36 32 37 76 38 33 39 34 40 35 41 70 42 36 43 75 44
REMARK SMILES IDX 69 45 71 46 37 47 74 48 68 49 67 50 38 52 60 53 45 54 59 55
REMARK SMILES IDX 46 56 49 57 58 58 72 59 47 60 48 61 57 63 73 64 50 65 39 66
REMARK SMILES IDX 40 67 44 68 41 69 43 70 42 71 61 72 62 73 66 74 63 75 65 76
REMARK SMILES IDX 64 77 51 78 52 79 56 80 53 81 55 82 54 83
REMARK H PARENT 13 8 16 14 71 51 49 62
REMARK Flexibility Score: inf
ROOT
ATOM      1  C   UNL A   1      36.688  20.380  24.743  1.00  0.00     0.274 C 
ENDROOT
BRANCH   1   2
ATOM      2  O   UNL A   1      36.747  21.821  24.807  1.00  0.00    -0.458 OA
BRANCH   2   3
ATOM      3  C   UNL A   1      35.759  22.451  25.515  1.00  0.00     0.365 C 
ATOM      4  O   UNL A   1      35.972  23.275  26.399  1.00  0.00    -0.245 OA
BRANCH   3   5
ATOM      5  C   UNL A   1      34.367  21.896  25.149  1.00  0.00     0.301 C 
ATOM      6  N   UNL A   1      33.691  22.612  23.981  1.00  0.00    -0.312 N 
ATOM      7  C   UNL A   1      32.273  22.191  23.878  1.00  0.00     0.320 C 
ATOM      8  H   UNL A   1      34.202  22.339  23.141  1.00  0.00     0.349 HD
ATOM      9  C   UNL A   1      31.618  22.510  25.165  1.00  0.00     0.093 A 
ATOM     10  C   UNL A   1      33.580  21.757  26.501  1.00  0.00     0.136 C 
ATOM     11  N   UNL A   1      30.514  23.271  25.407  1.00  0.00    -0.344 N 
ATOM     12  C   UNL A   1      32.219  22.328  26.385  1.00  0.00     0.074 A 
ATOM     13  C   UNL A   1      30.505  23.524  26.756  1.00  0.00     0.197 A 
ATOM     14  H   UNL A   1      29.853  23.578  24.746  1.00  0.00     0.167 HD
ATOM     15  N   UNL A   1      31.514  22.945  27.377  1.00  0.00    -0.241 NA
BRANCH   6  16
ATOM     16  C   UNL A   1      33.778  24.090  24.064  1.00  0.00     0.340 C 
BRANCH  16  17
ATOM     17  C   UNL A   1      33.334  24.800  22.795  1.00  0.00     0.168 A 
ATOM     18  N   UNL A   1      32.731  26.052  22.765  1.00  0.00    -0.299 N 
ATOM     19  C   UNL A   1      32.336  26.269  21.463  1.00  0.00     0.113 A 
ATOM     20  C   UNL A   1      32.794  25.194  20.745  1.00  0.00     0.132 A 
ATOM     21  N   UNL A   1      33.390  24.290  21.572  1.00  0.00    -0.236 NA
BRANCH  18  22
ATOM     22  C   UNL A   1      32.487  26.929  23.845  1.00  0.00     0.047 A 
ATOM     23  C   UNL A   1      32.137  28.533  26.086  1.00  0.00     0.119 A 
ATOM     24  C   UNL A   1      33.027  28.926  25.090  1.00  0.00     0.048 A 
ATOM     25  C   UNL A   1      31.364  27.381  25.933  1.00  0.00     0.048 A 
ATOM     26  C   UNL A   1      33.214  28.119  23.969  1.00  0.00     0.030 A 
ATOM     27  C   UNL A   1      31.527  26.581  24.803  1.00  0.00     0.030 A 
BRANCH  23  28
ATOM     28  O   UNL A   1      32.007  29.352  27.173  1.00  0.00    -0.497 OA
ATOM     29  C   UNL A   1      32.070  30.728  26.801  1.00  0.00     0.278 C 
ENDBRANCH  23  28
ENDBRANCH  18  22
ENDBRANCH  16  17
ENDBRANCH   6  16
ENDBRANCH   3   5
ENDBRANCH   2   3
ENDBRANCH   1   2
BRANCH   1  30
ATOM     30  C   UNL A   1      38.042  19.707  24.988  1.00  0.00     0.275 C 
BRANCH  30  31
ATOM     31  O   UNL A   1      38.980  20.557  25.663  1.00  0.00    -0.458 OA
BRANCH  31  32
ATOM     32  C   UNL A   1      40.173  19.957  25.855  1.00  0.00     0.338 C 
ATOM     33  O   UNL A   1      40.441  18.787  25.643  1.00  0.00    -0.246 OA
BRANCH  32  34
ATOM     34  C   UNL A   1      41.142  20.854  26.487  1.00  0.00     0.060 A 
ATOM     35  C   UNL A   1      40.985  21.037  27.858  1.00  0.00     0.016 A 
ATOM     36  C   UNL A   1      41.935  21.716  25.732  1.00  0.00     0.016 A 
ATOM     37  C   UNL A   1      41.495  22.150  28.479  1.00  0.00     0.010 A 
ATOM     38  C   UNL A   1      42.449  22.849  26.351  1.00  0.00     0.010 A 
ATOM     39  C   UNL A   1      42.145  23.097  27.701  1.00  0.00    -0.014 A 
BRANCH  39  40
ATOM     40  C   UNL A   1      42.425  24.370  28.357  1.00  0.00     0.031 A 
ATOM     41  C   UNL A   1      41.457  25.477  28.107  1.00  0.00     0.074 A 
ATOM     42  C   UNL A   1      43.466  24.484  29.205  1.00  0.00     0.049 A 
ATOM     43  N   UNL A   1      41.695  26.737  27.914  1.00  0.00    -0.248 NA
ATOM     44  C   UNL A   1      40.032  25.112  28.011  1.00  0.00     0.031 C 
ATOM     45  C   UNL A   1      44.348  23.408  29.669  1.00  0.00     0.029 A 
ATOM     46  N   UNL A   1      43.819  25.542  29.990  1.00  0.00    -0.354 N 
ATOM     47  C   UNL A   1      40.448  27.347  27.815  1.00  0.00     0.074 A 
ATOM     48  C   UNL A   1      39.466  26.293  27.783  1.00  0.00     0.031 C 
ATOM     49  C   UNL A   1      44.872  23.770  30.855  1.00  0.00     0.029 A 
ATOM     50  C   UNL A   1      44.435  25.122  31.161  1.00  0.00     0.049 A 
ATOM     51  H   UNL A   1      43.658  26.484  29.756  1.00  0.00     0.167 HD
ATOM     52  C   UNL A   1      40.256  28.686  27.956  1.00  0.00     0.031 A 
ATOM     53  C   UNL A   1      44.419  25.760  32.356  1.00  0.00     0.031 A 
ATOM     54  C   UNL A   1      41.436  29.460  27.712  1.00  0.00     0.049 A 
ATOM     55  C   UNL A   1      44.047  27.175  32.127  1.00  0.00     0.074 A 
ATOM     56  C   UNL A   1      42.281  29.624  26.632  1.00  0.00     0.029 A 
ATOM     57  N   UNL A   1      42.086  30.026  28.781  1.00  0.00    -0.354 N 
ATOM     58  N   UNL A   1      44.817  28.045  31.537  1.00  0.00    -0.248 NA
ATOM     59  C   UNL A   1      42.639  27.541  32.200  1.00  0.00     0.031 C 
ATOM     60  C   UNL A   1      43.570  29.835  27.197  1.00  0.00     0.029 A 
ATOM     61  C   UNL A   1      43.422  29.794  28.583  1.00  0.00     0.049 A 
ATOM     62  H   UNL A   1      41.674  30.502  29.538  1.00  0.00     0.167 HD
ATOM     63  C   UNL A   1      43.953  28.845  30.804  1.00  0.00     0.074 A 
ATOM     64  C   UNL A   1      42.625  28.566  31.344  1.00  0.00     0.031 C 
ATOM     65  C   UNL A   1      44.345  29.440  29.637  1.00  0.00     0.031 A 
BRANCH  52  66
ATOM     66  C   UNL A   1      39.045  29.247  28.650  1.00  0.00    -0.014 A 
ATOM     67  C   UNL A   1      38.860  29.017  30.023  1.00  0.00     0.009 A 
ATOM     68  C   UNL A   1      37.946  29.767  27.935  1.00  0.00     0.009 A 
ATOM     69  C   UNL A   1      37.626  29.265  30.636  1.00  0.00     0.001 A 
ATOM     70  C   UNL A   1      36.730  30.055  28.553  1.00  0.00     0.001 A 
ATOM     71  C   UNL A   1      36.562  29.782  29.902  1.00  0.00     0.000 A 
ENDBRANCH  52  66
BRANCH  53  72
ATOM     72  C   UNL A   1      44.372  25.108  33.683  1.00  0.00    -0.014 A 
ATOM     73  C   UNL A   1      45.381  25.324  34.630  1.00  0.00     0.009 A 
ATOM     74  C   UNL A   1      43.222  24.408  34.105  1.00  0.00     0.009 A 
ATOM     75  C   UNL A   1      45.246  24.846  35.942  1.00  0.00     0.001 A 
ATOM     76  C   UNL A   1      43.094  23.916  35.406  1.00  0.00     0.001 A 
ATOM     77  C   UNL A   1      44.106  24.142  36.327  1.00  0.00     0.000 A 
ENDBRANCH  53  72
BRANCH  65  78
ATOM     78  C   UNL A   1      45.806  29.407  29.262  1.00  0.00    -0.014 A 
ATOM     79  C   UNL A   1      46.404  28.282  28.668  1.00  0.00     0.009 A 
ATOM     80  C   UNL A   1      46.554  30.592  29.339  1.00  0.00     0.009 A 
ATOM     81  C   UNL A   1      47.720  28.329  28.201  1.00  0.00     0.001 A 
ATOM     82  C   UNL A   1      47.862  30.647  28.850  1.00  0.00     0.001 A 
ATOM     83  C   UNL A   1      48.447  29.514  28.287  1.00  0.00     0.000 A 
ENDBRANCH  65  78
ENDBRANCH  39  40
ENDBRANCH  32  34
ENDBRANCH  31  32
ENDBRANCH  30  31
ENDBRANCH   1  30
TORSDOF 15
ENDMDL
MODEL 2
REMARK VINA RESULT:     -11.4      3.078      8.630
REMARK SMILES COc1ccc(-n2ccnc2C[N@@H+]2Cc3[nH]cnc3C[C@@H]2C(=O)OCCOC(=O)c2ccc(-c3c4nc(c(-c5ccccc5)c5ccc([nH]5)c(-c5ccccc5)c5nc(c(-c6ccccc6)c6ccc3[nH]6)C=C5)C=C4)cc2)cc1
REMARK SMILES IDX 25 1 24 2 22 3 23 4 21 5 13 6 14 7 15 9 20 10 16 11 19 12
REMARK SMILES IDX 17 13 18 15 12 16 11 17 7 18 8 19 9 20 10 21 6 22 3 23 4 24
REMARK SMILES IDX 79 25 5 26 78 27 2 28 1 29 26 30 27 31 28 32 29 33 30 34
REMARK SMILES IDX 31 35 77 36 32 37 76 38 33 39 34 40 35 41 70 42 36 43 75 44
REMARK SMILES IDX 69 45 71 46 37 47 74 48 68 49 67 50 38 52 60 53 45 54 59 55
REMARK SMILES IDX 46 56 49 57 58 58 72 59 47 60 48 61 57 63 73 64 50 65 39 66
REMARK SMILES IDX 40 67 44 68 41 69 43 70 42 71 61 72 62 73 66 74 63 75 65 76
REMARK SMILES IDX 64 77 51 78 52 79 56 80 53 81 55 82 54 83
REMARK H PARENT 13 8 16 14 71 51 49 62
REMARK Flexibility Score: inf
ROOT
ATOM      1  C   UNL A   1      31.385  30.910  25.890  1.00  0.00     0.274 C 
ENDROOT
BRANCH   1   2
ATOM      2  O   UNL A   1      32.177  29.830  26.428  1.00  0.00    -0.458 OA
BRANCH   2   3
ATOM      3  C   UNL A   1      32.815  29.021  25.527  1.00  0.00     0.365 C 
ATOM      4  O   UNL A   1      34.034  28.892  25.468  1.00  0.00    -0.245 OA
BRANCH   3   5
ATOM      5  C   UNL A   1      31.818  28.405  24.525  1.00  0.00     0.301 C 
ATOM      6  N   UNL A   1      31.195  27.088  24.985  1.00  0.00    -0.312 N 
ATOM      7  C   UNL A   1      30.468  26.448  23.862  1.00  0.00     0.320 C 
ATOM      8  H   UNL A   1      30.547  27.322  25.736  1.00  0.00     0.349 HD
ATOM      9  C   UNL A   1      31.438  26.238  22.765  1.00  0.00     0.093 A 
ATOM     10  C   UNL A   1      32.520  28.452  23.120  1.00  0.00     0.136 C 
ATOM     11  N   UNL A   1      31.772  25.088  22.116  1.00  0.00    -0.344 N 
ATOM     12  C   UNL A   1      32.402  27.152  22.423  1.00  0.00     0.074 A 
ATOM     13  C   UNL A   1      32.927  25.354  21.424  1.00  0.00     0.197 A 
ATOM     14  H   UNL A   1      31.282  24.235  22.139  1.00  0.00     0.167 HD
ATOM     15  N   UNL A   1      33.318  26.604  21.573  1.00  0.00    -0.241 NA
BRANCH   6  16
ATOM     16  C   UNL A   1      32.179  26.138  25.560  1.00  0.00     0.340 C 
BRANCH  16  17
ATOM     17  C   UNL A   1      31.557  24.847  26.068  1.00  0.00     0.168 A 
ATOM     18  N   UNL A   1      32.165  23.600  25.993  1.00  0.00    -0.299 N 
ATOM     19  C   UNL A   1      31.225  22.678  26.402  1.00  0.00     0.113 A 
ATOM     20  C   UNL A   1      30.129  23.403  26.794  1.00  0.00     0.132 A 
ATOM     21  N   UNL A   1      30.335  24.732  26.570  1.00  0.00    -0.236 NA
BRANCH  18  22
ATOM     22  C   UNL A   1      33.461  23.287  25.527  1.00  0.00     0.047 A 
ATOM     23  C   UNL A   1      35.999  22.492  24.725  1.00  0.00     0.119 A 
ATOM     24  C   UNL A   1      34.914  22.294  23.875  1.00  0.00     0.048 A 
ATOM     25  C   UNL A   1      35.835  23.153  25.943  1.00  0.00     0.048 A 
ATOM     26  C   UNL A   1      33.638  22.681  24.278  1.00  0.00     0.030 A 
ATOM     27  C   UNL A   1      34.564  23.567  26.342  1.00  0.00     0.030 A 
BRANCH  23  28
ATOM     28  O   UNL A   1      37.226  22.075  24.288  1.00  0.00    -0.497 OA
ATOM     29  C   UNL A   1      38.089  21.760  25.380  1.00  0.00     0.278 C 
ENDBRANCH  23  28
ENDBRANCH  18  22
ENDBRANCH  16  17
ENDBRANCH   6  16
ENDBRANCH   3   5
ENDBRANCH   2   3
ENDBRANCH   1   2
BRANCH   1  30
ATOM     30  C   UNL A   1      31.534  32.219  26.672  1.00  0.00     0.275 C 
BRANCH  30  31
ATOM     31  O   UNL A   1      32.792  32.329  27.354  1.00  0.00    -0.458 OA
BRANCH  31  32
ATOM     32  C   UNL A   1      32.956  33.531  27.942  1.00  0.00     0.338 C 
ATOM     33  O   UNL A   1      32.198  34.483  27.876  1.00  0.00    -0.246 OA
BRANCH  32  34
ATOM     34  C   UNL A   1      34.254  33.642  28.609  1.00  0.00     0.060 A 
ATOM     35  C   UNL A   1      35.353  33.782  27.767  1.00  0.00     0.016 A 
ATOM     36  C   UNL A   1      34.415  33.293  29.950  1.00  0.00     0.016 A 
ATOM     37  C   UNL A   1      36.613  33.446  28.196  1.00  0.00     0.010 A 
ATOM     38  C   UNL A   1      35.686  32.945  30.391  1.00  0.00     0.010 A 
ATOM     39  C   UNL A   1      36.756  32.939  29.480  1.00  0.00    -0.014 A 
BRANCH  39  40
ATOM     40  C   UNL A   1      38.056  32.353  29.786  1.00  0.00     0.031 A 
ATOM     41  C   UNL A   1      38.204  30.890  29.539  1.00  0.00     0.074 A 
ATOM     42  C   UNL A   1      39.077  33.134  30.191  1.00  0.00     0.049 A 
ATOM     43  N   UNL A   1      38.823  30.002  30.254  1.00  0.00    -0.248 NA
ATOM     44  C   UNL A   1      37.522  30.339  28.354  1.00  0.00     0.031 C 
ATOM     45  C   UNL A   1      39.090  34.599  30.271  1.00  0.00     0.029 A 
ATOM     46  N   UNL A   1      40.379  32.795  30.414  1.00  0.00    -0.354 N 
ATOM     47  C   UNL A   1      38.732  28.811  29.541  1.00  0.00     0.074 A 
ATOM     48  C   UNL A   1      37.841  29.051  28.434  1.00  0.00     0.031 C 
ATOM     49  C   UNL A   1      40.366  35.018  30.179  1.00  0.00     0.029 A 
ATOM     50  C   UNL A   1      41.234  33.853  30.137  1.00  0.00     0.049 A 
ATOM     51  H   UNL A   1      40.676  31.912  30.731  1.00  0.00     0.167 HD
ATOM     52  C   UNL A   1      39.533  27.736  29.772  1.00  0.00     0.031 A 
ATOM     53  C   UNL A   1      42.517  33.765  29.713  1.00  0.00     0.031 A 
ATOM     54  C   UNL A   1      40.108  27.726  31.084  1.00  0.00     0.049 A 
ATOM     55  C   UNL A   1      43.022  32.408  30.024  1.00  0.00     0.074 A 
ATOM     56  C   UNL A   1      39.595  27.708  32.366  1.00  0.00     0.029 A 
ATOM     57  N   UNL A   1      41.442  28.021  31.221  1.00  0.00    -0.354 N 
ATOM     58  N   UNL A   1      43.264  31.978  31.230  1.00  0.00    -0.248 NA
ATOM     59  C   UNL A   1      42.884  31.370  29.012  1.00  0.00     0.031 C 
ATOM     60  C   UNL A   1      40.519  28.459  33.146  1.00  0.00     0.029 A 
ATOM     61  C   UNL A   1      41.537  28.876  32.289  1.00  0.00     0.049 A 
ATOM     62  H   UNL A   1      42.181  27.687  30.665  1.00  0.00     0.167 HD
ATOM     63  C   UNL A   1      42.892  30.642  31.213  1.00  0.00     0.074 A 
ATOM     64  C   UNL A   1      42.782  30.296  29.799  1.00  0.00     0.031 C 
ATOM     65  C   UNL A   1      42.424  30.015  32.335  1.00  0.00     0.031 A 
BRANCH  52  66
ATOM     66  C   UNL A   1      40.045  26.871  28.654  1.00  0.00    -0.014 A 
ATOM     67  C   UNL A   1      40.909  27.416  27.690  1.00  0.00     0.009 A 
ATOM     68  C   UNL A   1      39.487  25.606  28.371  1.00  0.00     0.009 A 
ATOM     69  C   UNL A   1      41.170  26.741  26.491  1.00  0.00     0.001 A 
ATOM     70  C   UNL A   1      39.781  24.912  27.198  1.00  0.00     0.001 A 
ATOM     71  C   UNL A   1      40.606  25.492  26.245  1.00  0.00     0.000 A 
ENDBRANCH  52  66
BRANCH  53  72
ATOM     72  C   UNL A   1      43.178  34.681  28.757  1.00  0.00    -0.014 A 
ATOM     73  C   UNL A   1      44.473  35.158  28.992  1.00  0.00     0.009 A 
ATOM     74  C   UNL A   1      42.604  34.948  27.496  1.00  0.00     0.009 A 
ATOM     75  C   UNL A   1      45.159  35.883  28.005  1.00  0.00     0.001 A 
ATOM     76  C   UNL A   1      43.278  35.686  26.520  1.00  0.00     0.001 A 
ATOM     77  C   UNL A   1      44.561  36.148  26.774  1.00  0.00     0.000 A 
ENDBRANCH  53  72
BRANCH  65  78
ATOM     78  C   UNL A   1      42.526  30.729  33.660  1.00  0.00    -0.014 A 
ATOM     79  C   UNL A   1      41.590  31.695  34.068  1.00  0.00     0.009 A 
ATOM     80  C   UNL A   1      43.477  30.292  34.595  1.00  0.00     0.009 A 
ATOM     81  C   UNL A   1      41.628  32.235  35.356  1.00  0.00     0.001 A 
ATOM     82  C   UNL A   1      43.500  30.814  35.892  1.00  0.00     0.001 A 
ATOM     83  C   UNL A   1      42.580  31.790  36.270  1.00  0.00     0.000 A 
ENDBRANCH  65  78
ENDBRANCH  39  40
ENDBRANCH  32  34
ENDBRANCH  31  32
ENDBRANCH  30  31
ENDBRANCH   1  30
TORSDOF 15
ENDMDL
MODEL 3
REMARK VINA RESULT:     -11.2      1.930      7.455
REMARK SMILES COc1ccc(-n2ccnc2C[N@@H+]2Cc3[nH]cnc3C[C@@H]2C(=O)OCCOC(=O)c2ccc(-c3c4nc(c(-c5ccccc5)c5ccc([nH]5)c(-c5ccccc5)c5nc(c(-c6ccccc6)c6ccc3[nH]6)C=C5)C=C4)cc2)cc1
REMARK SMILES IDX 25 1 24 2 22 3 23 4 21 5 13 6 14 7 15 9 20 10 16 11 19 12
REMARK SMILES IDX 17 13 18 15 12 16 11 17 7 18 8 19 9 20 10 21 6 22 3 23 4 24
REMARK SMILES IDX 79 25 5 26 78 27 2 28 1 29 26 30 27 31 28 32 29 33 30 34
REMARK SMILES IDX 31 35 77 36 32 37 76 38 33 39 34 40 35 41 70 42 36 43 75 44
REMARK SMILES IDX 69 45 71 46 37 47 74 48 68 49 67 50 38 52 60 53 45 54 59 55
REMARK SMILES IDX 46 56 49 57 58 58 72 59 47 60 48 61 57 63 73 64 50 65 39 66
REMARK SMILES IDX 40 67 44 68 41 69 43 70 42 71 61 72 62 73 66 74 63 75 65 76
REMARK SMILES IDX 64 77 51 78 52 79 56 80 53 81 55 82 54 83
REMARK H PARENT 13 8 16 14 71 51 49 62
REMARK Flexibility Score: inf
ROOT
ATOM      1  C   UNL A   1      34.036  29.469  27.182  1.00  0.00     0.274 C 
ENDROOT
BRANCH   1   2
ATOM      2  O   UNL A   1      33.111  29.327  26.082  1.00  0.00    -0.458 OA
BRANCH   2   3
ATOM      3  C   UNL A   1      31.869  28.834  26.378  1.00  0.00     0.365 C 
ATOM      4  O   UNL A   1      31.430  28.731  27.520  1.00  0.00    -0.245 OA
BRANCH   3   5
ATOM      5  C   UNL A   1      31.158  28.311  25.114  1.00  0.00     0.301 C 
ATOM      6  N   UNL A   1      30.705  26.854  25.204  1.00  0.00    -0.312 N 
ATOM      7  C   UNL A   1      30.279  26.370  23.868  1.00  0.00     0.320 C 
ATOM      8  H   UNL A   1      29.919  26.836  25.853  1.00  0.00     0.349 HD
ATOM      9  C   UNL A   1      31.426  26.529  22.949  1.00  0.00     0.093 A 
ATOM     10  C   UNL A   1      32.048  28.746  23.896  1.00  0.00     0.136 C 
ATOM     11  N   UNL A   1      32.047  25.596  22.174  1.00  0.00    -0.344 N 
ATOM     12  C   UNL A   1      32.262  27.616  22.963  1.00  0.00     0.074 A 
ATOM     13  C   UNL A   1      33.232  26.157  21.767  1.00  0.00     0.197 A 
ATOM     14  H   UNL A   1      31.712  24.698  21.950  1.00  0.00     0.167 HD
ATOM     15  N   UNL A   1      33.378  27.389  22.211  1.00  0.00    -0.241 NA
BRANCH   6  16
ATOM     16  C   UNL A   1      31.736  25.949  25.766  1.00  0.00     0.340 C 
BRANCH  16  17
ATOM     17  C   UNL A   1      31.183  24.616  26.247  1.00  0.00     0.168 A 
ATOM     18  N   UNL A   1      31.848  23.402  26.132  1.00  0.00    -0.299 N 
ATOM     19  C   UNL A   1      30.958  22.426  26.527  1.00  0.00     0.113 A 
ATOM     20  C   UNL A   1      29.835  23.087  26.951  1.00  0.00     0.132 A 
ATOM     21  N   UNL A   1      29.974  24.430  26.761  1.00  0.00    -0.236 NA
BRANCH  18  22
ATOM     22  C   UNL A   1      33.151  23.163  25.643  1.00  0.00     0.047 A 
ATOM     23  C   UNL A   1      35.721  22.899  24.622  1.00  0.00     0.119 A 
ATOM     24  C   UNL A   1      35.538  23.062  25.992  1.00  0.00     0.048 A 
ATOM     25  C   UNL A   1      34.623  22.791  23.767  1.00  0.00     0.048 A 
ATOM     26  C   UNL A   1      34.251  23.207  26.508  1.00  0.00     0.030 A 
ATOM     27  C   UNL A   1      33.332  22.909  24.278  1.00  0.00     0.030 A 
BRANCH  23  28
ATOM     28  O   UNL A   1      37.006  22.782  24.168  1.00  0.00    -0.497 OA
ATOM     29  C   UNL A   1      37.736  21.808  24.912  1.00  0.00     0.278 C 
ENDBRANCH  23  28
ENDBRANCH  18  22
ENDBRANCH  16  17
ENDBRANCH   6  16
ENDBRANCH   3   5
ENDBRANCH   2   3
ENDBRANCH   1   2
BRANCH   1  30
ATOM     30  C   UNL A   1      34.319  30.929  27.550  1.00  0.00     0.275 C 
BRANCH  30  31
ATOM     31  O   UNL A   1      35.714  31.205  27.732  1.00  0.00    -0.458 OA
BRANCH  31  32
ATOM     32  C   UNL A   1      36.221  30.602  28.826  1.00  0.00     0.338 C 
ATOM     33  O   UNL A   1      35.965  30.867  29.988  1.00  0.00    -0.246 OA
BRANCH  32  34
ATOM     34  C   UNL A   1      37.254  29.623  28.483  1.00  0.00     0.060 A 
ATOM     35  C   UNL A   1      37.639  28.770  29.513  1.00  0.00     0.016 A 
ATOM     36  C   UNL A   1      38.029  29.757  27.332  1.00  0.00     0.016 A 
ATOM     37  C   UNL A   1      38.860  28.143  29.485  1.00  0.00     0.010 A 
ATOM     38  C   UNL A   1      39.270  29.131  27.298  1.00  0.00     0.010 A 
ATOM     39  C   UNL A   1      39.708  28.404  28.418  1.00  0.00    -0.014 A 
BRANCH  39  40
ATOM     40  C   UNL A   1      41.080  27.932  28.571  1.00  0.00     0.031 A 
ATOM     41  C   UNL A   1      41.394  26.594  27.991  1.00  0.00     0.074 A 
ATOM     42  C   UNL A   1      42.012  28.722  29.138  1.00  0.00     0.049 A 
ATOM     43  N   UNL A   1      42.141  25.652  28.478  1.00  0.00    -0.248 NA
ATOM     44  C   UNL A   1      40.742  26.247  26.716  1.00  0.00     0.031 C 
ATOM     45  C   UNL A   1      41.851  30.119  29.553  1.00  0.00     0.029 A 
ATOM     46  N   UNL A   1      43.353  28.508  29.267  1.00  0.00    -0.354 N 
ATOM     47  C   UNL A   1      42.169  24.653  27.509  1.00  0.00     0.074 A 
ATOM     48  C   UNL A   1      41.217  25.025  26.494  1.00  0.00     0.031 C 
ATOM     49  C   UNL A   1      43.063  30.706  29.552  1.00  0.00     0.029 A 
ATOM     50  C   UNL A   1      44.063  29.700  29.236  1.00  0.00     0.049 A 
ATOM     51  H   UNL A   1      43.766  27.620  29.370  1.00  0.00     0.167 HD
ATOM     52  C   UNL A   1      43.102  23.663  27.481  1.00  0.00     0.031 A 
ATOM     53  C   UNL A   1      45.332  29.873  28.794  1.00  0.00     0.031 A 
ATOM     54  C   UNL A   1      43.721  23.427  28.751  1.00  0.00     0.049 A 
ATOM     55  C   UNL A   1      46.008  28.555  28.780  1.00  0.00     0.074 A 
ATOM     56  C   UNL A   1      43.260  23.052  29.997  1.00  0.00     0.029 A 
ATOM     57  N   UNL A   1      45.013  23.848  28.943  1.00  0.00    -0.354 N 
ATOM     58  N   UNL A   1      46.343  27.896  29.852  1.00  0.00    -0.248 NA
ATOM     59  C   UNL A   1      45.960  27.766  27.556  1.00  0.00     0.031 C 
ATOM     60  C   UNL A   1      44.114  23.715  30.923  1.00  0.00     0.029 A 
ATOM     61  C   UNL A   1      45.042  24.441  30.178  1.00  0.00     0.049 A 
ATOM     62  H   UNL A   1      45.767  23.745  28.319  1.00  0.00     0.167 HD
ATOM     63  C   UNL A   1      46.135  26.563  29.530  1.00  0.00     0.074 A 
ATOM     64  C   UNL A   1      46.017  26.537  28.075  1.00  0.00     0.031 C 
ATOM     65  C   UNL A   1      45.786  25.643  30.480  1.00  0.00     0.031 A 
BRANCH  52  66
ATOM     66  C   UNL A   1      43.674  23.147  26.189  1.00  0.00    -0.014 A 
ATOM     67  C   UNL A   1      43.680  21.766  25.932  1.00  0.00     0.009 A 
ATOM     68  C   UNL A   1      44.448  23.960  25.335  1.00  0.00     0.009 A 
ATOM     69  C   UNL A   1      44.452  21.229  24.895  1.00  0.00     0.001 A 
ATOM     70  C   UNL A   1      45.183  23.432  24.274  1.00  0.00     0.001 A 
ATOM     71  C   UNL A   1      45.203  22.060  24.068  1.00  0.00     0.000 A 
ENDBRANCH  52  66
BRANCH  53  72
ATOM     72  C   UNL A   1      45.842  31.059  28.071  1.00  0.00    -0.014 A 
ATOM     73  C   UNL A   1      45.229  31.505  26.894  1.00  0.00     0.009 A 
ATOM     74  C   UNL A   1      46.833  31.885  28.642  1.00  0.00     0.009 A 
ATOM     75  C   UNL A   1      45.604  32.723  26.308  1.00  0.00     0.001 A 
ATOM     76  C   UNL A   1      47.221  33.089  28.050  1.00  0.00     0.001 A 
ATOM     77  C   UNL A   1      46.599  33.511  26.884  1.00  0.00     0.000 A 
ENDBRANCH  53  72
BRANCH  65  78
ATOM     78  C   UNL A   1      45.849  26.042  31.933  1.00  0.00    -0.014 A 
ATOM     79  C   UNL A   1      46.993  25.831  32.722  1.00  0.00     0.009 A 
ATOM     80  C   UNL A   1      44.806  26.811  32.472  1.00  0.00     0.009 A 
ATOM     81  C   UNL A   1      47.075  26.339  34.021  1.00  0.00     0.001 A 
ATOM     82  C   UNL A   1      44.898  27.340  33.762  1.00  0.00     0.001 A 
ATOM     83  C   UNL A   1      46.029  27.099  34.539  1.00  0.00     0.000 A 
ENDBRANCH  65  78
ENDBRANCH  39  40
ENDBRANCH  32  34
ENDBRANCH  31  32
ENDBRANCH  30  31
ENDBRANCH   1  30
TORSDOF 15
ENDMDL
