MODEL 1
REMARK VINA RESULT:     -11.1      0.000      0.000
REMARK SMILES CC(C)C(=O)N1c2ccc(S(=O)(=O)N3CCOCC3)cc2C[C@H]1C(=O)OCCOC(=O)c1ccc(-c2c3nc(c(-c4ccccc4)c4ccc([nH]4)c(-c4ccccc4)c4nc(c(-c5ccccc5)c5ccc2[nH]5)C=C4)C=C3)cc1
REMARK SMILES IDX 27 1 26 2 24 3 25 4 23 5 6 6 7 7 8 8 21 9 22 10 9 11 20 12
REMARK SMILES IDX 10 13 4 14 5 15 2 16 1 17 3 18 11 19 12 20 13 21 14 22 15 23
REMARK SMILES IDX 19 24 16 25 18 26 17 27 28 28 29 29 30 30 31 31 32 32 33 33
REMARK SMILES IDX 79 34 34 35 78 36 35 37 36 38 37 39 72 40 38 41 77 42 71 43
REMARK SMILES IDX 73 44 39 45 76 46 70 47 69 48 40 50 62 51 47 52 61 53 48 54
REMARK SMILES IDX 51 55 60 56 74 57 49 58 50 59 59 61 75 62 52 63 41 64 42 65
REMARK SMILES IDX 46 66 43 67 45 68 44 69 63 70 64 71 68 72 65 73 67 74 66 75
REMARK SMILES IDX 53 76 54 77 58 78 55 79 57 80 56 81
REMARK H PARENT 73 49 51 60
REMARK Flexibility Score: inf
ROOT
ATOM      1  C   UNL A   1      37.424  19.775  25.167  1.00  0.00     0.274 C 
ENDROOT
BRANCH   1   2
ATOM      2  O   UNL A   1      37.397  21.017  24.443  1.00  0.00    -0.461 OA
BRANCH   2   3
ATOM      3  C   UNL A   1      37.005  22.121  25.121  1.00  0.00     0.329 C 
ATOM      4  O   UNL A   1      37.667  22.674  25.995  1.00  0.00    -0.250 OA
BRANCH   3   5
ATOM      5  C   UNL A   1      35.677  22.697  24.625  1.00  0.00     0.204 C 
ATOM      6  N   UNL A   1      34.464  22.345  25.380  1.00  0.00    -0.297 N 
ATOM      7  C   UNL A   1      33.809  23.516  25.749  1.00  0.00     0.048 A 
ATOM      8  C   UNL A   1      32.662  23.615  26.497  1.00  0.00     0.028 A 
ATOM      9  C   UNL A   1      34.471  24.638  25.253  1.00  0.00    -0.020 A 
ATOM     10  C   UNL A   1      35.765  24.244  24.614  1.00  0.00     0.075 C 
ATOM     11  C   UNL A   1      32.144  24.883  26.706  1.00  0.00     0.024 A 
ATOM     12  C   UNL A   1      33.932  25.908  25.410  1.00  0.00     0.027 A 
ATOM     13  C   UNL A   1      32.738  26.016  26.134  1.00  0.00     0.083 A 
BRANCH   6  14
ATOM     14  C   UNL A   1      33.891  21.096  25.428  1.00  0.00     0.230 C 
ATOM     15  O   UNL A   1      33.651  20.551  26.510  1.00  0.00    -0.274 OA
BRANCH  14  16
ATOM     16  C   UNL A   1      33.355  20.475  24.121  1.00  0.00     0.073 C 
ATOM     17  C   UNL A   1      33.053  18.986  24.304  1.00  0.00     0.018 C 
ATOM     18  C   UNL A   1      32.167  21.171  23.467  1.00  0.00     0.018 C 
ENDBRANCH  14  16
ENDBRANCH   6  14
BRANCH  13  19
ATOM     19  S   UNL A   1      31.955  27.606  26.322  1.00  0.00     0.243 S 
ATOM     20  O   UNL A   1      31.025  27.469  27.425  1.00  0.00    -0.207 OA
ATOM     21  O   UNL A   1      33.015  28.587  26.335  1.00  0.00    -0.207 OA
BRANCH  19  22
ATOM     22  N   UNL A   1      31.081  27.819  24.905  1.00  0.00    -0.193 NA
ATOM     23  C   UNL A   1      30.385  26.706  24.219  1.00  0.00     0.131 C 
ATOM     24  C   UNL A   1      31.094  29.101  24.176  1.00  0.00     0.131 C 
ATOM     25  C   UNL A   1      30.682  26.666  22.706  1.00  0.00     0.177 C 
ATOM     26  C   UNL A   1      31.521  28.874  22.727  1.00  0.00     0.177 C 
ATOM     27  O   UNL A   1      30.629  27.953  22.083  1.00  0.00    -0.379 OA
ENDBRANCH  19  22
ENDBRANCH  13  19
ENDBRANCH   3   5
ENDBRANCH   2   3
ENDBRANCH   1   2
BRANCH   1  28
ATOM     28  C   UNL A   1      38.858  19.254  25.305  1.00  0.00     0.275 C 
BRANCH  28  29
ATOM     29  O   UNL A   1      39.648  20.078  26.191  1.00  0.00    -0.458 OA
BRANCH  29  30
ATOM     30  C   UNL A   1      40.969  19.809  26.175  1.00  0.00     0.338 C 
ATOM     31  O   UNL A   1      41.526  18.807  25.754  1.00  0.00    -0.246 OA
BRANCH  30  32
ATOM     32  C   UNL A   1      41.769  20.947  26.635  1.00  0.00     0.060 A 
ATOM     33  C   UNL A   1      41.721  21.248  27.997  1.00  0.00     0.016 A 
ATOM     34  C   UNL A   1      42.293  21.862  25.725  1.00  0.00     0.016 A 
ATOM     35  C   UNL A   1      42.069  22.512  28.443  1.00  0.00     0.010 A 
ATOM     36  C   UNL A   1      42.727  23.109  26.191  1.00  0.00     0.010 A 
ATOM     37  C   UNL A   1      42.562  23.462  27.542  1.00  0.00    -0.014 A 
BRANCH  37  38
ATOM     38  C   UNL A   1      42.832  24.839  28.024  1.00  0.00     0.031 A 
ATOM     39  C   UNL A   1      44.245  25.285  28.285  1.00  0.00     0.074 A 
ATOM     40  C   UNL A   1      41.813  25.708  28.160  1.00  0.00     0.049 A 
ATOM     41  N   UNL A   1      44.675  26.421  28.773  1.00  0.00    -0.248 NA
ATOM     42  C   UNL A   1      45.315  24.328  27.960  1.00  0.00     0.031 C 
ATOM     43  C   UNL A   1      40.406  25.416  27.873  1.00  0.00     0.029 A 
ATOM     44  N   UNL A   1      41.806  27.019  28.558  1.00  0.00    -0.354 N 
ATOM     45  C   UNL A   1      46.058  26.299  28.854  1.00  0.00     0.074 A 
ATOM     46  C   UNL A   1      46.395  24.976  28.375  1.00  0.00     0.031 C 
ATOM     47  C   UNL A   1      39.679  26.526  28.069  1.00  0.00     0.029 A 
ATOM     48  C   UNL A   1      40.554  27.582  28.564  1.00  0.00     0.049 A 
ATOM     49  H   UNL A   1      42.620  27.510  28.814  1.00  0.00     0.167 HD
ATOM     50  C   UNL A   1      46.963  27.208  29.292  1.00  0.00     0.031 A 
ATOM     51  C   UNL A   1      40.149  28.804  28.954  1.00  0.00     0.031 A 
ATOM     52  C   UNL A   1      46.624  28.529  29.750  1.00  0.00     0.049 A 
ATOM     53  C   UNL A   1      41.167  29.776  29.475  1.00  0.00     0.074 A 
ATOM     54  C   UNL A   1      47.465  29.523  30.222  1.00  0.00     0.029 A 
ATOM     55  N   UNL A   1      45.338  29.047  29.777  1.00  0.00    -0.354 N 
ATOM     56  N   UNL A   1      42.464  29.631  29.591  1.00  0.00    -0.248 NA
ATOM     57  C   UNL A   1      40.661  31.081  29.922  1.00  0.00     0.031 C 
ATOM     58  C   UNL A   1      46.681  30.629  30.572  1.00  0.00     0.029 A 
ATOM     59  C   UNL A   1      45.360  30.343  30.267  1.00  0.00     0.049 A 
ATOM     60  H   UNL A   1      44.529  28.565  29.492  1.00  0.00     0.167 HD
ATOM     61  C   UNL A   1      42.934  30.834  30.099  1.00  0.00     0.074 A 
ATOM     62  C   UNL A   1      41.784  31.701  30.254  1.00  0.00     0.031 C 
ATOM     63  C   UNL A   1      44.204  31.190  30.409  1.00  0.00     0.031 A 
BRANCH  50  64
ATOM     64  C   UNL A   1      48.404  26.780  29.338  1.00  0.00    -0.014 A 
ATOM     65  C   UNL A   1      49.290  27.064  28.287  1.00  0.00     0.009 A 
ATOM     66  C   UNL A   1      48.887  26.098  30.467  1.00  0.00     0.009 A 
ATOM     67  C   UNL A   1      50.620  26.643  28.351  1.00  0.00     0.001 A 
ATOM     68  C   UNL A   1      50.223  25.702  30.540  1.00  0.00     0.001 A 
ATOM     69  C   UNL A   1      51.087  25.965  29.478  1.00  0.00     0.000 A 
ENDBRANCH  50  64
BRANCH  51  70
ATOM     70  C   UNL A   1      38.709  29.164  28.885  1.00  0.00    -0.014 A 
ATOM     71  C   UNL A   1      37.877  28.995  30.001  1.00  0.00     0.009 A 
ATOM     72  C   UNL A   1      38.164  29.688  27.703  1.00  0.00     0.009 A 
ATOM     73  C   UNL A   1      36.523  29.326  29.928  1.00  0.00     0.001 A 
ATOM     74  C   UNL A   1      36.816  30.046  27.642  1.00  0.00     0.001 A 
ATOM     75  C   UNL A   1      35.995  29.856  28.751  1.00  0.00     0.000 A 
ENDBRANCH  51  70
BRANCH  63  76
ATOM     76  C   UNL A   1      44.415  32.593  30.897  1.00  0.00    -0.014 A 
ATOM     77  C   UNL A   1      44.660  33.649  30.006  1.00  0.00     0.009 A 
ATOM     78  C   UNL A   1      44.351  32.862  32.273  1.00  0.00     0.009 A 
ATOM     79  C   UNL A   1      44.879  34.941  30.489  1.00  0.00     0.001 A 
ATOM     80  C   UNL A   1      44.542  34.159  32.750  1.00  0.00     0.001 A 
ATOM     81  C   UNL A   1      44.817  35.195  31.859  1.00  0.00     0.000 A 
ENDBRANCH  63  76
ENDBRANCH  37  38
ENDBRANCH  30  32
ENDBRANCH  29  30
ENDBRANCH  28  29
ENDBRANCH   1  28
TORSDOF 15
ENDMDL
MODEL 2
REMARK VINA RESULT:     -10.7      3.810      9.309
REMARK SMILES CC(C)C(=O)N1c2ccc(S(=O)(=O)N3CCOCC3)cc2C[C@H]1C(=O)OCCOC(=O)c1ccc(-c2c3nc(c(-c4ccccc4)c4ccc([nH]4)c(-c4ccccc4)c4nc(c(-c5ccccc5)c5ccc2[nH]5)C=C4)C=C3)cc1
REMARK SMILES IDX 27 1 26 2 24 3 25 4 23 5 6 6 7 7 8 8 21 9 22 10 9 11 20 12
REMARK SMILES IDX 10 13 4 14 5 15 2 16 1 17 3 18 11 19 12 20 13 21 14 22 15 23
REMARK SMILES IDX 19 24 16 25 18 26 17 27 28 28 29 29 30 30 31 31 32 32 33 33
REMARK SMILES IDX 79 34 34 35 78 36 35 37 36 38 37 39 72 40 38 41 77 42 71 43
REMARK SMILES IDX 73 44 39 45 76 46 70 47 69 48 40 50 62 51 47 52 61 53 48 54
REMARK SMILES IDX 51 55 60 56 74 57 49 58 50 59 59 61 75 62 52 63 41 64 42 65
REMARK SMILES IDX 46 66 43 67 45 68 44 69 63 70 64 71 68 72 65 73 67 74 66 75
REMARK SMILES IDX 53 76 54 77 58 78 55 79 57 80 56 81
REMARK H PARENT 73 49 51 60
REMARK Flexibility Score: inf
ROOT
ATOM      1  C   UNL A   1      31.492  31.826  26.157  1.00  0.00     0.274 C 
ENDROOT
BRANCH   1   2
ATOM      2  O   UNL A   1      31.549  30.529  26.775  1.00  0.00    -0.461 OA
BRANCH   2   3
ATOM      3  C   UNL A   1      32.309  29.587  26.168  1.00  0.00     0.329 C 
ATOM      4  O   UNL A   1      33.525  29.665  26.013  1.00  0.00    -0.250 OA
BRANCH   3   5
ATOM      5  C   UNL A   1      31.520  28.338  25.768  1.00  0.00     0.204 C 
ATOM      6  N   UNL A   1      31.487  27.991  24.338  1.00  0.00    -0.297 N 
ATOM      7  C   UNL A   1      31.919  26.677  24.185  1.00  0.00     0.048 A 
ATOM      8  C   UNL A   1      32.068  25.992  23.004  1.00  0.00     0.028 A 
ATOM      9  C   UNL A   1      32.197  26.094  25.421  1.00  0.00    -0.020 A 
ATOM     10  C   UNL A   1      32.098  27.110  26.514  1.00  0.00     0.075 C 
ATOM     11  C   UNL A   1      32.462  24.666  23.079  1.00  0.00     0.024 A 
ATOM     12  C   UNL A   1      32.541  24.752  25.511  1.00  0.00     0.027 A 
ATOM     13  C   UNL A   1      32.652  24.032  24.315  1.00  0.00     0.083 A 
BRANCH   6  14
ATOM     14  C   UNL A   1      30.833  28.703  23.361  1.00  0.00     0.230 C 
ATOM     15  O   UNL A   1      31.450  29.172  22.399  1.00  0.00    -0.274 OA
BRANCH  14  16
ATOM     16  C   UNL A   1      29.289  28.727  23.368  1.00  0.00     0.073 C 
ATOM     17  C   UNL A   1      28.748  29.535  22.186  1.00  0.00     0.018 C 
ATOM     18  C   UNL A   1      28.582  27.379  23.444  1.00  0.00     0.018 C 
ENDBRANCH  14  16
ENDBRANCH   6  14
BRANCH  13  19
ATOM     19  S   UNL A   1      33.027  22.291  24.358  1.00  0.00     0.243 S 
ATOM     20  O   UNL A   1      32.226  21.732  25.428  1.00  0.00    -0.207 OA
ATOM     21  O   UNL A   1      32.925  21.815  22.998  1.00  0.00    -0.207 OA
BRANCH  19  22
ATOM     22  N   UNL A   1      34.644  22.216  24.803  1.00  0.00    -0.193 NA
ATOM     23  C   UNL A   1      35.680  23.092  24.210  1.00  0.00     0.131 C 
ATOM     24  C   UNL A   1      35.150  21.157  25.696  1.00  0.00     0.131 C 
ATOM     25  C   UNL A   1      36.928  22.309  23.756  1.00  0.00     0.177 C 
ATOM     26  C   UNL A   1      36.309  20.419  25.029  1.00  0.00     0.177 C 
ATOM     27  O   UNL A   1      37.365  21.335  24.710  1.00  0.00    -0.379 OA
ENDBRANCH  19  22
ENDBRANCH  13  19
ENDBRANCH   3   5
ENDBRANCH   2   3
ENDBRANCH   1   2
BRANCH   1  28
ATOM     28  C   UNL A   1      31.464  32.933  27.215  1.00  0.00     0.275 C 
BRANCH  28  29
ATOM     29  O   UNL A   1      32.617  33.798  27.120  1.00  0.00    -0.458 OA
BRANCH  29  30
ATOM     30  C   UNL A   1      33.235  34.040  28.295  1.00  0.00     0.338 C 
ATOM     31  O   UNL A   1      32.822  34.697  29.237  1.00  0.00    -0.246 OA
BRANCH  30  32
ATOM     32  C   UNL A   1      34.495  33.303  28.417  1.00  0.00     0.060 A 
ATOM     33  C   UNL A   1      34.408  31.939  28.696  1.00  0.00     0.016 A 
ATOM     34  C   UNL A   1      35.704  33.980  28.558  1.00  0.00     0.016 A 
ATOM     35  C   UNL A   1      35.489  31.270  29.246  1.00  0.00     0.010 A 
ATOM     36  C   UNL A   1      36.820  33.281  29.032  1.00  0.00     0.010 A 
ATOM     37  C   UNL A   1      36.704  31.939  29.433  1.00  0.00    -0.014 A 
BRANCH  37  38
ATOM     38  C   UNL A   1      37.816  31.232  30.117  1.00  0.00     0.031 A 
ATOM     39  C   UNL A   1      38.044  31.432  31.591  1.00  0.00     0.074 A 
ATOM     40  C   UNL A   1      38.574  30.360  29.427  1.00  0.00     0.049 A 
ATOM     41  N   UNL A   1      39.000  30.959  32.349  1.00  0.00    -0.248 NA
ATOM     42  C   UNL A   1      37.075  32.277  32.306  1.00  0.00     0.031 C 
ATOM     43  C   UNL A   1      38.408  30.028  28.010  1.00  0.00     0.029 A 
ATOM     44  N   UNL A   1      39.625  29.579  29.831  1.00  0.00    -0.354 N 
ATOM     45  C   UNL A   1      38.773  31.482  33.617  1.00  0.00     0.074 A 
ATOM     46  C   UNL A   1      37.596  32.318  33.525  1.00  0.00     0.031 C 
ATOM     47  C   UNL A   1      39.300  29.086  27.673  1.00  0.00     0.029 A 
ATOM     48  C   UNL A   1      40.146  28.802  28.826  1.00  0.00     0.049 A 
ATOM     49  H   UNL A   1      39.972  29.574  30.752  1.00  0.00     0.167 HD
ATOM     50  C   UNL A   1      39.485  31.287  34.753  1.00  0.00     0.031 A 
ATOM     51  C   UNL A   1      41.206  27.974  28.824  1.00  0.00     0.031 A 
ATOM     52  C   UNL A   1      40.645  30.440  34.844  1.00  0.00     0.049 A 
ATOM     53  C   UNL A   1      42.003  27.808  30.085  1.00  0.00     0.074 A 
ATOM     54  C   UNL A   1      41.443  30.181  35.946  1.00  0.00     0.029 A 
ATOM     55  N   UNL A   1      41.164  29.700  33.792  1.00  0.00    -0.354 N 
ATOM     56  N   UNL A   1      41.805  28.347  31.263  1.00  0.00    -0.248 NA
ATOM     57  C   UNL A   1      43.172  26.922  30.012  1.00  0.00     0.031 C 
ATOM     58  C   UNL A   1      42.468  29.314  35.549  1.00  0.00     0.029 A 
ATOM     59  C   UNL A   1      42.277  28.992  34.215  1.00  0.00     0.049 A 
ATOM     60  H   UNL A   1      40.797  29.682  32.879  1.00  0.00     0.167 HD
ATOM     61  C   UNL A   1      42.808  27.845  32.080  1.00  0.00     0.074 A 
ATOM     62  C   UNL A   1      43.603  26.948  31.266  1.00  0.00     0.031 C 
ATOM     63  C   UNL A   1      43.050  28.102  33.389  1.00  0.00     0.031 A 
BRANCH  50  64
ATOM     64  C   UNL A   1      39.051  32.042  35.979  1.00  0.00    -0.014 A 
ATOM     65  C   UNL A   1      38.096  31.520  36.865  1.00  0.00     0.009 A 
ATOM     66  C   UNL A   1      39.626  33.292  36.262  1.00  0.00     0.009 A 
ATOM     67  C   UNL A   1      37.701  32.249  37.989  1.00  0.00     0.001 A 
ATOM     68  C   UNL A   1      39.250  34.007  37.399  1.00  0.00     0.001 A 
ATOM     69  C   UNL A   1      38.280  33.490  38.257  1.00  0.00     0.000 A 
ENDBRANCH  50  64
BRANCH  51  70
ATOM     70  C   UNL A   1      41.584  27.258  27.578  1.00  0.00    -0.014 A 
ATOM     71  C   UNL A   1      42.458  27.847  26.654  1.00  0.00     0.009 A 
ATOM     72  C   UNL A   1      41.078  25.976  27.315  1.00  0.00     0.009 A 
ATOM     73  C   UNL A   1      42.803  27.174  25.480  1.00  0.00     0.001 A 
ATOM     74  C   UNL A   1      41.448  25.292  26.155  1.00  0.00     0.001 A 
ATOM     75  C   UNL A   1      42.302  25.896  25.235  1.00  0.00     0.000 A 
ENDBRANCH  51  70
BRANCH  63  76
ATOM     76  C   UNL A   1      44.190  27.362  34.025  1.00  0.00    -0.014 A 
ATOM     77  C   UNL A   1      45.487  27.896  34.049  1.00  0.00     0.009 A 
ATOM     78  C   UNL A   1      43.954  26.114  34.623  1.00  0.00     0.009 A 
ATOM     79  C   UNL A   1      46.535  27.174  34.625  1.00  0.00     0.001 A 
ATOM     80  C   UNL A   1      44.998  25.408  35.222  1.00  0.00     0.001 A 
ATOM     81  C   UNL A   1      46.290  25.934  35.212  1.00  0.00     0.000 A 
ENDBRANCH  63  76
ENDBRANCH  37  38
ENDBRANCH  30  32
ENDBRANCH  29  30
ENDBRANCH  28  29
ENDBRANCH   1  28
TORSDOF 15
ENDMDL
MODEL 3
REMARK VINA RESULT:     -10.6      2.378      8.257
REMARK SMILES CC(C)C(=O)N1c2ccc(S(=O)(=O)N3CCOCC3)cc2C[C@H]1C(=O)OCCOC(=O)c1ccc(-c2c3nc(c(-c4ccccc4)c4ccc([nH]4)c(-c4ccccc4)c4nc(c(-c5ccccc5)c5ccc2[nH]5)C=C4)C=C3)cc1
REMARK SMILES IDX 27 1 26 2 24 3 25 4 23 5 6 6 7 7 8 8 21 9 22 10 9 11 20 12
REMARK SMILES IDX 10 13 4 14 5 15 2 16 1 17 3 18 11 19 12 20 13 21 14 22 15 23
REMARK SMILES IDX 19 24 16 25 18 26 17 27 28 28 29 29 30 30 31 31 32 32 33 33
REMARK SMILES IDX 79 34 34 35 78 36 35 37 36 38 37 39 72 40 38 41 77 42 71 43
REMARK SMILES IDX 73 44 39 45 76 46 70 47 69 48 40 50 62 51 47 52 61 53 48 54
REMARK SMILES IDX 51 55 60 56 74 57 49 58 50 59 59 61 75 62 52 63 41 64 42 65
REMARK SMILES IDX 46 66 43 67 45 68 44 69 63 70 64 71 68 72 65 73 67 74 66 75
REMARK SMILES IDX 53 76 54 77 58 78 55 79 57 80 56 81
REMARK H PARENT 73 49 51 60
REMARK Flexibility Score: inf
ROOT
ATOM      1  C   UNL A   1      34.107  30.872  27.226  1.00  0.00     0.274 C 
ENDROOT
BRANCH   1   2
ATOM      2  O   UNL A   1      32.957  30.026  27.395  1.00  0.00    -0.461 OA
BRANCH   2   3
ATOM      3  C   UNL A   1      32.040  30.021  26.399  1.00  0.00     0.329 C 
ATOM      4  O   UNL A   1      31.611  31.029  25.842  1.00  0.00    -0.250 OA
BRANCH   3   5
ATOM      5  C   UNL A   1      31.645  28.614  25.945  1.00  0.00     0.204 C 
ATOM      6  N   UNL A   1      31.796  28.300  24.516  1.00  0.00    -0.297 N 
ATOM      7  C   UNL A   1      32.575  27.153  24.389  1.00  0.00     0.048 A 
ATOM      8  C   UNL A   1      32.977  26.558  23.219  1.00  0.00     0.028 A 
ATOM      9  C   UNL A   1      32.922  26.643  25.639  1.00  0.00    -0.020 A 
ATOM     10  C   UNL A   1      32.484  27.573  26.726  1.00  0.00     0.075 C 
ATOM     11  C   UNL A   1      33.709  25.385  23.317  1.00  0.00     0.024 A 
ATOM     12  C   UNL A   1      33.608  25.441  25.749  1.00  0.00     0.027 A 
ATOM     13  C   UNL A   1      33.985  24.801  24.561  1.00  0.00     0.083 A 
BRANCH   6  14
ATOM     14  C   UNL A   1      31.037  28.829  23.499  1.00  0.00     0.230 C 
ATOM     15  O   UNL A   1      31.572  29.347  22.514  1.00  0.00    -0.274 OA
BRANCH  14  16
ATOM     16  C   UNL A   1      29.514  28.577  23.502  1.00  0.00     0.073 C 
ATOM     17  C   UNL A   1      28.830  29.339  22.365  1.00  0.00     0.018 C 
ATOM     18  C   UNL A   1      29.059  27.122  23.501  1.00  0.00     0.018 C 
ENDBRANCH  14  16
ENDBRANCH   6  14
BRANCH  13  19
ATOM     19  S   UNL A   1      34.812  23.225  24.625  1.00  0.00     0.243 S 
ATOM     20  O   UNL A   1      35.353  23.000  23.300  1.00  0.00    -0.207 OA
ATOM     21  O   UNL A   1      35.652  23.249  25.800  1.00  0.00    -0.207 OA
BRANCH  19  22
ATOM     22  N   UNL A   1      33.584  22.112  24.899  1.00  0.00    -0.193 NA
ATOM     23  C   UNL A   1      33.542  21.246  26.099  1.00  0.00     0.131 C 
ATOM     24  C   UNL A   1      32.564  21.821  23.874  1.00  0.00     0.131 C 
ATOM     25  C   UNL A   1      33.278  19.767  25.752  1.00  0.00     0.177 C 
ATOM     26  C   UNL A   1      32.528  20.323  23.582  1.00  0.00     0.177 C 
ATOM     27  O   UNL A   1      32.241  19.589  24.781  1.00  0.00    -0.379 OA
ENDBRANCH  19  22
ENDBRANCH  13  19
ENDBRANCH   3   5
ENDBRANCH   2   3
ENDBRANCH   1   2
BRANCH   1  28
ATOM     28  C   UNL A   1      34.935  30.931  28.514  1.00  0.00     0.275 C 
BRANCH  28  29
ATOM     29  O   UNL A   1      35.651  29.698  28.752  1.00  0.00    -0.458 OA
BRANCH  29  30
ATOM     30  C   UNL A   1      36.426  29.705  29.855  1.00  0.00     0.338 C 
ATOM     31  O   UNL A   1      36.084  29.525  31.013  1.00  0.00    -0.246 OA
BRANCH  30  32
ATOM     32  C   UNL A   1      37.847  29.845  29.529  1.00  0.00     0.060 A 
ATOM     33  C   UNL A   1      38.201  29.757  28.183  1.00  0.00     0.016 A 
ATOM     34  C   UNL A   1      38.818  29.756  30.525  1.00  0.00     0.016 A 
ATOM     35  C   UNL A   1      39.503  29.445  27.824  1.00  0.00     0.010 A 
ATOM     36  C   UNL A   1      40.148  29.528  30.156  1.00  0.00     0.010 A 
ATOM     37  C   UNL A   1      40.488  29.312  28.809  1.00  0.00    -0.014 A 
BRANCH  37  38
ATOM     38  C   UNL A   1      41.849  28.878  28.410  1.00  0.00     0.031 A 
ATOM     39  C   UNL A   1      42.102  27.447  28.019  1.00  0.00     0.074 A 
ATOM     40  C   UNL A   1      42.841  29.785  28.332  1.00  0.00     0.049 A 
ATOM     41  N   UNL A   1      43.231  26.863  27.708  1.00  0.00    -0.248 NA
ATOM     42  C   UNL A   1      40.933  26.553  27.976  1.00  0.00     0.031 C 
ATOM     43  C   UNL A   1      42.706  31.216  28.618  1.00  0.00     0.029 A 
ATOM     44  N   UNL A   1      44.155  29.640  27.970  1.00  0.00    -0.354 N 
ATOM     45  C   UNL A   1      42.917  25.529  27.477  1.00  0.00     0.074 A 
ATOM     46  C   UNL A   1      41.493  25.386  27.692  1.00  0.00     0.031 C 
ATOM     47  C   UNL A   1      43.880  31.821  28.387  1.00  0.00     0.029 A 
ATOM     48  C   UNL A   1      44.864  30.815  28.008  1.00  0.00     0.049 A 
ATOM     49  H   UNL A   1      44.551  28.778  27.709  1.00  0.00     0.167 HD
ATOM     50  C   UNL A   1      43.742  24.515  27.120  1.00  0.00     0.031 A 
ATOM     51  C   UNL A   1      46.171  31.052  27.791  1.00  0.00     0.031 A 
ATOM     52  C   UNL A   1      45.154  24.666  26.889  1.00  0.00     0.049 A 
ATOM     53  C   UNL A   1      47.070  29.904  27.439  1.00  0.00     0.074 A 
ATOM     54  C   UNL A   1      46.080  23.701  26.532  1.00  0.00     0.029 A 
ATOM     55  N   UNL A   1      45.842  25.867  26.976  1.00  0.00    -0.354 N 
ATOM     56  N   UNL A   1      46.768  28.640  27.270  1.00  0.00    -0.248 NA
ATOM     57  C   UNL A   1      48.493  30.218  27.251  1.00  0.00     0.031 C 
ATOM     58  C   UNL A   1      47.336  24.312  26.442  1.00  0.00     0.029 A 
ATOM     59  C   UNL A   1      47.182  25.667  26.689  1.00  0.00     0.049 A 
ATOM     60  H   UNL A   1      45.438  26.734  27.208  1.00  0.00     0.167 HD
ATOM     61  C   UNL A   1      47.958  28.011  26.930  1.00  0.00     0.074 A 
ATOM     62  C   UNL A   1      48.982  29.036  26.903  1.00  0.00     0.031 C 
ATOM     63  C   UNL A   1      48.183  26.701  26.664  1.00  0.00     0.031 A 
BRANCH  50  64
ATOM     64  C   UNL A   1      43.139  23.142  27.004  1.00  0.00    -0.014 A 
ATOM     65  C   UNL A   1      42.825  22.378  28.139  1.00  0.00     0.009 A 
ATOM     66  C   UNL A   1      42.861  22.614  25.733  1.00  0.00     0.009 A 
ATOM     67  C   UNL A   1      42.279  21.099  28.001  1.00  0.00     0.001 A 
ATOM     68  C   UNL A   1      42.290  21.348  25.598  1.00  0.00     0.001 A 
ATOM     69  C   UNL A   1      42.009  20.587  26.732  1.00  0.00     0.000 A 
ENDBRANCH  50  64
BRANCH  51  70
ATOM     70  C   UNL A   1      46.704  32.433  27.923  1.00  0.00    -0.014 A 
ATOM     71  C   UNL A   1      46.733  33.295  26.818  1.00  0.00     0.009 A 
ATOM     72  C   UNL A   1      47.179  32.895  29.160  1.00  0.00     0.009 A 
ATOM     73  C   UNL A   1      47.244  34.588  26.945  1.00  0.00     0.001 A 
ATOM     74  C   UNL A   1      47.661  34.199  29.292  1.00  0.00     0.001 A 
ATOM     75  C   UNL A   1      47.703  35.040  28.182  1.00  0.00     0.000 A 
ENDBRANCH  51  70
BRANCH  63  76
ATOM     76  C   UNL A   1      49.581  26.321  26.270  1.00  0.00    -0.014 A 
ATOM     77  C   UNL A   1      50.041  26.485  24.955  1.00  0.00     0.009 A 
ATOM     78  C   UNL A   1      50.453  25.803  27.240  1.00  0.00     0.009 A 
ATOM     79  C   UNL A   1      51.338  26.097  24.610  1.00  0.00     0.001 A 
ATOM     80  C   UNL A   1      51.757  25.443  26.898  1.00  0.00     0.001 A 
ATOM     81  C   UNL A   1      52.195  25.579  25.581  1.00  0.00     0.000 A 
ENDBRANCH  63  76
ENDBRANCH  37  38
ENDBRANCH  30  32
ENDBRANCH  29  30
ENDBRANCH  28  29
ENDBRANCH   1  28
TORSDOF 15
ENDMDL
