MODEL 1
REMARK VINA RESULT:     -12.2      0.000      0.000
REMARK SMILES O=C1C[C@H](c2cn[nH]c2C(=O)OCCOC(=O)c2ccc(-c3c4nc(c(-c5ccccc5)c5ccc([nH]5)c(-c5ccccc5)c5nc(c(-c6ccccc6)c6ccc3[nH]6)C=C5)C=C4)cc2)c2c(-c3cccs3)n[nH]c2N1
REMARK SMILES IDX 13 1 12 2 10 3 11 4 9 5 5 6 6 7 7 8 8 9 4 11 1 12 2 13 3 14
REMARK SMILES IDX 76 15 75 16 66 18 74 19 67 20 73 21 68 23 69 24 72 25 70 26
REMARK SMILES IDX 71 27 14 28 15 29 16 30 17 31 18 32 19 33 65 34 20 35 64 36
REMARK SMILES IDX 21 37 22 38 23 39 58 40 24 41 63 42 57 43 59 44 25 45 62 46
REMARK SMILES IDX 56 47 55 48 26 50 48 51 33 52 47 53 34 54 37 55 46 56 60 57
REMARK SMILES IDX 35 58 36 59 45 61 61 62 38 63 27 64 28 65 32 66 29 67 31 68
REMARK SMILES IDX 30 69 49 70 50 71 54 72 51 73 53 74 52 75 39 76 40 77 44 78
REMARK SMILES IDX 41 79 43 80 42 81
REMARK H PARENT 8 10 76 17 74 22 59 49 37 60
REMARK Flexibility Score: inf
ROOT
ATOM      1  C   UNL A   1      32.359  30.167  26.124  1.00  0.00     0.275 C 
ENDROOT
BRANCH   1   2
ATOM      2  O   UNL A   1      31.787  28.971  26.678  1.00  0.00    -0.457 OA
BRANCH   2   3
ATOM      3  C   UNL A   1      32.340  27.784  26.374  1.00  0.00     0.356 C 
ATOM      4  O   UNL A   1      33.537  27.530  26.474  1.00  0.00    -0.244 OA
BRANCH   3   5
ATOM      5  C   UNL A   1      31.352  26.821  25.959  1.00  0.00     0.147 A 
ATOM      6  C   UNL A   1      30.657  26.471  24.794  1.00  0.00     0.013 A 
ATOM      7  C   UNL A   1      29.864  25.359  25.222  1.00  0.00     0.140 A 
ATOM      8  N   UNL A   1      30.000  25.064  26.509  1.00  0.00    -0.183 NA
ATOM      9  N   UNL A   1      30.879  25.973  26.931  1.00  0.00    -0.271 N 
ATOM     10  H   UNL A   1      31.168  26.033  27.871  1.00  0.00     0.190 HD
BRANCH   6  11
ATOM     11  C   UNL A   1      30.608  26.943  23.347  1.00  0.00     0.069 C 
ATOM     12  O   UNL A   1      29.328  30.444  23.346  1.00  0.00    -0.275 OA
ATOM     13  C   UNL A   1      30.064  29.489  23.091  1.00  0.00     0.226 C 
ATOM     14  C   UNL A   1      29.547  28.052  23.127  1.00  0.00     0.114 C 
ATOM     15  N   UNL A   1      31.328  29.708  22.600  1.00  0.00    -0.311 N 
ATOM     16  C   UNL A   1      32.151  28.642  22.374  1.00  0.00     0.132 A 
ATOM     17  H   UNL A   1      31.637  30.624  22.412  1.00  0.00     0.171 HD
ATOM     18  C   UNL A   1      31.878  27.338  22.690  1.00  0.00     0.031 A 
ATOM     19  N   UNL A   1      33.418  28.677  21.884  1.00  0.00    -0.262 N 
ATOM     20  C   UNL A   1      33.069  26.637  22.365  1.00  0.00     0.108 A 
ATOM     21  N   UNL A   1      34.025  27.472  21.915  1.00  0.00    -0.173 NA
ATOM     22  H   UNL A   1      33.848  29.493  21.541  1.00  0.00     0.192 HD
BRANCH  20  23
ATOM     23  C   UNL A   1      33.335  25.205  22.710  1.00  0.00     0.055 A 
ATOM     24  C   UNL A   1      32.904  24.141  21.943  1.00  0.00     0.022 A 
ATOM     25  S   UNL A   1      34.318  24.699  24.006  1.00  0.00    -0.142 S 
ATOM     26  C   UNL A   1      33.469  22.906  22.377  1.00  0.00     0.012 A 
ATOM     27  C   UNL A   1      34.206  23.060  23.529  1.00  0.00     0.065 A 
ENDBRANCH  20  23
ENDBRANCH   6  11
ENDBRANCH   3   5
ENDBRANCH   2   3
ENDBRANCH   1   2
BRANCH   1  28
ATOM     28  C   UNL A   1      32.962  30.966  27.257  1.00  0.00     0.275 C 
BRANCH  28  29
ATOM     29  O   UNL A   1      34.364  30.751  27.245  1.00  0.00    -0.458 OA
BRANCH  29  30
ATOM     30  C   UNL A   1      35.151  31.710  27.775  1.00  0.00     0.338 C 
ATOM     31  O   UNL A   1      35.076  32.914  27.627  1.00  0.00    -0.246 OA
BRANCH  30  32
ATOM     32  C   UNL A   1      36.233  31.016  28.475  1.00  0.00     0.060 A 
ATOM     33  C   UNL A   1      37.306  31.766  28.959  1.00  0.00     0.016 A 
ATOM     34  C   UNL A   1      36.255  29.611  28.445  1.00  0.00     0.016 A 
ATOM     35  C   UNL A   1      38.475  31.101  29.260  1.00  0.00     0.010 A 
ATOM     36  C   UNL A   1      37.420  28.956  28.718  1.00  0.00     0.010 A 
ATOM     37  C   UNL A   1      38.532  29.718  29.052  1.00  0.00    -0.014 A 
BRANCH  37  38
ATOM     38  C   UNL A   1      39.774  29.026  29.265  1.00  0.00     0.031 A 
ATOM     39  C   UNL A   1      40.133  28.882  30.686  1.00  0.00     0.074 A 
ATOM     40  C   UNL A   1      40.437  28.420  28.267  1.00  0.00     0.049 A 
ATOM     41  N   UNL A   1      41.100  29.465  31.305  1.00  0.00    -0.248 NA
ATOM     42  C   UNL A   1      39.220  28.119  31.553  1.00  0.00     0.031 C 
ATOM     43  C   UNL A   1      40.005  28.194  26.884  1.00  0.00     0.029 A 
ATOM     44  N   UNL A   1      41.616  27.759  28.338  1.00  0.00    -0.354 N 
ATOM     45  C   UNL A   1      41.036  29.002  32.611  1.00  0.00     0.074 A 
ATOM     46  C   UNL A   1      39.768  28.330  32.749  1.00  0.00     0.031 C 
ATOM     47  C   UNL A   1      40.808  27.261  26.320  1.00  0.00     0.029 A 
ATOM     48  C   UNL A   1      41.879  26.941  27.252  1.00  0.00     0.049 A 
ATOM     49  H   UNL A   1      42.236  27.852  29.098  1.00  0.00     0.167 HD
ATOM     50  C   UNL A   1      42.136  28.983  33.406  1.00  0.00     0.031 A 
ATOM     51  C   UNL A   1      42.871  26.023  27.176  1.00  0.00     0.031 A 
ATOM     52  C   UNL A   1      43.203  29.786  32.866  1.00  0.00     0.049 A 
ATOM     53  C   UNL A   1      43.874  26.360  28.218  1.00  0.00     0.074 A 
ATOM     54  C   UNL A   1      43.344  31.122  32.546  1.00  0.00     0.029 A 
ATOM     55  N   UNL A   1      44.202  29.124  32.189  1.00  0.00    -0.354 N 
ATOM     56  N   UNL A   1      44.623  27.424  28.174  1.00  0.00    -0.248 NA
ATOM     57  C   UNL A   1      43.741  25.750  29.533  1.00  0.00     0.031 C 
ATOM     58  C   UNL A   1      44.112  31.135  31.344  1.00  0.00     0.029 A 
ATOM     59  C   UNL A   1      44.446  29.816  31.029  1.00  0.00     0.049 A 
ATOM     60  H   UNL A   1      44.659  28.304  32.484  1.00  0.00     0.167 HD
ATOM     61  C   UNL A   1      44.689  27.868  29.489  1.00  0.00     0.074 A 
ATOM     62  C   UNL A   1      44.231  26.736  30.291  1.00  0.00     0.031 C 
ATOM     63  C   UNL A   1      44.832  29.196  29.779  1.00  0.00     0.031 A 
BRANCH  50  64
ATOM     64  C   UNL A   1      42.376  27.917  34.438  1.00  0.00    -0.014 A 
ATOM     65  C   UNL A   1      42.849  26.664  34.018  1.00  0.00     0.009 A 
ATOM     66  C   UNL A   1      41.901  28.010  35.762  1.00  0.00     0.009 A 
ATOM     67  C   UNL A   1      42.796  25.551  34.866  1.00  0.00     0.001 A 
ATOM     68  C   UNL A   1      41.888  26.913  36.623  1.00  0.00     0.001 A 
ATOM     69  C   UNL A   1      42.312  25.675  36.165  1.00  0.00     0.000 A 
ENDBRANCH  50  64
BRANCH  51  70
ATOM     70  C   UNL A   1      42.873  24.731  26.464  1.00  0.00    -0.014 A 
ATOM     71  C   UNL A   1      43.520  24.603  25.226  1.00  0.00     0.009 A 
ATOM     72  C   UNL A   1      42.471  23.555  27.123  1.00  0.00     0.009 A 
ATOM     73  C   UNL A   1      43.797  23.338  24.690  1.00  0.00     0.001 A 
ATOM     74  C   UNL A   1      42.743  22.294  26.586  1.00  0.00     0.001 A 
ATOM     75  C   UNL A   1      43.422  22.185  25.377  1.00  0.00     0.000 A 
ENDBRANCH  51  70
BRANCH  63  76
ATOM     76  C   UNL A   1      45.162  30.131  28.637  1.00  0.00    -0.014 A 
ATOM     77  C   UNL A   1      44.180  30.745  27.839  1.00  0.00     0.009 A 
ATOM     78  C   UNL A   1      46.498  30.514  28.455  1.00  0.00     0.009 A 
ATOM     79  C   UNL A   1      44.532  31.684  26.862  1.00  0.00     0.001 A 
ATOM     80  C   UNL A   1      46.847  31.469  27.495  1.00  0.00     0.001 A 
ATOM     81  C   UNL A   1      45.865  32.048  26.695  1.00  0.00     0.000 A 
ENDBRANCH  63  76
ENDBRANCH  37  38
ENDBRANCH  30  32
ENDBRANCH  29  30
ENDBRANCH  28  29
ENDBRANCH   1  28
TORSDOF 13
ENDMDL
MODEL 2
REMARK VINA RESULT:     -11.9      5.042      7.233
REMARK SMILES O=C1C[C@H](c2cn[nH]c2C(=O)OCCOC(=O)c2ccc(-c3c4nc(c(-c5ccccc5)c5ccc([nH]5)c(-c5ccccc5)c5nc(c(-c6ccccc6)c6ccc3[nH]6)C=C5)C=C4)cc2)c2c(-c3cccs3)n[nH]c2N1
REMARK SMILES IDX 13 1 12 2 10 3 11 4 9 5 5 6 6 7 7 8 8 9 4 11 1 12 2 13 3 14
REMARK SMILES IDX 76 15 75 16 66 18 74 19 67 20 73 21 68 23 69 24 72 25 70 26
REMARK SMILES IDX 71 27 14 28 15 29 16 30 17 31 18 32 19 33 65 34 20 35 64 36
REMARK SMILES IDX 21 37 22 38 23 39 58 40 24 41 63 42 57 43 59 44 25 45 62 46
REMARK SMILES IDX 56 47 55 48 26 50 48 51 33 52 47 53 34 54 37 55 46 56 60 57
REMARK SMILES IDX 35 58 36 59 45 61 61 62 38 63 27 64 28 65 32 66 29 67 31 68
REMARK SMILES IDX 30 69 49 70 50 71 54 72 51 73 53 74 52 75 39 76 40 77 44 78
REMARK SMILES IDX 41 79 43 80 42 81
REMARK H PARENT 8 10 76 17 74 22 59 49 37 60
REMARK Flexibility Score: inf
ROOT
ATOM      1  C   UNL A   1      40.021  32.767  34.764  1.00  0.00     0.275 C 
ENDROOT
BRANCH   1   2
ATOM      2  O   UNL A   1      39.479  31.637  34.061  1.00  0.00    -0.457 OA
BRANCH   2   3
ATOM      3  C   UNL A   1      38.262  31.180  34.404  1.00  0.00     0.356 C 
ATOM      4  O   UNL A   1      37.778  31.269  35.530  1.00  0.00    -0.244 OA
BRANCH   3   5
ATOM      5  C   UNL A   1      37.563  30.612  33.278  1.00  0.00     0.147 A 
ATOM      6  C   UNL A   1      36.723  31.041  32.244  1.00  0.00     0.013 A 
ATOM      7  C   UNL A   1      36.483  29.835  31.511  1.00  0.00     0.140 A 
ATOM      8  N   UNL A   1      37.060  28.762  32.038  1.00  0.00    -0.183 NA
ATOM      9  N   UNL A   1      37.680  29.253  33.111  1.00  0.00    -0.271 N 
ATOM     10  H   UNL A   1      38.183  28.685  33.738  1.00  0.00     0.190 HD
BRANCH   6  11
ATOM     11  C   UNL A   1      36.123  32.360  31.775  1.00  0.00     0.069 C 
ATOM     12  O   UNL A   1      36.986  34.953  34.311  1.00  0.00    -0.275 OA
ATOM     13  C   UNL A   1      36.870  34.419  33.206  1.00  0.00     0.226 C 
ATOM     14  C   UNL A   1      35.834  33.325  32.955  1.00  0.00     0.114 C 
ATOM     15  N   UNL A   1      37.557  34.919  32.126  1.00  0.00    -0.311 N 
ATOM     16  C   UNL A   1      37.461  34.283  30.922  1.00  0.00     0.132 A 
ATOM     17  H   UNL A   1      38.112  35.726  32.220  1.00  0.00     0.171 HD
ATOM     18  C   UNL A   1      36.810  33.101  30.688  1.00  0.00     0.031 A 
ATOM     19  N   UNL A   1      38.060  34.644  29.756  1.00  0.00    -0.262 N 
ATOM     20  C   UNL A   1      37.086  32.805  29.328  1.00  0.00     0.108 A 
ATOM     21  N   UNL A   1      37.892  33.733  28.776  1.00  0.00    -0.173 NA
ATOM     22  H   UNL A   1      38.562  35.483  29.638  1.00  0.00     0.192 HD
BRANCH  20  23
ATOM     23  C   UNL A   1      36.750  31.512  28.652  1.00  0.00     0.055 A 
ATOM     24  C   UNL A   1      37.676  30.522  28.394  1.00  0.00     0.022 A 
ATOM     25  S   UNL A   1      35.168  31.030  28.242  1.00  0.00    -0.142 S 
ATOM     26  C   UNL A   1      37.059  29.320  27.940  1.00  0.00     0.012 A 
ATOM     27  C   UNL A   1      35.705  29.481  27.752  1.00  0.00     0.065 A 
ENDBRANCH  20  23
ENDBRANCH   6  11
ENDBRANCH   3   5
ENDBRANCH   2   3
ENDBRANCH   1   2
BRANCH   1  28
ATOM     28  C   UNL A   1      40.770  33.623  33.767  1.00  0.00     0.275 C 
BRANCH  28  29
ATOM     29  O   UNL A   1      40.225  33.374  32.481  1.00  0.00    -0.458 OA
BRANCH  29  30
ATOM     30  C   UNL A   1      41.017  33.592  31.411  1.00  0.00     0.338 C 
ATOM     31  O   UNL A   1      41.447  34.649  30.993  1.00  0.00    -0.246 OA
BRANCH  30  32
ATOM     32  C   UNL A   1      41.164  32.301  30.738  1.00  0.00     0.060 A 
ATOM     33  C   UNL A   1      40.140  31.361  30.862  1.00  0.00     0.016 A 
ATOM     34  C   UNL A   1      42.412  31.978  30.177  1.00  0.00     0.016 A 
ATOM     35  C   UNL A   1      40.432  30.046  30.571  1.00  0.00     0.010 A 
ATOM     36  C   UNL A   1      42.709  30.672  29.915  1.00  0.00     0.010 A 
ATOM     37  C   UNL A   1      41.736  29.719  30.183  1.00  0.00    -0.014 A 
BRANCH  37  38
ATOM     38  C   UNL A   1      42.082  28.338  29.975  1.00  0.00     0.031 A 
ATOM     39  C   UNL A   1      42.781  27.726  31.118  1.00  0.00     0.074 A 
ATOM     40  C   UNL A   1      41.645  27.642  28.913  1.00  0.00     0.049 A 
ATOM     41  N   UNL A   1      44.013  27.354  31.166  1.00  0.00    -0.248 NA
ATOM     42  C   UNL A   1      42.069  27.659  32.404  1.00  0.00     0.031 C 
ATOM     43  C   UNL A   1      40.663  28.038  27.899  1.00  0.00     0.029 A 
ATOM     44  N   UNL A   1      41.916  26.353  28.600  1.00  0.00    -0.354 N 
ATOM     45  C   UNL A   1      44.192  26.831  32.438  1.00  0.00     0.074 A 
ATOM     46  C   UNL A   1      43.032  27.208  33.207  1.00  0.00     0.031 C 
ATOM     47  C   UNL A   1      40.261  26.936  27.223  1.00  0.00     0.029 A 
ATOM     48  C   UNL A   1      41.058  25.801  27.664  1.00  0.00     0.049 A 
ATOM     49  H   UNL A   1      42.661  25.850  29.003  1.00  0.00     0.167 HD
ATOM     50  C   UNL A   1      45.159  25.912  32.692  1.00  0.00     0.031 A 
ATOM     51  C   UNL A   1      40.981  24.489  27.342  1.00  0.00     0.031 A 
ATOM     52  C   UNL A   1      46.125  25.841  31.626  1.00  0.00     0.049 A 
ATOM     53  C   UNL A   1      42.237  23.841  27.794  1.00  0.00     0.074 A 
ATOM     54  C   UNL A   1      47.000  26.740  31.049  1.00  0.00     0.029 A 
ATOM     55  N   UNL A   1      45.980  24.815  30.720  1.00  0.00    -0.354 N 
ATOM     56  N   UNL A   1      43.400  24.079  27.258  1.00  0.00    -0.248 NA
ATOM     57  C   UNL A   1      42.279  23.261  29.128  1.00  0.00     0.031 C 
ATOM     58  C   UNL A   1      46.970  26.443  29.654  1.00  0.00     0.029 A 
ATOM     59  C   UNL A   1      46.126  25.347  29.462  1.00  0.00     0.049 A 
ATOM     60  H   UNL A   1      45.805  23.870  30.935  1.00  0.00     0.167 HD
ATOM     61  C   UNL A   1      44.288  24.100  28.326  1.00  0.00     0.074 A 
ATOM     62  C   UNL A   1      43.564  23.473  29.429  1.00  0.00     0.031 C 
ATOM     63  C   UNL A   1      45.410  24.879  28.294  1.00  0.00     0.031 A 
BRANCH  50  64
ATOM     64  C   UNL A   1      44.989  24.808  33.698  1.00  0.00    -0.014 A 
ATOM     65  C   UNL A   1      45.926  24.690  34.736  1.00  0.00     0.009 A 
ATOM     66  C   UNL A   1      44.105  23.727  33.508  1.00  0.00     0.009 A 
ATOM     67  C   UNL A   1      46.007  23.524  35.507  1.00  0.00     0.001 A 
ATOM     68  C   UNL A   1      44.154  22.582  34.303  1.00  0.00     0.001 A 
ATOM     69  C   UNL A   1      45.124  22.471  35.287  1.00  0.00     0.000 A 
ENDBRANCH  50  64
BRANCH  51  70
ATOM     70  C   UNL A   1      39.795  23.714  26.929  1.00  0.00    -0.014 A 
ATOM     71  C   UNL A   1      38.569  24.357  26.700  1.00  0.00     0.009 A 
ATOM     72  C   UNL A   1      39.930  22.381  26.500  1.00  0.00     0.009 A 
ATOM     73  C   UNL A   1      37.532  23.703  26.022  1.00  0.00     0.001 A 
ATOM     74  C   UNL A   1      38.894  21.727  25.827  1.00  0.00     0.001 A 
ATOM     75  C   UNL A   1      37.700  22.394  25.574  1.00  0.00     0.000 A 
ENDBRANCH  51  70
BRANCH  63  76
ATOM     76  C   UNL A   1      45.783  25.519  26.976  1.00  0.00    -0.014 A 
ATOM     77  C   UNL A   1      45.229  26.730  26.526  1.00  0.00     0.009 A 
ATOM     78  C   UNL A   1      46.829  24.953  26.233  1.00  0.00     0.009 A 
ATOM     79  C   UNL A   1      45.683  27.336  25.349  1.00  0.00     0.001 A 
ATOM     80  C   UNL A   1      47.298  25.569  25.069  1.00  0.00     0.001 A 
ATOM     81  C   UNL A   1      46.720  26.756  24.624  1.00  0.00     0.000 A 
ENDBRANCH  63  76
ENDBRANCH  37  38
ENDBRANCH  30  32
ENDBRANCH  29  30
ENDBRANCH  28  29
ENDBRANCH   1  28
TORSDOF 13
ENDMDL
MODEL 3
REMARK VINA RESULT:     -11.8      1.190      3.039
REMARK SMILES O=C1C[C@H](c2cn[nH]c2C(=O)OCCOC(=O)c2ccc(-c3c4nc(c(-c5ccccc5)c5ccc([nH]5)c(-c5ccccc5)c5nc(c(-c6ccccc6)c6ccc3[nH]6)C=C5)C=C4)cc2)c2c(-c3cccs3)n[nH]c2N1
REMARK SMILES IDX 13 1 12 2 10 3 11 4 9 5 5 6 6 7 7 8 8 9 4 11 1 12 2 13 3 14
REMARK SMILES IDX 76 15 75 16 66 18 74 19 67 20 73 21 68 23 69 24 72 25 70 26
REMARK SMILES IDX 71 27 14 28 15 29 16 30 17 31 18 32 19 33 65 34 20 35 64 36
REMARK SMILES IDX 21 37 22 38 23 39 58 40 24 41 63 42 57 43 59 44 25 45 62 46
REMARK SMILES IDX 56 47 55 48 26 50 48 51 33 52 47 53 34 54 37 55 46 56 60 57
REMARK SMILES IDX 35 58 36 59 45 61 61 62 38 63 27 64 28 65 32 66 29 67 31 68
REMARK SMILES IDX 30 69 49 70 50 71 54 72 51 73 53 74 52 75 39 76 40 77 44 78
REMARK SMILES IDX 41 79 43 80 42 81
REMARK H PARENT 8 10 76 17 74 22 59 49 37 60
REMARK Flexibility Score: inf
ROOT
ATOM      1  C   UNL A   1      32.412  30.175  26.343  1.00  0.00     0.275 C 
ENDROOT
BRANCH   1   2
ATOM      2  O   UNL A   1      33.520  29.701  25.562  1.00  0.00    -0.457 OA
BRANCH   2   3
ATOM      3  C   UNL A   1      33.737  28.377  25.476  1.00  0.00     0.356 C 
ATOM      4  O   UNL A   1      33.885  27.633  26.442  1.00  0.00    -0.244 OA
BRANCH   3   5
ATOM      5  C   UNL A   1      33.728  27.917  24.109  1.00  0.00     0.147 A 
ATOM      6  C   UNL A   1      33.351  26.775  23.392  1.00  0.00     0.013 A 
ATOM      7  C   UNL A   1      33.644  27.140  22.039  1.00  0.00     0.140 A 
ATOM      8  N   UNL A   1      34.184  28.346  21.913  1.00  0.00    -0.183 NA
ATOM      9  N   UNL A   1      34.245  28.779  23.173  1.00  0.00    -0.271 N 
ATOM     10  H   UNL A   1      34.634  29.651  23.414  1.00  0.00     0.190 HD
BRANCH   6  11
ATOM     11  C   UNL A   1      32.737  25.418  23.709  1.00  0.00     0.069 C 
ATOM     12  O   UNL A   1      35.332  23.386  25.450  1.00  0.00    -0.275 OA
ATOM     13  C   UNL A   1      34.241  23.916  25.234  1.00  0.00     0.226 C 
ATOM     14  C   UNL A   1      33.807  24.301  23.821  1.00  0.00     0.114 C 
ATOM     15  N   UNL A   1      33.315  24.016  26.244  1.00  0.00    -0.311 N 
ATOM     16  C   UNL A   1      32.132  24.656  26.005  1.00  0.00     0.132 A 
ATOM     17  H   UNL A   1      33.502  23.631  27.131  1.00  0.00     0.171 HD
ATOM     18  C   UNL A   1      31.797  25.318  24.854  1.00  0.00     0.031 A 
ATOM     19  N   UNL A   1      31.107  24.834  26.880  1.00  0.00    -0.262 N 
ATOM     20  C   UNL A   1      30.531  25.896  25.132  1.00  0.00     0.108 A 
ATOM     21  N   UNL A   1      30.136  25.634  26.392  1.00  0.00    -0.173 NA
ATOM     22  H   UNL A   1      31.076  24.424  27.774  1.00  0.00     0.192 HD
BRANCH  20  23
ATOM     23  C   UNL A   1      29.832  26.881  24.247  1.00  0.00     0.055 A 
ATOM     24  C   UNL A   1      28.552  26.701  23.765  1.00  0.00     0.022 A 
ATOM     25  S   UNL A   1      30.460  28.410  23.834  1.00  0.00    -0.142 S 
ATOM     26  C   UNL A   1      28.051  27.874  23.129  1.00  0.00     0.012 A 
ATOM     27  C   UNL A   1      29.011  28.857  23.041  1.00  0.00     0.065 A 
ENDBRANCH  20  23
ENDBRANCH   6  11
ENDBRANCH   3   5
ENDBRANCH   2   3
ENDBRANCH   1   2
BRANCH   1  28
ATOM     28  C   UNL A   1      32.916  31.272  27.254  1.00  0.00     0.275 C 
BRANCH  28  29
ATOM     29  O   UNL A   1      34.157  30.853  27.797  1.00  0.00    -0.458 OA
BRANCH  29  30
ATOM     30  C   UNL A   1      35.101  31.794  28.006  1.00  0.00     0.338 C 
ATOM     31  O   UNL A   1      35.112  32.949  27.626  1.00  0.00    -0.246 OA
BRANCH  30  32
ATOM     32  C   UNL A   1      36.214  31.121  28.677  1.00  0.00     0.060 A 
ATOM     33  C   UNL A   1      37.316  31.881  29.072  1.00  0.00     0.016 A 
ATOM     34  C   UNL A   1      36.226  29.715  28.706  1.00  0.00     0.016 A 
ATOM     35  C   UNL A   1      38.495  31.218  29.339  1.00  0.00     0.010 A 
ATOM     36  C   UNL A   1      37.399  29.062  28.944  1.00  0.00     0.010 A 
ATOM     37  C   UNL A   1      38.531  29.828  29.188  1.00  0.00    -0.014 A 
BRANCH  37  38
ATOM     38  C   UNL A   1      39.779  29.134  29.364  1.00  0.00     0.031 A 
ATOM     39  C   UNL A   1      40.130  28.903  30.776  1.00  0.00     0.074 A 
ATOM     40  C   UNL A   1      40.453  28.599  28.334  1.00  0.00     0.049 A 
ATOM     41  N   UNL A   1      41.088  29.455  31.437  1.00  0.00    -0.248 NA
ATOM     42  C   UNL A   1      39.220  28.079  31.586  1.00  0.00     0.031 C 
ATOM     43  C   UNL A   1      40.032  28.458  26.937  1.00  0.00     0.029 A 
ATOM     44  N   UNL A   1      41.638  27.945  28.371  1.00  0.00    -0.354 N 
ATOM     45  C   UNL A   1      41.020  28.908  32.710  1.00  0.00     0.074 A 
ATOM     46  C   UNL A   1      39.758  28.218  32.797  1.00  0.00     0.031 C 
ATOM     47  C   UNL A   1      40.847  27.570  26.321  1.00  0.00     0.029 A 
ATOM     48  C   UNL A   1      41.915  27.201  27.237  1.00  0.00     0.049 A 
ATOM     49  H   UNL A   1      42.253  27.995  29.139  1.00  0.00     0.167 HD
ATOM     50  C   UNL A   1      42.116  28.849  33.510  1.00  0.00     0.031 A 
ATOM     51  C   UNL A   1      42.916  26.298  27.110  1.00  0.00     0.031 A 
ATOM     52  C   UNL A   1      43.179  29.694  33.030  1.00  0.00     0.049 A 
ATOM     53  C   UNL A   1      43.909  26.577  28.177  1.00  0.00     0.074 A 
ATOM     54  C   UNL A   1      43.309  31.049  32.795  1.00  0.00     0.029 A 
ATOM     55  N   UNL A   1      44.187  29.086  32.318  1.00  0.00    -0.354 N 
ATOM     56  N   UNL A   1      44.649  27.648  28.206  1.00  0.00    -0.248 NA
ATOM     57  C   UNL A   1      43.774  25.884  29.450  1.00  0.00     0.031 C 
ATOM     58  C   UNL A   1      44.084  31.145  31.602  1.00  0.00     0.029 A 
ATOM     59  C   UNL A   1      44.433  29.852  31.206  1.00  0.00     0.049 A 
ATOM     60  H   UNL A   1      44.650  28.252  32.564  1.00  0.00     0.167 HD
ATOM     61  C   UNL A   1      44.703  28.008  29.547  1.00  0.00     0.074 A 
ATOM     62  C   UNL A   1      44.251  26.823  30.273  1.00  0.00     0.031 C 
ATOM     63  C   UNL A   1      44.831  29.316  29.921  1.00  0.00     0.031 A 
BRANCH  50  64
ATOM     64  C   UNL A   1      42.360  27.721  34.474  1.00  0.00    -0.014 A 
ATOM     65  C   UNL A   1      42.822  26.494  33.975  1.00  0.00     0.009 A 
ATOM     66  C   UNL A   1      41.897  27.737  35.805  1.00  0.00     0.009 A 
ATOM     67  C   UNL A   1      42.771  25.332  34.754  1.00  0.00     0.001 A 
ATOM     68  C   UNL A   1      41.886  26.590  36.599  1.00  0.00     0.001 A 
ATOM     69  C   UNL A   1      42.299  25.380  36.063  1.00  0.00     0.000 A 
ENDBRANCH  50  64
BRANCH  51  70
ATOM     70  C   UNL A   1      42.934  25.054  26.317  1.00  0.00    -0.014 A 
ATOM     71  C   UNL A   1      43.950  24.824  25.378  1.00  0.00     0.009 A 
ATOM     72  C   UNL A   1      42.108  23.972  26.671  1.00  0.00     0.009 A 
ATOM     73  C   UNL A   1      44.160  23.545  24.848  1.00  0.00     0.001 A 
ATOM     74  C   UNL A   1      42.315  22.697  26.139  1.00  0.00     0.001 A 
ATOM     75  C   UNL A   1      43.352  22.479  25.239  1.00  0.00     0.000 A 
ENDBRANCH  51  70
BRANCH  63  76
ATOM     76  C   UNL A   1      45.160  30.325  28.844  1.00  0.00    -0.014 A 
ATOM     77  C   UNL A   1      44.183  30.920  28.026  1.00  0.00     0.009 A 
ATOM     78  C   UNL A   1      46.478  30.792  28.749  1.00  0.00     0.009 A 
ATOM     79  C   UNL A   1      44.525  31.926  27.114  1.00  0.00     0.001 A 
ATOM     80  C   UNL A   1      46.815  31.813  27.855  1.00  0.00     0.001 A 
ATOM     81  C   UNL A   1      45.841  32.374  27.033  1.00  0.00     0.000 A 
ENDBRANCH  63  76
ENDBRANCH  37  38
ENDBRANCH  30  32
ENDBRANCH  29  30
ENDBRANCH  28  29
ENDBRANCH   1  28
TORSDOF 13
ENDMDL
