MODEL 1
REMARK VINA RESULT:     -10.8      0.000      0.000
REMARK SMILES O=C(Cc1ccc(S(=O)(=O)N[C@H]2CC[C@@H](O)CC2)cc1)OCCOC(=O)c1ccc(-c2c3nc(c(-c4ccccc4)c4ccc([nH]4)c(-c4ccccc4)c4nc(c(-c5ccccc5)c5ccc2[nH]5)C=C4)C=C3)cc1
REMARK SMILES IDX 21 1 2 2 1 3 3 4 4 5 5 6 20 7 6 8 19 9 7 10 8 11 9 12 10 13
REMARK SMILES IDX 11 14 12 16 13 17 18 18 14 19 17 20 15 21 16 22 22 24 23 25
REMARK SMILES IDX 24 26 25 27 26 28 27 29 28 30 74 31 29 32 73 33 30 34 31 35
REMARK SMILES IDX 32 36 67 37 33 38 72 39 66 40 68 41 34 42 71 43 65 44 64 45
REMARK SMILES IDX 35 47 57 48 42 49 56 50 43 51 46 52 55 53 69 54 44 55 45 56
REMARK SMILES IDX 54 58 70 59 47 60 36 61 37 62 41 63 38 64 40 65 39 66 58 67
REMARK SMILES IDX 59 68 63 69 60 70 62 71 61 72 48 73 49 74 53 75 50 76 52 77
REMARK SMILES IDX 51 78
REMARK H PARENT 11 15 16 23 68 46 46 57
REMARK Flexibility Score: inf
ROOT
ATOM      1  O   UNL A   1      42.502  21.512  25.377  1.00  0.00    -0.462 OA
ENDROOT
BRANCH   1   2
ATOM      2  C   UNL A   1      41.737  21.151  26.436  1.00  0.00     0.310 C 
ATOM      3  O   UNL A   1      41.767  19.995  26.851  1.00  0.00    -0.252 OA
BRANCH   2   4
ATOM      4  C   UNL A   1      40.834  22.180  27.071  1.00  0.00     0.158 C 
BRANCH   4   5
ATOM      5  C   UNL A   1      39.455  22.360  26.485  1.00  0.00    -0.037 A 
ATOM      6  C   UNL A   1      38.918  21.293  25.737  1.00  0.00     0.006 A 
ATOM      7  C   UNL A   1      38.731  23.554  26.587  1.00  0.00     0.006 A 
ATOM      8  C   UNL A   1      37.727  21.441  25.030  1.00  0.00     0.022 A 
ATOM      9  C   UNL A   1      37.532  23.705  25.890  1.00  0.00     0.022 A 
ATOM     10  C   UNL A   1      37.061  22.663  25.081  1.00  0.00     0.082 A 
BRANCH  10  11
ATOM     11  S   UNL A   1      35.692  22.973  24.002  1.00  0.00     0.240 S 
ATOM     12  O   UNL A   1      36.173  23.273  22.675  1.00  0.00    -0.207 OA
ATOM     13  O   UNL A   1      34.720  21.932  24.252  1.00  0.00    -0.207 OA
BRANCH  11  14
ATOM     14  N   UNL A   1      35.045  24.374  24.674  1.00  0.00    -0.208 NA
ATOM     15  H   UNL A   1      35.551  25.147  24.242  1.00  0.00     0.141 HD
BRANCH  14  16
ATOM     16  C   UNL A   1      33.616  24.741  24.602  1.00  0.00     0.070 C 
ATOM     17  C   UNL A   1      33.138  25.355  23.280  1.00  0.00     0.023 C 
ATOM     18  C   UNL A   1      33.354  25.728  25.757  1.00  0.00     0.023 C 
ATOM     19  C   UNL A   1      33.633  26.773  23.008  1.00  0.00     0.033 C 
ATOM     20  C   UNL A   1      33.981  27.097  25.494  1.00  0.00     0.033 C 
ATOM     21  C   UNL A   1      33.457  27.708  24.197  1.00  0.00     0.114 C 
BRANCH  21  22
ATOM     22  O   UNL A   1      34.142  28.929  23.930  1.00  0.00    -0.393 OA
ATOM     23  H   UNL A   1      34.554  28.883  23.053  1.00  0.00     0.210 HD
ENDBRANCH  21  22
ENDBRANCH  14  16
ENDBRANCH  11  14
ENDBRANCH  10  11
ENDBRANCH   4   5
ENDBRANCH   2   4
ENDBRANCH   1   2
BRANCH   1  24
ATOM     24  C   UNL A   1      43.931  21.310  25.273  1.00  0.00     0.274 C 
BRANCH  24  25
ATOM     25  C   UNL A   1      44.616  22.461  24.537  1.00  0.00     0.275 C 
BRANCH  25  26
ATOM     26  O   UNL A   1      43.822  23.651  24.671  1.00  0.00    -0.458 OA
BRANCH  26  27
ATOM     27  C   UNL A   1      44.505  24.755  25.058  1.00  0.00     0.338 C 
ATOM     28  O   UNL A   1      45.567  25.156  24.617  1.00  0.00    -0.246 OA
BRANCH  27  29
ATOM     29  C   UNL A   1      43.652  25.544  25.973  1.00  0.00     0.060 A 
ATOM     30  C   UNL A   1      44.104  26.819  26.332  1.00  0.00     0.016 A 
ATOM     31  C   UNL A   1      42.428  25.065  26.452  1.00  0.00     0.016 A 
ATOM     32  C   UNL A   1      43.362  27.595  27.218  1.00  0.00     0.010 A 
ATOM     33  C   UNL A   1      41.685  25.841  27.345  1.00  0.00     0.010 A 
ATOM     34  C   UNL A   1      42.174  27.089  27.763  1.00  0.00    -0.014 A 
BRANCH  34  35
ATOM     35  C   UNL A   1      41.585  27.771  28.936  1.00  0.00     0.031 A 
ATOM     36  C   UNL A   1      42.276  27.612  30.263  1.00  0.00     0.074 A 
ATOM     37  C   UNL A   1      40.499  28.553  28.825  1.00  0.00     0.049 A 
ATOM     38  N   UNL A   1      42.036  28.212  31.400  1.00  0.00    -0.248 NA
ATOM     39  C   UNL A   1      43.393  26.653  30.309  1.00  0.00     0.031 C 
ATOM     40  C   UNL A   1      39.748  28.800  27.597  1.00  0.00     0.029 A 
ATOM     41  N   UNL A   1      39.849  29.298  29.777  1.00  0.00    -0.354 N 
ATOM     42  C   UNL A   1      42.984  27.720  32.287  1.00  0.00     0.074 A 
ATOM     43  C   UNL A   1      43.773  26.741  31.572  1.00  0.00     0.031 C 
ATOM     44  C   UNL A   1      38.739  29.648  27.868  1.00  0.00     0.029 A 
ATOM     45  C   UNL A   1      38.776  29.999  29.287  1.00  0.00     0.049 A 
ATOM     46  H   UNL A   1      40.125  29.326  30.721  1.00  0.00     0.167 HD
ATOM     47  C   UNL A   1      43.194  28.061  33.579  1.00  0.00     0.031 A 
ATOM     48  C   UNL A   1      37.932  30.839  29.914  1.00  0.00     0.031 A 
ATOM     49  C   UNL A   1      42.394  29.006  34.306  1.00  0.00     0.049 A 
ATOM     50  C   UNL A   1      38.142  31.153  31.372  1.00  0.00     0.074 A 
ATOM     51  C   UNL A   1      42.531  29.428  35.615  1.00  0.00     0.029 A 
ATOM     52  N   UNL A   1      41.292  29.663  33.782  1.00  0.00    -0.354 N 
ATOM     53  N   UNL A   1      39.088  30.739  32.181  1.00  0.00    -0.248 NA
ATOM     54  C   UNL A   1      37.179  32.072  31.995  1.00  0.00     0.031 C 
ATOM     55  C   UNL A   1      41.482  30.312  35.898  1.00  0.00     0.029 A 
ATOM     56  C   UNL A   1      40.723  30.470  34.750  1.00  0.00     0.049 A 
ATOM     57  H   UNL A   1      40.964  29.569  32.859  1.00  0.00     0.167 HD
ATOM     58  C   UNL A   1      38.856  31.377  33.393  1.00  0.00     0.074 A 
ATOM     59  C   UNL A   1      37.682  32.206  33.214  1.00  0.00     0.031 C 
ATOM     60  C   UNL A   1      39.560  31.294  34.549  1.00  0.00     0.031 A 
BRANCH  47  61
ATOM     61  C   UNL A   1      44.326  27.375  34.284  1.00  0.00    -0.014 A 
ATOM     62  C   UNL A   1      44.121  26.173  34.979  1.00  0.00     0.009 A 
ATOM     63  C   UNL A   1      45.608  27.944  34.265  1.00  0.00     0.009 A 
ATOM     64  C   UNL A   1      45.172  25.572  35.673  1.00  0.00     0.001 A 
ATOM     65  C   UNL A   1      46.662  27.329  34.942  1.00  0.00     0.001 A 
ATOM     66  C   UNL A   1      46.441  26.149  35.654  1.00  0.00     0.000 A 
ENDBRANCH  47  61
BRANCH  48  67
ATOM     67  C   UNL A   1      36.821  31.479  29.165  1.00  0.00    -0.014 A 
ATOM     68  C   UNL A   1      36.927  32.809  28.731  1.00  0.00     0.009 A 
ATOM     69  C   UNL A   1      35.637  30.771  28.907  1.00  0.00     0.009 A 
ATOM     70  C   UNL A   1      35.859  33.427  28.078  1.00  0.00     0.001 A 
ATOM     71  C   UNL A   1      34.580  31.384  28.234  1.00  0.00     0.001 A 
ATOM     72  C   UNL A   1      34.687  32.714  27.827  1.00  0.00     0.000 A 
ENDBRANCH  48  67
BRANCH  60  73
ATOM     73  C   UNL A   1      39.109  32.155  35.694  1.00  0.00    -0.014 A 
ATOM     74  C   UNL A   1      39.553  33.478  35.831  1.00  0.00     0.009 A 
ATOM     75  C   UNL A   1      38.190  31.643  36.623  1.00  0.00     0.009 A 
ATOM     76  C   UNL A   1      39.105  34.264  36.895  1.00  0.00     0.001 A 
ATOM     77  C   UNL A   1      37.727  32.437  37.671  1.00  0.00     0.001 A 
ATOM     78  C   UNL A   1      38.190  33.744  37.811  1.00  0.00     0.000 A 
ENDBRANCH  60  73
ENDBRANCH  34  35
ENDBRANCH  27  29
ENDBRANCH  26  27
ENDBRANCH  25  26
ENDBRANCH  24  25
ENDBRANCH   1  24
TORSDOF 16
ENDMDL
MODEL 2
REMARK VINA RESULT:     -10.5      3.663      4.721
REMARK SMILES O=C(Cc1ccc(S(=O)(=O)N[C@H]2CC[C@@H](O)CC2)cc1)OCCOC(=O)c1ccc(-c2c3nc(c(-c4ccccc4)c4ccc([nH]4)c(-c4ccccc4)c4nc(c(-c5ccccc5)c5ccc2[nH]5)C=C4)C=C3)cc1
REMARK SMILES IDX 21 1 2 2 1 3 3 4 4 5 5 6 20 7 6 8 19 9 7 10 8 11 9 12 10 13
REMARK SMILES IDX 11 14 12 16 13 17 18 18 14 19 17 20 15 21 16 22 22 24 23 25
REMARK SMILES IDX 24 26 25 27 26 28 27 29 28 30 74 31 29 32 73 33 30 34 31 35
REMARK SMILES IDX 32 36 67 37 33 38 72 39 66 40 68 41 34 42 71 43 65 44 64 45
REMARK SMILES IDX 35 47 57 48 42 49 56 50 43 51 46 52 55 53 69 54 44 55 45 56
REMARK SMILES IDX 54 58 70 59 47 60 36 61 37 62 41 63 38 64 40 65 39 66 58 67
REMARK SMILES IDX 59 68 63 69 60 70 62 71 61 72 48 73 49 74 53 75 50 76 52 77
REMARK SMILES IDX 51 78
REMARK H PARENT 11 15 16 23 68 46 46 57
REMARK Flexibility Score: inf
ROOT
ATOM      1  O   UNL A   1      41.583  20.208  25.889  1.00  0.00    -0.462 OA
ENDROOT
BRANCH   1   2
ATOM      2  C   UNL A   1      40.963  20.880  26.890  1.00  0.00     0.310 C 
ATOM      3  O   UNL A   1      40.778  20.334  27.975  1.00  0.00    -0.252 OA
BRANCH   2   4
ATOM      4  C   UNL A   1      40.484  22.289  26.637  1.00  0.00     0.158 C 
BRANCH   4   5
ATOM      5  C   UNL A   1      39.060  22.473  26.175  1.00  0.00    -0.037 A 
ATOM      6  C   UNL A   1      38.468  21.422  25.446  1.00  0.00     0.006 A 
ATOM      7  C   UNL A   1      38.339  23.657  26.371  1.00  0.00     0.006 A 
ATOM      8  C   UNL A   1      37.220  21.580  24.845  1.00  0.00     0.022 A 
ATOM      9  C   UNL A   1      37.085  23.817  25.782  1.00  0.00     0.022 A 
ATOM     10  C   UNL A   1      36.554  22.794  24.986  1.00  0.00     0.082 A 
BRANCH  10  11
ATOM     11  S   UNL A   1      35.097  23.122  24.035  1.00  0.00     0.240 S 
ATOM     12  O   UNL A   1      35.442  23.250  22.640  1.00  0.00    -0.207 OA
ATOM     13  O   UNL A   1      34.082  22.200  24.496  1.00  0.00    -0.207 OA
BRANCH  11  14
ATOM     14  N   UNL A   1      34.645  24.633  24.623  1.00  0.00    -0.208 NA
ATOM     15  H   UNL A   1      35.321  25.293  24.241  1.00  0.00     0.141 HD
BRANCH  14  16
ATOM     16  C   UNL A   1      33.318  25.243  24.398  1.00  0.00     0.070 C 
ATOM     17  C   UNL A   1      33.244  26.327  23.316  1.00  0.00     0.023 C 
ATOM     18  C   UNL A   1      32.866  25.829  25.751  1.00  0.00     0.023 C 
ATOM     19  C   UNL A   1      33.919  27.649  23.676  1.00  0.00     0.033 C 
ATOM     20  C   UNL A   1      33.660  27.079  26.128  1.00  0.00     0.033 C 
ATOM     21  C   UNL A   1      33.535  28.160  25.059  1.00  0.00     0.114 C 
BRANCH  21  22
ATOM     22  O   UNL A   1      34.373  29.264  25.391  1.00  0.00    -0.393 OA
ATOM     23  H   UNL A   1      34.923  29.494  24.626  1.00  0.00     0.210 HD
ENDBRANCH  21  22
ENDBRANCH  14  16
ENDBRANCH  11  14
ENDBRANCH  10  11
ENDBRANCH   4   5
ENDBRANCH   2   4
ENDBRANCH   1   2
BRANCH   1  24
ATOM     24  C   UNL A   1      42.459  19.070  26.066  1.00  0.00     0.274 C 
BRANCH  24  25
ATOM     25  C   UNL A   1      43.638  19.102  25.095  1.00  0.00     0.275 C 
BRANCH  25  26
ATOM     26  O   UNL A   1      44.517  20.182  25.450  1.00  0.00    -0.458 OA
BRANCH  26  27
ATOM     27  C   UNL A   1      44.465  21.257  24.627  1.00  0.00     0.338 C 
ATOM     28  O   UNL A   1      44.528  21.257  23.410  1.00  0.00    -0.246 OA
BRANCH  27  29
ATOM     29  C   UNL A   1      44.101  22.448  25.424  1.00  0.00     0.060 A 
ATOM     30  C   UNL A   1      43.678  23.584  24.725  1.00  0.00     0.016 A 
ATOM     31  C   UNL A   1      44.146  22.452  26.823  1.00  0.00     0.016 A 
ATOM     32  C   UNL A   1      43.356  24.747  25.418  1.00  0.00     0.010 A 
ATOM     33  C   UNL A   1      43.828  23.620  27.519  1.00  0.00     0.010 A 
ATOM     34  C   UNL A   1      43.475  24.783  26.815  1.00  0.00    -0.014 A 
BRANCH  34  35
ATOM     35  C   UNL A   1      43.456  26.097  27.494  1.00  0.00     0.031 A 
ATOM     36  C   UNL A   1      44.775  26.767  27.766  1.00  0.00     0.074 A 
ATOM     37  C   UNL A   1      42.304  26.706  27.817  1.00  0.00     0.049 A 
ATOM     38  N   UNL A   1      45.015  27.970  28.222  1.00  0.00    -0.248 NA
ATOM     39  C   UNL A   1      45.983  25.978  27.475  1.00  0.00     0.031 C 
ATOM     40  C   UNL A   1      40.963  26.169  27.595  1.00  0.00     0.029 A 
ATOM     41  N   UNL A   1      42.088  27.932  28.395  1.00  0.00    -0.354 N 
ATOM     42  C   UNL A   1      46.398  28.086  28.251  1.00  0.00     0.074 A 
ATOM     43  C   UNL A   1      46.944  26.822  27.812  1.00  0.00     0.031 C 
ATOM     44  C   UNL A   1      40.059  27.068  28.027  1.00  0.00     0.029 A 
ATOM     45  C   UNL A   1      40.759  28.237  28.555  1.00  0.00     0.049 A 
ATOM     46  H   UNL A   1      42.816  28.534  28.670  1.00  0.00     0.167 HD
ATOM     47  C   UNL A   1      47.151  29.155  28.598  1.00  0.00     0.031 A 
ATOM     48  C   UNL A   1      40.180  29.344  29.056  1.00  0.00     0.031 A 
ATOM     49  C   UNL A   1      46.618  30.402  29.068  1.00  0.00     0.049 A 
ATOM     50  C   UNL A   1      41.041  30.497  29.500  1.00  0.00     0.074 A 
ATOM     51  C   UNL A   1      47.296  31.549  29.435  1.00  0.00     0.029 A 
ATOM     52  N   UNL A   1      45.267  30.654  29.252  1.00  0.00    -0.354 N 
ATOM     53  N   UNL A   1      42.346  30.624  29.454  1.00  0.00    -0.248 NA
ATOM     54  C   UNL A   1      40.343  31.670  30.046  1.00  0.00     0.031 C 
ATOM     55  C   UNL A   1      46.356  32.485  29.882  1.00  0.00     0.029 A 
ATOM     56  C   UNL A   1      45.093  31.932  29.751  1.00  0.00     0.049 A 
ATOM     57  H   UNL A   1      44.542  30.019  29.056  1.00  0.00     0.167 HD
ATOM     58  C   UNL A   1      42.619  31.903  29.923  1.00  0.00     0.074 A 
ATOM     59  C   UNL A   1      41.347  32.512  30.251  1.00  0.00     0.031 C 
ATOM     60  C   UNL A   1      43.817  32.522  30.061  1.00  0.00     0.031 A 
BRANCH  47  61
ATOM     61  C   UNL A   1      48.639  28.994  28.500  1.00  0.00    -0.014 A 
ATOM     62  C   UNL A   1      49.319  29.279  27.305  1.00  0.00     0.009 A 
ATOM     63  C   UNL A   1      49.368  28.538  29.608  1.00  0.00     0.009 A 
ATOM     64  C   UNL A   1      50.697  29.077  27.212  1.00  0.00     0.001 A 
ATOM     65  C   UNL A   1      50.748  28.357  29.519  1.00  0.00     0.001 A 
ATOM     66  C   UNL A   1      51.410  28.617  28.318  1.00  0.00     0.000 A 
ENDBRANCH  47  61
BRANCH  48  67
ATOM     67  C   UNL A   1      38.701  29.440  29.140  1.00  0.00    -0.014 A 
ATOM     68  C   UNL A   1      37.946  29.800  28.014  1.00  0.00     0.009 A 
ATOM     69  C   UNL A   1      38.041  29.201  30.355  1.00  0.00     0.009 A 
ATOM     70  C   UNL A   1      36.561  29.946  28.108  1.00  0.00     0.001 A 
ATOM     71  C   UNL A   1      36.653  29.327  30.441  1.00  0.00     0.001 A 
ATOM     72  C   UNL A   1      35.915  29.707  29.321  1.00  0.00     0.000 A 
ENDBRANCH  48  67
BRANCH  60  73
ATOM     73  C   UNL A   1      43.806  33.945  30.542  1.00  0.00    -0.014 A 
ATOM     74  C   UNL A   1      43.911  34.256  31.906  1.00  0.00     0.009 A 
ATOM     75  C   UNL A   1      43.731  34.989  29.607  1.00  0.00     0.009 A 
ATOM     76  C   UNL A   1      43.915  35.587  32.326  1.00  0.00     0.001 A 
ATOM     77  C   UNL A   1      43.759  36.319  30.028  1.00  0.00     0.001 A 
ATOM     78  C   UNL A   1      43.843  36.616  31.387  1.00  0.00     0.000 A 
ENDBRANCH  60  73
ENDBRANCH  34  35
ENDBRANCH  27  29
ENDBRANCH  26  27
ENDBRANCH  25  26
ENDBRANCH  24  25
ENDBRANCH   1  24
TORSDOF 16
ENDMDL
MODEL 3
REMARK VINA RESULT:     -10.5      3.679      6.699
REMARK SMILES O=C(Cc1ccc(S(=O)(=O)N[C@H]2CC[C@@H](O)CC2)cc1)OCCOC(=O)c1ccc(-c2c3nc(c(-c4ccccc4)c4ccc([nH]4)c(-c4ccccc4)c4nc(c(-c5ccccc5)c5ccc2[nH]5)C=C4)C=C3)cc1
REMARK SMILES IDX 21 1 2 2 1 3 3 4 4 5 5 6 20 7 6 8 19 9 7 10 8 11 9 12 10 13
REMARK SMILES IDX 11 14 12 16 13 17 18 18 14 19 17 20 15 21 16 22 22 24 23 25
REMARK SMILES IDX 24 26 25 27 26 28 27 29 28 30 74 31 29 32 73 33 30 34 31 35
REMARK SMILES IDX 32 36 67 37 33 38 72 39 66 40 68 41 34 42 71 43 65 44 64 45
REMARK SMILES IDX 35 47 57 48 42 49 56 50 43 51 46 52 55 53 69 54 44 55 45 56
REMARK SMILES IDX 54 58 70 59 47 60 36 61 37 62 41 63 38 64 40 65 39 66 58 67
REMARK SMILES IDX 59 68 63 69 60 70 62 71 61 72 48 73 49 74 53 75 50 76 52 77
REMARK SMILES IDX 51 78
REMARK H PARENT 11 15 16 23 68 46 46 57
REMARK Flexibility Score: inf
ROOT
ATOM      1  O   UNL A   1      34.463  20.357  24.977  1.00  0.00    -0.462 OA
ENDROOT
BRANCH   1   2
ATOM      2  C   UNL A   1      33.230  20.749  25.382  1.00  0.00     0.310 C 
ATOM      3  O   UNL A   1      32.271  19.993  25.250  1.00  0.00    -0.252 OA
BRANCH   2   4
ATOM      4  C   UNL A   1      33.058  22.129  25.967  1.00  0.00     0.158 C 
BRANCH   4   5
ATOM      5  C   UNL A   1      32.839  23.275  25.008  1.00  0.00    -0.037 A 
ATOM      6  C   UNL A   1      31.914  23.084  23.962  1.00  0.00     0.006 A 
ATOM      7  C   UNL A   1      33.563  24.471  25.069  1.00  0.00     0.006 A 
ATOM      8  C   UNL A   1      31.778  24.027  22.945  1.00  0.00     0.022 A 
ATOM      9  C   UNL A   1      33.423  25.424  24.060  1.00  0.00     0.022 A 
ATOM     10  C   UNL A   1      32.564  25.175  22.982  1.00  0.00     0.082 A 
BRANCH  10  11
ATOM     11  S   UNL A   1      32.607  26.266  21.588  1.00  0.00     0.240 S 
ATOM     12  O   UNL A   1      33.745  27.148  21.691  1.00  0.00    -0.207 OA
ATOM     13  O   UNL A   1      32.364  25.455  20.416  1.00  0.00    -0.207 OA
BRANCH  11  14
ATOM     14  N   UNL A   1      31.202  27.165  21.822  1.00  0.00    -0.208 NA
ATOM     15  H   UNL A   1      30.430  26.531  21.617  1.00  0.00     0.141 HD
BRANCH  14  16
ATOM     16  C   UNL A   1      30.849  27.828  23.094  1.00  0.00     0.070 C 
ATOM     17  C   UNL A   1      29.452  27.529  23.651  1.00  0.00     0.023 C 
ATOM     18  C   UNL A   1      31.000  29.344  22.859  1.00  0.00     0.023 C 
ATOM     19  C   UNL A   1      28.297  28.153  22.872  1.00  0.00     0.033 C 
ATOM     20  C   UNL A   1      29.890  29.899  21.966  1.00  0.00     0.033 C 
ATOM     21  C   UNL A   1      28.512  29.629  22.562  1.00  0.00     0.114 C 
BRANCH  21  22
ATOM     22  O   UNL A   1      27.502  30.062  21.653  1.00  0.00    -0.393 OA
ATOM     23  H   UNL A   1      27.846  30.024  20.747  1.00  0.00     0.210 HD
ENDBRANCH  21  22
ENDBRANCH  14  16
ENDBRANCH  11  14
ENDBRANCH  10  11
ENDBRANCH   4   5
ENDBRANCH   2   4
ENDBRANCH   1   2
BRANCH   1  24
ATOM     24  C   UNL A   1      35.603  21.232  24.807  1.00  0.00     0.274 C 
BRANCH  24  25
ATOM     25  C   UNL A   1      36.920  20.516  25.107  1.00  0.00     0.275 C 
BRANCH  25  26
ATOM     26  O   UNL A   1      37.992  21.472  25.107  1.00  0.00    -0.458 OA
BRANCH  26  27
ATOM     27  C   UNL A   1      39.044  21.154  25.898  1.00  0.00     0.338 C 
ATOM     28  O   UNL A   1      39.647  20.096  25.931  1.00  0.00    -0.246 OA
BRANCH  27  29
ATOM     29  C   UNL A   1      39.505  22.376  26.590  1.00  0.00     0.060 A 
ATOM     30  C   UNL A   1      38.840  23.572  26.293  1.00  0.00     0.016 A 
ATOM     31  C   UNL A   1      40.544  22.358  27.528  1.00  0.00     0.016 A 
ATOM     32  C   UNL A   1      39.251  24.761  26.886  1.00  0.00     0.010 A 
ATOM     33  C   UNL A   1      40.960  23.552  28.120  1.00  0.00     0.010 A 
ATOM     34  C   UNL A   1      40.342  24.763  27.766  1.00  0.00    -0.014 A 
BRANCH  34  35
ATOM     35  C   UNL A   1      40.967  26.056  28.118  1.00  0.00     0.031 A 
ATOM     36  C   UNL A   1      42.323  26.362  27.543  1.00  0.00     0.074 A 
ATOM     37  C   UNL A   1      40.334  26.960  28.883  1.00  0.00     0.049 A 
ATOM     38  N   UNL A   1      43.013  27.472  27.594  1.00  0.00    -0.248 NA
ATOM     39  C   UNL A   1      42.983  25.272  26.807  1.00  0.00     0.031 C 
ATOM     40  C   UNL A   1      39.014  26.790  29.488  1.00  0.00     0.029 A 
ATOM     41  N   UNL A   1      40.725  28.217  29.269  1.00  0.00    -0.354 N 
ATOM     42  C   UNL A   1      44.175  27.219  26.877  1.00  0.00     0.074 A 
ATOM     43  C   UNL A   1      44.120  25.841  26.443  1.00  0.00     0.031 C 
ATOM     44  C   UNL A   1      38.700  27.910  30.165  1.00  0.00     0.029 A 
ATOM     45  C   UNL A   1      39.796  28.869  30.042  1.00  0.00     0.049 A 
ATOM     46  H   UNL A   1      41.589  28.613  29.016  1.00  0.00     0.167 HD
ATOM     47  C   UNL A   1      45.195  28.061  26.592  1.00  0.00     0.031 A 
ATOM     48  C   UNL A   1      39.827  30.105  30.572  1.00  0.00     0.031 A 
ATOM     49  C   UNL A   1      45.274  29.419  27.048  1.00  0.00     0.049 A 
ATOM     50  C   UNL A   1      41.005  31.003  30.297  1.00  0.00     0.074 A 
ATOM     51  C   UNL A   1      46.260  30.358  26.804  1.00  0.00     0.029 A 
ATOM     52  N   UNL A   1      44.331  30.026  27.862  1.00  0.00    -0.354 N 
ATOM     53  N   UNL A   1      42.063  30.778  29.557  1.00  0.00    -0.248 NA
ATOM     54  C   UNL A   1      40.976  32.337  30.915  1.00  0.00     0.031 C 
ATOM     55  C   UNL A   1      45.934  31.524  27.507  1.00  0.00     0.029 A 
ATOM     56  C   UNL A   1      44.723  31.321  28.150  1.00  0.00     0.049 A 
ATOM     57  H   UNL A   1      43.505  29.600  28.185  1.00  0.00     0.167 HD
ATOM     58  C   UNL A   1      42.804  31.954  29.587  1.00  0.00     0.074 A 
ATOM     59  C   UNL A   1      42.075  32.889  30.419  1.00  0.00     0.031 C 
ATOM     60  C   UNL A   1      43.978  32.238  28.972  1.00  0.00     0.031 A 
BRANCH  47  61
ATOM     61  C   UNL A   1      46.315  27.508  25.762  1.00  0.00    -0.014 A 
ATOM     62  C   UNL A   1      47.286  26.666  26.329  1.00  0.00     0.009 A 
ATOM     63  C   UNL A   1      46.412  27.843  24.404  1.00  0.00     0.009 A 
ATOM     64  C   UNL A   1      48.351  26.199  25.558  1.00  0.00     0.001 A 
ATOM     65  C   UNL A   1      47.467  27.357  23.630  1.00  0.00     0.001 A 
ATOM     66  C   UNL A   1      48.441  26.544  24.210  1.00  0.00     0.000 A 
ENDBRANCH  47  61
BRANCH  48  67
ATOM     67  C   UNL A   1      38.693  30.593  31.396  1.00  0.00    -0.014 A 
ATOM     68  C   UNL A   1      37.595  31.226  30.793  1.00  0.00     0.009 A 
ATOM     69  C   UNL A   1      38.716  30.454  32.792  1.00  0.00     0.009 A 
ATOM     70  C   UNL A   1      36.555  31.734  31.574  1.00  0.00     0.001 A 
ATOM     71  C   UNL A   1      37.665  30.945  33.568  1.00  0.00     0.001 A 
ATOM     72  C   UNL A   1      36.589  31.592  32.960  1.00  0.00     0.000 A 
ENDBRANCH  48  67
BRANCH  60  73
ATOM     73  C   UNL A   1      44.523  33.628  29.136  1.00  0.00    -0.014 A 
ATOM     74  C   UNL A   1      45.289  33.985  30.256  1.00  0.00     0.009 A 
ATOM     75  C   UNL A   1      44.300  34.580  28.129  1.00  0.00     0.009 A 
ATOM     76  C   UNL A   1      45.798  35.279  30.376  1.00  0.00     0.001 A 
ATOM     77  C   UNL A   1      44.829  35.866  28.242  1.00  0.00     0.001 A 
ATOM     78  C   UNL A   1      45.571  36.216  29.368  1.00  0.00     0.000 A 
ENDBRANCH  60  73
ENDBRANCH  34  35
ENDBRANCH  27  29
ENDBRANCH  26  27
ENDBRANCH  25  26
ENDBRANCH  24  25
ENDBRANCH   1  24
TORSDOF 16
ENDMDL
