MODEL 1
REMARK VINA RESULT:      -9.3      0.000      0.000
REMARK SMILES COc1cc(/C=C/C(=O)OCCOC(=O)c2ccc(-c3c4nc(c(-c5ccccc5)c5ccc([nH]5)c(-c5ccccc5)c5nc(c(-c6ccccc6)c6ccc3[nH]6)C=C5)C=C4)cc2)cc(OC)c1O
REMARK SMILES IDX 11 1 10 2 8 3 9 4 7 5 6 6 5 7 3 8 4 9 68 10 65 11 64 12 2 13
REMARK SMILES IDX 1 14 69 15 66 17 67 18 12 19 13 20 14 21 15 22 16 23 17 24
REMARK SMILES IDX 63 25 18 26 62 27 19 28 20 29 21 30 56 31 22 32 61 33 55 34
REMARK SMILES IDX 57 35 23 36 60 37 54 38 53 39 24 41 46 42 31 43 45 44 32 45
REMARK SMILES IDX 35 46 44 47 58 48 33 49 34 50 43 52 59 53 36 54 25 55 26 56
REMARK SMILES IDX 30 57 27 58 29 59 28 60 47 61 48 62 52 63 49 64 51 65 50 66
REMARK SMILES IDX 37 67 38 68 42 69 39 70 41 71 40 72
REMARK H PARENT 69 16 57 40 35 51
REMARK Flexibility Score: inf
ROOT
ATOM      1  C   UNL A   1      33.527  36.633  31.330  1.00  0.00     0.275 C 
ENDROOT
BRANCH   1   2
ATOM      2  O   UNL A   1      34.354  35.630  31.951  1.00  0.00    -0.459 OA
BRANCH   2   3
ATOM      3  C   UNL A   1      34.648  35.840  33.255  1.00  0.00     0.330 C 
ATOM      4  O   UNL A   1      34.145  36.685  33.982  1.00  0.00    -0.247 OA
BRANCH   3   5
ATOM      5  C   UNL A   1      35.644  34.887  33.782  1.00  0.00     0.094 C 
ATOM      6  C   UNL A   1      35.684  33.566  33.546  1.00  0.00     0.016 C 
BRANCH   6   7
ATOM      7  C   UNL A   1      36.685  32.695  34.186  1.00  0.00    -0.018 A 
ATOM      8  C   UNL A   1      37.983  30.627  34.250  1.00  0.00     0.165 A 
ATOM      9  C   UNL A   1      37.064  31.473  33.618  1.00  0.00     0.058 A 
ATOM     10  C   UNL A   1      38.534  31.010  35.481  1.00  0.00     0.200 A 
ATOM     11  C   UNL A   1      38.222  32.261  36.037  1.00  0.00     0.165 A 
ATOM     12  C   UNL A   1      37.298  33.090  35.379  1.00  0.00     0.058 A 
BRANCH   8  13
ATOM     13  O   UNL A   1      38.173  29.439  33.594  1.00  0.00    -0.493 OA
ATOM     14  C   UNL A   1      39.423  29.231  32.944  1.00  0.00     0.278 C 
ENDBRANCH   8  13
BRANCH  10  15
ATOM     15  O   UNL A   1      39.301  30.123  36.184  1.00  0.00    -0.502 OA
ATOM     16  H   UNL A   1      39.997  30.435  36.729  1.00  0.00     0.293 HD
ENDBRANCH  10  15
BRANCH  11  17
ATOM     17  O   UNL A   1      38.662  32.795  37.220  1.00  0.00    -0.493 OA
ATOM     18  C   UNL A   1      37.819  32.702  38.361  1.00  0.00     0.278 C 
ENDBRANCH  11  17
ENDBRANCH   6   7
ENDBRANCH   3   5
ENDBRANCH   2   3
ENDBRANCH   1   2
BRANCH   1  19
ATOM     19  C   UNL A   1      32.573  36.018  30.301  1.00  0.00     0.275 C 
BRANCH  19  20
ATOM     20  O   UNL A   1      33.211  35.822  29.025  1.00  0.00    -0.458 OA
BRANCH  20  21
ATOM     21  C   UNL A   1      33.136  34.559  28.541  1.00  0.00     0.338 C 
ATOM     22  O   UNL A   1      32.205  34.061  27.929  1.00  0.00    -0.246 OA
BRANCH  21  23
ATOM     23  C   UNL A   1      34.412  33.850  28.752  1.00  0.00     0.060 A 
ATOM     24  C   UNL A   1      34.477  32.938  29.810  1.00  0.00     0.016 A 
ATOM     25  C   UNL A   1      35.549  34.130  27.989  1.00  0.00     0.016 A 
ATOM     26  C   UNL A   1      35.682  32.315  30.121  1.00  0.00     0.010 A 
ATOM     27  C   UNL A   1      36.762  33.506  28.305  1.00  0.00     0.010 A 
ATOM     28  C   UNL A   1      36.840  32.610  29.385  1.00  0.00    -0.014 A 
BRANCH  28  29
ATOM     29  C   UNL A   1      38.131  32.017  29.808  1.00  0.00     0.031 A 
ATOM     30  C   UNL A   1      38.977  32.713  30.837  1.00  0.00     0.074 A 
ATOM     31  C   UNL A   1      38.516  30.825  29.318  1.00  0.00     0.049 A 
ATOM     32  N   UNL A   1      40.095  32.316  31.392  1.00  0.00    -0.248 NA
ATOM     33  C   UNL A   1      38.503  34.025  31.304  1.00  0.00     0.031 C 
ATOM     34  C   UNL A   1      37.776  30.036  28.334  1.00  0.00     0.029 A 
ATOM     35  N   UNL A   1      39.622  30.062  29.600  1.00  0.00    -0.354 N 
ATOM     36  C   UNL A   1      40.456  33.326  32.276  1.00  0.00     0.074 A 
ATOM     37  C   UNL A   1      39.455  34.366  32.160  1.00  0.00     0.031 C 
ATOM     38  C   UNL A   1      38.440  28.891  28.106  1.00  0.00     0.029 A 
ATOM     39  C   UNL A   1      39.658  28.875  28.912  1.00  0.00     0.049 A 
ATOM     40  H   UNL A   1      40.321  30.340  30.235  1.00  0.00     0.167 HD
ATOM     41  C   UNL A   1      41.518  33.380  33.114  1.00  0.00     0.031 A 
ATOM     42  C   UNL A   1      40.571  27.886  28.929  1.00  0.00     0.031 A 
ATOM     43  C   UNL A   1      42.524  32.356  33.228  1.00  0.00     0.049 A 
ATOM     44  C   UNL A   1      41.766  27.993  29.834  1.00  0.00     0.074 A 
ATOM     45  C   UNL A   1      43.629  32.321  34.061  1.00  0.00     0.029 A 
ATOM     46  N   UNL A   1      42.550  31.191  32.479  1.00  0.00    -0.354 N 
ATOM     47  N   UNL A   1      42.075  28.937  30.688  1.00  0.00    -0.248 NA
ATOM     48  C   UNL A   1      42.734  26.886  29.782  1.00  0.00     0.031 C 
ATOM     49  C   UNL A   1      44.347  31.151  33.786  1.00  0.00     0.029 A 
ATOM     50  C   UNL A   1      43.664  30.440  32.814  1.00  0.00     0.049 A 
ATOM     51  H   UNL A   1      41.877  30.936  31.808  1.00  0.00     0.167 HD
ATOM     52  C   UNL A   1      43.262  28.532  31.286  1.00  0.00     0.074 A 
ATOM     53  C   UNL A   1      43.606  27.247  30.713  1.00  0.00     0.031 C 
ATOM     54  C   UNL A   1      44.001  29.168  32.227  1.00  0.00     0.031 A 
BRANCH  41  55
ATOM     55  C   UNL A   1      41.658  34.610  33.964  1.00  0.00    -0.014 A 
ATOM     56  C   UNL A   1      42.445  35.694  33.547  1.00  0.00     0.009 A 
ATOM     57  C   UNL A   1      40.969  34.697  35.184  1.00  0.00     0.009 A 
ATOM     58  C   UNL A   1      42.565  36.830  34.350  1.00  0.00     0.001 A 
ATOM     59  C   UNL A   1      41.074  35.842  35.974  1.00  0.00     0.001 A 
ATOM     60  C   UNL A   1      41.878  36.904  35.562  1.00  0.00     0.000 A 
ENDBRANCH  41  55
BRANCH  42  61
ATOM     61  C   UNL A   1      40.393  26.698  28.057  1.00  0.00    -0.014 A 
ATOM     62  C   UNL A   1      39.677  25.579  28.510  1.00  0.00     0.009 A 
ATOM     63  C   UNL A   1      40.953  26.674  26.770  1.00  0.00     0.009 A 
ATOM     64  C   UNL A   1      39.546  24.451  27.698  1.00  0.00     0.001 A 
ATOM     65  C   UNL A   1      40.799  25.553  25.953  1.00  0.00     0.001 A 
ATOM     66  C   UNL A   1      40.103  24.440  26.420  1.00  0.00     0.000 A 
ENDBRANCH  42  61
BRANCH  54  67
ATOM     67  C   UNL A   1      45.243  28.473  32.705  1.00  0.00    -0.014 A 
ATOM     68  C   UNL A   1      45.216  27.630  33.827  1.00  0.00     0.009 A 
ATOM     69  C   UNL A   1      46.451  28.650  32.014  1.00  0.00     0.009 A 
ATOM     70  C   UNL A   1      46.384  27.005  34.267  1.00  0.00     0.001 A 
ATOM     71  C   UNL A   1      47.612  28.004  32.443  1.00  0.00     0.001 A 
ATOM     72  C   UNL A   1      47.580  27.189  33.574  1.00  0.00     0.000 A 
ENDBRANCH  54  67
ENDBRANCH  28  29
ENDBRANCH  21  23
ENDBRANCH  20  21
ENDBRANCH  19  20
ENDBRANCH   1  19
TORSDOF 15
ENDMDL
MODEL 2
REMARK VINA RESULT:      -9.0      0.518      6.187
REMARK SMILES COc1cc(/C=C/C(=O)OCCOC(=O)c2ccc(-c3c4nc(c(-c5ccccc5)c5ccc([nH]5)c(-c5ccccc5)c5nc(c(-c6ccccc6)c6ccc3[nH]6)C=C5)C=C4)cc2)cc(OC)c1O
REMARK SMILES IDX 11 1 10 2 8 3 9 4 7 5 6 6 5 7 3 8 4 9 68 10 65 11 64 12 2 13
REMARK SMILES IDX 1 14 69 15 66 17 67 18 12 19 13 20 14 21 15 22 16 23 17 24
REMARK SMILES IDX 63 25 18 26 62 27 19 28 20 29 21 30 56 31 22 32 61 33 55 34
REMARK SMILES IDX 57 35 23 36 60 37 54 38 53 39 24 41 46 42 31 43 45 44 32 45
REMARK SMILES IDX 35 46 44 47 58 48 33 49 34 50 43 52 59 53 36 54 25 55 26 56
REMARK SMILES IDX 30 57 27 58 29 59 28 60 47 61 48 62 52 63 49 64 51 65 50 66
REMARK SMILES IDX 37 67 38 68 42 69 39 70 41 71 40 72
REMARK H PARENT 69 16 57 40 35 51
REMARK Flexibility Score: inf
ROOT
ATOM      1  C   UNL A   1      33.439  36.581  31.071  1.00  0.00     0.275 C 
ENDROOT
BRANCH   1   2
ATOM      2  O   UNL A   1      34.069  35.517  31.810  1.00  0.00    -0.459 OA
BRANCH   2   3
ATOM      3  C   UNL A   1      34.593  35.868  33.007  1.00  0.00     0.330 C 
ATOM      4  O   UNL A   1      34.259  36.828  33.689  1.00  0.00    -0.247 OA
BRANCH   3   5
ATOM      5  C   UNL A   1      35.625  34.926  33.484  1.00  0.00     0.094 C 
ATOM      6  C   UNL A   1      35.501  34.058  34.501  1.00  0.00     0.016 C 
BRANCH   6   7
ATOM      7  C   UNL A   1      36.625  33.213  34.939  1.00  0.00    -0.018 A 
ATOM      8  C   UNL A   1      38.187  31.376  34.554  1.00  0.00     0.165 A 
ATOM      9  C   UNL A   1      37.148  32.207  34.118  1.00  0.00     0.058 A 
ATOM     10  C   UNL A   1      38.714  31.553  35.841  1.00  0.00     0.200 A 
ATOM     11  C   UNL A   1      38.253  32.599  36.656  1.00  0.00     0.165 A 
ATOM     12  C   UNL A   1      37.210  33.418  36.191  1.00  0.00     0.058 A 
BRANCH   8  13
ATOM     13  O   UNL A   1      38.517  30.396  33.654  1.00  0.00    -0.493 OA
ATOM     14  C   UNL A   1      37.454  29.703  33.008  1.00  0.00     0.278 C 
ENDBRANCH   8  13
BRANCH  10  15
ATOM     15  O   UNL A   1      39.610  30.647  36.336  1.00  0.00    -0.502 OA
ATOM     16  H   UNL A   1      39.943  30.744  37.206  1.00  0.00     0.293 HD
ENDBRANCH  10  15
BRANCH  11  17
ATOM     17  O   UNL A   1      38.648  32.917  37.929  1.00  0.00    -0.493 OA
ATOM     18  C   UNL A   1      37.720  32.740  38.991  1.00  0.00     0.278 C 
ENDBRANCH  11  17
ENDBRANCH   6   7
ENDBRANCH   3   5
ENDBRANCH   2   3
ENDBRANCH   1   2
BRANCH   1  19
ATOM     19  C   UNL A   1      32.513  36.036  29.979  1.00  0.00     0.275 C 
BRANCH  19  20
ATOM     20  O   UNL A   1      33.229  35.733  28.767  1.00  0.00    -0.458 OA
BRANCH  20  21
ATOM     21  C   UNL A   1      33.170  34.436  28.381  1.00  0.00     0.338 C 
ATOM     22  O   UNL A   1      32.267  33.893  27.766  1.00  0.00    -0.246 OA
BRANCH  21  23
ATOM     23  C   UNL A   1      34.431  33.743  28.709  1.00  0.00     0.060 A 
ATOM     24  C   UNL A   1      34.440  32.920  29.839  1.00  0.00     0.016 A 
ATOM     25  C   UNL A   1      35.604  33.958  27.980  1.00  0.00     0.016 A 
ATOM     26  C   UNL A   1      35.626  32.321  30.255  1.00  0.00     0.010 A 
ATOM     27  C   UNL A   1      36.797  33.358  28.403  1.00  0.00     0.010 A 
ATOM     28  C   UNL A   1      36.818  32.553  29.554  1.00  0.00    -0.014 A 
BRANCH  28  29
ATOM     29  C   UNL A   1      38.085  31.992  30.084  1.00  0.00     0.031 A 
ATOM     30  C   UNL A   1      38.593  30.672  29.576  1.00  0.00     0.074 A 
ATOM     31  C   UNL A   1      38.811  32.694  30.972  1.00  0.00     0.049 A 
ATOM     32  N   UNL A   1      39.713  30.055  29.857  1.00  0.00    -0.248 NA
ATOM     33  C   UNL A   1      37.729  29.953  28.627  1.00  0.00     0.031 C 
ATOM     34  C   UNL A   1      38.442  33.996  31.526  1.00  0.00     0.029 A 
ATOM     35  N   UNL A   1      40.023  32.412  31.551  1.00  0.00    -0.354 N 
ATOM     36  C   UNL A   1      39.692  28.879  29.118  1.00  0.00     0.074 A 
ATOM     37  C   UNL A   1      38.434  28.854  28.401  1.00  0.00     0.031 C 
ATOM     38  C   UNL A   1      39.417  34.410  32.352  1.00  0.00     0.029 A 
ATOM     39  C   UNL A   1      40.467  33.395  32.400  1.00  0.00     0.049 A 
ATOM     40  H   UNL A   1      40.526  31.584  31.372  1.00  0.00     0.167 HD
ATOM     41  C   UNL A   1      40.636  27.911  29.036  1.00  0.00     0.031 A 
ATOM     42  C   UNL A   1      41.593  33.470  33.134  1.00  0.00     0.031 A 
ATOM     43  C   UNL A   1      41.884  27.923  29.754  1.00  0.00     0.049 A 
ATOM     44  C   UNL A   1      42.603  32.359  33.061  1.00  0.00     0.074 A 
ATOM     45  C   UNL A   1      42.906  26.990  29.721  1.00  0.00     0.029 A 
ATOM     46  N   UNL A   1      42.274  28.913  30.640  1.00  0.00    -0.354 N 
ATOM     47  N   UNL A   1      42.584  31.271  32.331  1.00  0.00    -0.248 NA
ATOM     48  C   UNL A   1      43.797  32.496  33.908  1.00  0.00     0.031 C 
ATOM     49  C   UNL A   1      43.899  27.397  30.620  1.00  0.00     0.029 A 
ATOM     50  C   UNL A   1      43.512  28.604  31.178  1.00  0.00     0.049 A 
ATOM     51  H   UNL A   1      41.749  29.717  30.856  1.00  0.00     0.167 HD
ATOM     52  C   UNL A   1      43.768  30.602  32.619  1.00  0.00     0.074 A 
ATOM     53  C   UNL A   1      44.491  31.418  33.573  1.00  0.00     0.031 C 
ATOM     54  C   UNL A   1      44.216  29.419  32.135  1.00  0.00     0.031 A 
BRANCH  41  55
ATOM     55  C   UNL A   1      40.339  26.738  28.147  1.00  0.00    -0.014 A 
ATOM     56  C   UNL A   1      40.830  26.682  26.833  1.00  0.00     0.009 A 
ATOM     57  C   UNL A   1      39.583  25.663  28.638  1.00  0.00     0.009 A 
ATOM     58  C   UNL A   1      40.543  25.584  26.019  1.00  0.00     0.001 A 
ATOM     59  C   UNL A   1      39.316  24.559  27.830  1.00  0.00     0.001 A 
ATOM     60  C   UNL A   1      39.789  24.523  26.519  1.00  0.00     0.000 A 
ENDBRANCH  41  55
BRANCH  42  61
ATOM     61  C   UNL A   1      41.831  34.645  34.009  1.00  0.00    -0.014 A 
ATOM     62  C   UNL A   1      42.560  35.748  33.541  1.00  0.00     0.009 A 
ATOM     63  C   UNL A   1      41.340  34.660  35.323  1.00  0.00     0.009 A 
ATOM     64  C   UNL A   1      42.812  36.834  34.382  1.00  0.00     0.001 A 
ATOM     65  C   UNL A   1      41.573  35.758  36.153  1.00  0.00     0.001 A 
ATOM     66  C   UNL A   1      42.315  36.840  35.685  1.00  0.00     0.000 A 
ENDBRANCH  42  61
BRANCH  54  67
ATOM     67  C   UNL A   1      45.557  28.947  32.619  1.00  0.00    -0.014 A 
ATOM     68  C   UNL A   1      46.728  29.230  31.898  1.00  0.00     0.009 A 
ATOM     69  C   UNL A   1      45.652  28.227  33.819  1.00  0.00     0.009 A 
ATOM     70  C   UNL A   1      47.964  28.769  32.353  1.00  0.00     0.001 A 
ATOM     71  C   UNL A   1      46.894  27.789  34.283  1.00  0.00     0.001 A 
ATOM     72  C   UNL A   1      48.047  28.052  33.546  1.00  0.00     0.000 A 
ENDBRANCH  54  67
ENDBRANCH  28  29
ENDBRANCH  21  23
ENDBRANCH  20  21
ENDBRANCH  19  20
ENDBRANCH   1  19
TORSDOF 15
ENDMDL
MODEL 3
REMARK VINA RESULT:      -9.0      5.699     11.944
REMARK SMILES COc1cc(/C=C/C(=O)OCCOC(=O)c2ccc(-c3c4nc(c(-c5ccccc5)c5ccc([nH]5)c(-c5ccccc5)c5nc(c(-c6ccccc6)c6ccc3[nH]6)C=C5)C=C4)cc2)cc(OC)c1O
REMARK SMILES IDX 11 1 10 2 8 3 9 4 7 5 6 6 5 7 3 8 4 9 68 10 65 11 64 12 2 13
REMARK SMILES IDX 1 14 69 15 66 17 67 18 12 19 13 20 14 21 15 22 16 23 17 24
REMARK SMILES IDX 63 25 18 26 62 27 19 28 20 29 21 30 56 31 22 32 61 33 55 34
REMARK SMILES IDX 57 35 23 36 60 37 54 38 53 39 24 41 46 42 31 43 45 44 32 45
REMARK SMILES IDX 35 46 44 47 58 48 33 49 34 50 43 52 59 53 36 54 25 55 26 56
REMARK SMILES IDX 30 57 27 58 29 59 28 60 47 61 48 62 52 63 49 64 51 65 50 66
REMARK SMILES IDX 37 67 38 68 42 69 39 70 41 71 40 72
REMARK H PARENT 69 16 57 40 35 51
REMARK Flexibility Score: inf
ROOT
ATOM      1  C   UNL A   1      44.090  19.042  24.658  1.00  0.00     0.275 C 
ENDROOT
BRANCH   1   2
ATOM      2  O   UNL A   1      44.810  20.027  25.424  1.00  0.00    -0.459 OA
BRANCH   2   3
ATOM      3  C   UNL A   1      46.006  20.403  24.915  1.00  0.00     0.330 C 
ATOM      4  O   UNL A   1      46.812  19.676  24.350  1.00  0.00    -0.247 OA
BRANCH   3   5
ATOM      5  C   UNL A   1      46.263  21.850  25.054  1.00  0.00     0.094 C 
ATOM      6  C   UNL A   1      45.412  22.842  24.750  1.00  0.00     0.016 C 
BRANCH   6   7
ATOM      7  C   UNL A   1      45.802  24.258  24.862  1.00  0.00    -0.018 A 
ATOM      8  C   UNL A   1      47.507  26.006  24.861  1.00  0.00     0.165 A 
ATOM      9  C   UNL A   1      47.133  24.666  24.711  1.00  0.00     0.058 A 
ATOM     10  C   UNL A   1      46.530  26.962  25.173  1.00  0.00     0.200 A 
ATOM     11  C   UNL A   1      45.179  26.588  25.261  1.00  0.00     0.165 A 
ATOM     12  C   UNL A   1      44.832  25.236  25.103  1.00  0.00     0.058 A 
BRANCH   8  13
ATOM     13  O   UNL A   1      48.859  26.210  24.761  1.00  0.00    -0.493 OA
ATOM     14  C   UNL A   1      49.347  26.870  23.598  1.00  0.00     0.278 C 
ENDBRANCH   8  13
BRANCH  10  15
ATOM     15  O   UNL A   1      46.906  28.239  25.483  1.00  0.00    -0.502 OA
ATOM     16  H   UNL A   1      47.449  28.724  24.893  1.00  0.00     0.293 HD
ENDBRANCH  10  15
BRANCH  11  17
ATOM     17  O   UNL A   1      44.100  27.380  25.555  1.00  0.00    -0.493 OA
ATOM     18  C   UNL A   1      42.803  26.917  25.202  1.00  0.00     0.278 C 
ENDBRANCH  11  17
ENDBRANCH   6   7
ENDBRANCH   3   5
ENDBRANCH   2   3
ENDBRANCH   1   2
BRANCH   1  19
ATOM     19  C   UNL A   1      43.348  18.056  25.565  1.00  0.00     0.275 C 
BRANCH  19  20
ATOM     20  O   UNL A   1      42.644  18.726  26.628  1.00  0.00    -0.458 OA
BRANCH  20  21
ATOM     21  C   UNL A   1      41.594  19.481  26.225  1.00  0.00     0.338 C 
ATOM     22  O   UNL A   1      40.634  19.113  25.568  1.00  0.00    -0.246 OA
BRANCH  21  23
ATOM     23  C   UNL A   1      41.690  20.841  26.790  1.00  0.00     0.060 A 
ATOM     24  C   UNL A   1      41.958  21.890  25.905  1.00  0.00     0.016 A 
ATOM     25  C   UNL A   1      41.606  21.078  28.164  1.00  0.00     0.016 A 
ATOM     26  C   UNL A   1      42.161  23.178  26.392  1.00  0.00     0.010 A 
ATOM     27  C   UNL A   1      41.814  22.375  28.654  1.00  0.00     0.010 A 
ATOM     28  C   UNL A   1      42.112  23.427  27.772  1.00  0.00    -0.014 A 
BRANCH  28  29
ATOM     29  C   UNL A   1      42.440  24.785  28.269  1.00  0.00     0.031 A 
ATOM     30  C   UNL A   1      43.870  25.160  28.541  1.00  0.00     0.074 A 
ATOM     31  C   UNL A   1      41.467  25.701  28.417  1.00  0.00     0.049 A 
ATOM     32  N   UNL A   1      44.366  26.317  28.904  1.00  0.00    -0.248 NA
ATOM     33  C   UNL A   1      44.873  24.095  28.383  1.00  0.00     0.031 C 
ATOM     34  C   UNL A   1      40.045  25.472  28.163  1.00  0.00     0.029 A 
ATOM     35  N   UNL A   1      41.534  27.017  28.800  1.00  0.00    -0.354 N 
ATOM     36  C   UNL A   1      45.737  26.122  29.013  1.00  0.00     0.074 A 
ATOM     37  C   UNL A   1      45.991  24.729  28.709  1.00  0.00     0.031 C 
ATOM     38  C   UNL A   1      39.374  26.615  28.381  1.00  0.00     0.029 A 
ATOM     39  C   UNL A   1      40.316  27.648  28.807  1.00  0.00     0.049 A 
ATOM     40  H   UNL A   1      42.377  27.465  29.044  1.00  0.00     0.167 HD
ATOM     41  C   UNL A   1      46.699  27.021  29.329  1.00  0.00     0.031 A 
ATOM     42  C   UNL A   1      39.993  28.917  29.121  1.00  0.00     0.031 A 
ATOM     43  C   UNL A   1      46.455  28.405  29.644  1.00  0.00     0.049 A 
ATOM     44  C   UNL A   1      41.076  29.883  29.515  1.00  0.00     0.074 A 
ATOM     45  C   UNL A   1      47.371  29.392  29.963  1.00  0.00     0.029 A 
ATOM     46  N   UNL A   1      45.201  28.993  29.687  1.00  0.00    -0.354 N 
ATOM     47  N   UNL A   1      42.370  29.693  29.581  1.00  0.00    -0.248 NA
ATOM     48  C   UNL A   1      40.648  31.245  29.869  1.00  0.00     0.031 C 
ATOM     49  C   UNL A   1      46.667  30.570  30.240  1.00  0.00     0.029 A 
ATOM     50  C   UNL A   1      45.317  30.324  30.049  1.00  0.00     0.049 A 
ATOM     51  H   UNL A   1      44.354  28.533  29.490  1.00  0.00     0.167 HD
ATOM     52  C   UNL A   1      42.913  30.913  29.966  1.00  0.00     0.074 A 
ATOM     53  C   UNL A   1      41.809  31.841  30.099  1.00  0.00     0.031 C 
ATOM     54  C   UNL A   1      44.210  31.235  30.189  1.00  0.00     0.031 A 
BRANCH  41  55
ATOM     55  C   UNL A   1      48.115  26.523  29.373  1.00  0.00    -0.014 A 
ATOM     56  C   UNL A   1      48.648  25.953  30.540  1.00  0.00     0.009 A 
ATOM     57  C   UNL A   1      48.917  26.596  28.223  1.00  0.00     0.009 A 
ATOM     58  C   UNL A   1      49.967  25.496  30.563  1.00  0.00     0.001 A 
ATOM     59  C   UNL A   1      50.227  26.119  28.243  1.00  0.00     0.001 A 
ATOM     60  C   UNL A   1      50.754  25.576  29.415  1.00  0.00     0.000 A 
ENDBRANCH  41  55
BRANCH  42  61
ATOM     61  C   UNL A   1      38.576  29.355  29.077  1.00  0.00    -0.014 A 
ATOM     62  C   UNL A   1      37.763  29.263  30.216  1.00  0.00     0.009 A 
ATOM     63  C   UNL A   1      38.026  29.853  27.885  1.00  0.00     0.009 A 
ATOM     64  C   UNL A   1      36.421  29.642  30.157  1.00  0.00     0.001 A 
ATOM     65  C   UNL A   1      36.690  30.254  27.836  1.00  0.00     0.001 A 
ATOM     66  C   UNL A   1      35.887  30.141  28.969  1.00  0.00     0.000 A 
ENDBRANCH  42  61
BRANCH  54  67
ATOM     67  C   UNL A   1      44.503  32.654  30.583  1.00  0.00    -0.014 A 
ATOM     68  C   UNL A   1      44.748  33.640  29.614  1.00  0.00     0.009 A 
ATOM     69  C   UNL A   1      44.517  33.013  31.939  1.00  0.00     0.009 A 
ATOM     70  C   UNL A   1      45.035  34.950  29.998  1.00  0.00     0.001 A 
ATOM     71  C   UNL A   1      44.781  34.330  32.319  1.00  0.00     0.001 A 
ATOM     72  C   UNL A   1      45.048  35.295  31.349  1.00  0.00     0.000 A 
ENDBRANCH  54  67
ENDBRANCH  28  29
ENDBRANCH  21  23
ENDBRANCH  20  21
ENDBRANCH  19  20
ENDBRANCH   1  19
TORSDOF 15
ENDMDL
