MODEL 1
REMARK VINA RESULT:     -10.2      0.000      0.000
REMARK SMILES N#CCOc1ccccc1[C@H]1[NH2+][C@@H](C(=O)OCCOC(=O)c2ccc(-c3c4nc(c(-c5ccccc5)c5ccc([nH]5)c(-c5ccccc5)c5nc(c(-c6ccccc6)c6ccc3[nH]6)C=C5)C=C4)cc2)CS1
REMARK SMILES IDX 17 1 16 2 14 3 15 4 13 5 11 6 12 7 71 8 70 11 10 12 5 13
REMARK SMILES IDX 6 14 7 15 9 16 8 17 4 18 3 19 2 20 1 21 18 22 19 23 20 24
REMARK SMILES IDX 21 25 22 26 23 27 69 28 24 29 68 30 25 31 26 32 27 33 62 34
REMARK SMILES IDX 28 35 67 36 61 37 63 38 29 39 66 40 60 41 59 42 30 44 52 45
REMARK SMILES IDX 37 46 51 47 38 48 41 49 50 50 64 51 39 52 40 53 49 55 65 56
REMARK SMILES IDX 42 57 31 58 32 59 36 60 33 61 35 62 34 63 53 64 54 65 58 66
REMARK SMILES IDX 55 67 57 68 56 69 43 70 44 71 48 72 45 73 47 74 46 75
REMARK H PARENT 12 9 12 10 63 43 41 54
REMARK Flexibility Score: inf
ROOT
ATOM      1  C   UNL A   1      35.006  20.815  25.058  1.00  0.00     0.274 C 
ENDROOT
BRANCH   1   2
ATOM      2  O   UNL A   1      34.493  21.828  24.170  1.00  0.00    -0.458 OA
BRANCH   2   3
ATOM      3  C   UNL A   1      34.309  23.108  24.644  1.00  0.00     0.365 C 
ATOM      4  O   UNL A   1      35.170  23.766  25.212  1.00  0.00    -0.245 OA
BRANCH   3   5
ATOM      5  C   UNL A   1      32.812  23.526  24.479  1.00  0.00     0.304 C 
ATOM      6  C   UNL A   1      31.600  25.537  25.141  1.00  0.00     0.278 C 
ATOM      7  N   UNL A   1      32.740  25.012  24.391  1.00  0.00    -0.319 N 
ATOM      8  S   UNL A   1      30.731  24.293  26.083  1.00  0.00    -0.087 SA
ATOM      9  H   UNL A   1      33.598  25.410  24.772  1.00  0.00     0.348 HD
ATOM     10  H   UNL A   1      32.626  25.271  23.411  1.00  0.00     0.348 HD
ATOM     11  C   UNL A   1      31.861  22.932  25.533  1.00  0.00     0.153 C 
BRANCH   6  12
ATOM     12  C   UNL A   1      31.761  27.066  25.451  1.00  0.00     0.062 A 
ATOM     13  C   UNL A   1      31.885  28.321  24.726  1.00  0.00     0.131 A 
ATOM     14  C   UNL A   1      31.928  29.517  25.493  1.00  0.00     0.047 A 
ATOM     15  C   UNL A   1      31.797  29.558  26.882  1.00  0.00     0.004 A 
ATOM     16  C   UNL A   1      31.605  27.194  26.883  1.00  0.00     0.015 A 
ATOM     17  C   UNL A   1      31.625  28.389  27.583  1.00  0.00     0.001 A 
BRANCH  13  18
ATOM     18  O   UNL A   1      32.158  28.728  23.404  1.00  0.00    -0.478 OA
BRANCH  18  19
ATOM     19  C   UNL A   1      33.524  28.934  22.848  1.00  0.00     0.349 C 
BRANCH  19  20
ATOM     20  C   UNL A   1      33.608  27.564  22.195  1.00  0.00     0.104 C 
ATOM     21  N   UNL A   1      33.678  26.427  21.654  1.00  0.00    -0.195 NA
ENDBRANCH  19  20
ENDBRANCH  18  19
ENDBRANCH  13  18
ENDBRANCH   6  12
ENDBRANCH   3   5
ENDBRANCH   2   3
ENDBRANCH   1   2
BRANCH   1  22
ATOM     22  C   UNL A   1      36.492  20.581  24.801  1.00  0.00     0.275 C 
BRANCH  22  23
ATOM     23  O   UNL A   1      37.227  21.321  25.784  1.00  0.00    -0.458 OA
BRANCH  23  24
ATOM     24  C   UNL A   1      38.536  21.051  25.889  1.00  0.00     0.338 C 
ATOM     25  O   UNL A   1      39.143  20.033  25.559  1.00  0.00    -0.246 OA
BRANCH  24  26
ATOM     26  C   UNL A   1      39.198  22.255  26.379  1.00  0.00     0.060 A 
ATOM     27  C   UNL A   1      38.640  23.492  26.049  1.00  0.00     0.016 A 
ATOM     28  C   UNL A   1      40.391  22.167  27.095  1.00  0.00     0.016 A 
ATOM     29  C   UNL A   1      39.313  24.659  26.383  1.00  0.00     0.010 A 
ATOM     30  C   UNL A   1      41.031  23.343  27.486  1.00  0.00     0.010 A 
ATOM     31  C   UNL A   1      40.511  24.594  27.106  1.00  0.00    -0.014 A 
BRANCH  31  32
ATOM     32  C   UNL A   1      41.246  25.840  27.428  1.00  0.00     0.031 A 
ATOM     33  C   UNL A   1      40.633  26.847  28.357  1.00  0.00     0.074 A 
ATOM     34  C   UNL A   1      42.464  26.055  26.899  1.00  0.00     0.049 A 
ATOM     35  N   UNL A   1      41.059  28.041  28.680  1.00  0.00    -0.248 NA
ATOM     36  C   UNL A   1      39.367  26.464  29.004  1.00  0.00     0.031 C 
ATOM     37  C   UNL A   1      43.183  25.128  26.023  1.00  0.00     0.029 A 
ATOM     38  N   UNL A   1      43.315  27.122  27.028  1.00  0.00    -0.354 N 
ATOM     39  C   UNL A   1      40.099  28.565  29.536  1.00  0.00     0.074 A 
ATOM     40  C   UNL A   1      39.062  27.566  29.675  1.00  0.00     0.031 C 
ATOM     41  C   UNL A   1      44.376  25.657  25.713  1.00  0.00     0.029 A 
ATOM     42  C   UNL A   1      44.479  26.983  26.313  1.00  0.00     0.049 A 
ATOM     43  H   UNL A   1      43.111  27.912  27.580  1.00  0.00     0.167 HD
ATOM     44  C   UNL A   1      40.085  29.772  30.148  1.00  0.00     0.031 A 
ATOM     45  C   UNL A   1      45.500  27.841  26.135  1.00  0.00     0.031 A 
ATOM     46  C   UNL A   1      41.128  30.754  30.020  1.00  0.00     0.049 A 
ATOM     47  C   UNL A   1      45.438  29.192  26.787  1.00  0.00     0.074 A 
ATOM     48  C   UNL A   1      41.214  32.004  30.606  1.00  0.00     0.029 A 
ATOM     49  N   UNL A   1      42.274  30.588  29.257  1.00  0.00    -0.354 N 
ATOM     50  N   UNL A   1      44.512  29.688  27.571  1.00  0.00    -0.248 NA
ATOM     51  C   UNL A   1      46.557  30.106  26.521  1.00  0.00     0.031 C 
ATOM     52  C   UNL A   1      42.392  32.614  30.161  1.00  0.00     0.029 A 
ATOM     53  C   UNL A   1      43.063  31.722  29.338  1.00  0.00     0.049 A 
ATOM     54  H   UNL A   1      42.494  29.784  28.734  1.00  0.00     0.167 HD
ATOM     55  C   UNL A   1      44.940  30.967  27.902  1.00  0.00     0.074 A 
ATOM     56  C   UNL A   1      46.219  31.162  27.248  1.00  0.00     0.031 C 
ATOM     57  C   UNL A   1      44.328  31.897  28.673  1.00  0.00     0.031 A 
BRANCH  44  58
ATOM     58  C   UNL A   1      38.878  30.113  30.974  1.00  0.00    -0.014 A 
ATOM     59  C   UNL A   1      38.826  29.837  32.349  1.00  0.00     0.009 A 
ATOM     60  C   UNL A   1      37.782  30.747  30.367  1.00  0.00     0.009 A 
ATOM     61  C   UNL A   1      37.687  30.159  33.091  1.00  0.00     0.001 A 
ATOM     62  C   UNL A   1      36.655  31.090  31.115  1.00  0.00     0.001 A 
ATOM     63  C   UNL A   1      36.605  30.789  32.475  1.00  0.00     0.000 A 
ENDBRANCH  44  58
BRANCH  45  64
ATOM     64  C   UNL A   1      46.645  27.457  25.270  1.00  0.00    -0.014 A 
ATOM     65  C   UNL A   1      46.726  27.912  23.946  1.00  0.00     0.009 A 
ATOM     66  C   UNL A   1      47.673  26.643  25.774  1.00  0.00     0.009 A 
ATOM     67  C   UNL A   1      47.810  27.550  23.141  1.00  0.00     0.001 A 
ATOM     68  C   UNL A   1      48.768  26.308  24.976  1.00  0.00     0.001 A 
ATOM     69  C   UNL A   1      48.832  26.756  23.658  1.00  0.00     0.000 A 
ENDBRANCH  45  64
BRANCH  57  70
ATOM     70  C   UNL A   1      45.046  33.200  28.868  1.00  0.00    -0.014 A 
ATOM     71  C   UNL A   1      45.975  33.367  29.906  1.00  0.00     0.009 A 
ATOM     72  C   UNL A   1      44.821  34.259  27.975  1.00  0.00     0.009 A 
ATOM     73  C   UNL A   1      46.647  34.580  30.061  1.00  0.00     0.001 A 
ATOM     74  C   UNL A   1      45.511  35.463  28.118  1.00  0.00     0.001 A 
ATOM     75  C   UNL A   1      46.418  35.625  29.165  1.00  0.00     0.000 A 
ENDBRANCH  57  70
ENDBRANCH  31  32
ENDBRANCH  24  26
ENDBRANCH  23  24
ENDBRANCH  22  23
ENDBRANCH   1  22
TORSDOF 15
ENDMDL
MODEL 2
REMARK VINA RESULT:     -10.1      3.257      7.422
REMARK SMILES N#CCOc1ccccc1[C@H]1[NH2+][C@@H](C(=O)OCCOC(=O)c2ccc(-c3c4nc(c(-c5ccccc5)c5ccc([nH]5)c(-c5ccccc5)c5nc(c(-c6ccccc6)c6ccc3[nH]6)C=C5)C=C4)cc2)CS1
REMARK SMILES IDX 17 1 16 2 14 3 15 4 13 5 11 6 12 7 71 8 70 11 10 12 5 13
REMARK SMILES IDX 6 14 7 15 9 16 8 17 4 18 3 19 2 20 1 21 18 22 19 23 20 24
REMARK SMILES IDX 21 25 22 26 23 27 69 28 24 29 68 30 25 31 26 32 27 33 62 34
REMARK SMILES IDX 28 35 67 36 61 37 63 38 29 39 66 40 60 41 59 42 30 44 52 45
REMARK SMILES IDX 37 46 51 47 38 48 41 49 50 50 64 51 39 52 40 53 49 55 65 56
REMARK SMILES IDX 42 57 31 58 32 59 36 60 33 61 35 62 34 63 53 64 54 65 58 66
REMARK SMILES IDX 55 67 57 68 56 69 43 70 44 71 48 72 45 73 47 74 46 75
REMARK H PARENT 12 9 12 10 63 43 41 54
REMARK Flexibility Score: inf
ROOT
ATOM      1  C   UNL A   1      38.670  21.494  25.741  1.00  0.00     0.274 C 
ENDROOT
BRANCH   1   2
ATOM      2  O   UNL A   1      37.228  21.468  25.737  1.00  0.00    -0.458 OA
BRANCH   2   3
ATOM      3  C   UNL A   1      36.534  22.605  26.087  1.00  0.00     0.365 C 
ATOM      4  O   UNL A   1      37.010  23.732  26.092  1.00  0.00    -0.245 OA
BRANCH   3   5
ATOM      5  C   UNL A   1      35.112  22.221  26.610  1.00  0.00     0.304 C 
ATOM      6  C   UNL A   1      33.311  20.909  25.618  1.00  0.00     0.278 C 
ATOM      7  N   UNL A   1      34.720  20.915  26.007  1.00  0.00    -0.319 N 
ATOM      8  S   UNL A   1      32.511  22.495  25.804  1.00  0.00    -0.087 SA
ATOM      9  H   UNL A   1      35.293  20.745  25.181  1.00  0.00     0.348 HD
ATOM     10  H   UNL A   1      34.863  20.183  26.703  1.00  0.00     0.348 HD
ATOM     11  C   UNL A   1      34.048  23.317  26.434  1.00  0.00     0.153 C 
BRANCH   6  12
ATOM     12  C   UNL A   1      32.996  19.768  24.589  1.00  0.00     0.062 A 
ATOM     13  C   UNL A   1      32.916  18.316  24.558  1.00  0.00     0.131 A 
ATOM     14  C   UNL A   1      32.492  17.710  23.343  1.00  0.00     0.047 A 
ATOM     15  C   UNL A   1      32.093  18.427  22.213  1.00  0.00     0.004 A 
ATOM     16  C   UNL A   1      32.542  20.436  23.389  1.00  0.00     0.015 A 
ATOM     17  C   UNL A   1      32.109  19.799  22.237  1.00  0.00     0.001 A 
BRANCH  13  18
ATOM     18  O   UNL A   1      33.318  17.241  25.377  1.00  0.00    -0.478 OA
BRANCH  18  19
ATOM     19  C   UNL A   1      33.512  15.842  24.904  1.00  0.00     0.349 C 
BRANCH  19  20
ATOM     20  C   UNL A   1      34.963  15.754  25.349  1.00  0.00     0.104 C 
ATOM     21  N   UNL A   1      36.166  15.682  25.719  1.00  0.00    -0.195 NA
ENDBRANCH  19  20
ENDBRANCH  18  19
ENDBRANCH  13  18
ENDBRANCH   6  12
ENDBRANCH   3   5
ENDBRANCH   2   3
ENDBRANCH   1   2
BRANCH   1  22
ATOM     22  C   UNL A   1      39.229  20.165  25.241  1.00  0.00     0.275 C 
BRANCH  22  23
ATOM     23  O   UNL A   1      40.060  19.625  26.278  1.00  0.00    -0.458 OA
BRANCH  23  24
ATOM     24  C   UNL A   1      41.385  19.695  26.088  1.00  0.00     0.338 C 
ATOM     25  O   UNL A   1      42.127  18.895  25.519  1.00  0.00    -0.246 OA
BRANCH  24  26
ATOM     26  C   UNL A   1      41.835  20.990  26.585  1.00  0.00     0.060 A 
ATOM     27  C   UNL A   1      41.673  21.264  27.944  1.00  0.00     0.016 A 
ATOM     28  C   UNL A   1      42.345  21.948  25.709  1.00  0.00     0.016 A 
ATOM     29  C   UNL A   1      41.966  22.532  28.428  1.00  0.00     0.010 A 
ATOM     30  C   UNL A   1      42.699  23.201  26.211  1.00  0.00     0.010 A 
ATOM     31  C   UNL A   1      42.483  23.508  27.567  1.00  0.00    -0.014 A 
BRANCH  31  32
ATOM     32  C   UNL A   1      42.759  24.871  28.079  1.00  0.00     0.031 A 
ATOM     33  C   UNL A   1      44.160  25.256  28.457  1.00  0.00     0.074 A 
ATOM     34  C   UNL A   1      41.756  25.761  28.188  1.00  0.00     0.049 A 
ATOM     35  N   UNL A   1      44.591  26.353  29.023  1.00  0.00    -0.248 NA
ATOM     36  C   UNL A   1      45.215  24.272  28.168  1.00  0.00     0.031 C 
ATOM     37  C   UNL A   1      40.363  25.519  27.805  1.00  0.00     0.029 A 
ATOM     38  N   UNL A   1      41.757  27.053  28.647  1.00  0.00    -0.354 N 
ATOM     39  C   UNL A   1      45.958  26.179  29.190  1.00  0.00     0.074 A 
ATOM     40  C   UNL A   1      46.285  24.866  28.678  1.00  0.00     0.031 C 
ATOM     41  C   UNL A   1      39.650  26.634  28.023  1.00  0.00     0.029 A 
ATOM     42  C   UNL A   1      40.518  27.644  28.620  1.00  0.00     0.049 A 
ATOM     43  H   UNL A   1      42.568  27.512  28.965  1.00  0.00     0.167 HD
ATOM     44  C   UNL A   1      46.858  27.036  29.726  1.00  0.00     0.031 A 
ATOM     45  C   UNL A   1      40.120  28.853  29.055  1.00  0.00     0.031 A 
ATOM     46  C   UNL A   1      46.530  28.347  30.218  1.00  0.00     0.049 A 
ATOM     47  C   UNL A   1      41.129  29.768  29.689  1.00  0.00     0.074 A 
ATOM     48  C   UNL A   1      47.369  29.297  30.771  1.00  0.00     0.029 A 
ATOM     49  N   UNL A   1      45.256  28.895  30.205  1.00  0.00    -0.354 N 
ATOM     50  N   UNL A   1      42.414  29.580  29.869  1.00  0.00    -0.248 NA
ATOM     51  C   UNL A   1      40.631  31.056  30.190  1.00  0.00     0.031 C 
ATOM     52  C   UNL A   1      46.595  30.405  31.135  1.00  0.00     0.029 A 
ATOM     53  C   UNL A   1      45.282  30.162  30.762  1.00  0.00     0.049 A 
ATOM     54  H   UNL A   1      44.452  28.449  29.853  1.00  0.00     0.167 HD
ATOM     55  C   UNL A   1      42.881  30.729  30.492  1.00  0.00     0.074 A 
ATOM     56  C   UNL A   1      41.745  31.616  30.642  1.00  0.00     0.031 C 
ATOM     57  C   UNL A   1      44.137  31.023  30.907  1.00  0.00     0.031 A 
BRANCH  44  58
ATOM     58  C   UNL A   1      48.278  26.560  29.850  1.00  0.00    -0.014 A 
ATOM     59  C   UNL A   1      48.716  25.839  30.971  1.00  0.00     0.009 A 
ATOM     60  C   UNL A   1      49.185  26.818  28.811  1.00  0.00     0.009 A 
ATOM     61  C   UNL A   1      50.044  25.415  31.063  1.00  0.00     0.001 A 
ATOM     62  C   UNL A   1      50.505  26.371  28.893  1.00  0.00     0.001 A 
ATOM     63  C   UNL A   1      50.936  25.677  30.022  1.00  0.00     0.000 A 
ENDBRANCH  44  58
BRANCH  45  64
ATOM     64  C   UNL A   1      38.692  29.246  28.941  1.00  0.00    -0.014 A 
ATOM     65  C   UNL A   1      38.194  29.798  27.752  1.00  0.00     0.009 A 
ATOM     66  C   UNL A   1      37.815  29.053  30.022  1.00  0.00     0.009 A 
ATOM     67  C   UNL A   1      36.848  30.159  27.651  1.00  0.00     0.001 A 
ATOM     68  C   UNL A   1      36.465  29.389  29.907  1.00  0.00     0.001 A 
ATOM     69  C   UNL A   1      35.984  29.948  28.725  1.00  0.00     0.000 A 
ENDBRANCH  45  64
BRANCH  57  70
ATOM     70  C   UNL A   1      44.348  32.365  31.542  1.00  0.00    -0.014 A 
ATOM     71  C   UNL A   1      44.238  32.535  32.930  1.00  0.00     0.009 A 
ATOM     72  C   UNL A   1      44.706  33.464  30.745  1.00  0.00     0.009 A 
ATOM     73  C   UNL A   1      44.456  33.788  33.506  1.00  0.00     0.001 A 
ATOM     74  C   UNL A   1      44.946  34.710  31.326  1.00  0.00     0.001 A 
ATOM     75  C   UNL A   1      44.814  34.872  32.704  1.00  0.00     0.000 A 
ENDBRANCH  57  70
ENDBRANCH  31  32
ENDBRANCH  24  26
ENDBRANCH  23  24
ENDBRANCH  22  23
ENDBRANCH   1  22
TORSDOF 15
ENDMDL
MODEL 3
REMARK VINA RESULT:     -10.0      4.504      9.488
REMARK SMILES N#CCOc1ccccc1[C@H]1[NH2+][C@@H](C(=O)OCCOC(=O)c2ccc(-c3c4nc(c(-c5ccccc5)c5ccc([nH]5)c(-c5ccccc5)c5nc(c(-c6ccccc6)c6ccc3[nH]6)C=C5)C=C4)cc2)CS1
REMARK SMILES IDX 17 1 16 2 14 3 15 4 13 5 11 6 12 7 71 8 70 11 10 12 5 13
REMARK SMILES IDX 6 14 7 15 9 16 8 17 4 18 3 19 2 20 1 21 18 22 19 23 20 24
REMARK SMILES IDX 21 25 22 26 23 27 69 28 24 29 68 30 25 31 26 32 27 33 62 34
REMARK SMILES IDX 28 35 67 36 61 37 63 38 29 39 66 40 60 41 59 42 30 44 52 45
REMARK SMILES IDX 37 46 51 47 38 48 41 49 50 50 64 51 39 52 40 53 49 55 65 56
REMARK SMILES IDX 42 57 31 58 32 59 36 60 33 61 35 62 34 63 53 64 54 65 58 66
REMARK SMILES IDX 55 67 57 68 56 69 43 70 44 71 48 72 45 73 47 74 46 75
REMARK H PARENT 12 9 12 10 63 43 41 54
REMARK Flexibility Score: inf
ROOT
ATOM      1  C   UNL A   1      41.989  21.255  25.915  1.00  0.00     0.274 C 
ENDROOT
BRANCH   1   2
ATOM      2  O   UNL A   1      43.029  20.265  26.039  1.00  0.00    -0.458 OA
BRANCH   2   3
ATOM      3  C   UNL A   1      43.888  20.056  24.983  1.00  0.00     0.365 C 
ATOM      4  O   UNL A   1      43.921  19.034  24.310  1.00  0.00    -0.245 OA
BRANCH   3   5
ATOM      5  C   UNL A   1      44.895  21.245  24.872  1.00  0.00     0.304 C 
ATOM      6  C   UNL A   1      45.332  23.152  26.330  1.00  0.00     0.278 C 
ATOM      7  N   UNL A   1      45.255  21.694  26.248  1.00  0.00    -0.319 N 
ATOM      8  S   UNL A   1      44.809  23.981  24.837  1.00  0.00    -0.087 SA
ATOM      9  H   UNL A   1      44.547  21.362  26.902  1.00  0.00     0.348 HD
ATOM     10  H   UNL A   1      46.172  21.311  26.482  1.00  0.00     0.348 HD
ATOM     11  C   UNL A   1      44.432  22.393  23.959  1.00  0.00     0.153 C 
BRANCH   6  12
ATOM     12  C   UNL A   1      45.245  23.656  27.812  1.00  0.00     0.062 A 
ATOM     13  C   UNL A   1      45.947  24.572  28.699  1.00  0.00     0.131 A 
ATOM     14  C   UNL A   1      45.412  24.760  30.002  1.00  0.00     0.047 A 
ATOM     15  C   UNL A   1      44.229  24.169  30.452  1.00  0.00     0.004 A 
ATOM     16  C   UNL A   1      44.017  23.106  28.343  1.00  0.00     0.015 A 
ATOM     17  C   UNL A   1      43.521  23.342  29.615  1.00  0.00     0.001 A 
BRANCH  13  18
ATOM     18  O   UNL A   1      47.180  25.256  28.711  1.00  0.00    -0.478 OA
BRANCH  18  19
ATOM     19  C   UNL A   1      47.915  25.697  27.493  1.00  0.00     0.349 C 
BRANCH  19  20
ATOM     20  C   UNL A   1      49.211  24.994  27.862  1.00  0.00     0.104 C 
ATOM     21  N   UNL A   1      50.286  24.410  28.168  1.00  0.00    -0.195 NA
ENDBRANCH  19  20
ENDBRANCH  18  19
ENDBRANCH  13  18
ENDBRANCH   6  12
ENDBRANCH   3   5
ENDBRANCH   2   3
ENDBRANCH   1   2
BRANCH   1  22
ATOM     22  C   UNL A   1      40.699  20.758  26.562  1.00  0.00     0.275 C 
BRANCH  22  23
ATOM     23  O   UNL A   1      40.102  21.866  27.250  1.00  0.00    -0.458 OA
BRANCH  23  24
ATOM     24  C   UNL A   1      39.351  22.699  26.516  1.00  0.00     0.338 C 
ATOM     25  O   UNL A   1      38.539  22.430  25.632  1.00  0.00    -0.246 OA
BRANCH  24  26
ATOM     26  C   UNL A   1      39.564  24.049  27.024  1.00  0.00     0.060 A 
ATOM     27  C   UNL A   1      40.069  25.009  26.145  1.00  0.00     0.016 A 
ATOM     28  C   UNL A   1      39.335  24.347  28.366  1.00  0.00     0.016 A 
ATOM     29  C   UNL A   1      40.409  26.266  26.623  1.00  0.00     0.010 A 
ATOM     30  C   UNL A   1      39.618  25.632  28.830  1.00  0.00     0.010 A 
ATOM     31  C   UNL A   1      40.184  26.589  27.968  1.00  0.00    -0.014 A 
BRANCH  31  32
ATOM     32  C   UNL A   1      40.584  27.919  28.483  1.00  0.00     0.031 A 
ATOM     33  C   UNL A   1      42.023  28.188  28.814  1.00  0.00     0.074 A 
ATOM     34  C   UNL A   1      39.659  28.884  28.635  1.00  0.00     0.049 A 
ATOM     35  N   UNL A   1      42.559  29.241  29.375  1.00  0.00    -0.248 NA
ATOM     36  C   UNL A   1      42.987  27.127  28.479  1.00  0.00     0.031 C 
ATOM     37  C   UNL A   1      38.239  28.757  28.300  1.00  0.00     0.029 A 
ATOM     38  N   UNL A   1      39.778  30.166  29.105  1.00  0.00    -0.354 N 
ATOM     39  C   UNL A   1      43.913  28.957  29.492  1.00  0.00     0.074 A 
ATOM     40  C   UNL A   1      44.117  27.629  28.956  1.00  0.00     0.031 C 
ATOM     41  C   UNL A   1      37.624  29.923  28.554  1.00  0.00     0.029 A 
ATOM     42  C   UNL A   1      38.589  30.854  29.128  1.00  0.00     0.049 A 
ATOM     43  H   UNL A   1      40.633  30.556  29.400  1.00  0.00     0.167 HD
ATOM     44  C   UNL A   1      44.896  29.735  30.004  1.00  0.00     0.031 A 
ATOM     45  C   UNL A   1      38.304  32.085  29.589  1.00  0.00     0.031 A 
ATOM     46  C   UNL A   1      44.690  31.062  30.519  1.00  0.00     0.049 A 
ATOM     47  C   UNL A   1      39.403  32.910  30.195  1.00  0.00     0.074 A 
ATOM     48  C   UNL A   1      45.621  31.936  31.051  1.00  0.00     0.029 A 
ATOM     49  N   UNL A   1      43.464  31.708  30.556  1.00  0.00    -0.354 N 
ATOM     50  N   UNL A   1      40.675  32.619  30.327  1.00  0.00    -0.248 NA
ATOM     51  C   UNL A   1      39.026  34.227  30.725  1.00  0.00     0.031 C 
ATOM     52  C   UNL A   1      44.949  33.096  31.452  1.00  0.00     0.029 A 
ATOM     53  C   UNL A   1      43.609  32.962  31.124  1.00  0.00     0.049 A 
ATOM     54  H   UNL A   1      42.615  31.331  30.229  1.00  0.00     0.167 HD
ATOM     55  C   UNL A   1      41.253  33.720  30.944  1.00  0.00     0.074 A 
ATOM     56  C   UNL A   1      40.196  34.691  31.142  1.00  0.00     0.031 C 
ATOM     57  C   UNL A   1      42.542  33.908  31.317  1.00  0.00     0.031 A 
BRANCH  44  58
ATOM     58  C   UNL A   1      46.277  29.146  30.073  1.00  0.00    -0.014 A 
ATOM     59  C   UNL A   1      47.226  29.380  29.067  1.00  0.00     0.009 A 
ATOM     60  C   UNL A   1      46.639  28.363  31.181  1.00  0.00     0.009 A 
ATOM     61  C   UNL A   1      48.501  28.814  29.155  1.00  0.00     0.001 A 
ATOM     62  C   UNL A   1      47.920  27.820  31.278  1.00  0.00     0.001 A 
ATOM     63  C   UNL A   1      48.848  28.038  30.261  1.00  0.00     0.000 A 
ENDBRANCH  44  58
BRANCH  45  64
ATOM     64  C   UNL A   1      36.909  32.590  29.529  1.00  0.00    -0.014 A 
ATOM     65  C   UNL A   1      36.456  33.315  28.417  1.00  0.00     0.009 A 
ATOM     66  C   UNL A   1      36.016  32.333  30.582  1.00  0.00     0.009 A 
ATOM     67  C   UNL A   1      35.140  33.782  28.366  1.00  0.00     0.001 A 
ATOM     68  C   UNL A   1      34.694  32.776  30.515  1.00  0.00     0.001 A 
ATOM     69  C   UNL A   1      34.259  33.506  29.411  1.00  0.00     0.000 A 
ENDBRANCH  45  64
BRANCH  57  70
ATOM     70  C   UNL A   1      42.881  35.223  31.957  1.00  0.00    -0.014 A 
ATOM     71  C   UNL A   1      42.603  35.462  33.311  1.00  0.00     0.009 A 
ATOM     72  C   UNL A   1      43.525  36.217  31.205  1.00  0.00     0.009 A 
ATOM     73  C   UNL A   1      42.942  36.684  33.894  1.00  0.00     0.001 A 
ATOM     74  C   UNL A   1      43.883  37.429  31.796  1.00  0.00     0.001 A 
ATOM     75  C   UNL A   1      43.586  37.664  33.138  1.00  0.00     0.000 A 
ENDBRANCH  57  70
ENDBRANCH  31  32
ENDBRANCH  24  26
ENDBRANCH  23  24
ENDBRANCH  22  23
ENDBRANCH   1  22
TORSDOF 15
ENDMDL
