MODEL 1
REMARK VINA RESULT:     -11.0      0.000      0.000
REMARK SMILES C[C@@H](NC(=O)c1cc(C(=O)OCCOC(=O)c2ccc(-c3c4nc(c(-c5ccccc5)c5ccc([nH]5)c(-c5ccccc5)c5nc(c(-c6ccccc6)c6ccc3[nH]6)C=C5)C=C4)cc2)n(C)n1)c1ccccc1
REMARK SMILES IDX 12 1 11 2 9 3 10 4 8 5 6 6 7 7 67 8 65 9 66 10 4 11 3 12
REMARK SMILES IDX 5 14 2 15 1 16 68 17 69 18 73 19 70 20 72 21 71 22 13 23
REMARK SMILES IDX 14 24 15 25 16 26 17 27 18 28 64 29 19 30 63 31 20 32 21 33
REMARK SMILES IDX 22 34 57 35 23 36 62 37 56 38 58 39 24 40 61 41 55 42 54 43
REMARK SMILES IDX 25 45 47 46 32 47 46 48 33 49 36 50 45 51 59 52 34 53 35 54
REMARK SMILES IDX 44 56 60 57 37 58 26 59 27 60 31 61 28 62 30 63 29 64 48 65
REMARK SMILES IDX 49 66 53 67 50 68 52 69 51 70 38 71 39 72 43 73 40 74 42 75
REMARK SMILES IDX 41 76
REMARK H PARENT 3 13 58 44 36 55
REMARK Flexibility Score: inf
ROOT
ATOM      1  C   UNL A   1      31.093  29.503  24.529  1.00  0.00     0.275 C 
ENDROOT
BRANCH   1   2
ATOM      2  O   UNL A   1      30.634  28.216  24.066  1.00  0.00    -0.457 OA
BRANCH   2   3
ATOM      3  C   UNL A   1      30.717  27.992  22.724  1.00  0.00     0.356 C 
ATOM      4  O   UNL A   1      30.049  28.576  21.880  1.00  0.00    -0.244 OA
BRANCH   3   5
ATOM      5  C   UNL A   1      31.772  27.061  22.415  1.00  0.00     0.146 A 
ATOM      6  C   UNL A   1      32.923  25.206  21.901  1.00  0.00     0.151 A 
ATOM      7  C   UNL A   1      31.642  25.688  22.253  1.00  0.00     0.071 A 
ATOM      8  N   UNL A   1      33.829  26.194  21.976  1.00  0.00    -0.167 NA
ATOM      9  N   UNL A   1      33.109  27.305  22.233  1.00  0.00    -0.260 N 
ATOM     10  C   UNL A   1      33.855  28.534  22.372  1.00  0.00     0.174 C 
BRANCH   6  11
ATOM     11  C   UNL A   1      33.320  23.847  21.530  1.00  0.00     0.272 C 
ATOM     12  N   UNL A   1      33.614  22.929  22.515  1.00  0.00    -0.344 N 
ATOM     13  H   UNL A   1      33.589  21.991  22.217  1.00  0.00     0.164 HD
ATOM     14  O   UNL A   1      33.367  23.473  20.357  1.00  0.00    -0.267 OA
BRANCH  12  15
ATOM     15  C   UNL A   1      33.953  23.107  23.926  1.00  0.00     0.109 C 
ATOM     16  C   UNL A   1      34.797  21.924  24.410  1.00  0.00     0.036 C 
BRANCH  15  17
ATOM     17  C   UNL A   1      32.780  23.309  24.863  1.00  0.00    -0.026 A 
ATOM     18  C   UNL A   1      32.667  24.430  25.695  1.00  0.00     0.006 A 
ATOM     19  C   UNL A   1      31.774  22.334  24.922  1.00  0.00     0.006 A 
ATOM     20  C   UNL A   1      31.632  24.518  26.629  1.00  0.00     0.000 A 
ATOM     21  C   UNL A   1      30.744  22.416  25.858  1.00  0.00     0.000 A 
ATOM     22  C   UNL A   1      30.685  23.500  26.726  1.00  0.00     0.000 A 
ENDBRANCH  15  17
ENDBRANCH  12  15
ENDBRANCH   6  11
ENDBRANCH   3   5
ENDBRANCH   2   3
ENDBRANCH   1   2
BRANCH   1  23
ATOM     23  C   UNL A   1      31.791  29.367  25.883  1.00  0.00     0.275 C 
BRANCH  23  24
ATOM     24  O   UNL A   1      32.994  30.146  25.855  1.00  0.00    -0.458 OA
BRANCH  24  25
ATOM     25  C   UNL A   1      33.098  31.111  26.797  1.00  0.00     0.338 C 
ATOM     26  O   UNL A   1      32.256  31.951  27.061  1.00  0.00    -0.246 OA
BRANCH  25  27
ATOM     27  C   UNL A   1      34.371  30.933  27.547  1.00  0.00     0.060 A 
ATOM     28  C   UNL A   1      35.223  32.013  27.801  1.00  0.00     0.016 A 
ATOM     29  C   UNL A   1      34.766  29.650  27.935  1.00  0.00     0.016 A 
ATOM     30  C   UNL A   1      36.475  31.810  28.385  1.00  0.00     0.010 A 
ATOM     31  C   UNL A   1      35.988  29.460  28.594  1.00  0.00     0.010 A 
ATOM     32  C   UNL A   1      36.861  30.538  28.823  1.00  0.00    -0.014 A 
BRANCH  32  33
ATOM     33  C   UNL A   1      38.142  30.335  29.558  1.00  0.00     0.031 A 
ATOM     34  C   UNL A   1      39.252  29.508  28.966  1.00  0.00     0.074 A 
ATOM     35  C   UNL A   1      38.297  30.854  30.794  1.00  0.00     0.049 A 
ATOM     36  N   UNL A   1      40.310  29.006  29.552  1.00  0.00    -0.248 NA
ATOM     37  C   UNL A   1      39.155  29.193  27.531  1.00  0.00     0.031 C 
ATOM     38  C   UNL A   1      37.333  31.713  31.488  1.00  0.00     0.029 A 
ATOM     39  N   UNL A   1      39.324  30.719  31.697  1.00  0.00    -0.354 N 
ATOM     40  C   UNL A   1      40.969  28.263  28.580  1.00  0.00     0.074 A 
ATOM     41  C   UNL A   1      40.201  28.394  27.359  1.00  0.00     0.031 C 
ATOM     42  C   UNL A   1      37.821  32.043  32.692  1.00  0.00     0.029 A 
ATOM     43  C   UNL A   1      39.078  31.337  32.901  1.00  0.00     0.049 A 
ATOM     44  H   UNL A   1      40.154  30.226  31.502  1.00  0.00     0.167 HD
ATOM     45  C   UNL A   1      42.100  27.527  28.703  1.00  0.00     0.031 A 
ATOM     46  C   UNL A   1      39.743  31.294  34.070  1.00  0.00     0.031 A 
ATOM     47  C   UNL A   1      42.886  27.429  29.906  1.00  0.00     0.049 A 
ATOM     48  C   UNL A   1      40.968  30.438  34.190  1.00  0.00     0.074 A 
ATOM     49  C   UNL A   1      44.061  26.726  30.112  1.00  0.00     0.029 A 
ATOM     50  N   UNL A   1      42.584  28.060  31.102  1.00  0.00    -0.354 N 
ATOM     51  N   UNL A   1      41.548  29.696  33.280  1.00  0.00    -0.248 NA
ATOM     52  C   UNL A   1      41.620  30.401  35.507  1.00  0.00     0.031 C 
ATOM     53  C   UNL A   1      44.450  26.900  31.445  1.00  0.00     0.029 A 
ATOM     54  C   UNL A   1      43.543  27.752  32.053  1.00  0.00     0.049 A 
ATOM     55  H   UNL A   1      41.805  28.643  31.253  1.00  0.00     0.167 HD
ATOM     56  C   UNL A   1      42.639  29.114  33.910  1.00  0.00     0.074 A 
ATOM     57  C   UNL A   1      42.653  29.605  35.271  1.00  0.00     0.031 C 
ATOM     58  C   UNL A   1      43.546  28.245  33.404  1.00  0.00     0.031 A 
BRANCH  45  59
ATOM     59  C   UNL A   1      42.550  26.720  27.516  1.00  0.00    -0.014 A 
ATOM     60  C   UNL A   1      42.081  25.417  27.290  1.00  0.00     0.009 A 
ATOM     61  C   UNL A   1      43.387  27.317  26.558  1.00  0.00     0.009 A 
ATOM     62  C   UNL A   1      42.458  24.723  26.137  1.00  0.00     0.001 A 
ATOM     63  C   UNL A   1      43.741  26.630  25.396  1.00  0.00     0.001 A 
ATOM     64  C   UNL A   1      43.280  25.332  25.188  1.00  0.00     0.000 A 
ENDBRANCH  45  59
BRANCH  46  65
ATOM     65  C   UNL A   1      39.212  32.025  35.250  1.00  0.00    -0.014 A 
ATOM     66  C   UNL A   1      39.561  33.364  35.477  1.00  0.00     0.009 A 
ATOM     67  C   UNL A   1      38.349  31.384  36.154  1.00  0.00     0.009 A 
ATOM     68  C   UNL A   1      39.071  34.040  36.597  1.00  0.00     0.001 A 
ATOM     69  C   UNL A   1      37.834  32.072  37.253  1.00  0.00     0.001 A 
ATOM     70  C   UNL A   1      38.203  33.396  37.479  1.00  0.00     0.000 A 
ENDBRANCH  46  65
BRANCH  58  71
ATOM     71  C   UNL A   1      44.651  27.805  34.320  1.00  0.00    -0.014 A 
ATOM     72  C   UNL A   1      44.529  26.646  35.103  1.00  0.00     0.009 A 
ATOM     73  C   UNL A   1      45.835  28.554  34.388  1.00  0.00     0.009 A 
ATOM     74  C   UNL A   1      45.561  26.268  35.964  1.00  0.00     0.001 A 
ATOM     75  C   UNL A   1      46.874  28.159  35.232  1.00  0.00     0.001 A 
ATOM     76  C   UNL A   1      46.732  27.022  36.025  1.00  0.00     0.000 A 
ENDBRANCH  58  71
ENDBRANCH  32  33
ENDBRANCH  25  27
ENDBRANCH  24  25
ENDBRANCH  23  24
ENDBRANCH   1  23
TORSDOF 14
ENDMDL
MODEL 2
REMARK VINA RESULT:     -11.0      3.739      6.962
REMARK SMILES C[C@@H](NC(=O)c1cc(C(=O)OCCOC(=O)c2ccc(-c3c4nc(c(-c5ccccc5)c5ccc([nH]5)c(-c5ccccc5)c5nc(c(-c6ccccc6)c6ccc3[nH]6)C=C5)C=C4)cc2)n(C)n1)c1ccccc1
REMARK SMILES IDX 12 1 11 2 9 3 10 4 8 5 6 6 7 7 67 8 65 9 66 10 4 11 3 12
REMARK SMILES IDX 5 14 2 15 1 16 68 17 69 18 73 19 70 20 72 21 71 22 13 23
REMARK SMILES IDX 14 24 15 25 16 26 17 27 18 28 64 29 19 30 63 31 20 32 21 33
REMARK SMILES IDX 22 34 57 35 23 36 62 37 56 38 58 39 24 40 61 41 55 42 54 43
REMARK SMILES IDX 25 45 47 46 32 47 46 48 33 49 36 50 45 51 59 52 34 53 35 54
REMARK SMILES IDX 44 56 60 57 37 58 26 59 27 60 31 61 28 62 30 63 29 64 48 65
REMARK SMILES IDX 49 66 53 67 50 68 52 69 51 70 38 71 39 72 43 73 40 74 42 75
REMARK SMILES IDX 41 76
REMARK H PARENT 3 13 58 44 36 55
REMARK Flexibility Score: inf
ROOT
ATOM      1  C   UNL A   1      32.306  30.360  25.779  1.00  0.00     0.275 C 
ENDROOT
BRANCH   1   2
ATOM      2  O   UNL A   1      32.556  29.229  24.918  1.00  0.00    -0.457 OA
BRANCH   2   3
ATOM      3  C   UNL A   1      31.458  28.575  24.445  1.00  0.00     0.356 C 
ATOM      4  O   UNL A   1      30.517  29.118  23.879  1.00  0.00    -0.244 OA
BRANCH   3   5
ATOM      5  C   UNL A   1      31.597  27.149  24.592  1.00  0.00     0.146 A 
ATOM      6  C   UNL A   1      31.809  25.084  25.442  1.00  0.00     0.151 A 
ATOM      7  C   UNL A   1      31.794  26.456  25.780  1.00  0.00     0.071 A 
ATOM      8  N   UNL A   1      31.766  24.933  24.109  1.00  0.00    -0.167 NA
ATOM      9  N   UNL A   1      31.585  26.177  23.625  1.00  0.00    -0.260 N 
ATOM     10  C   UNL A   1      31.509  26.302  22.188  1.00  0.00     0.174 C 
BRANCH   6  11
ATOM     11  C   UNL A   1      31.894  23.923  26.330  1.00  0.00     0.272 C 
ATOM     12  N   UNL A   1      32.918  23.015  26.168  1.00  0.00    -0.344 N 
ATOM     13  H   UNL A   1      33.080  22.440  26.951  1.00  0.00     0.164 HD
ATOM     14  O   UNL A   1      31.099  23.741  27.252  1.00  0.00    -0.267 OA
BRANCH  12  15
ATOM     15  C   UNL A   1      33.808  22.759  25.036  1.00  0.00     0.109 C 
ATOM     16  C   UNL A   1      33.368  21.483  24.310  1.00  0.00     0.036 C 
BRANCH  15  17
ATOM     17  C   UNL A   1      35.284  22.668  25.368  1.00  0.00    -0.026 A 
ATOM     18  C   UNL A   1      36.015  23.765  25.840  1.00  0.00     0.006 A 
ATOM     19  C   UNL A   1      35.955  21.451  25.182  1.00  0.00     0.006 A 
ATOM     20  C   UNL A   1      37.398  23.670  26.019  1.00  0.00     0.000 A 
ATOM     21  C   UNL A   1      37.335  21.356  25.354  1.00  0.00     0.000 A 
ATOM     22  C   UNL A   1      38.060  22.473  25.754  1.00  0.00     0.000 A 
ENDBRANCH  15  17
ENDBRANCH  12  15
ENDBRANCH   6  11
ENDBRANCH   3   5
ENDBRANCH   2   3
ENDBRANCH   1   2
BRANCH   1  23
ATOM     23  C   UNL A   1      32.505  29.971  27.245  1.00  0.00     0.275 C 
BRANCH  23  24
ATOM     24  O   UNL A   1      33.884  29.634  27.442  1.00  0.00    -0.458 OA
BRANCH  24  25
ATOM     25  C   UNL A   1      34.625  30.538  28.121  1.00  0.00     0.338 C 
ATOM     26  O   UNL A   1      34.225  31.593  28.583  1.00  0.00    -0.246 OA
BRANCH  25  27
ATOM     27  C   UNL A   1      36.000  30.004  28.316  1.00  0.00     0.060 A 
ATOM     28  C   UNL A   1      36.444  29.577  29.572  1.00  0.00     0.016 A 
ATOM     29  C   UNL A   1      36.896  30.006  27.244  1.00  0.00     0.016 A 
ATOM     30  C   UNL A   1      37.775  29.207  29.769  1.00  0.00     0.010 A 
ATOM     31  C   UNL A   1      38.211  29.556  27.426  1.00  0.00     0.010 A 
ATOM     32  C   UNL A   1      38.669  29.156  28.693  1.00  0.00    -0.014 A 
BRANCH  32  33
ATOM     33  C   UNL A   1      40.058  28.644  28.872  1.00  0.00     0.031 A 
ATOM     34  C   UNL A   1      41.179  29.569  29.265  1.00  0.00     0.074 A 
ATOM     35  C   UNL A   1      40.332  27.345  28.629  1.00  0.00     0.049 A 
ATOM     36  N   UNL A   1      42.472  29.368  29.210  1.00  0.00    -0.248 NA
ATOM     37  C   UNL A   1      40.800  30.896  29.777  1.00  0.00     0.031 C 
ATOM     38  C   UNL A   1      39.349  26.314  28.282  1.00  0.00     0.029 A 
ATOM     39  N   UNL A   1      41.529  26.671  28.622  1.00  0.00    -0.354 N 
ATOM     40  C   UNL A   1      43.061  30.560  29.613  1.00  0.00     0.074 A 
ATOM     41  C   UNL A   1      41.984  31.475  29.930  1.00  0.00     0.031 C 
ATOM     42  C   UNL A   1      39.977  25.142  28.118  1.00  0.00     0.029 A 
ATOM     43  C   UNL A   1      41.413  25.354  28.241  1.00  0.00     0.049 A 
ATOM     44  H   UNL A   1      42.387  27.090  28.866  1.00  0.00     0.167 HD
ATOM     45  C   UNL A   1      44.379  30.865  29.694  1.00  0.00     0.031 A 
ATOM     46  C   UNL A   1      42.348  24.431  27.953  1.00  0.00     0.031 A 
ATOM     47  C   UNL A   1      45.451  29.942  29.419  1.00  0.00     0.049 A 
ATOM     48  C   UNL A   1      43.798  24.807  28.010  1.00  0.00     0.074 A 
ATOM     49  C   UNL A   1      46.816  30.159  29.501  1.00  0.00     0.029 A 
ATOM     50  N   UNL A   1      45.280  28.627  29.020  1.00  0.00    -0.354 N 
ATOM     51  N   UNL A   1      44.340  25.953  28.338  1.00  0.00    -0.248 NA
ATOM     52  C   UNL A   1      44.765  23.765  27.640  1.00  0.00     0.031 C 
ATOM     53  C   UNL A   1      47.472  28.986  29.113  1.00  0.00     0.029 A 
ATOM     54  C   UNL A   1      46.514  28.025  28.838  1.00  0.00     0.049 A 
ATOM     55  H   UNL A   1      44.410  28.185  28.886  1.00  0.00     0.167 HD
ATOM     56  C   UNL A   1      45.711  25.767  28.225  1.00  0.00     0.074 A 
ATOM     57  C   UNL A   1      45.918  24.392  27.821  1.00  0.00     0.031 C 
ATOM     58  C   UNL A   1      46.708  26.658  28.435  1.00  0.00     0.031 A 
BRANCH  45  59
ATOM     59  C   UNL A   1      44.756  32.275  30.057  1.00  0.00    -0.014 A 
ATOM     60  C   UNL A   1      45.098  32.632  31.370  1.00  0.00     0.009 A 
ATOM     61  C   UNL A   1      44.859  33.240  29.041  1.00  0.00     0.009 A 
ATOM     62  C   UNL A   1      45.518  33.933  31.659  1.00  0.00     0.001 A 
ATOM     63  C   UNL A   1      45.303  34.532  29.329  1.00  0.00     0.001 A 
ATOM     64  C   UNL A   1      45.628  34.879  30.639  1.00  0.00     0.000 A 
ENDBRANCH  45  59
BRANCH  46  65
ATOM     65  C   UNL A   1      41.935  23.077  27.501  1.00  0.00    -0.014 A 
ATOM     66  C   UNL A   1      41.542  22.103  28.429  1.00  0.00     0.009 A 
ATOM     67  C   UNL A   1      41.930  22.755  26.133  1.00  0.00     0.009 A 
ATOM     68  C   UNL A   1      41.171  20.827  27.998  1.00  0.00     0.001 A 
ATOM     69  C   UNL A   1      41.526  21.491  25.704  1.00  0.00     0.001 A 
ATOM     70  C   UNL A   1      41.156  20.525  26.637  1.00  0.00     0.000 A 
ENDBRANCH  46  65
BRANCH  58  71
ATOM     71  C   UNL A   1      48.114  26.158  28.268  1.00  0.00    -0.014 A 
ATOM     72  C   UNL A   1      48.751  26.181  27.017  1.00  0.00     0.009 A 
ATOM     73  C   UNL A   1      48.813  25.670  29.382  1.00  0.00     0.009 A 
ATOM     74  C   UNL A   1      50.051  25.691  26.881  1.00  0.00     0.001 A 
ATOM     75  C   UNL A   1      50.121  25.204  29.246  1.00  0.00     0.001 A 
ATOM     76  C   UNL A   1      50.735  25.206  27.995  1.00  0.00     0.000 A 
ENDBRANCH  58  71
ENDBRANCH  32  33
ENDBRANCH  25  27
ENDBRANCH  24  25
ENDBRANCH  23  24
ENDBRANCH   1  23
TORSDOF 14
ENDMDL
MODEL 3
REMARK VINA RESULT:     -10.9      2.497      6.778
REMARK SMILES C[C@@H](NC(=O)c1cc(C(=O)OCCOC(=O)c2ccc(-c3c4nc(c(-c5ccccc5)c5ccc([nH]5)c(-c5ccccc5)c5nc(c(-c6ccccc6)c6ccc3[nH]6)C=C5)C=C4)cc2)n(C)n1)c1ccccc1
REMARK SMILES IDX 12 1 11 2 9 3 10 4 8 5 6 6 7 7 67 8 65 9 66 10 4 11 3 12
REMARK SMILES IDX 5 14 2 15 1 16 68 17 69 18 73 19 70 20 72 21 71 22 13 23
REMARK SMILES IDX 14 24 15 25 16 26 17 27 18 28 64 29 19 30 63 31 20 32 21 33
REMARK SMILES IDX 22 34 57 35 23 36 62 37 56 38 58 39 24 40 61 41 55 42 54 43
REMARK SMILES IDX 25 45 47 46 32 47 46 48 33 49 36 50 45 51 59 52 34 53 35 54
REMARK SMILES IDX 44 56 60 57 37 58 26 59 27 60 31 61 28 62 30 63 29 64 48 65
REMARK SMILES IDX 49 66 53 67 50 68 52 69 51 70 38 71 39 72 43 73 40 74 42 75
REMARK SMILES IDX 41 76
REMARK H PARENT 3 13 58 44 36 55
REMARK Flexibility Score: inf
ROOT
ATOM      1  C   UNL A   1      36.353  21.480  25.580  1.00  0.00     0.275 C 
ENDROOT
BRANCH   1   2
ATOM      2  O   UNL A   1      35.599  22.641  25.986  1.00  0.00    -0.457 OA
BRANCH   2   3
ATOM      3  C   UNL A   1      34.243  22.546  25.886  1.00  0.00     0.356 C 
ATOM      4  O   UNL A   1      33.522  22.004  26.715  1.00  0.00    -0.244 OA
BRANCH   3   5
ATOM      5  C   UNL A   1      33.754  23.264  24.737  1.00  0.00     0.146 A 
ATOM      6  C   UNL A   1      33.313  24.860  23.225  1.00  0.00     0.151 A 
ATOM      7  C   UNL A   1      33.891  24.625  24.493  1.00  0.00     0.071 A 
ATOM      8  N   UNL A   1      32.727  23.744  22.765  1.00  0.00    -0.167 NA
ATOM      9  N   UNL A   1      33.049  22.789  23.660  1.00  0.00    -0.260 N 
ATOM     10  C   UNL A   1      32.529  21.467  23.404  1.00  0.00     0.174 C 
BRANCH   6  11
ATOM     11  C   UNL A   1      33.272  26.105  22.454  1.00  0.00     0.272 C 
ATOM     12  N   UNL A   1      32.834  27.265  23.056  1.00  0.00    -0.344 N 
ATOM     13  H   UNL A   1      33.098  28.090  22.588  1.00  0.00     0.164 HD
ATOM     14  O   UNL A   1      33.653  26.166  21.285  1.00  0.00    -0.267 OA
BRANCH  12  15
ATOM     15  C   UNL A   1      32.047  27.482  24.269  1.00  0.00     0.109 C 
ATOM     16  C   UNL A   1      30.627  27.918  23.894  1.00  0.00     0.036 C 
BRANCH  15  17
ATOM     17  C   UNL A   1      32.632  28.464  25.263  1.00  0.00    -0.026 A 
ATOM     18  C   UNL A   1      33.846  28.234  25.921  1.00  0.00     0.006 A 
ATOM     19  C   UNL A   1      31.929  29.642  25.557  1.00  0.00     0.006 A 
ATOM     20  C   UNL A   1      34.289  29.107  26.918  1.00  0.00     0.000 A 
ATOM     21  C   UNL A   1      32.366  30.511  26.556  1.00  0.00     0.000 A 
ATOM     22  C   UNL A   1      33.537  30.232  27.251  1.00  0.00     0.000 A 
ENDBRANCH  15  17
ENDBRANCH  12  15
ENDBRANCH   6  11
ENDBRANCH   3   5
ENDBRANCH   2   3
ENDBRANCH   1   2
BRANCH   1  23
ATOM     23  C   UNL A   1      37.713  21.896  25.016  1.00  0.00     0.275 C 
BRANCH  23  24
ATOM     24  O   UNL A   1      38.149  23.075  25.704  1.00  0.00    -0.458 OA
BRANCH  24  25
ATOM     25  C   UNL A   1      39.402  23.039  26.209  1.00  0.00     0.338 C 
ATOM     26  O   UNL A   1      40.237  22.176  26.000  1.00  0.00    -0.246 OA
BRANCH  25  27
ATOM     27  C   UNL A   1      39.656  24.280  26.990  1.00  0.00     0.060 A 
ATOM     28  C   UNL A   1      39.128  24.453  28.274  1.00  0.00     0.016 A 
ATOM     29  C   UNL A   1      40.365  25.330  26.401  1.00  0.00     0.016 A 
ATOM     30  C   UNL A   1      39.259  25.673  28.939  1.00  0.00     0.010 A 
ATOM     31  C   UNL A   1      40.565  26.525  27.105  1.00  0.00     0.010 A 
ATOM     32  C   UNL A   1      40.010  26.714  28.381  1.00  0.00    -0.014 A 
BRANCH  32  33
ATOM     33  C   UNL A   1      40.258  27.974  29.139  1.00  0.00     0.031 A 
ATOM     34  C   UNL A   1      41.455  28.112  30.041  1.00  0.00     0.074 A 
ATOM     35  C   UNL A   1      39.373  28.990  29.062  1.00  0.00     0.049 A 
ATOM     36  N   UNL A   1      41.692  29.007  30.966  1.00  0.00    -0.248 NA
ATOM     37  C   UNL A   1      42.521  27.107  29.891  1.00  0.00     0.031 C 
ATOM     38  C   UNL A   1      38.187  29.027  28.201  1.00  0.00     0.029 A 
ATOM     39  N   UNL A   1      39.327  30.188  29.733  1.00  0.00    -0.354 N 
ATOM     40  C   UNL A   1      42.896  28.639  31.555  1.00  0.00     0.074 A 
ATOM     41  C   UNL A   1      43.352  27.448  30.869  1.00  0.00     0.031 C 
ATOM     42  C   UNL A   1      37.546  30.191  28.381  1.00  0.00     0.029 A 
ATOM     43  C   UNL A   1      38.210  30.935  29.442  1.00  0.00     0.049 A 
ATOM     44  H   UNL A   1      40.025  30.482  30.363  1.00  0.00     0.167 HD
ATOM     45  C   UNL A   1      43.549  29.232  32.584  1.00  0.00     0.031 A 
ATOM     46  C   UNL A   1      37.726  32.057  30.004  1.00  0.00     0.031 A 
ATOM     47  C   UNL A   1      43.117  30.440  33.239  1.00  0.00     0.049 A 
ATOM     48  C   UNL A   1      38.445  32.670  31.168  1.00  0.00     0.074 A 
ATOM     49  C   UNL A   1      43.732  31.125  34.274  1.00  0.00     0.029 A 
ATOM     50  N   UNL A   1      41.970  31.148  32.918  1.00  0.00    -0.354 N 
ATOM     51  N   UNL A   1      39.552  32.280  31.751  1.00  0.00    -0.248 NA
ATOM     52  C   UNL A   1      37.838  33.868  31.763  1.00  0.00     0.031 C 
ATOM     53  C   UNL A   1      42.935  32.227  34.606  1.00  0.00     0.029 A 
ATOM     54  C   UNL A   1      41.852  32.254  33.744  1.00  0.00     0.049 A 
ATOM     55  H   UNL A   1      41.334  30.902  32.208  1.00  0.00     0.167 HD
ATOM     56  C   UNL A   1      39.779  33.191  32.773  1.00  0.00     0.074 A 
ATOM     57  C   UNL A   1      38.710  34.165  32.716  1.00  0.00     0.031 C 
ATOM     58  C   UNL A   1      40.784  33.215  33.680  1.00  0.00     0.031 A 
BRANCH  45  59
ATOM     59  C   UNL A   1      44.791  28.566  33.110  1.00  0.00    -0.014 A 
ATOM     60  C   UNL A   1      44.730  27.564  34.090  1.00  0.00     0.009 A 
ATOM     61  C   UNL A   1      46.035  28.886  32.540  1.00  0.00     0.009 A 
ATOM     62  C   UNL A   1      45.895  26.911  34.502  1.00  0.00     0.001 A 
ATOM     63  C   UNL A   1      47.192  28.214  32.936  1.00  0.00     0.001 A 
ATOM     64  C   UNL A   1      47.122  27.230  33.920  1.00  0.00     0.000 A 
ENDBRANCH  45  59
BRANCH  46  65
ATOM     65  C   UNL A   1      36.442  32.631  29.522  1.00  0.00    -0.014 A 
ATOM     66  C   UNL A   1      36.411  33.469  28.399  1.00  0.00     0.009 A 
ATOM     67  C   UNL A   1      35.239  32.338  30.186  1.00  0.00     0.009 A 
ATOM     68  C   UNL A   1      35.203  34.018  27.961  1.00  0.00     0.001 A 
ATOM     69  C   UNL A   1      34.030  32.860  29.726  1.00  0.00     0.001 A 
ATOM     70  C   UNL A   1      34.014  33.707  28.620  1.00  0.00     0.000 A 
ENDBRANCH  46  65
BRANCH  58  71
ATOM     71  C   UNL A   1      40.792  34.354  34.657  1.00  0.00    -0.014 A 
ATOM     72  C   UNL A   1      41.519  35.528  34.400  1.00  0.00     0.009 A 
ATOM     73  C   UNL A   1      40.052  34.255  35.844  1.00  0.00     0.009 A 
ATOM     74  C   UNL A   1      41.529  36.567  35.333  1.00  0.00     0.001 A 
ATOM     75  C   UNL A   1      40.045  35.305  36.763  1.00  0.00     0.001 A 
ATOM     76  C   UNL A   1      40.791  36.455  36.511  1.00  0.00     0.000 A 
ENDBRANCH  58  71
ENDBRANCH  32  33
ENDBRANCH  25  27
ENDBRANCH  24  25
ENDBRANCH  23  24
ENDBRANCH   1  23
TORSDOF 14
ENDMDL
