MODEL 1
REMARK VINA RESULT:     -13.0      0.000      0.000
REMARK SMILES Cc1ccc(S(=O)(=O)n2cc(C(=O)C(=O)NCC(=O)NCC(=O)OCCOC(=O)c3ccc(-c4c5nc(c(-c6ccccc6)c6ccc([nH]6)c(-c6ccccc6)c6nc(c(-c7ccccc7)c7ccc4[nH]7)C=C6)C=C5)cc3)c3ccccc32)cc1
REMARK SMILES IDX 22 1 23 2 21 3 20 4 18 5 19 6 17 8 16 9 14 10 15 11 12 13
REMARK SMILES IDX 13 14 11 15 9 16 10 17 83 18 78 19 82 20 79 21 81 22 80 23
REMARK SMILES IDX 6 24 7 25 8 26 5 27 1 28 2 29 3 30 85 31 4 32 84 33 24 34
REMARK SMILES IDX 25 35 26 36 27 37 28 38 29 39 30 40 31 41 77 42 32 43 76 44
REMARK SMILES IDX 33 45 34 46 35 47 70 48 36 49 75 50 69 51 71 52 37 53 74 54
REMARK SMILES IDX 68 55 67 56 38 58 60 59 45 60 59 61 46 62 49 63 58 64 72 65
REMARK SMILES IDX 47 66 48 67 57 69 73 70 50 71 39 72 40 73 44 74 41 75 43 76
REMARK SMILES IDX 42 77 61 78 62 79 66 80 63 81 65 82 64 83 51 84 52 85 56 86
REMARK SMILES IDX 53 87 55 88 54 89
REMARK H PARENT 20 7 16 12 71 57 49 68
REMARK Flexibility Score: inf
ROOT
ATOM      1  C   UNL A   1      44.775  18.917  24.887  1.00  0.00     0.325 C 
ATOM      2  O   UNL A   1      45.694  18.071  25.105  1.00  0.00    -0.250 OA
ENDROOT
BRANCH   1   3
ATOM      3  C   UNL A   1      42.721  19.038  25.596  1.00  0.00     0.238 C 
BRANCH   3   4
ATOM      4  N   UNL A   1      41.980  19.789  26.860  1.00  0.00    -0.344 N 
ATOM      5  C   UNL A   1      40.903  20.583  27.047  1.00  0.00     0.239 C 
ATOM      6  O   UNL A   1      40.652  20.881  28.222  1.00  0.00    -0.273 OA
ATOM      7  H   UNL A   1      42.447  19.610  27.708  1.00  0.00     0.164 HD
BRANCH   5   8
ATOM      8  C   UNL A   1      39.932  20.988  25.955  1.00  0.00     0.216 C 
BRANCH   8   9
ATOM      9  N   UNL A   1      39.575  22.386  25.903  1.00  0.00    -0.340 N 
ATOM     10  C   UNL A   1      38.338  22.977  25.736  1.00  0.00     0.292 C 
ATOM     11  O   UNL A   1      38.232  24.128  26.144  1.00  0.00    -0.265 OA
ATOM     12  H   UNL A   1      40.328  23.013  26.001  1.00  0.00     0.164 HD
BRANCH  10  13
ATOM     13  C   UNL A   1      37.116  22.216  25.119  1.00  0.00     0.252 C 
ATOM     14  O   UNL A   1      37.309  21.025  24.883  1.00  0.00    -0.283 OA
BRANCH  13  15
ATOM     15  C   UNL A   1      35.737  22.770  24.916  1.00  0.00     0.054 A 
ATOM     16  N   UNL A   1      33.935  23.892  24.203  1.00  0.00    -0.240 N 
ATOM     17  C   UNL A   1      35.059  23.215  23.793  1.00  0.00     0.117 A 
ATOM     18  C   UNL A   1      33.546  23.421  25.416  1.00  0.00     0.065 A 
ATOM     19  C   UNL A   1      34.666  22.729  25.902  1.00  0.00     0.012 A 
ATOM     20  C   UNL A   1      32.334  23.533  26.104  1.00  0.00     0.028 A 
ATOM     21  C   UNL A   1      34.546  22.122  27.163  1.00  0.00     0.011 A 
ATOM     22  C   UNL A   1      32.240  22.884  27.327  1.00  0.00     0.002 A 
ATOM     23  C   UNL A   1      33.327  22.187  27.847  1.00  0.00     0.001 A 
BRANCH  16  24
ATOM     24  S   UNL A   1      33.019  24.904  23.209  1.00  0.00     0.268 S 
ATOM     25  O   UNL A   1      31.725  24.258  23.119  1.00  0.00    -0.201 OA
ATOM     26  O   UNL A   1      33.892  25.165  22.087  1.00  0.00    -0.201 OA
BRANCH  24  27
ATOM     27  C   UNL A   1      32.813  26.471  24.010  1.00  0.00     0.088 A 
ATOM     28  C   UNL A   1      31.694  30.298  25.635  1.00  0.00     0.044 C 
ATOM     29  C   UNL A   1      32.145  28.967  25.108  1.00  0.00    -0.051 A 
ATOM     30  C   UNL A   1      31.322  27.862  25.309  1.00  0.00     0.005 A 
ATOM     31  C   UNL A   1      33.331  28.800  24.382  1.00  0.00     0.005 A 
ATOM     32  C   UNL A   1      31.659  26.621  24.776  1.00  0.00     0.022 A 
ATOM     33  C   UNL A   1      33.666  27.556  23.823  1.00  0.00     0.022 A 
ENDBRANCH  24  27
ENDBRANCH  16  24
ENDBRANCH  13  15
ENDBRANCH  10  13
ENDBRANCH   8   9
ENDBRANCH   5   8
ENDBRANCH   3   4
ENDBRANCH   1   3
BRANCH   1  34
ATOM     34  O   UNL A   1      45.393  19.946  24.093  1.00  0.00    -0.461 OA
BRANCH  34  35
ATOM     35  C   UNL A   1      45.710  21.181  24.744  1.00  0.00     0.274 C 
BRANCH  35  36
ATOM     36  C   UNL A   1      44.594  22.204  24.482  1.00  0.00     0.275 C 
BRANCH  36  37
ATOM     37  O   UNL A   1      43.623  22.388  25.555  1.00  0.00    -0.458 OA
BRANCH  37  38
ATOM     38  C   UNL A   1      43.629  23.398  26.471  1.00  0.00     0.338 C 
ATOM     39  O   UNL A   1      44.436  23.489  27.381  1.00  0.00    -0.246 OA
BRANCH  38  40
ATOM     40  C   UNL A   1      42.375  24.170  26.544  1.00  0.00     0.060 A 
ATOM     41  C   UNL A   1      42.318  25.626  25.473  1.00  0.00     0.016 A 
ATOM     42  C   UNL A   1      41.429  24.145  28.085  1.00  0.00     0.016 A 
ATOM     43  C   UNL A   1      41.530  27.153  26.096  1.00  0.00     0.010 A 
ATOM     44  C   UNL A   1      40.610  25.645  28.664  1.00  0.00     0.010 A 
ATOM     45  C   UNL A   1      40.778  27.179  27.727  1.00  0.00    -0.014 A 
BRANCH  45  46
ATOM     46  C   UNL A   1      40.972  28.315  28.693  1.00  0.00     0.031 A 
ATOM     47  C   UNL A   1      39.819  29.211  28.936  1.00  0.00     0.074 A 
ATOM     48  C   UNL A   1      42.094  28.474  29.425  1.00  0.00     0.049 A 
ATOM     49  N   UNL A   1      39.386  29.796  29.998  1.00  0.00    -0.248 NA
ATOM     50  C   UNL A   1      39.014  29.502  27.776  1.00  0.00     0.031 C 
ATOM     51  C   UNL A   1      42.262  29.307  30.611  1.00  0.00     0.029 A 
ATOM     52  N   UNL A   1      43.372  28.013  29.158  1.00  0.00    -0.354 N 
ATOM     53  C   UNL A   1      38.344  30.614  29.581  1.00  0.00     0.074 A 
ATOM     54  C   UNL A   1      38.031  30.256  28.223  1.00  0.00     0.031 C 
ATOM     55  C   UNL A   1      43.571  29.465  30.861  1.00  0.00     0.029 A 
ATOM     56  C   UNL A   1      44.301  28.867  29.762  1.00  0.00     0.049 A 
ATOM     57  H   UNL A   1      43.591  27.213  28.628  1.00  0.00     0.167 HD
ATOM     58  C   UNL A   1      38.207  31.921  29.910  1.00  0.00     0.031 A 
ATOM     59  C   UNL A   1      45.222  29.532  29.007  1.00  0.00     0.031 A 
ATOM     60  C   UNL A   1      39.439  32.482  30.440  1.00  0.00     0.049 A 
ATOM     61  C   UNL A   1      44.931  31.019  28.954  1.00  0.00     0.074 A 
ATOM     62  C   UNL A   1      40.070  32.297  31.655  1.00  0.00     0.029 A 
ATOM     63  N   UNL A   1      40.421  32.979  29.576  1.00  0.00    -0.354 N 
ATOM     64  N   UNL A   1      43.790  31.565  29.300  1.00  0.00    -0.248 NA
ATOM     65  C   UNL A   1      45.927  32.009  28.581  1.00  0.00     0.031 C 
ATOM     66  C   UNL A   1      41.442  32.649  31.507  1.00  0.00     0.029 A 
ATOM     67  C   UNL A   1      41.649  33.135  30.227  1.00  0.00     0.049 A 
ATOM     68  H   UNL A   1      40.267  33.192  28.627  1.00  0.00     0.167 HD
ATOM     69  C   UNL A   1      43.882  32.935  29.256  1.00  0.00     0.074 A 
ATOM     70  C   UNL A   1      45.256  33.151  28.811  1.00  0.00     0.031 C 
ATOM     71  C   UNL A   1      42.825  33.760  29.571  1.00  0.00     0.031 A 
BRANCH  58  72
ATOM     72  C   UNL A   1      36.795  32.478  29.919  1.00  0.00    -0.014 A 
ATOM     73  C   UNL A   1      36.422  33.376  28.916  1.00  0.00     0.009 A 
ATOM     74  C   UNL A   1      35.856  32.310  30.977  1.00  0.00     0.009 A 
ATOM     75  C   UNL A   1      35.235  34.124  29.010  1.00  0.00     0.001 A 
ATOM     76  C   UNL A   1      34.657  33.027  31.058  1.00  0.00     0.001 A 
ATOM     77  C   UNL A   1      34.363  33.964  30.084  1.00  0.00     0.000 A 
ENDBRANCH  58  72
BRANCH  59  78
ATOM     78  C   UNL A   1      45.850  28.640  27.985  1.00  0.00    -0.014 A 
ATOM     79  C   UNL A   1      45.498  28.931  26.644  1.00  0.00     0.009 A 
ATOM     80  C   UNL A   1      47.060  27.977  28.221  1.00  0.00     0.009 A 
ATOM     81  C   UNL A   1      46.441  28.828  25.619  1.00  0.00     0.001 A 
ATOM     82  C   UNL A   1      47.975  27.804  27.168  1.00  0.00     0.001 A 
ATOM     83  C   UNL A   1      47.698  28.308  25.893  1.00  0.00     0.000 A 
ENDBRANCH  59  78
BRANCH  71  84
ATOM     84  C   UNL A   1      42.781  35.274  29.330  1.00  0.00    -0.014 A 
ATOM     85  C   UNL A   1      43.404  36.254  30.120  1.00  0.00     0.009 A 
ATOM     86  C   UNL A   1      42.166  35.764  28.155  1.00  0.00     0.009 A 
ATOM     87  C   UNL A   1      43.466  37.606  29.745  1.00  0.00     0.001 A 
ATOM     88  C   UNL A   1      42.238  37.107  27.760  1.00  0.00     0.001 A 
ATOM     89  C   UNL A   1      42.894  38.031  28.555  1.00  0.00     0.000 A 
ENDBRANCH  71  84
ENDBRANCH  45  46
ENDBRANCH  38  40
ENDBRANCH  37  38
ENDBRANCH  36  37
ENDBRANCH  35  36
ENDBRANCH  34  35
ENDBRANCH   1  34
TORSDOF 18
ENDMDL
MODEL 2
REMARK VINA RESULT:     -12.8      2.099      2.858
REMARK SMILES Cc1ccc(S(=O)(=O)n2cc(C(=O)C(=O)NCC(=O)NCC(=O)OCCOC(=O)c3ccc(-c4c5nc(c(-c6ccccc6)c6ccc([nH]6)c(-c6ccccc6)c6nc(c(-c7ccccc7)c7ccc4[nH]7)C=C6)C=C5)cc3)c3ccccc32)cc1
REMARK SMILES IDX 22 1 23 2 21 3 20 4 18 5 19 6 17 8 16 9 14 10 15 11 12 13
REMARK SMILES IDX 13 14 11 15 9 16 10 17 83 18 78 19 82 20 79 21 81 22 80 23
REMARK SMILES IDX 6 24 7 25 8 26 5 27 1 28 2 29 3 30 85 31 4 32 84 33 24 34
REMARK SMILES IDX 25 35 26 36 27 37 28 38 29 39 30 40 31 41 77 42 32 43 76 44
REMARK SMILES IDX 33 45 34 46 35 47 70 48 36 49 75 50 69 51 71 52 37 53 74 54
REMARK SMILES IDX 68 55 67 56 38 58 60 59 45 60 59 61 46 62 49 63 58 64 72 65
REMARK SMILES IDX 47 66 48 67 57 69 73 70 50 71 39 72 40 73 44 74 41 75 43 76
REMARK SMILES IDX 42 77 61 78 62 79 66 80 63 81 65 82 64 83 51 84 52 85 56 86
REMARK SMILES IDX 53 87 55 88 54 89
REMARK H PARENT 20 7 16 12 71 57 49 68
REMARK Flexibility Score: inf
ROOT
ATOM      1  C   UNL A   1      44.165  18.915  25.063  1.00  0.00     0.325 C 
ATOM      2  O   UNL A   1      44.887  17.900  25.300  1.00  0.00    -0.250 OA
ENDROOT
BRANCH   1   3
ATOM      3  C   UNL A   1      42.338  19.640  25.998  1.00  0.00     0.238 C 
BRANCH   3   4
ATOM      4  N   UNL A   1      42.000  20.781  27.136  1.00  0.00    -0.344 N 
ATOM      5  C   UNL A   1      41.194  21.859  27.248  1.00  0.00     0.239 C 
ATOM      6  O   UNL A   1      41.199  22.422  28.351  1.00  0.00    -0.273 OA
ATOM      7  H   UNL A   1      42.526  20.637  27.956  1.00  0.00     0.164 HD
BRANCH   5   8
ATOM      8  C   UNL A   1      40.206  22.310  26.190  1.00  0.00     0.216 C 
BRANCH   8   9
ATOM      9  N   UNL A   1      39.109  21.412  25.915  1.00  0.00    -0.340 N 
ATOM     10  C   UNL A   1      37.844  21.683  25.433  1.00  0.00     0.292 C 
ATOM     11  O   UNL A   1      37.261  20.749  24.894  1.00  0.00    -0.265 OA
ATOM     12  H   UNL A   1      39.291  20.461  26.100  1.00  0.00     0.164 HD
BRANCH  10  13
ATOM     13  C   UNL A   1      37.200  23.109  25.510  1.00  0.00     0.252 C 
ATOM     14  O   UNL A   1      37.967  24.009  25.846  1.00  0.00    -0.283 OA
BRANCH  13  15
ATOM     15  C   UNL A   1      35.805  23.475  25.099  1.00  0.00     0.054 A 
ATOM     16  N   UNL A   1      33.995  24.334  24.098  1.00  0.00    -0.240 N 
ATOM     17  C   UNL A   1      35.240  23.795  23.875  1.00  0.00     0.117 A 
ATOM     18  C   UNL A   1      33.502  23.852  25.269  1.00  0.00     0.065 A 
ATOM     19  C   UNL A   1      34.620  23.326  25.933  1.00  0.00     0.012 A 
ATOM     20  C   UNL A   1      32.202  23.828  25.781  1.00  0.00     0.028 A 
ATOM     21  C   UNL A   1      34.402  22.745  27.193  1.00  0.00     0.011 A 
ATOM     22  C   UNL A   1      32.020  23.209  27.010  1.00  0.00     0.002 A 
ATOM     23  C   UNL A   1      33.101  22.674  27.704  1.00  0.00     0.001 A 
BRANCH  16  24
ATOM     24  S   UNL A   1      33.108  25.189  22.944  1.00  0.00     0.268 S 
ATOM     25  O   UNL A   1      31.935  24.373  22.701  1.00  0.00    -0.201 OA
ATOM     26  O   UNL A   1      34.092  25.539  21.944  1.00  0.00    -0.201 OA
BRANCH  24  27
ATOM     27  C   UNL A   1      32.587  26.732  23.641  1.00  0.00     0.088 A 
ATOM     28  C   UNL A   1      31.757  30.330  25.857  1.00  0.00     0.044 C 
ATOM     29  C   UNL A   1      32.002  29.100  25.032  1.00  0.00    -0.051 A 
ATOM     30  C   UNL A   1      33.310  28.802  24.659  1.00  0.00     0.005 A 
ATOM     31  C   UNL A   1      30.979  28.216  24.665  1.00  0.00     0.005 A 
ATOM     32  C   UNL A   1      33.599  27.635  23.959  1.00  0.00     0.022 A 
ATOM     33  C   UNL A   1      31.267  27.026  23.977  1.00  0.00     0.022 A 
ENDBRANCH  24  27
ENDBRANCH  16  24
ENDBRANCH  13  15
ENDBRANCH  10  13
ENDBRANCH   8   9
ENDBRANCH   5   8
ENDBRANCH   3   4
ENDBRANCH   1   3
BRANCH   1  34
ATOM     34  O   UNL A   1      44.864  19.643  24.038  1.00  0.00    -0.461 OA
BRANCH  34  35
ATOM     35  C   UNL A   1      44.951  21.065  24.181  1.00  0.00     0.274 C 
BRANCH  35  36
ATOM     36  C   UNL A   1      46.425  21.487  24.266  1.00  0.00     0.275 C 
BRANCH  36  37
ATOM     37  O   UNL A   1      46.694  22.917  24.176  1.00  0.00    -0.458 OA
BRANCH  37  38
ATOM     38  C   UNL A   1      46.521  23.826  25.178  1.00  0.00     0.338 C 
ATOM     39  O   UNL A   1      47.026  23.726  26.285  1.00  0.00    -0.246 OA
BRANCH  38  40
ATOM     40  C   UNL A   1      45.380  24.740  24.990  1.00  0.00     0.060 A 
ATOM     41  C   UNL A   1      45.787  26.498  25.121  1.00  0.00     0.016 A 
ATOM     42  C   UNL A   1      43.724  24.162  25.426  1.00  0.00     0.016 A 
ATOM     43  C   UNL A   1      44.610  27.619  25.955  1.00  0.00     0.010 A 
ATOM     44  C   UNL A   1      42.549  25.293  26.200  1.00  0.00     0.010 A 
ATOM     45  C   UNL A   1      43.049  26.985  26.580  1.00  0.00    -0.014 A 
BRANCH  45  46
ATOM     46  C   UNL A   1      42.505  27.356  27.932  1.00  0.00     0.031 A 
ATOM     47  C   UNL A   1      41.171  27.996  27.981  1.00  0.00     0.074 A 
ATOM     48  C   UNL A   1      43.118  27.026  29.088  1.00  0.00     0.049 A 
ATOM     49  N   UNL A   1      40.187  27.884  28.804  1.00  0.00    -0.248 NA
ATOM     50  C   UNL A   1      40.899  28.928  26.916  1.00  0.00     0.031 C 
ATOM     51  C   UNL A   1      42.537  27.023  30.425  1.00  0.00     0.029 A 
ATOM     52  N   UNL A   1      44.458  26.752  29.307  1.00  0.00    -0.354 N 
ATOM     53  C   UNL A   1      39.253  28.833  28.408  1.00  0.00     0.074 A 
ATOM     54  C   UNL A   1      39.660  29.328  27.120  1.00  0.00     0.031 C 
ATOM     55  C   UNL A   1      43.519  26.959  31.337  1.00  0.00     0.029 A 
ATOM     56  C   UNL A   1      44.779  27.070  30.631  1.00  0.00     0.049 A 
ATOM     57  H   UNL A   1      45.084  26.391  28.638  1.00  0.00     0.167 HD
ATOM     58  C   UNL A   1      38.653  29.721  29.236  1.00  0.00     0.031 A 
ATOM     59  C   UNL A   1      45.726  28.012  30.905  1.00  0.00     0.031 A 
ATOM     60  C   UNL A   1      39.344  29.830  30.511  1.00  0.00     0.049 A 
ATOM     61  C   UNL A   1      45.110  29.273  31.482  1.00  0.00     0.074 A 
ATOM     62  C   UNL A   1      39.414  28.959  31.581  1.00  0.00     0.029 A 
ATOM     63  N   UNL A   1      40.435  30.694  30.654  1.00  0.00    -0.354 N 
ATOM     64  N   UNL A   1      43.833  29.565  31.429  1.00  0.00    -0.248 NA
ATOM     65  C   UNL A   1      45.874  30.259  32.226  1.00  0.00     0.031 C 
ATOM     66  C   UNL A   1      40.572  29.280  32.346  1.00  0.00     0.029 A 
ATOM     67  C   UNL A   1      41.175  30.403  31.804  1.00  0.00     0.049 A 
ATOM     68  H   UNL A   1      40.655  31.417  30.023  1.00  0.00     0.167 HD
ATOM     69  C   UNL A   1      43.575  30.709  32.144  1.00  0.00     0.074 A 
ATOM     70  C   UNL A   1      44.897  31.088  32.634  1.00  0.00     0.031 C 
ATOM     71  C   UNL A   1      42.311  31.245  32.256  1.00  0.00     0.031 A 
BRANCH  58  72
ATOM     72  C   UNL A   1      37.283  30.225  28.819  1.00  0.00    -0.014 A 
ATOM     73  C   UNL A   1      36.365  29.314  28.293  1.00  0.00     0.009 A 
ATOM     74  C   UNL A   1      36.906  31.597  28.741  1.00  0.00     0.009 A 
ATOM     75  C   UNL A   1      35.192  29.747  27.651  1.00  0.00     0.001 A 
ATOM     76  C   UNL A   1      35.722  32.031  28.133  1.00  0.00     0.001 A 
ATOM     77  C   UNL A   1      34.878  31.101  27.555  1.00  0.00     0.000 A 
ENDBRANCH  58  72
BRANCH  59  78
ATOM     78  C   UNL A   1      46.941  27.842  30.052  1.00  0.00    -0.014 A 
ATOM     79  C   UNL A   1      47.515  26.547  30.084  1.00  0.00     0.009 A 
ATOM     80  C   UNL A   1      47.177  28.641  28.926  1.00  0.00     0.009 A 
ATOM     81  C   UNL A   1      48.048  25.972  28.928  1.00  0.00     0.001 A 
ATOM     82  C   UNL A   1      47.787  28.079  27.790  1.00  0.00     0.001 A 
ATOM     83  C   UNL A   1      48.139  26.726  27.766  1.00  0.00     0.000 A 
ENDBRANCH  59  78
BRANCH  71  84
ATOM     84  C   UNL A   1      41.983  32.625  32.839  1.00  0.00    -0.014 A 
ATOM     85  C   UNL A   1      41.344  33.677  32.161  1.00  0.00     0.009 A 
ATOM     86  C   UNL A   1      42.223  32.865  34.211  1.00  0.00     0.009 A 
ATOM     87  C   UNL A   1      40.922  34.851  32.806  1.00  0.00     0.001 A 
ATOM     88  C   UNL A   1      41.789  34.024  34.870  1.00  0.00     0.001 A 
ATOM     89  C   UNL A   1      41.131  35.018  34.166  1.00  0.00     0.000 A 
ENDBRANCH  71  84
ENDBRANCH  45  46
ENDBRANCH  38  40
ENDBRANCH  37  38
ENDBRANCH  36  37
ENDBRANCH  35  36
ENDBRANCH  34  35
ENDBRANCH   1  34
TORSDOF 18
ENDMDL
MODEL 3
REMARK VINA RESULT:     -12.6      3.969      9.989
REMARK SMILES Cc1ccc(S(=O)(=O)n2cc(C(=O)C(=O)NCC(=O)NCC(=O)OCCOC(=O)c3ccc(-c4c5nc(c(-c6ccccc6)c6ccc([nH]6)c(-c6ccccc6)c6nc(c(-c7ccccc7)c7ccc4[nH]7)C=C6)C=C5)cc3)c3ccccc32)cc1
REMARK SMILES IDX 22 1 23 2 21 3 20 4 18 5 19 6 17 8 16 9 14 10 15 11 12 13
REMARK SMILES IDX 13 14 11 15 9 16 10 17 83 18 78 19 82 20 79 21 81 22 80 23
REMARK SMILES IDX 6 24 7 25 8 26 5 27 1 28 2 29 3 30 85 31 4 32 84 33 24 34
REMARK SMILES IDX 25 35 26 36 27 37 28 38 29 39 30 40 31 41 77 42 32 43 76 44
REMARK SMILES IDX 33 45 34 46 35 47 70 48 36 49 75 50 69 51 71 52 37 53 74 54
REMARK SMILES IDX 68 55 67 56 38 58 60 59 45 60 59 61 46 62 49 63 58 64 72 65
REMARK SMILES IDX 47 66 48 67 57 69 73 70 50 71 39 72 40 73 44 74 41 75 43 76
REMARK SMILES IDX 42 77 61 78 62 79 66 80 63 81 65 82 64 83 51 84 52 85 56 86
REMARK SMILES IDX 53 87 55 88 54 89
REMARK H PARENT 20 7 16 12 71 57 49 68
REMARK Flexibility Score: inf
ROOT
ATOM      1  C   UNL A   1      32.652  32.985  27.613  1.00  0.00     0.325 C 
ATOM      2  O   UNL A   1      31.724  33.388  26.850  1.00  0.00    -0.250 OA
ENDROOT
BRANCH   1   3
ATOM      3  C   UNL A   1      33.836  31.159  27.611  1.00  0.00     0.238 C 
BRANCH   3   4
ATOM      4  N   UNL A   1      33.482  29.556  27.493  1.00  0.00    -0.344 N 
ATOM      5  C   UNL A   1      33.192  28.674  26.510  1.00  0.00     0.239 C 
ATOM      6  O   UNL A   1      33.054  27.497  26.867  1.00  0.00    -0.273 OA
ATOM      7  H   UNL A   1      33.483  29.121  28.376  1.00  0.00     0.164 HD
BRANCH   5   8
ATOM      8  C   UNL A   1      33.180  29.008  25.031  1.00  0.00     0.216 C 
BRANCH   8   9
ATOM      9  N   UNL A   1      32.024  29.726  24.547  1.00  0.00    -0.340 N 
ATOM     10  C   UNL A   1      30.919  29.263  23.861  1.00  0.00     0.292 C 
ATOM     11  O   UNL A   1      29.910  29.953  23.937  1.00  0.00    -0.265 OA
ATOM     12  H   UNL A   1      32.024  30.693  24.736  1.00  0.00     0.164 HD
BRANCH  10  13
ATOM     13  C   UNL A   1      30.922  27.908  23.075  1.00  0.00     0.252 C 
ATOM     14  O   UNL A   1      30.406  27.951  21.959  1.00  0.00    -0.283 OA
BRANCH  13  15
ATOM     15  C   UNL A   1      31.592  26.636  23.504  1.00  0.00     0.054 A 
ATOM     16  N   UNL A   1      32.831  24.776  23.631  1.00  0.00    -0.240 N 
ATOM     17  C   UNL A   1      32.834  26.091  23.227  1.00  0.00     0.117 A 
ATOM     18  C   UNL A   1      31.934  24.619  24.638  1.00  0.00     0.065 A 
ATOM     19  C   UNL A   1      31.123  25.762  24.570  1.00  0.00     0.012 A 
ATOM     20  C   UNL A   1      31.776  23.600  25.582  1.00  0.00     0.028 A 
ATOM     21  C   UNL A   1      30.090  25.872  25.515  1.00  0.00     0.011 A 
ATOM     22  C   UNL A   1      30.771  23.765  26.525  1.00  0.00     0.002 A 
ATOM     23  C   UNL A   1      29.943  24.883  26.495  1.00  0.00     0.001 A 
BRANCH  16  24
ATOM     24  S   UNL A   1      33.988  23.636  23.168  1.00  0.00     0.268 S 
ATOM     25  O   UNL A   1      35.161  23.961  23.954  1.00  0.00    -0.201 OA
ATOM     26  O   UNL A   1      33.930  23.656  21.723  1.00  0.00    -0.201 OA
BRANCH  24  27
ATOM     27  C   UNL A   1      33.427  22.021  23.632  1.00  0.00     0.088 A 
ATOM     28  C   UNL A   1      32.724  17.896  24.650  1.00  0.00     0.044 C 
ATOM     29  C   UNL A   1      32.900  19.348  24.311  1.00  0.00    -0.051 A 
ATOM     30  C   UNL A   1      33.872  20.075  24.995  1.00  0.00     0.005 A 
ATOM     31  C   UNL A   1      32.163  19.988  23.306  1.00  0.00     0.005 A 
ATOM     32  C   UNL A   1      34.125  21.403  24.667  1.00  0.00     0.022 A 
ATOM     33  C   UNL A   1      32.429  21.322  22.956  1.00  0.00     0.022 A 
ENDBRANCH  24  27
ENDBRANCH  16  24
ENDBRANCH  13  15
ENDBRANCH  10  13
ENDBRANCH   8   9
ENDBRANCH   5   8
ENDBRANCH   3   4
ENDBRANCH   1   3
BRANCH   1  34
ATOM     34  O   UNL A   1      32.895  34.076  28.518  1.00  0.00    -0.461 OA
BRANCH  34  35
ATOM     35  C   UNL A   1      34.173  34.718  28.451  1.00  0.00     0.274 C 
BRANCH  35  36
ATOM     36  C   UNL A   1      34.779  34.812  29.860  1.00  0.00     0.275 C 
BRANCH  36  37
ATOM     37  O   UNL A   1      34.888  33.560  30.600  1.00  0.00    -0.458 OA
BRANCH  37  38
ATOM     38  C   UNL A   1      36.050  32.960  30.986  1.00  0.00     0.338 C 
ATOM     39  O   UNL A   1      36.956  33.537  31.564  1.00  0.00    -0.246 OA
BRANCH  38  40
ATOM     40  C   UNL A   1      36.324  31.670  30.328  1.00  0.00     0.060 A 
ATOM     41  C   UNL A   1      36.339  30.241  31.437  1.00  0.00     0.016 A 
ATOM     42  C   UNL A   1      37.333  31.659  28.828  1.00  0.00     0.016 A 
ATOM     43  C   UNL A   1      37.581  28.927  31.170  1.00  0.00     0.010 A 
ATOM     44  C   UNL A   1      38.519  30.327  28.548  1.00  0.00     0.010 A 
ATOM     45  C   UNL A   1      38.728  29.035  29.793  1.00  0.00    -0.014 A 
BRANCH  45  46
ATOM     46  C   UNL A   1      40.194  28.731  29.930  1.00  0.00     0.031 A 
ATOM     47  C   UNL A   1      40.729  27.583  29.165  1.00  0.00     0.074 A 
ATOM     48  C   UNL A   1      41.048  29.521  30.613  1.00  0.00     0.049 A 
ATOM     49  N   UNL A   1      41.844  27.398  28.548  1.00  0.00    -0.248 NA
ATOM     50  C   UNL A   1      39.854  26.440  29.082  1.00  0.00     0.031 C 
ATOM     51  C   UNL A   1      42.504  29.523  30.532  1.00  0.00     0.029 A 
ATOM     52  N   UNL A   1      40.771  30.406  31.641  1.00  0.00    -0.354 N 
ATOM     53  C   UNL A   1      41.830  26.073  28.130  1.00  0.00     0.074 A 
ATOM     54  C   UNL A   1      40.495  25.574  28.324  1.00  0.00     0.031 C 
ATOM     55  C   UNL A   1      43.007  30.199  31.577  1.00  0.00     0.029 A 
ATOM     56  C   UNL A   1      41.903  30.532  32.454  1.00  0.00     0.049 A 
ATOM     57  H   UNL A   1      39.914  30.872  31.779  1.00  0.00     0.167 HD
ATOM     58  C   UNL A   1      42.840  25.191  28.320  1.00  0.00     0.031 A 
ATOM     59  C   UNL A   1      41.848  30.192  33.773  1.00  0.00     0.031 A 
ATOM     60  C   UNL A   1      43.790  25.656  29.318  1.00  0.00     0.049 A 
ATOM     61  C   UNL A   1      42.639  28.929  34.058  1.00  0.00     0.074 A 
ATOM     62  C   UNL A   1      44.743  26.655  29.266  1.00  0.00     0.029 A 
ATOM     63  N   UNL A   1      43.560  25.423  30.678  1.00  0.00    -0.354 N 
ATOM     64  N   UNL A   1      43.050  28.089  33.139  1.00  0.00    -0.248 NA
ATOM     65  C   UNL A   1      43.090  28.559  35.389  1.00  0.00     0.031 C 
ATOM     66  C   UNL A   1      45.056  27.047  30.600  1.00  0.00     0.029 A 
ATOM     67  C   UNL A   1      44.365  26.235  31.484  1.00  0.00     0.049 A 
ATOM     68  H   UNL A   1      42.911  24.768  31.026  1.00  0.00     0.167 HD
ATOM     69  C   UNL A   1      43.840  27.116  33.701  1.00  0.00     0.074 A 
ATOM     70  C   UNL A   1      43.839  27.476  35.116  1.00  0.00     0.031 C 
ATOM     71  C   UNL A   1      44.407  26.101  32.961  1.00  0.00     0.031 A 
BRANCH  58  72
ATOM     72  C   UNL A   1      42.949  24.053  27.321  1.00  0.00    -0.014 A 
ATOM     73  C   UNL A   1      43.349  24.344  26.015  1.00  0.00     0.009 A 
ATOM     74  C   UNL A   1      42.497  22.721  27.546  1.00  0.00     0.009 A 
ATOM     75  C   UNL A   1      43.220  23.396  24.984  1.00  0.00     0.001 A 
ATOM     76  C   UNL A   1      42.399  21.764  26.530  1.00  0.00     0.001 A 
ATOM     77  C   UNL A   1      42.731  22.117  25.235  1.00  0.00     0.000 A 
ENDBRANCH  58  72
BRANCH  59  78
ATOM     78  C   UNL A   1      40.615  30.721  34.432  1.00  0.00    -0.014 A 
ATOM     79  C   UNL A   1      40.516  32.134  34.463  1.00  0.00     0.009 A 
ATOM     80  C   UNL A   1      39.434  29.974  34.506  1.00  0.00     0.009 A 
ATOM     81  C   UNL A   1      39.286  32.769  34.280  1.00  0.00     0.001 A 
ATOM     82  C   UNL A   1      38.192  30.626  34.400  1.00  0.00     0.001 A 
ATOM     83  C   UNL A   1      38.127  32.008  34.200  1.00  0.00     0.000 A 
ENDBRANCH  59  78
BRANCH  71  84
ATOM     84  C   UNL A   1      45.104  24.865  33.542  1.00  0.00    -0.014 A 
ATOM     85  C   UNL A   1      46.442  24.792  33.961  1.00  0.00     0.009 A 
ATOM     86  C   UNL A   1      44.338  23.705  33.804  1.00  0.00     0.009 A 
ATOM     87  C   UNL A   1      46.967  23.681  34.641  1.00  0.00     0.001 A 
ATOM     88  C   UNL A   1      44.845  22.598  34.499  1.00  0.00     0.001 A 
ATOM     89  C   UNL A   1      46.163  22.588  34.924  1.00  0.00     0.000 A 
ENDBRANCH  71  84
ENDBRANCH  45  46
ENDBRANCH  38  40
ENDBRANCH  37  38
ENDBRANCH  36  37
ENDBRANCH  35  36
ENDBRANCH  34  35
ENDBRANCH   1  34
TORSDOF 18
ENDMDL
