MODEL 1
REMARK VINA RESULT:      -8.7      0.000      0.000
REMARK SMILES CC[C@H](C)[C@@H](C)[C@](C)(O)C(=O)OCCOC(=O)c1ccc(-c2c3nc(c(-c4ccccc4)c4ccc([nH]4)c(-c4ccccc4)c4nc(c(-c5ccccc5)c5ccc2[nH]5)C=C4)C=C3)cc1
REMARK SMILES IDX 13 1 12 2 10 3 11 4 7 5 8 6 5 7 6 8 3 9 4 10 2 11 1 12 9 13
REMARK SMILES IDX 14 15 15 16 16 17 17 18 18 19 19 20 65 21 20 22 64 23 21 24
REMARK SMILES IDX 22 25 23 26 58 27 24 28 63 29 57 30 59 31 25 32 62 33 56 34
REMARK SMILES IDX 55 35 26 37 48 38 33 39 47 40 34 41 37 42 46 43 60 44 35 45
REMARK SMILES IDX 36 46 45 48 61 49 38 50 27 51 28 52 32 53 29 54 31 55 30 56
REMARK SMILES IDX 49 57 50 58 54 59 51 60 53 61 52 62 39 63 40 64 44 65 41 66
REMARK SMILES IDX 43 67 42 68
REMARK H PARENT 9 14 59 36 37 47
REMARK Flexibility Score: inf
ROOT
ATOM      1  C   UNL A   1      33.725  34.915  28.674  1.00  0.00     0.274 C 
ENDROOT
BRANCH   1   2
ATOM      2  O   UNL A   1      33.812  34.794  30.109  1.00  0.00    -0.460 OA
BRANCH   2   3
ATOM      3  C   UNL A   1      33.176  35.773  30.818  1.00  0.00     0.338 C 
ATOM      4  O   UNL A   1      32.604  36.735  30.320  1.00  0.00    -0.249 OA
BRANCH   3   5
ATOM      5  C   UNL A   1      33.240  35.500  32.347  1.00  0.00     0.161 C 
ATOM      6  C   UNL A   1      33.458  36.848  33.037  1.00  0.00     0.055 C 
BRANCH   5   7
ATOM      7  C   UNL A   1      34.345  34.385  32.557  1.00  0.00     0.032 C 
ATOM      8  C   UNL A   1      33.685  33.125  33.156  1.00  0.00     0.011 C 
BRANCH   7   9
ATOM      9  C   UNL A   1      35.639  34.832  33.324  1.00  0.00    -0.008 C 
ATOM     10  C   UNL A   1      35.797  34.201  34.715  1.00  0.00     0.008 C 
BRANCH   9  11
ATOM     11  C   UNL A   1      36.931  34.575  32.498  1.00  0.00     0.000 C 
ATOM     12  C   UNL A   1      36.822  33.521  31.400  1.00  0.00     0.004 C 
ENDBRANCH   9  11
ENDBRANCH   7   9
ENDBRANCH   5   7
BRANCH   5  13
ATOM     13  O   UNL A   1      31.993  35.024  32.876  1.00  0.00    -0.378 OA
ATOM     14  H   UNL A   1      32.111  34.767  33.803  1.00  0.00     0.212 HD
ENDBRANCH   5  13
ENDBRANCH   3   5
ENDBRANCH   2   3
ENDBRANCH   1   2
BRANCH   1  15
ATOM     15  C   UNL A   1      33.432  33.565  28.027  1.00  0.00     0.275 C 
BRANCH  15  16
ATOM     16  O   UNL A   1      34.667  32.917  27.676  1.00  0.00    -0.458 OA
BRANCH  16  17
ATOM     17  C   UNL A   1      34.656  31.567  27.712  1.00  0.00     0.338 C 
ATOM     18  O   UNL A   1      33.837  30.817  27.201  1.00  0.00    -0.246 OA
BRANCH  17  19
ATOM     19  C   UNL A   1      35.819  31.073  28.467  1.00  0.00     0.060 A 
ATOM     20  C   UNL A   1      37.059  31.696  28.330  1.00  0.00     0.016 A 
ATOM     21  C   UNL A   1      35.707  29.899  29.211  1.00  0.00     0.016 A 
ATOM     22  C   UNL A   1      38.205  31.091  28.840  1.00  0.00     0.010 A 
ATOM     23  C   UNL A   1      36.844  29.350  29.812  1.00  0.00     0.010 A 
ATOM     24  C   UNL A   1      38.115  29.914  29.597  1.00  0.00    -0.014 A 
BRANCH  24  25
ATOM     25  C   UNL A   1      39.339  29.242  30.113  1.00  0.00     0.031 A 
ATOM     26  C   UNL A   1      39.984  29.723  31.389  1.00  0.00     0.074 A 
ATOM     27  C   UNL A   1      39.882  28.194  29.462  1.00  0.00     0.049 A 
ATOM     28  N   UNL A   1      41.154  29.416  31.892  1.00  0.00    -0.248 NA
ATOM     29  C   UNL A   1      39.218  30.684  32.198  1.00  0.00     0.031 C 
ATOM     30  C   UNL A   1      39.350  27.576  28.246  1.00  0.00     0.029 A 
ATOM     31  N   UNL A   1      41.006  27.456  29.743  1.00  0.00    -0.354 N 
ATOM     32  C   UNL A   1      41.295  30.203  33.029  1.00  0.00     0.074 A 
ATOM     33  C   UNL A   1      40.086  30.988  33.153  1.00  0.00     0.031 C 
ATOM     34  C   UNL A   1      40.116  26.525  27.915  1.00  0.00     0.029 A 
ATOM     35  C   UNL A   1      41.242  26.448  28.841  1.00  0.00     0.049 A 
ATOM     36  H   UNL A   1      41.587  27.632  30.519  1.00  0.00     0.167 HD
ATOM     37  C   UNL A   1      42.342  30.274  33.886  1.00  0.00     0.031 A 
ATOM     38  C   UNL A   1      42.267  25.581  28.738  1.00  0.00     0.031 A 
ATOM     39  C   UNL A   1      43.519  29.452  33.805  1.00  0.00     0.049 A 
ATOM     40  C   UNL A   1      43.413  25.674  29.700  1.00  0.00     0.074 A 
ATOM     41  C   UNL A   1      44.633  29.456  34.627  1.00  0.00     0.029 A 
ATOM     42  N   UNL A   1      43.721  28.459  32.861  1.00  0.00    -0.354 N 
ATOM     43  N   UNL A   1      43.577  26.489  30.713  1.00  0.00    -0.248 NA
ATOM     44  C   UNL A   1      44.531  24.742  29.488  1.00  0.00     0.031 C 
ATOM     45  C   UNL A   1      45.520  28.475  34.167  1.00  0.00     0.029 A 
ATOM     46  C   UNL A   1      44.941  27.842  33.080  1.00  0.00     0.049 A 
ATOM     47  H   UNL A   1      43.091  28.226  32.142  1.00  0.00     0.167 HD
ATOM     48  C   UNL A   1      44.815  26.174  31.255  1.00  0.00     0.074 A 
ATOM     49  C   UNL A   1      45.349  25.074  30.478  1.00  0.00     0.031 C 
ATOM     50  C   UNL A   1      45.458  26.754  32.296  1.00  0.00     0.031 A 
BRANCH  37  51
ATOM     51  C   UNL A   1      42.278  31.315  34.967  1.00  0.00    -0.014 A 
ATOM     52  C   UNL A   1      41.868  30.998  36.269  1.00  0.00     0.009 A 
ATOM     53  C   UNL A   1      42.673  32.631  34.676  1.00  0.00     0.009 A 
ATOM     54  C   UNL A   1      41.827  31.987  37.254  1.00  0.00     0.001 A 
ATOM     55  C   UNL A   1      42.652  33.612  35.667  1.00  0.00     0.001 A 
ATOM     56  C   UNL A   1      42.221  33.292  36.953  1.00  0.00     0.000 A 
ENDBRANCH  37  51
BRANCH  38  57
ATOM     57  C   UNL A   1      42.279  24.581  27.642  1.00  0.00    -0.014 A 
ATOM     58  C   UNL A   1      41.662  23.333  27.812  1.00  0.00     0.009 A 
ATOM     59  C   UNL A   1      42.897  24.875  26.416  1.00  0.00     0.009 A 
ATOM     60  C   UNL A   1      41.673  22.395  26.778  1.00  0.00     0.001 A 
ATOM     61  C   UNL A   1      42.885  23.945  25.376  1.00  0.00     0.001 A 
ATOM     62  C   UNL A   1      42.278  22.703  25.559  1.00  0.00     0.000 A 
ENDBRANCH  38  57
BRANCH  50  63
ATOM     63  C   UNL A   1      46.802  26.198  32.658  1.00  0.00    -0.014 A 
ATOM     64  C   UNL A   1      47.970  26.687  32.054  1.00  0.00     0.009 A 
ATOM     65  C   UNL A   1      46.903  25.192  33.631  1.00  0.00     0.009 A 
ATOM     66  C   UNL A   1      49.215  26.160  32.400  1.00  0.00     0.001 A 
ATOM     67  C   UNL A   1      48.151  24.678  33.986  1.00  0.00     0.001 A 
ATOM     68  C   UNL A   1      49.305  25.158  33.366  1.00  0.00     0.000 A 
ENDBRANCH  50  63
ENDBRANCH  24  25
ENDBRANCH  17  19
ENDBRANCH  16  17
ENDBRANCH  15  16
ENDBRANCH   1  15
TORSDOF 15
ENDMDL
MODEL 2
REMARK VINA RESULT:      -8.7      5.630      9.128
REMARK SMILES CC[C@H](C)[C@@H](C)[C@](C)(O)C(=O)OCCOC(=O)c1ccc(-c2c3nc(c(-c4ccccc4)c4ccc([nH]4)c(-c4ccccc4)c4nc(c(-c5ccccc5)c5ccc2[nH]5)C=C4)C=C3)cc1
REMARK SMILES IDX 13 1 12 2 10 3 11 4 7 5 8 6 5 7 6 8 3 9 4 10 2 11 1 12 9 13
REMARK SMILES IDX 14 15 15 16 16 17 17 18 18 19 19 20 65 21 20 22 64 23 21 24
REMARK SMILES IDX 22 25 23 26 58 27 24 28 63 29 57 30 59 31 25 32 62 33 56 34
REMARK SMILES IDX 55 35 26 37 48 38 33 39 47 40 34 41 37 42 46 43 60 44 35 45
REMARK SMILES IDX 36 46 45 48 61 49 38 50 27 51 28 52 32 53 29 54 31 55 30 56
REMARK SMILES IDX 49 57 50 58 54 59 51 60 53 61 52 62 39 63 40 64 44 65 41 66
REMARK SMILES IDX 43 67 42 68
REMARK H PARENT 9 14 59 36 37 47
REMARK Flexibility Score: inf
ROOT
ATOM      1  C   UNL A   1      34.799  20.302  24.638  1.00  0.00     0.274 C 
ENDROOT
BRANCH   1   2
ATOM      2  O   UNL A   1      33.728  21.190  24.258  1.00  0.00    -0.460 OA
BRANCH   2   3
ATOM      3  C   UNL A   1      32.505  20.894  24.789  1.00  0.00     0.338 C 
ATOM      4  O   UNL A   1      32.071  19.760  24.952  1.00  0.00    -0.249 OA
BRANCH   3   5
ATOM      5  C   UNL A   1      31.734  22.182  25.195  1.00  0.00     0.161 C 
ATOM      6  C   UNL A   1      31.176  22.797  23.910  1.00  0.00     0.055 C 
BRANCH   5   7
ATOM      7  C   UNL A   1      32.741  23.057  26.047  1.00  0.00     0.032 C 
ATOM      8  C   UNL A   1      32.381  22.930  27.543  1.00  0.00     0.011 C 
BRANCH   7   9
ATOM      9  C   UNL A   1      32.931  24.542  25.578  1.00  0.00    -0.008 C 
ATOM     10  C   UNL A   1      32.253  25.581  26.484  1.00  0.00     0.008 C 
BRANCH   9  11
ATOM     11  C   UNL A   1      34.430  24.918  25.405  1.00  0.00     0.000 C 
ATOM     12  C   UNL A   1      35.133  24.313  24.194  1.00  0.00     0.004 C 
ENDBRANCH   9  11
ENDBRANCH   7   9
ENDBRANCH   5   7
BRANCH   5  13
ATOM     13  O   UNL A   1      30.572  21.901  25.991  1.00  0.00    -0.378 OA
ATOM     14  H   UNL A   1      30.776  21.194  26.623  1.00  0.00     0.212 HD
ENDBRANCH   5  13
ENDBRANCH   3   5
ENDBRANCH   2   3
ENDBRANCH   1   2
BRANCH   1  15
ATOM     15  C   UNL A   1      35.746  20.977  25.625  1.00  0.00     0.275 C 
BRANCH  15  16
ATOM     16  O   UNL A   1      36.887  21.500  24.922  1.00  0.00    -0.458 OA
BRANCH  16  17
ATOM     17  C   UNL A   1      38.094  21.108  25.383  1.00  0.00     0.338 C 
ATOM     18  O   UNL A   1      38.599  19.999  25.295  1.00  0.00    -0.246 OA
BRANCH  17  19
ATOM     19  C   UNL A   1      38.780  22.241  26.028  1.00  0.00     0.060 A 
ATOM     20  C   UNL A   1      38.181  23.499  26.052  1.00  0.00     0.016 A 
ATOM     21  C   UNL A   1      40.085  22.080  26.491  1.00  0.00     0.016 A 
ATOM     22  C   UNL A   1      38.920  24.617  26.433  1.00  0.00     0.010 A 
ATOM     23  C   UNL A   1      40.789  23.188  26.974  1.00  0.00     0.010 A 
ATOM     24  C   UNL A   1      40.232  24.478  26.908  1.00  0.00    -0.014 A 
BRANCH  24  25
ATOM     25  C   UNL A   1      41.040  25.672  27.282  1.00  0.00     0.031 A 
ATOM     26  C   UNL A   1      40.505  26.662  28.286  1.00  0.00     0.074 A 
ATOM     27  C   UNL A   1      42.258  25.880  26.744  1.00  0.00     0.049 A 
ATOM     28  N   UNL A   1      40.951  27.857  28.588  1.00  0.00    -0.248 NA
ATOM     29  C   UNL A   1      39.304  26.263  29.037  1.00  0.00     0.031 C 
ATOM     30  C   UNL A   1      42.939  24.991  25.801  1.00  0.00     0.029 A 
ATOM     31  N   UNL A   1      43.147  26.912  26.925  1.00  0.00    -0.354 N 
ATOM     32  C   UNL A   1      40.043  28.379  29.503  1.00  0.00     0.074 A 
ATOM     33  C   UNL A   1      39.032  27.367  29.719  1.00  0.00     0.031 C 
ATOM     34  C   UNL A   1      44.154  25.488  25.526  1.00  0.00     0.029 A 
ATOM     35  C   UNL A   1      44.305  26.773  26.200  1.00  0.00     0.049 A 
ATOM     36  H   UNL A   1      42.970  27.678  27.518  1.00  0.00     0.167 HD
ATOM     37  C   UNL A   1      40.045  29.595  30.098  1.00  0.00     0.031 A 
ATOM     38  C   UNL A   1      45.357  27.601  26.057  1.00  0.00     0.031 A 
ATOM     39  C   UNL A   1      41.080  30.581  29.936  1.00  0.00     0.049 A 
ATOM     40  C   UNL A   1      45.342  28.941  26.729  1.00  0.00     0.074 A 
ATOM     41  C   UNL A   1      41.166  31.843  30.498  1.00  0.00     0.029 A 
ATOM     42  N   UNL A   1      42.224  30.402  29.176  1.00  0.00    -0.354 N 
ATOM     43  N   UNL A   1      44.430  29.460  27.515  1.00  0.00    -0.248 NA
ATOM     44  C   UNL A   1      46.491  29.822  26.474  1.00  0.00     0.031 C 
ATOM     45  C   UNL A   1      42.356  32.437  30.061  1.00  0.00     0.029 A 
ATOM     46  C   UNL A   1      43.022  31.530  29.254  1.00  0.00     0.049 A 
ATOM     47  H   UNL A   1      42.437  29.593  28.658  1.00  0.00     0.167 HD
ATOM     48  C   UNL A   1      44.890  30.727  27.842  1.00  0.00     0.074 A 
ATOM     49  C   UNL A   1      46.177  30.889  27.195  1.00  0.00     0.031 C 
ATOM     50  C   UNL A   1      44.295  31.676  28.602  1.00  0.00     0.031 A 
BRANCH  37  51
ATOM     51  C   UNL A   1      38.861  29.946  30.953  1.00  0.00    -0.014 A 
ATOM     52  C   UNL A   1      37.685  30.472  30.400  1.00  0.00     0.009 A 
ATOM     53  C   UNL A   1      38.919  29.710  32.336  1.00  0.00     0.009 A 
ATOM     54  C   UNL A   1      36.599  30.781  31.221  1.00  0.00     0.001 A 
ATOM     55  C   UNL A   1      37.824  29.999  33.151  1.00  0.00     0.001 A 
ATOM     56  C   UNL A   1      36.668  30.542  32.594  1.00  0.00     0.000 A 
ENDBRANCH  37  51
BRANCH  38  57
ATOM     57  C   UNL A   1      46.495  27.203  25.191  1.00  0.00    -0.014 A 
ATOM     58  C   UNL A   1      47.325  26.133  25.554  1.00  0.00     0.009 A 
ATOM     59  C   UNL A   1      46.748  27.885  23.989  1.00  0.00     0.009 A 
ATOM     60  C   UNL A   1      48.393  25.760  24.737  1.00  0.00     0.001 A 
ATOM     61  C   UNL A   1      47.800  27.493  23.161  1.00  0.00     0.001 A 
ATOM     62  C   UNL A   1      48.626  26.435  23.538  1.00  0.00     0.000 A 
ENDBRANCH  38  57
BRANCH  50  63
ATOM     63  C   UNL A   1      45.036  32.967  28.781  1.00  0.00    -0.014 A 
ATOM     64  C   UNL A   1      44.832  34.042  27.903  1.00  0.00     0.009 A 
ATOM     65  C   UNL A   1      45.930  33.116  29.852  1.00  0.00     0.009 A 
ATOM     66  C   UNL A   1      45.530  35.238  28.081  1.00  0.00     0.001 A 
ATOM     67  C   UNL A   1      46.615  34.319  30.035  1.00  0.00     0.001 A 
ATOM     68  C   UNL A   1      46.418  35.376  29.147  1.00  0.00     0.000 A 
ENDBRANCH  50  63
ENDBRANCH  24  25
ENDBRANCH  17  19
ENDBRANCH  16  17
ENDBRANCH  15  16
ENDBRANCH   1  15
TORSDOF 15
ENDMDL
MODEL 3
REMARK VINA RESULT:      -8.6      4.838     10.887
REMARK SMILES CC[C@H](C)[C@@H](C)[C@](C)(O)C(=O)OCCOC(=O)c1ccc(-c2c3nc(c(-c4ccccc4)c4ccc([nH]4)c(-c4ccccc4)c4nc(c(-c5ccccc5)c5ccc2[nH]5)C=C4)C=C3)cc1
REMARK SMILES IDX 13 1 12 2 10 3 11 4 7 5 8 6 5 7 6 8 3 9 4 10 2 11 1 12 9 13
REMARK SMILES IDX 14 15 15 16 16 17 17 18 18 19 19 20 65 21 20 22 64 23 21 24
REMARK SMILES IDX 22 25 23 26 58 27 24 28 63 29 57 30 59 31 25 32 62 33 56 34
REMARK SMILES IDX 55 35 26 37 48 38 33 39 47 40 34 41 37 42 46 43 60 44 35 45
REMARK SMILES IDX 36 46 45 48 61 49 38 50 27 51 28 52 32 53 29 54 31 55 30 56
REMARK SMILES IDX 49 57 50 58 54 59 51 60 53 61 52 62 39 63 40 64 44 65 41 66
REMARK SMILES IDX 43 67 42 68
REMARK H PARENT 9 14 59 36 37 47
REMARK Flexibility Score: inf
ROOT
ATOM      1  C   UNL A   1      42.126  20.555  26.125  1.00  0.00     0.274 C 
ENDROOT
BRANCH   1   2
ATOM      2  O   UNL A   1      42.724  21.758  26.652  1.00  0.00    -0.460 OA
BRANCH   2   3
ATOM      3  C   UNL A   1      43.414  22.513  25.747  1.00  0.00     0.338 C 
ATOM      4  O   UNL A   1      42.998  22.823  24.637  1.00  0.00    -0.249 OA
BRANCH   3   5
ATOM      5  C   UNL A   1      44.791  22.961  26.312  1.00  0.00     0.161 C 
ATOM      6  C   UNL A   1      44.555  23.450  27.743  1.00  0.00     0.055 C 
BRANCH   5   7
ATOM      7  C   UNL A   1      45.384  24.000  25.274  1.00  0.00     0.032 C 
ATOM      8  C   UNL A   1      46.369  23.272  24.336  1.00  0.00     0.011 C 
BRANCH   7   9
ATOM      9  C   UNL A   1      45.967  25.324  25.880  1.00  0.00    -0.008 C 
ATOM     10  C   UNL A   1      47.499  25.344  25.993  1.00  0.00     0.008 C 
BRANCH   9  11
ATOM     11  C   UNL A   1      45.497  26.586  25.102  1.00  0.00     0.000 C 
ATOM     12  C   UNL A   1      46.555  27.661  24.875  1.00  0.00     0.004 C 
ENDBRANCH   9  11
ENDBRANCH   7   9
ENDBRANCH   5   7
BRANCH   5  13
ATOM     13  O   UNL A   1      45.711  21.868  26.454  1.00  0.00    -0.378 OA
ATOM     14  H   UNL A   1      45.353  21.223  27.084  1.00  0.00     0.212 HD
ENDBRANCH   5  13
ENDBRANCH   3   5
ENDBRANCH   2   3
ENDBRANCH   1   2
BRANCH   1  15
ATOM     15  C   UNL A   1      40.658  20.453  26.527  1.00  0.00     0.275 C 
BRANCH  15  16
ATOM     16  O   UNL A   1      40.244  21.670  27.170  1.00  0.00    -0.458 OA
BRANCH  16  17
ATOM     17  C   UNL A   1      39.387  22.445  26.472  1.00  0.00     0.338 C 
ATOM     18  O   UNL A   1      38.576  22.085  25.632  1.00  0.00    -0.246 OA
BRANCH  17  19
ATOM     19  C   UNL A   1      39.540  23.854  26.872  1.00  0.00     0.060 A 
ATOM     20  C   UNL A   1      40.061  24.784  25.974  1.00  0.00     0.016 A 
ATOM     21  C   UNL A   1      39.291  24.223  28.193  1.00  0.00     0.016 A 
ATOM     22  C   UNL A   1      40.438  26.050  26.418  1.00  0.00     0.010 A 
ATOM     23  C   UNL A   1      39.571  25.528  28.611  1.00  0.00     0.010 A 
ATOM     24  C   UNL A   1      40.190  26.444  27.741  1.00  0.00    -0.014 A 
BRANCH  24  25
ATOM     25  C   UNL A   1      40.624  27.782  28.233  1.00  0.00     0.031 A 
ATOM     26  C   UNL A   1      42.090  28.078  28.423  1.00  0.00     0.074 A 
ATOM     27  C   UNL A   1      39.722  28.745  28.505  1.00  0.00     0.049 A 
ATOM     28  N   UNL A   1      42.658  29.090  29.031  1.00  0.00    -0.248 NA
ATOM     29  C   UNL A   1      43.042  27.102  27.869  1.00  0.00     0.031 C 
ATOM     30  C   UNL A   1      38.273  28.636  28.324  1.00  0.00     0.029 A 
ATOM     31  N   UNL A   1      39.898  30.020  28.987  1.00  0.00    -0.354 N 
ATOM     32  C   UNL A   1      44.024  28.832  29.000  1.00  0.00     0.074 A 
ATOM     33  C   UNL A   1      44.201  27.578  28.300  1.00  0.00     0.031 C 
ATOM     34  C   UNL A   1      37.700  29.806  28.641  1.00  0.00     0.029 A 
ATOM     35  C   UNL A   1      38.726  30.720  29.133  1.00  0.00     0.049 A 
ATOM     36  H   UNL A   1      40.782  30.396  29.207  1.00  0.00     0.167 HD
ATOM     37  C   UNL A   1      45.037  29.567  29.518  1.00  0.00     0.031 A 
ATOM     38  C   UNL A   1      38.490  31.944  29.641  1.00  0.00     0.031 A 
ATOM     39  C   UNL A   1      44.874  30.844  30.159  1.00  0.00     0.049 A 
ATOM     40  C   UNL A   1      39.626  32.743  30.205  1.00  0.00     0.074 A 
ATOM     41  C   UNL A   1      45.842  31.661  30.717  1.00  0.00     0.029 A 
ATOM     42  N   UNL A   1      43.663  31.503  30.300  1.00  0.00    -0.354 N 
ATOM     43  N   UNL A   1      40.901  32.443  30.255  1.00  0.00    -0.248 NA
ATOM     44  C   UNL A   1      39.287  34.042  30.806  1.00  0.00     0.031 C 
ATOM     45  C   UNL A   1      45.213  32.808  31.215  1.00  0.00     0.029 A 
ATOM     46  C   UNL A   1      43.860  32.717  30.936  1.00  0.00     0.049 A 
ATOM     47  H   UNL A   1      42.793  31.160  29.993  1.00  0.00     0.167 HD
ATOM     48  C   UNL A   1      41.515  33.509  30.898  1.00  0.00     0.074 A 
ATOM     49  C   UNL A   1      40.478  34.478  31.192  1.00  0.00     0.031 C 
ATOM     50  C   UNL A   1      42.819  33.665  31.225  1.00  0.00     0.031 A 
BRANCH  37  51
ATOM     51  C   UNL A   1      46.417  28.981  29.451  1.00  0.00    -0.014 A 
ATOM     52  C   UNL A   1      47.252  29.189  28.344  1.00  0.00     0.009 A 
ATOM     53  C   UNL A   1      46.899  28.233  30.539  1.00  0.00     0.009 A 
ATOM     54  C   UNL A   1      48.534  28.636  28.316  1.00  0.00     0.001 A 
ATOM     55  C   UNL A   1      48.188  27.701  30.517  1.00  0.00     0.001 A 
ATOM     56  C   UNL A   1      49.002  27.895  29.403  1.00  0.00     0.000 A 
ENDBRANCH  37  51
BRANCH  38  57
ATOM     57  C   UNL A   1      37.101  32.467  29.689  1.00  0.00    -0.014 A 
ATOM     58  C   UNL A   1      36.563  33.156  28.594  1.00  0.00     0.009 A 
ATOM     59  C   UNL A   1      36.304  32.266  30.828  1.00  0.00     0.009 A 
ATOM     60  C   UNL A   1      35.256  33.645  28.641  1.00  0.00     0.001 A 
ATOM     61  C   UNL A   1      34.990  32.733  30.862  1.00  0.00     0.001 A 
ATOM     62  C   UNL A   1      34.468  33.428  29.772  1.00  0.00     0.000 A 
ENDBRANCH  38  57
BRANCH  50  63
ATOM     63  C   UNL A   1      43.195  34.935  31.928  1.00  0.00    -0.014 A 
ATOM     64  C   UNL A   1      43.583  36.071  31.202  1.00  0.00     0.009 A 
ATOM     65  C   UNL A   1      43.138  35.002  33.328  1.00  0.00     0.009 A 
ATOM     66  C   UNL A   1      43.933  37.247  31.869  1.00  0.00     0.001 A 
ATOM     67  C   UNL A   1      43.472  36.184  33.991  1.00  0.00     0.001 A 
ATOM     68  C   UNL A   1      43.875  37.303  33.261  1.00  0.00     0.000 A 
ENDBRANCH  50  63
ENDBRANCH  24  25
ENDBRANCH  17  19
ENDBRANCH  16  17
ENDBRANCH  15  16
ENDBRANCH   1  15
TORSDOF 15
ENDMDL
