MODEL 1
REMARK VINA RESULT:     -12.6      0.000      0.000
REMARK SMILES CS(=O)(=O)c1ccc(C2=NN(c3ccc(C(=O)OCCOC(=O)c4ccc(-c5c6nc(c(-c7ccccc7)c7ccc([nH]7)c(-c7ccccc7)c7nc(c(-c8ccccc8)c8ccc5[nH]8)C=C7)C=C6)cc4)cc3)[C@H](c3ccccc3)C2)cc1
REMARK SMILES IDX 19 1 18 2 16 3 17 4 15 5 12 6 13 7 73 8 14 9 72 10 11 11
REMARK SMILES IDX 9 12 10 13 81 14 74 15 8 16 5 17 6 18 83 19 7 20 82 21 2 22
REMARK SMILES IDX 1 23 3 24 4 25 75 26 76 27 80 28 77 29 79 30 78 31 20 32
REMARK SMILES IDX 21 33 22 34 23 35 24 36 25 37 71 38 26 39 70 40 27 41 28 42
REMARK SMILES IDX 29 43 64 44 30 45 69 46 63 47 65 48 31 49 68 50 62 51 61 52
REMARK SMILES IDX 32 54 54 55 39 56 53 57 40 58 43 59 52 60 66 61 41 62 42 63
REMARK SMILES IDX 51 65 67 66 44 67 33 68 34 69 38 70 35 71 37 72 36 73 55 74
REMARK SMILES IDX 56 75 60 76 57 77 59 78 58 79 45 80 46 81 50 82 47 83 49 84
REMARK SMILES IDX 48 85
REMARK H PARENT 65 53 43 64
REMARK Flexibility Score: inf
ROOT
ATOM      1  C   UNL A   1      33.493  33.429  27.963  1.00  0.00     0.275 C 
ENDROOT
BRANCH   1   2
ATOM      2  O   UNL A   1      33.142  32.032  27.997  1.00  0.00    -0.458 OA
BRANCH   2   3
ATOM      3  C   UNL A   1      34.089  31.173  27.552  1.00  0.00     0.338 C 
ATOM      4  O   UNL A   1      35.299  31.323  27.639  1.00  0.00    -0.246 OA
BRANCH   3   5
ATOM      5  C   UNL A   1      33.475  29.944  26.990  1.00  0.00     0.060 A 
ATOM      6  C   UNL A   1      32.418  27.630  25.794  1.00  0.00     0.060 A 
ATOM      7  C   UNL A   1      33.800  27.831  25.842  1.00  0.00     0.029 A 
ATOM      8  C   UNL A   1      31.575  28.575  26.396  1.00  0.00     0.029 A 
ATOM      9  C   UNL A   1      34.323  28.992  26.406  1.00  0.00     0.018 A 
ATOM     10  C   UNL A   1      32.095  29.725  26.999  1.00  0.00     0.018 A 
BRANCH   6  11
ATOM     11  N   UNL A   1      31.868  26.587  25.041  1.00  0.00    -0.257 N 
ATOM     12  C   UNL A   1      32.128  24.599  24.307  1.00  0.00     0.071 C 
ATOM     13  N   UNL A   1      32.161  25.307  25.393  1.00  0.00    -0.176 NA
ATOM     14  C   UNL A   1      31.886  25.359  23.033  1.00  0.00     0.091 C 
ATOM     15  C   UNL A   1      31.765  26.784  23.585  1.00  0.00     0.144 C 
BRANCH  12  16
ATOM     16  C   UNL A   1      32.281  23.133  24.314  1.00  0.00    -0.002 A 
ATOM     17  C   UNL A   1      32.623  20.369  24.206  1.00  0.00     0.067 A 
ATOM     18  C   UNL A   1      32.319  21.070  23.037  1.00  0.00     0.021 A 
ATOM     19  C   UNL A   1      32.739  21.042  25.431  1.00  0.00     0.021 A 
ATOM     20  C   UNL A   1      32.136  22.453  23.099  1.00  0.00     0.011 A 
ATOM     21  C   UNL A   1      32.579  22.430  25.484  1.00  0.00     0.011 A 
BRANCH  17  22
ATOM     22  S   UNL A   1      32.868  18.608  24.194  1.00  0.00     0.175 S 
ATOM     23  C   UNL A   1      32.353  18.023  22.604  1.00  0.00     0.163 C 
ATOM     24  O   UNL A   1      31.948  18.057  25.171  1.00  0.00    -0.224 OA
ATOM     25  O   UNL A   1      34.299  18.399  24.308  1.00  0.00    -0.224 OA
ENDBRANCH  17  22
ENDBRANCH  12  16
BRANCH  15  26
ATOM     26  C   UNL A   1      30.517  27.589  23.260  1.00  0.00    -0.023 A 
ATOM     27  C   UNL A   1      29.217  27.159  23.557  1.00  0.00     0.006 A 
ATOM     28  C   UNL A   1      30.678  28.885  22.727  1.00  0.00     0.006 A 
ATOM     29  C   UNL A   1      28.119  27.992  23.322  1.00  0.00     0.000 A 
ATOM     30  C   UNL A   1      29.585  29.725  22.518  1.00  0.00     0.000 A 
ATOM     31  C   UNL A   1      28.302  29.276  22.812  1.00  0.00     0.000 A 
ENDBRANCH  15  26
ENDBRANCH   6  11
ENDBRANCH   3   5
ENDBRANCH   2   3
ENDBRANCH   1   2
BRANCH   1  32
ATOM     32  C   UNL A   1      33.539  34.011  29.374  1.00  0.00     0.275 C 
BRANCH  32  33
ATOM     33  O   UNL A   1      34.878  33.961  29.898  1.00  0.00    -0.458 OA
BRANCH  33  34
ATOM     34  C   UNL A   1      35.099  33.020  30.845  1.00  0.00     0.338 C 
ATOM     35  O   UNL A   1      34.347  32.655  31.730  1.00  0.00    -0.246 OA
BRANCH  34  36
ATOM     36  C   UNL A   1      36.440  32.450  30.652  1.00  0.00     0.060 A 
ATOM     37  C   UNL A   1      37.158  32.776  29.503  1.00  0.00     0.016 A 
ATOM     38  C   UNL A   1      36.937  31.510  31.550  1.00  0.00     0.016 A 
ATOM     39  C   UNL A   1      38.355  32.127  29.212  1.00  0.00     0.010 A 
ATOM     40  C   UNL A   1      38.171  30.904  31.292  1.00  0.00     0.010 A 
ATOM     41  C   UNL A   1      38.880  31.189  30.109  1.00  0.00    -0.014 A 
BRANCH  41  42
ATOM     42  C   UNL A   1      40.146  30.466  29.812  1.00  0.00     0.031 A 
ATOM     43  C   UNL A   1      41.461  31.182  29.952  1.00  0.00     0.074 A 
ATOM     44  C   UNL A   1      40.125  29.188  29.386  1.00  0.00     0.049 A 
ATOM     45  N   UNL A   1      42.642  30.839  29.506  1.00  0.00    -0.248 NA
ATOM     46  C   UNL A   1      41.441  32.461  30.680  1.00  0.00     0.031 C 
ATOM     47  C   UNL A   1      38.934  28.344  29.273  1.00  0.00     0.029 A 
ATOM     48  N   UNL A   1      41.147  28.378  28.954  1.00  0.00    -0.354 N 
ATOM     49  C   UNL A   1      43.490  31.888  29.838  1.00  0.00     0.074 A 
ATOM     50  C   UNL A   1      42.693  32.874  30.536  1.00  0.00     0.031 C 
ATOM     51  C   UNL A   1      39.294  27.135  28.814  1.00  0.00     0.029 A 
ATOM     52  C   UNL A   1      40.722  27.146  28.517  1.00  0.00     0.049 A 
ATOM     53  H   UNL A   1      42.092  28.653  28.957  1.00  0.00     0.167 HD
ATOM     54  C   UNL A   1      44.810  32.022  29.569  1.00  0.00     0.031 A 
ATOM     55  C   UNL A   1      41.392  26.157  27.894  1.00  0.00     0.031 A 
ATOM     56  C   UNL A   1      45.609  31.018  28.919  1.00  0.00     0.049 A 
ATOM     57  C   UNL A   1      42.844  26.352  27.558  1.00  0.00     0.074 A 
ATOM     58  C   UNL A   1      46.961  31.049  28.625  1.00  0.00     0.029 A 
ATOM     59  N   UNL A   1      45.129  29.797  28.474  1.00  0.00    -0.354 N 
ATOM     60  N   UNL A   1      43.625  27.368  27.830  1.00  0.00    -0.248 NA
ATOM     61  C   UNL A   1      43.500  25.271  26.807  1.00  0.00     0.031 C 
ATOM     62  C   UNL A   1      47.293  29.862  27.967  1.00  0.00     0.029 A 
ATOM     63  C   UNL A   1      46.156  29.073  27.892  1.00  0.00     0.049 A 
ATOM     64  H   UNL A   1      44.198  29.490  28.560  1.00  0.00     0.167 HD
ATOM     65  C   UNL A   1      44.869  27.039  27.307  1.00  0.00     0.074 A 
ATOM     66  C   UNL A   1      44.742  25.726  26.709  1.00  0.00     0.031 C 
ATOM     67  C   UNL A   1      46.014  27.762  27.321  1.00  0.00     0.031 A 
BRANCH  54  68
ATOM     68  C   UNL A   1      45.471  33.321  29.932  1.00  0.00    -0.014 A 
ATOM     69  C   UNL A   1      45.986  33.554  31.215  1.00  0.00     0.009 A 
ATOM     70  C   UNL A   1      45.633  34.304  28.943  1.00  0.00     0.009 A 
ATOM     71  C   UNL A   1      46.629  34.760  31.506  1.00  0.00     0.001 A 
ATOM     72  C   UNL A   1      46.298  35.498  29.230  1.00  0.00     0.001 A 
ATOM     73  C   UNL A   1      46.790  35.726  30.513  1.00  0.00     0.000 A 
ENDBRANCH  54  68
BRANCH  55  74
ATOM     74  C   UNL A   1      40.683  24.916  27.486  1.00  0.00    -0.014 A 
ATOM     75  C   UNL A   1      41.054  23.674  28.023  1.00  0.00     0.009 A 
ATOM     76  C   UNL A   1      39.641  24.965  26.546  1.00  0.00     0.009 A 
ATOM     77  C   UNL A   1      40.409  22.505  27.611  1.00  0.00     0.001 A 
ATOM     78  C   UNL A   1      38.978  23.799  26.159  1.00  0.00     0.001 A 
ATOM     79  C   UNL A   1      39.368  22.570  26.685  1.00  0.00     0.000 A 
ENDBRANCH  55  74
BRANCH  67  80
ATOM     80  C   UNL A   1      47.235  27.128  26.721  1.00  0.00    -0.014 A 
ATOM     81  C   UNL A   1      47.598  27.368  25.388  1.00  0.00     0.009 A 
ATOM     82  C   UNL A   1      48.062  26.328  27.524  1.00  0.00     0.009 A 
ATOM     83  C   UNL A   1      48.760  26.799  24.863  1.00  0.00     0.001 A 
ATOM     84  C   UNL A   1      49.234  25.780  27.003  1.00  0.00     0.001 A 
ATOM     85  C   UNL A   1      49.580  26.012  25.672  1.00  0.00     0.000 A 
ENDBRANCH  67  80
ENDBRANCH  41  42
ENDBRANCH  34  36
ENDBRANCH  33  34
ENDBRANCH  32  33
ENDBRANCH   1  32
TORSDOF 15
ENDMDL
MODEL 2
REMARK VINA RESULT:     -12.6      4.507      9.893
REMARK SMILES CS(=O)(=O)c1ccc(C2=NN(c3ccc(C(=O)OCCOC(=O)c4ccc(-c5c6nc(c(-c7ccccc7)c7ccc([nH]7)c(-c7ccccc7)c7nc(c(-c8ccccc8)c8ccc5[nH]8)C=C7)C=C6)cc4)cc3)[C@H](c3ccccc3)C2)cc1
REMARK SMILES IDX 19 1 18 2 16 3 17 4 15 5 12 6 13 7 73 8 14 9 72 10 11 11
REMARK SMILES IDX 9 12 10 13 81 14 74 15 8 16 5 17 6 18 83 19 7 20 82 21 2 22
REMARK SMILES IDX 1 23 3 24 4 25 75 26 76 27 80 28 77 29 79 30 78 31 20 32
REMARK SMILES IDX 21 33 22 34 23 35 24 36 25 37 71 38 26 39 70 40 27 41 28 42
REMARK SMILES IDX 29 43 64 44 30 45 69 46 63 47 65 48 31 49 68 50 62 51 61 52
REMARK SMILES IDX 32 54 54 55 39 56 53 57 40 58 43 59 52 60 66 61 41 62 42 63
REMARK SMILES IDX 51 65 67 66 44 67 33 68 34 69 38 70 35 71 37 72 36 73 55 74
REMARK SMILES IDX 56 75 60 76 57 77 59 78 58 79 45 80 46 81 50 82 47 83 49 84
REMARK SMILES IDX 48 85
REMARK H PARENT 65 53 43 64
REMARK Flexibility Score: inf
ROOT
ATOM      1  C   UNL A   1      41.413  22.914  27.133  1.00  0.00     0.275 C 
ENDROOT
BRANCH   1   2
ATOM      2  O   UNL A   1      39.982  22.916  26.965  1.00  0.00    -0.458 OA
BRANCH   2   3
ATOM      3  C   UNL A   1      39.468  21.877  26.266  1.00  0.00     0.338 C 
ATOM      4  O   UNL A   1      39.972  20.771  26.138  1.00  0.00    -0.246 OA
BRANCH   3   5
ATOM      5  C   UNL A   1      38.135  22.216  25.707  1.00  0.00     0.060 A 
ATOM      6  C   UNL A   1      35.564  22.905  24.804  1.00  0.00     0.060 A 
ATOM      7  C   UNL A   1      36.255  23.751  25.676  1.00  0.00     0.029 A 
ATOM      8  C   UNL A   1      36.195  21.739  24.349  1.00  0.00     0.029 A 
ATOM      9  C   UNL A   1      37.516  23.394  26.149  1.00  0.00     0.018 A 
ATOM     10  C   UNL A   1      37.476  21.394  24.789  1.00  0.00     0.018 A 
BRANCH   6  11
ATOM     11  N   UNL A   1      34.218  23.134  24.495  1.00  0.00    -0.257 N 
ATOM     12  C   UNL A   1      32.618  24.547  24.475  1.00  0.00     0.071 C 
ATOM     13  N   UNL A   1      33.847  24.380  24.095  1.00  0.00    -0.176 NA
ATOM     14  C   UNL A   1      32.019  23.429  25.281  1.00  0.00     0.091 C 
ATOM     15  C   UNL A   1      33.208  22.462  25.330  1.00  0.00     0.144 C 
BRANCH  12  16
ATOM     16  C   UNL A   1      31.834  25.741  24.111  1.00  0.00    -0.002 A 
ATOM     17  C   UNL A   1      30.446  28.031  23.337  1.00  0.00     0.067 A 
ATOM     18  C   UNL A   1      31.842  28.050  23.365  1.00  0.00     0.021 A 
ATOM     19  C   UNL A   1      29.741  26.878  23.713  1.00  0.00     0.021 A 
ATOM     20  C   UNL A   1      32.533  26.904  23.766  1.00  0.00     0.011 A 
ATOM     21  C   UNL A   1      30.437  25.725  24.089  1.00  0.00     0.011 A 
BRANCH  17  22
ATOM     22  S   UNL A   1      29.508  29.456  22.836  1.00  0.00     0.175 S 
ATOM     23  C   UNL A   1      27.801  28.985  22.849  1.00  0.00     0.163 C 
ATOM     24  O   UNL A   1      29.867  29.723  21.456  1.00  0.00    -0.224 OA
ATOM     25  O   UNL A   1      29.706  30.453  23.870  1.00  0.00    -0.224 OA
ENDBRANCH  17  22
ENDBRANCH  12  16
BRANCH  15  26
ATOM     26  C   UNL A   1      33.008  21.034  24.848  1.00  0.00    -0.023 A 
ATOM     27  C   UNL A   1      33.151  19.911  25.673  1.00  0.00     0.006 A 
ATOM     28  C   UNL A   1      32.549  20.831  23.530  1.00  0.00     0.006 A 
ATOM     29  C   UNL A   1      32.855  18.631  25.194  1.00  0.00     0.000 A 
ATOM     30  C   UNL A   1      32.228  19.557  23.061  1.00  0.00     0.000 A 
ATOM     31  C   UNL A   1      32.386  18.455  23.893  1.00  0.00     0.000 A 
ENDBRANCH  15  26
ENDBRANCH   6  11
ENDBRANCH   3   5
ENDBRANCH   2   3
ENDBRANCH   1   2
BRANCH   1  32
ATOM     32  C   UNL A   1      42.067  23.946  26.215  1.00  0.00     0.275 C 
BRANCH  32  33
ATOM     33  O   UNL A   1      41.104  24.927  25.791  1.00  0.00    -0.458 OA
BRANCH  33  34
ATOM     34  C   UNL A   1      41.573  26.190  25.666  1.00  0.00     0.338 C 
ATOM     35  O   UNL A   1      42.250  26.653  24.767  1.00  0.00    -0.246 OA
BRANCH  34  36
ATOM     36  C   UNL A   1      41.126  26.984  26.819  1.00  0.00     0.060 A 
ATOM     37  C   UNL A   1      41.708  28.228  27.054  1.00  0.00     0.016 A 
ATOM     38  C   UNL A   1      40.214  26.450  27.726  1.00  0.00     0.016 A 
ATOM     39  C   UNL A   1      41.427  28.928  28.224  1.00  0.00     0.010 A 
ATOM     40  C   UNL A   1      39.881  27.183  28.870  1.00  0.00     0.010 A 
ATOM     41  C   UNL A   1      40.501  28.417  29.142  1.00  0.00    -0.014 A 
BRANCH  41  42
ATOM     42  C   UNL A   1      40.199  29.136  30.409  1.00  0.00     0.031 A 
ATOM     43  C   UNL A   1      39.080  30.140  30.445  1.00  0.00     0.074 A 
ATOM     44  C   UNL A   1      40.938  28.921  31.514  1.00  0.00     0.049 A 
ATOM     45  N   UNL A   1      38.813  31.051  31.345  1.00  0.00    -0.248 NA
ATOM     46  C   UNL A   1      38.143  30.124  29.309  1.00  0.00     0.031 C 
ATOM     47  C   UNL A   1      42.004  27.928  31.651  1.00  0.00     0.029 A 
ATOM     48  N   UNL A   1      40.908  29.545  32.739  1.00  0.00    -0.354 N 
ATOM     49  C   UNL A   1      37.724  31.760  30.853  1.00  0.00     0.074 A 
ATOM     50  C   UNL A   1      37.368  31.164  29.583  1.00  0.00     0.031 C 
ATOM     51  C   UNL A   1      42.519  28.002  32.889  1.00  0.00     0.029 A 
ATOM     52  C   UNL A   1      41.881  29.102  33.603  1.00  0.00     0.049 A 
ATOM     53  H   UNL A   1      40.253  30.241  32.974  1.00  0.00     0.167 HD
ATOM     54  C   UNL A   1      37.091  32.821  31.406  1.00  0.00     0.031 A 
ATOM     55  C   UNL A   1      42.259  29.566  34.810  1.00  0.00     0.031 A 
ATOM     56  C   UNL A   1      37.417  33.378  32.691  1.00  0.00     0.049 A 
ATOM     57  C   UNL A   1      41.577  30.780  35.377  1.00  0.00     0.074 A 
ATOM     58  C   UNL A   1      36.816  34.437  33.349  1.00  0.00     0.029 A 
ATOM     59  N   UNL A   1      38.425  32.911  33.519  1.00  0.00    -0.354 N 
ATOM     60  N   UNL A   1      40.582  31.474  34.882  1.00  0.00    -0.248 NA
ATOM     61  C   UNL A   1      42.087  31.286  36.660  1.00  0.00     0.031 C 
ATOM     62  C   UNL A   1      37.486  34.637  34.559  1.00  0.00     0.029 A 
ATOM     63  C   UNL A   1      38.475  33.672  34.674  1.00  0.00     0.049 A 
ATOM     64  H   UNL A   1      39.017  32.151  33.315  1.00  0.00     0.167 HD
ATOM     65  C   UNL A   1      40.330  32.482  35.804  1.00  0.00     0.074 A 
ATOM     66  C   UNL A   1      41.271  32.306  36.891  1.00  0.00     0.031 C 
ATOM     67  C   UNL A   1      39.404  33.468  35.752  1.00  0.00     0.031 A 
BRANCH  54  68
ATOM     68  C   UNL A   1      36.010  33.487  30.604  1.00  0.00    -0.014 A 
ATOM     69  C   UNL A   1      34.739  33.738  31.143  1.00  0.00     0.009 A 
ATOM     70  C   UNL A   1      36.297  33.927  29.302  1.00  0.00     0.009 A 
ATOM     71  C   UNL A   1      33.770  34.395  30.381  1.00  0.00     0.001 A 
ATOM     72  C   UNL A   1      35.334  34.605  28.552  1.00  0.00     0.001 A 
ATOM     73  C   UNL A   1      34.070  34.833  29.090  1.00  0.00     0.000 A 
ENDBRANCH  54  68
BRANCH  55  74
ATOM     74  C   UNL A   1      43.383  28.923  35.538  1.00  0.00    -0.014 A 
ATOM     75  C   UNL A   1      44.703  29.352  35.335  1.00  0.00     0.009 A 
ATOM     76  C   UNL A   1      43.145  27.863  36.428  1.00  0.00     0.009 A 
ATOM     77  C   UNL A   1      45.762  28.722  35.994  1.00  0.00     0.001 A 
ATOM     78  C   UNL A   1      44.201  27.255  37.109  1.00  0.00     0.001 A 
ATOM     79  C   UNL A   1      45.509  27.680  36.884  1.00  0.00     0.000 A 
ENDBRANCH  55  74
BRANCH  67  80
ATOM     80  C   UNL A   1      39.321  34.397  36.927  1.00  0.00    -0.014 A 
ATOM     81  C   UNL A   1      38.652  34.025  38.101  1.00  0.00     0.009 A 
ATOM     82  C   UNL A   1      39.973  35.639  36.873  1.00  0.00     0.009 A 
ATOM     83  C   UNL A   1      38.620  34.891  39.197  1.00  0.00     0.001 A 
ATOM     84  C   UNL A   1      39.959  36.491  37.977  1.00  0.00     0.001 A 
ATOM     85  C   UNL A   1      39.279  36.119  39.135  1.00  0.00     0.000 A 
ENDBRANCH  67  80
ENDBRANCH  41  42
ENDBRANCH  34  36
ENDBRANCH  33  34
ENDBRANCH  32  33
ENDBRANCH   1  32
TORSDOF 15
ENDMDL
MODEL 3
REMARK VINA RESULT:     -12.6      4.372      9.310
REMARK SMILES CS(=O)(=O)c1ccc(C2=NN(c3ccc(C(=O)OCCOC(=O)c4ccc(-c5c6nc(c(-c7ccccc7)c7ccc([nH]7)c(-c7ccccc7)c7nc(c(-c8ccccc8)c8ccc5[nH]8)C=C7)C=C6)cc4)cc3)[C@H](c3ccccc3)C2)cc1
REMARK SMILES IDX 19 1 18 2 16 3 17 4 15 5 12 6 13 7 73 8 14 9 72 10 11 11
REMARK SMILES IDX 9 12 10 13 81 14 74 15 8 16 5 17 6 18 83 19 7 20 82 21 2 22
REMARK SMILES IDX 1 23 3 24 4 25 75 26 76 27 80 28 77 29 79 30 78 31 20 32
REMARK SMILES IDX 21 33 22 34 23 35 24 36 25 37 71 38 26 39 70 40 27 41 28 42
REMARK SMILES IDX 29 43 64 44 30 45 69 46 63 47 65 48 31 49 68 50 62 51 61 52
REMARK SMILES IDX 32 54 54 55 39 56 53 57 40 58 43 59 52 60 66 61 41 62 42 63
REMARK SMILES IDX 51 65 67 66 44 67 33 68 34 69 38 70 35 71 37 72 36 73 55 74
REMARK SMILES IDX 56 75 60 76 57 77 59 78 58 79 45 80 46 81 50 82 47 83 49 84
REMARK SMILES IDX 48 85
REMARK H PARENT 65 53 43 64
REMARK Flexibility Score: inf
ROOT
ATOM      1  C   UNL A   1      40.333  21.020  26.615  1.00  0.00     0.275 C 
ENDROOT
BRANCH   1   2
ATOM      2  O   UNL A   1      39.187  21.433  25.847  1.00  0.00    -0.458 OA
BRANCH   2   3
ATOM      3  C   UNL A   1      38.707  22.669  26.120  1.00  0.00     0.338 C 
ATOM      4  O   UNL A   1      39.350  23.616  26.550  1.00  0.00    -0.246 OA
BRANCH   3   5
ATOM      5  C   UNL A   1      37.272  22.778  25.757  1.00  0.00     0.060 A 
ATOM      6  C   UNL A   1      34.599  22.969  24.909  1.00  0.00     0.060 A 
ATOM      7  C   UNL A   1      35.447  22.008  24.354  1.00  0.00     0.029 A 
ATOM      8  C   UNL A   1      35.088  23.798  25.928  1.00  0.00     0.029 A 
ATOM      9  C   UNL A   1      36.781  21.934  24.751  1.00  0.00     0.018 A 
ATOM     10  C   UNL A   1      36.415  23.703  26.359  1.00  0.00     0.018 A 
BRANCH   6  11
ATOM     11  N   UNL A   1      33.329  23.205  24.369  1.00  0.00    -0.257 N 
ATOM     12  C   UNL A   1      31.684  24.557  24.229  1.00  0.00     0.071 C 
ATOM     13  N   UNL A   1      32.971  24.486  24.087  1.00  0.00    -0.176 NA
ATOM     14  C   UNL A   1      31.005  23.311  24.725  1.00  0.00     0.091 C 
ATOM     15  C   UNL A   1      32.216  22.383  24.874  1.00  0.00     0.144 C 
BRANCH  12  16
ATOM     16  C   UNL A   1      30.918  25.770  23.891  1.00  0.00    -0.002 A 
ATOM     17  C   UNL A   1      29.559  28.092  23.159  1.00  0.00     0.067 A 
ATOM     18  C   UNL A   1      30.954  28.068  23.113  1.00  0.00     0.021 A 
ATOM     19  C   UNL A   1      28.842  26.965  23.587  1.00  0.00     0.021 A 
ATOM     20  C   UNL A   1      31.631  26.907  23.492  1.00  0.00     0.011 A 
ATOM     21  C   UNL A   1      29.521  25.797  23.943  1.00  0.00     0.011 A 
BRANCH  17  22
ATOM     22  S   UNL A   1      28.639  29.539  22.689  1.00  0.00     0.175 S 
ATOM     23  C   UNL A   1      29.254  30.884  23.663  1.00  0.00     0.163 C 
ATOM     24  O   UNL A   1      27.267  29.307  23.099  1.00  0.00    -0.224 OA
ATOM     25  O   UNL A   1      28.975  29.798  21.303  1.00  0.00    -0.224 OA
ENDBRANCH  17  22
ENDBRANCH  12  16
BRANCH  15  26
ATOM     26  C   UNL A   1      32.199  21.041  24.159  1.00  0.00    -0.023 A 
ATOM     27  C   UNL A   1      32.029  20.902  22.776  1.00  0.00     0.006 A 
ATOM     28  C   UNL A   1      32.476  19.881  24.912  1.00  0.00     0.006 A 
ATOM     29  C   UNL A   1      32.123  19.645  22.169  1.00  0.00     0.000 A 
ATOM     30  C   UNL A   1      32.597  18.632  24.302  1.00  0.00     0.000 A 
ATOM     31  C   UNL A   1      32.416  18.514  22.928  1.00  0.00     0.000 A 
ENDBRANCH  15  26
ENDBRANCH   6  11
ENDBRANCH   3   5
ENDBRANCH   2   3
ENDBRANCH   1   2
BRANCH   1  32
ATOM     32  C   UNL A   1      41.572  20.914  25.728  1.00  0.00     0.275 C 
BRANCH  32  33
ATOM     33  O   UNL A   1      42.656  21.685  26.278  1.00  0.00    -0.458 OA
BRANCH  33  34
ATOM     34  C   UNL A   1      42.903  22.864  25.666  1.00  0.00     0.338 C 
ATOM     35  O   UNL A   1      43.200  23.058  24.501  1.00  0.00    -0.246 OA
BRANCH  34  36
ATOM     36  C   UNL A   1      42.748  23.953  26.641  1.00  0.00     0.060 A 
ATOM     37  C   UNL A   1      42.362  23.649  27.945  1.00  0.00     0.016 A 
ATOM     38  C   UNL A   1      42.875  25.279  26.235  1.00  0.00     0.016 A 
ATOM     39  C   UNL A   1      42.047  24.665  28.842  1.00  0.00     0.010 A 
ATOM     40  C   UNL A   1      42.622  26.302  27.156  1.00  0.00     0.010 A 
ATOM     41  C   UNL A   1      42.183  26.005  28.460  1.00  0.00    -0.014 A 
BRANCH  41  42
ATOM     42  C   UNL A   1      41.833  27.110  29.393  1.00  0.00     0.031 A 
ATOM     43  C   UNL A   1      42.646  27.313  30.643  1.00  0.00     0.074 A 
ATOM     44  C   UNL A   1      40.776  27.908  29.148  1.00  0.00     0.049 A 
ATOM     45  N   UNL A   1      42.370  28.028  31.703  1.00  0.00    -0.248 NA
ATOM     46  C   UNL A   1      43.935  26.606  30.712  1.00  0.00     0.031 C 
ATOM     47  C   UNL A   1      39.942  27.879  27.946  1.00  0.00     0.029 A 
ATOM     48  N   UNL A   1      40.214  28.899  29.917  1.00  0.00    -0.354 N 
ATOM     49  C   UNL A   1      43.414  27.803  32.591  1.00  0.00     0.074 A 
ATOM     50  C   UNL A   1      44.338  26.899  31.941  1.00  0.00     0.031 C 
ATOM     51  C   UNL A   1      38.984  28.813  28.052  1.00  0.00     0.029 A 
ATOM     52  C   UNL A   1      39.081  29.446  29.362  1.00  0.00     0.049 A 
ATOM     53  H   UNL A   1      40.586  29.190  30.780  1.00  0.00     0.167 HD
ATOM     54  C   UNL A   1      43.577  28.297  33.842  1.00  0.00     0.031 A 
ATOM     55  C   UNL A   1      38.186  30.314  29.872  1.00  0.00     0.031 A 
ATOM     56  C   UNL A   1      42.681  29.234  34.464  1.00  0.00     0.049 A 
ATOM     57  C   UNL A   1      38.359  30.804  31.282  1.00  0.00     0.074 A 
ATOM     58  C   UNL A   1      42.775  29.813  35.718  1.00  0.00     0.029 A 
ATOM     59  N   UNL A   1      41.536  29.740  33.873  1.00  0.00    -0.354 N 
ATOM     60  N   UNL A   1      39.322  30.548  32.133  1.00  0.00    -0.248 NA
ATOM     61  C   UNL A   1      37.308  31.688  31.810  1.00  0.00     0.031 C 
ATOM     62  C   UNL A   1      41.663  30.640  35.901  1.00  0.00     0.029 A 
ATOM     63  C   UNL A   1      40.903  30.611  34.743  1.00  0.00     0.049 A 
ATOM     64  H   UNL A   1      41.219  29.515  32.968  1.00  0.00     0.167 HD
ATOM     65  C   UNL A   1      39.007  31.256  33.285  1.00  0.00     0.074 A 
ATOM     66  C   UNL A   1      37.768  31.959  33.023  1.00  0.00     0.031 C 
ATOM     67  C   UNL A   1      39.683  31.316  34.456  1.00  0.00     0.031 A 
BRANCH  54  68
ATOM     68  C   UNL A   1      44.742  27.796  34.646  1.00  0.00    -0.014 A 
ATOM     69  C   UNL A   1      44.654  26.636  35.429  1.00  0.00     0.009 A 
ATOM     70  C   UNL A   1      45.970  28.472  34.565  1.00  0.00     0.009 A 
ATOM     71  C   UNL A   1      45.770  26.177  36.134  1.00  0.00     0.001 A 
ATOM     72  C   UNL A   1      47.089  27.998  35.251  1.00  0.00     0.001 A 
ATOM     73  C   UNL A   1      46.986  26.854  36.039  1.00  0.00     0.000 A 
ENDBRANCH  54  68
BRANCH  55  74
ATOM     74  C   UNL A   1      37.006  30.728  29.068  1.00  0.00    -0.014 A 
ATOM     75  C   UNL A   1      36.857  32.060  28.655  1.00  0.00     0.009 A 
ATOM     76  C   UNL A   1      36.013  29.796  28.725  1.00  0.00     0.009 A 
ATOM     77  C   UNL A   1      35.729  32.454  27.930  1.00  0.00     0.001 A 
ATOM     78  C   UNL A   1      34.903  30.186  27.974  1.00  0.00     0.001 A 
ATOM     79  C   UNL A   1      34.758  31.516  27.585  1.00  0.00     0.000 A 
ENDBRANCH  55  74
BRANCH  67  80
ATOM     80  C   UNL A   1      39.132  32.214  35.525  1.00  0.00    -0.014 A 
ATOM     81  C   UNL A   1      38.334  31.707  36.560  1.00  0.00     0.009 A 
ATOM     82  C   UNL A   1      39.468  33.577  35.522  1.00  0.00     0.009 A 
ATOM     83  C   UNL A   1      37.864  32.555  37.565  1.00  0.00     0.001 A 
ATOM     84  C   UNL A   1      39.016  34.417  36.540  1.00  0.00     0.001 A 
ATOM     85  C   UNL A   1      38.211  33.907  37.558  1.00  0.00     0.000 A 
ENDBRANCH  67  80
ENDBRANCH  41  42
ENDBRANCH  34  36
ENDBRANCH  33  34
ENDBRANCH  32  33
ENDBRANCH   1  32
TORSDOF 15
ENDMDL
