MODEL 1
REMARK VINA RESULT:     -11.5      0.000      0.000
REMARK SMILES CC(=O)N1CCc2cc(S(=O)(=O)N[C@@H](C(=O)OCCOC(=O)c3ccc(-c4c5nc(c(-c6ccccc6)c6ccc([nH]6)c(-c6ccccc6)c6nc(c(-c7ccccc7)c7ccc4[nH]7)C=C6)C=C5)cc3)C(C)C)ccc21
REMARK SMILES IDX 18 1 17 2 15 3 16 4 14 5 13 6 10 8 11 9 12 10 9 11 4 12 5 13
REMARK SMILES IDX 76 14 6 15 7 16 75 17 8 18 74 19 2 20 1 21 3 22 71 23 72 24
REMARK SMILES IDX 73 25 19 26 20 27 21 28 22 29 23 30 24 31 70 32 25 33 69 34
REMARK SMILES IDX 26 35 27 36 28 37 63 38 29 39 68 40 62 41 64 42 30 43 67 44
REMARK SMILES IDX 61 45 60 46 31 48 53 49 38 50 52 51 39 52 42 53 51 54 65 55
REMARK SMILES IDX 40 56 41 57 50 59 66 60 43 61 32 62 33 63 37 64 34 65 36 66
REMARK SMILES IDX 35 67 54 68 55 69 59 70 56 71 58 72 57 73 44 74 45 75 49 76
REMARK SMILES IDX 46 77 48 78 47 79
REMARK H PARENT 13 7 64 47 42 58
REMARK Flexibility Score: inf
ROOT
ATOM      1  C   UNL A   1      35.219  20.985  25.226  1.00  0.00     0.274 C 
ENDROOT
BRANCH   1   2
ATOM      2  O   UNL A   1      34.286  20.025  24.697  1.00  0.00    -0.461 OA
BRANCH   2   3
ATOM      3  C   UNL A   1      32.959  20.285  24.789  1.00  0.00     0.324 C 
ATOM      4  O   UNL A   1      32.123  19.430  25.048  1.00  0.00    -0.250 OA
BRANCH   3   5
ATOM      5  C   UNL A   1      32.645  21.768  24.495  1.00  0.00     0.182 C 
BRANCH   5   6
ATOM      6  N   UNL A   1      31.570  22.325  25.387  1.00  0.00    -0.197 NA
ATOM      7  H   UNL A   1      30.817  22.626  24.767  1.00  0.00     0.142 HD
BRANCH   6   8
ATOM      8  S   UNL A   1      31.833  23.607  26.456  1.00  0.00     0.241 S 
ATOM      9  O   UNL A   1      33.262  23.740  26.630  1.00  0.00    -0.207 OA
ATOM     10  O   UNL A   1      30.971  23.382  27.595  1.00  0.00    -0.207 OA
BRANCH   8  11
ATOM     11  C   UNL A   1      31.259  25.086  25.663  1.00  0.00     0.082 A 
ATOM     12  N   UNL A   1      30.245  28.679  23.803  1.00  0.00    -0.312 N 
ATOM     13  C   UNL A   1      31.003  29.641  24.619  1.00  0.00     0.130 C 
ATOM     14  C   UNL A   1      30.450  27.388  24.323  1.00  0.00     0.047 A 
ATOM     15  C   UNL A   1      31.818  28.851  25.642  1.00  0.00     0.059 C 
ATOM     16  C   UNL A   1      31.376  27.450  25.371  1.00  0.00    -0.021 A 
ATOM     17  C   UNL A   1      29.898  26.170  23.963  1.00  0.00     0.028 A 
ATOM     18  C   UNL A   1      31.812  26.311  26.036  1.00  0.00     0.027 A 
ATOM     19  C   UNL A   1      30.274  25.020  24.671  1.00  0.00     0.024 A 
BRANCH  12  20
ATOM     20  C   UNL A   1      29.498  29.150  22.745  1.00  0.00     0.223 C 
ATOM     21  C   UNL A   1      28.127  29.710  22.990  1.00  0.00     0.115 C 
ATOM     22  O   UNL A   1      29.935  29.120  21.589  1.00  0.00    -0.275 OA
ENDBRANCH  12  20
ENDBRANCH   8  11
ENDBRANCH   6   8
ENDBRANCH   5   6
BRANCH   5  23
ATOM     23  C   UNL A   1      32.136  22.039  23.033  1.00  0.00     0.012 C 
ATOM     24  C   UNL A   1      32.994  23.063  22.270  1.00  0.00     0.009 C 
ATOM     25  C   UNL A   1      32.035  20.792  22.143  1.00  0.00     0.009 C 
ENDBRANCH   5  23
ENDBRANCH   3   5
ENDBRANCH   2   3
ENDBRANCH   1   2
BRANCH   1  26
ATOM     26  C   UNL A   1      36.655  20.508  24.985  1.00  0.00     0.275 C 
BRANCH  26  27
ATOM     27  O   UNL A   1      37.611  21.564  25.219  1.00  0.00    -0.458 OA
BRANCH  27  28
ATOM     28  C   UNL A   1      38.732  21.184  25.867  1.00  0.00     0.338 C 
ATOM     29  O   UNL A   1      39.324  20.118  25.773  1.00  0.00    -0.246 OA
BRANCH  28  30
ATOM     30  C   UNL A   1      39.331  22.331  26.563  1.00  0.00     0.060 A 
ATOM     31  C   UNL A   1      38.831  23.578  26.209  1.00  0.00     0.016 A 
ATOM     32  C   UNL A   1      40.451  22.237  27.380  1.00  0.00     0.016 A 
ATOM     33  C   UNL A   1      39.520  24.738  26.524  1.00  0.00     0.010 A 
ATOM     34  C   UNL A   1      41.080  23.419  27.807  1.00  0.00     0.010 A 
ATOM     35  C   UNL A   1      40.645  24.681  27.349  1.00  0.00    -0.014 A 
BRANCH  35  36
ATOM     36  C   UNL A   1      41.374  25.937  27.681  1.00  0.00     0.031 A 
ATOM     37  C   UNL A   1      40.738  26.959  28.586  1.00  0.00     0.074 A 
ATOM     38  C   UNL A   1      42.628  26.144  27.228  1.00  0.00     0.049 A 
ATOM     39  N   UNL A   1      41.109  28.190  28.833  1.00  0.00    -0.248 NA
ATOM     40  C   UNL A   1      39.524  26.543  29.308  1.00  0.00     0.031 C 
ATOM     41  C   UNL A   1      43.419  25.201  26.432  1.00  0.00     0.029 A 
ATOM     42  N   UNL A   1      43.468  27.221  27.384  1.00  0.00    -0.354 N 
ATOM     43  C   UNL A   1      40.152  28.710  29.696  1.00  0.00     0.074 A 
ATOM     44  C   UNL A   1      39.179  27.663  29.928  1.00  0.00     0.031 C 
ATOM     45  C   UNL A   1      44.632  25.724  26.201  1.00  0.00     0.029 A 
ATOM     46  C   UNL A   1      44.670  27.081  26.731  1.00  0.00     0.049 A 
ATOM     47  H   UNL A   1      43.232  28.018  27.913  1.00  0.00     0.167 HD
ATOM     48  C   UNL A   1      40.089  29.947  30.242  1.00  0.00     0.031 A 
ATOM     49  C   UNL A   1      45.666  27.960  26.521  1.00  0.00     0.031 A 
ATOM     50  C   UNL A   1      41.072  30.976  30.030  1.00  0.00     0.049 A 
ATOM     51  C   UNL A   1      45.521  29.361  27.048  1.00  0.00     0.074 A 
ATOM     52  C   UNL A   1      41.073  32.280  30.492  1.00  0.00     0.029 A 
ATOM     53  N   UNL A   1      42.244  30.806  29.310  1.00  0.00    -0.354 N 
ATOM     54  N   UNL A   1      44.560  29.874  27.775  1.00  0.00    -0.248 NA
ATOM     55  C   UNL A   1      46.590  30.309  26.705  1.00  0.00     0.031 C 
ATOM     56  C   UNL A   1      42.230  32.910  30.024  1.00  0.00     0.029 A 
ATOM     57  C   UNL A   1      42.974  31.981  29.313  1.00  0.00     0.049 A 
ATOM     58  H   UNL A   1      42.516  29.972  28.862  1.00  0.00     0.167 HD
ATOM     59  C   UNL A   1      44.922  31.195  27.999  1.00  0.00     0.074 A 
ATOM     60  C   UNL A   1      46.197  31.400  27.347  1.00  0.00     0.031 C 
ATOM     61  C   UNL A   1      44.253  32.157  28.680  1.00  0.00     0.031 A 
BRANCH  48  62
ATOM     62  C   UNL A   1      38.893  30.275  31.091  1.00  0.00    -0.014 A 
ATOM     63  C   UNL A   1      38.927  30.141  32.487  1.00  0.00     0.009 A 
ATOM     64  C   UNL A   1      37.727  30.769  30.483  1.00  0.00     0.009 A 
ATOM     65  C   UNL A   1      37.807  30.472  33.255  1.00  0.00     0.001 A 
ATOM     66  C   UNL A   1      36.620  31.123  31.255  1.00  0.00     0.001 A 
ATOM     67  C   UNL A   1      36.657  30.968  32.639  1.00  0.00     0.000 A 
ENDBRANCH  48  62
BRANCH  49  68
ATOM     68  C   UNL A   1      46.849  27.584  25.699  1.00  0.00    -0.014 A 
ATOM     69  C   UNL A   1      48.013  27.081  26.300  1.00  0.00     0.009 A 
ATOM     70  C   UNL A   1      46.834  27.770  24.307  1.00  0.00     0.009 A 
ATOM     71  C   UNL A   1      49.146  26.807  25.528  1.00  0.00     0.001 A 
ATOM     72  C   UNL A   1      47.954  27.460  23.534  1.00  0.00     0.001 A 
ATOM     73  C   UNL A   1      49.114  26.994  24.148  1.00  0.00     0.000 A 
ENDBRANCH  49  68
BRANCH  61  74
ATOM     74  C   UNL A   1      44.922  33.495  28.809  1.00  0.00    -0.014 A 
ATOM     75  C   UNL A   1      45.811  33.769  29.859  1.00  0.00     0.009 A 
ATOM     76  C   UNL A   1      44.684  34.481  27.840  1.00  0.00     0.009 A 
ATOM     77  C   UNL A   1      46.426  35.019  29.951  1.00  0.00     0.001 A 
ATOM     78  C   UNL A   1      45.321  35.720  27.920  1.00  0.00     0.001 A 
ATOM     79  C   UNL A   1      46.185  35.990  28.980  1.00  0.00     0.000 A 
ENDBRANCH  61  74
ENDBRANCH  35  36
ENDBRANCH  28  30
ENDBRANCH  27  28
ENDBRANCH  26  27
ENDBRANCH   1  26
TORSDOF 16
ENDMDL
MODEL 2
REMARK VINA RESULT:     -11.5      3.682      9.086
REMARK SMILES CC(=O)N1CCc2cc(S(=O)(=O)N[C@@H](C(=O)OCCOC(=O)c3ccc(-c4c5nc(c(-c6ccccc6)c6ccc([nH]6)c(-c6ccccc6)c6nc(c(-c7ccccc7)c7ccc4[nH]7)C=C6)C=C5)cc3)C(C)C)ccc21
REMARK SMILES IDX 18 1 17 2 15 3 16 4 14 5 13 6 10 8 11 9 12 10 9 11 4 12 5 13
REMARK SMILES IDX 76 14 6 15 7 16 75 17 8 18 74 19 2 20 1 21 3 22 71 23 72 24
REMARK SMILES IDX 73 25 19 26 20 27 21 28 22 29 23 30 24 31 70 32 25 33 69 34
REMARK SMILES IDX 26 35 27 36 28 37 63 38 29 39 68 40 62 41 64 42 30 43 67 44
REMARK SMILES IDX 61 45 60 46 31 48 53 49 38 50 52 51 39 52 42 53 51 54 65 55
REMARK SMILES IDX 40 56 41 57 50 59 66 60 43 61 32 62 33 63 37 64 34 65 36 66
REMARK SMILES IDX 35 67 54 68 55 69 59 70 56 71 58 72 57 73 44 74 45 75 49 76
REMARK SMILES IDX 46 77 48 78 47 79
REMARK H PARENT 13 7 64 47 42 58
REMARK Flexibility Score: inf
ROOT
ATOM      1  C   UNL A   1      31.376  29.236  24.940  1.00  0.00     0.274 C 
ENDROOT
BRANCH   1   2
ATOM      2  O   UNL A   1      30.390  29.474  23.917  1.00  0.00    -0.461 OA
BRANCH   2   3
ATOM      3  C   UNL A   1      30.167  28.511  22.990  1.00  0.00     0.324 C 
ATOM      4  O   UNL A   1      29.544  28.707  21.955  1.00  0.00    -0.250 OA
BRANCH   3   5
ATOM      5  C   UNL A   1      30.763  27.153  23.420  1.00  0.00     0.182 C 
BRANCH   5   6
ATOM      6  N   UNL A   1      31.491  26.456  22.303  1.00  0.00    -0.197 NA
ATOM      7  H   UNL A   1      30.975  25.594  22.125  1.00  0.00     0.142 HD
BRANCH   6   8
ATOM      8  S   UNL A   1      33.119  26.012  22.403  1.00  0.00     0.241 S 
ATOM      9  O   UNL A   1      33.711  26.776  23.478  1.00  0.00    -0.207 OA
ATOM     10  O   UNL A   1      33.653  26.091  21.062  1.00  0.00    -0.207 OA
BRANCH   8  11
ATOM     11  C   UNL A   1      33.175  24.304  22.877  1.00  0.00     0.082 A 
ATOM     12  N   UNL A   1      33.414  20.395  24.313  1.00  0.00    -0.312 N 
ATOM     13  C   UNL A   1      34.702  20.435  25.022  1.00  0.00     0.130 C 
ATOM     14  C   UNL A   1      33.185  21.652  23.725  1.00  0.00     0.047 A 
ATOM     15  C   UNL A   1      35.236  21.865  24.949  1.00  0.00     0.059 C 
ATOM     16  C   UNL A   1      34.207  22.533  24.096  1.00  0.00    -0.021 A 
ATOM     17  C   UNL A   1      32.166  22.091  22.895  1.00  0.00     0.028 A 
ATOM     18  C   UNL A   1      34.209  23.866  23.705  1.00  0.00     0.027 A 
ATOM     19  C   UNL A   1      32.190  23.413  22.434  1.00  0.00     0.024 A 
BRANCH  12  20
ATOM     20  C   UNL A   1      32.690  19.223  24.319  1.00  0.00     0.223 C 
ATOM     21  C   UNL A   1      32.529  18.437  23.049  1.00  0.00     0.115 C 
ATOM     22  O   UNL A   1      32.163  18.801  25.355  1.00  0.00    -0.275 OA
ENDBRANCH  12  20
ENDBRANCH   8  11
ENDBRANCH   6   8
ENDBRANCH   5   6
BRANCH   5  23
ATOM     23  C   UNL A   1      29.695  26.112  23.916  1.00  0.00     0.012 C 
ATOM     24  C   UNL A   1      30.030  25.505  25.290  1.00  0.00     0.009 C 
ATOM     25  C   UNL A   1      28.261  26.651  24.006  1.00  0.00     0.009 C 
ENDBRANCH   5  23
ENDBRANCH   3   5
ENDBRANCH   2   3
ENDBRANCH   1   2
BRANCH   1  26
ATOM     26  C   UNL A   1      31.531  30.482  25.818  1.00  0.00     0.275 C 
BRANCH  26  27
ATOM     27  O   UNL A   1      32.606  30.330  26.770  1.00  0.00    -0.458 OA
BRANCH  27  28
ATOM     28  C   UNL A   1      33.184  31.484  27.164  1.00  0.00     0.338 C 
ATOM     29  O   UNL A   1      32.647  32.568  27.334  1.00  0.00    -0.246 OA
BRANCH  28  30
ATOM     30  C   UNL A   1      34.560  31.233  27.615  1.00  0.00     0.060 A 
ATOM     31  C   UNL A   1      34.885  29.903  27.851  1.00  0.00     0.016 A 
ATOM     32  C   UNL A   1      35.447  32.241  27.978  1.00  0.00     0.016 A 
ATOM     33  C   UNL A   1      36.009  29.564  28.586  1.00  0.00     0.010 A 
ATOM     34  C   UNL A   1      36.649  31.889  28.614  1.00  0.00     0.010 A 
ATOM     35  C   UNL A   1      36.923  30.549  28.962  1.00  0.00    -0.014 A 
BRANCH  35  36
ATOM     36  C   UNL A   1      38.129  30.168  29.751  1.00  0.00     0.031 A 
ATOM     37  C   UNL A   1      39.222  29.356  29.109  1.00  0.00     0.074 A 
ATOM     38  C   UNL A   1      38.281  30.595  31.022  1.00  0.00     0.049 A 
ATOM     39  N   UNL A   1      40.242  28.755  29.667  1.00  0.00    -0.248 NA
ATOM     40  C   UNL A   1      39.161  29.199  27.646  1.00  0.00     0.031 C 
ATOM     41  C   UNL A   1      37.362  31.477  31.747  1.00  0.00     0.029 A 
ATOM     42  N   UNL A   1      39.281  30.349  31.933  1.00  0.00    -0.354 N 
ATOM     43  C   UNL A   1      40.914  28.109  28.636  1.00  0.00     0.074 A 
ATOM     44  C   UNL A   1      40.185  28.388  27.417  1.00  0.00     0.031 C 
ATOM     45  C   UNL A   1      37.854  31.723  32.969  1.00  0.00     0.029 A 
ATOM     46  C   UNL A   1      39.062  30.931  33.159  1.00  0.00     0.049 A 
ATOM     47  H   UNL A   1      40.077  29.808  31.727  1.00  0.00     0.167 HD
ATOM     48  C   UNL A   1      42.034  27.351  28.701  1.00  0.00     0.031 A 
ATOM     49  C   UNL A   1      39.717  30.797  34.327  1.00  0.00     0.031 A 
ATOM     50  C   UNL A   1      42.770  27.098  29.910  1.00  0.00     0.049 A 
ATOM     51  C   UNL A   1      40.894  29.864  34.396  1.00  0.00     0.074 A 
ATOM     52  C   UNL A   1      43.886  26.300  30.093  1.00  0.00     0.029 A 
ATOM     53  N   UNL A   1      42.476  27.662  31.141  1.00  0.00    -0.354 N 
ATOM     54  N   UNL A   1      41.459  29.175  33.436  1.00  0.00    -0.248 NA
ATOM     55  C   UNL A   1      41.510  29.677  35.717  1.00  0.00     0.031 C 
ATOM     56  C   UNL A   1      44.247  26.354  31.443  1.00  0.00     0.029 A 
ATOM     57  C   UNL A   1      43.386  27.227  32.089  1.00  0.00     0.049 A 
ATOM     58  H   UNL A   1      41.729  28.280  31.316  1.00  0.00     0.167 HD
ATOM     59  C   UNL A   1      42.512  28.493  34.031  1.00  0.00     0.074 A 
ATOM     60  C   UNL A   1      42.519  28.866  35.429  1.00  0.00     0.031 C 
ATOM     61  C   UNL A   1      43.392  27.629  33.470  1.00  0.00     0.031 A 
BRANCH  48  62
ATOM     62  C   UNL A   1      42.511  26.702  27.432  1.00  0.00    -0.014 A 
ATOM     63  C   UNL A   1      43.431  27.338  26.584  1.00  0.00     0.009 A 
ATOM     64  C   UNL A   1      42.065  25.411  27.104  1.00  0.00     0.009 A 
ATOM     65  C   UNL A   1      43.873  26.704  25.421  1.00  0.00     0.001 A 
ATOM     66  C   UNL A   1      42.529  24.769  25.956  1.00  0.00     0.001 A 
ATOM     67  C   UNL A   1      43.427  25.418  25.111  1.00  0.00     0.000 A 
ENDBRANCH  48  62
BRANCH  49  68
ATOM     68  C   UNL A   1      39.227  31.483  35.554  1.00  0.00    -0.014 A 
ATOM     69  C   UNL A   1      39.801  32.690  35.981  1.00  0.00     0.009 A 
ATOM     70  C   UNL A   1      38.209  30.906  36.331  1.00  0.00     0.009 A 
ATOM     71  C   UNL A   1      39.389  33.284  37.178  1.00  0.00     0.001 A 
ATOM     72  C   UNL A   1      37.774  31.522  37.506  1.00  0.00     0.001 A 
ATOM     73  C   UNL A   1      38.375  32.702  37.936  1.00  0.00     0.000 A 
ENDBRANCH  49  68
BRANCH  61  74
ATOM     74  C   UNL A   1      44.474  27.084  34.355  1.00  0.00    -0.014 A 
ATOM     75  C   UNL A   1      44.311  25.877  35.051  1.00  0.00     0.009 A 
ATOM     76  C   UNL A   1      45.691  27.774  34.461  1.00  0.00     0.009 A 
ATOM     77  C   UNL A   1      45.337  25.388  35.861  1.00  0.00     0.001 A 
ATOM     78  C   UNL A   1      46.725  27.269  35.250  1.00  0.00     0.001 A 
ATOM     79  C   UNL A   1      46.544  26.081  35.956  1.00  0.00     0.000 A 
ENDBRANCH  61  74
ENDBRANCH  35  36
ENDBRANCH  28  30
ENDBRANCH  27  28
ENDBRANCH  26  27
ENDBRANCH   1  26
TORSDOF 16
ENDMDL
MODEL 3
REMARK VINA RESULT:     -10.9      3.819      8.295
REMARK SMILES CC(=O)N1CCc2cc(S(=O)(=O)N[C@@H](C(=O)OCCOC(=O)c3ccc(-c4c5nc(c(-c6ccccc6)c6ccc([nH]6)c(-c6ccccc6)c6nc(c(-c7ccccc7)c7ccc4[nH]7)C=C6)C=C5)cc3)C(C)C)ccc21
REMARK SMILES IDX 18 1 17 2 15 3 16 4 14 5 13 6 10 8 11 9 12 10 9 11 4 12 5 13
REMARK SMILES IDX 76 14 6 15 7 16 75 17 8 18 74 19 2 20 1 21 3 22 71 23 72 24
REMARK SMILES IDX 73 25 19 26 20 27 21 28 22 29 23 30 24 31 70 32 25 33 69 34
REMARK SMILES IDX 26 35 27 36 28 37 63 38 29 39 68 40 62 41 64 42 30 43 67 44
REMARK SMILES IDX 61 45 60 46 31 48 53 49 38 50 52 51 39 52 42 53 51 54 65 55
REMARK SMILES IDX 40 56 41 57 50 59 66 60 43 61 32 62 33 63 37 64 34 65 36 66
REMARK SMILES IDX 35 67 54 68 55 69 59 70 56 71 58 72 57 73 44 74 45 75 49 76
REMARK SMILES IDX 46 77 48 78 47 79
REMARK H PARENT 13 7 64 47 42 58
REMARK Flexibility Score: inf
ROOT
ATOM      1  C   UNL A   1      31.475  28.138  26.868  1.00  0.00     0.274 C 
ENDROOT
BRANCH   1   2
ATOM      2  O   UNL A   1      32.472  27.158  26.521  1.00  0.00    -0.461 OA
BRANCH   2   3
ATOM      3  C   UNL A   1      32.075  25.891  26.252  1.00  0.00     0.324 C 
ATOM      4  O   UNL A   1      31.004  25.429  26.624  1.00  0.00    -0.250 OA
BRANCH   3   5
ATOM      5  C   UNL A   1      33.146  25.111  25.459  1.00  0.00     0.182 C 
BRANCH   5   6
ATOM      6  N   UNL A   1      32.934  25.177  23.972  1.00  0.00    -0.197 NA
ATOM      7  H   UNL A   1      33.461  24.398  23.577  1.00  0.00     0.142 HD
BRANCH   6   8
ATOM      8  S   UNL A   1      33.338  26.531  23.044  1.00  0.00     0.241 S 
ATOM      9  O   UNL A   1      33.737  26.058  21.738  1.00  0.00    -0.207 OA
ATOM     10  O   UNL A   1      34.239  27.329  23.845  1.00  0.00    -0.207 OA
BRANCH   8  11
ATOM     11  C   UNL A   1      31.860  27.488  22.830  1.00  0.00     0.082 A 
ATOM     12  N   UNL A   1      28.281  29.622  22.645  1.00  0.00    -0.312 N 
ATOM     13  C   UNL A   1      27.326  28.609  23.123  1.00  0.00     0.130 C 
ATOM     14  C   UNL A   1      29.564  29.048  22.610  1.00  0.00     0.047 A 
ATOM     15  C   UNL A   1      28.118  27.362  23.514  1.00  0.00     0.059 C 
ATOM     16  C   UNL A   1      29.509  27.751  23.133  1.00  0.00    -0.021 A 
ATOM     17  C   UNL A   1      30.772  29.559  22.163  1.00  0.00     0.028 A 
ATOM     18  C   UNL A   1      30.646  26.965  23.274  1.00  0.00     0.027 A 
ATOM     19  C   UNL A   1      31.916  28.753  22.233  1.00  0.00     0.024 A 
BRANCH  12  20
ATOM     20  C   UNL A   1      27.810  30.874  22.315  1.00  0.00     0.223 C 
ATOM     21  C   UNL A   1      27.625  31.908  23.388  1.00  0.00     0.115 C 
ATOM     22  O   UNL A   1      27.532  31.166  21.147  1.00  0.00    -0.275 OA
ENDBRANCH  12  20
ENDBRANCH   8  11
ENDBRANCH   6   8
ENDBRANCH   5   6
BRANCH   5  23
ATOM     23  C   UNL A   1      33.199  23.576  25.792  1.00  0.00     0.012 C 
ATOM     24  C   UNL A   1      33.961  22.752  24.740  1.00  0.00     0.009 C 
ATOM     25  C   UNL A   1      33.810  23.231  27.156  1.00  0.00     0.009 C 
ENDBRANCH   5  23
ENDBRANCH   3   5
ENDBRANCH   2   3
ENDBRANCH   1   2
BRANCH   1  26
ATOM     26  C   UNL A   1      31.623  29.375  25.976  1.00  0.00     0.275 C 
BRANCH  26  27
ATOM     27  O   UNL A   1      32.982  29.862  25.966  1.00  0.00    -0.458 OA
BRANCH  27  28
ATOM     28  C   UNL A   1      33.229  30.876  26.823  1.00  0.00     0.338 C 
ATOM     29  O   UNL A   1      32.424  31.660  27.304  1.00  0.00    -0.246 OA
BRANCH  28  30
ATOM     30  C   UNL A   1      34.608  30.793  27.324  1.00  0.00     0.060 A 
ATOM     31  C   UNL A   1      35.081  29.511  27.578  1.00  0.00     0.016 A 
ATOM     32  C   UNL A   1      35.353  31.899  27.714  1.00  0.00     0.016 A 
ATOM     33  C   UNL A   1      36.209  29.309  28.355  1.00  0.00     0.010 A 
ATOM     34  C   UNL A   1      36.565  31.694  28.395  1.00  0.00     0.010 A 
ATOM     35  C   UNL A   1      36.985  30.397  28.759  1.00  0.00    -0.014 A 
BRANCH  35  36
ATOM     36  C   UNL A   1      38.198  30.164  29.593  1.00  0.00     0.031 A 
ATOM     37  C   UNL A   1      39.370  29.412  29.022  1.00  0.00     0.074 A 
ATOM     38  C   UNL A   1      38.282  30.672  30.840  1.00  0.00     0.049 A 
ATOM     39  N   UNL A   1      40.422  28.931  29.635  1.00  0.00    -0.248 NA
ATOM     40  C   UNL A   1      39.359  29.168  27.570  1.00  0.00     0.031 C 
ATOM     41  C   UNL A   1      37.275  31.513  31.494  1.00  0.00     0.029 A 
ATOM     42  N   UNL A   1      39.276  30.563  31.784  1.00  0.00    -0.354 N 
ATOM     43  C   UNL A   1      41.171  28.287  28.657  1.00  0.00     0.074 A 
ATOM     44  C   UNL A   1      40.452  28.434  27.409  1.00  0.00     0.031 C 
ATOM     45  C   UNL A   1      37.714  31.869  32.710  1.00  0.00     0.029 A 
ATOM     46  C   UNL A   1      38.979  31.193  32.970  1.00  0.00     0.049 A 
ATOM     47  H   UNL A   1      40.119  30.080  31.626  1.00  0.00     0.167 HD
ATOM     48  C   UNL A   1      42.347  27.631  28.788  1.00  0.00     0.031 A 
ATOM     49  C   UNL A   1      39.613  31.180  34.157  1.00  0.00     0.031 A 
ATOM     50  C   UNL A   1      43.072  27.509  30.025  1.00  0.00     0.049 A 
ATOM     51  C   UNL A   1      40.861  30.355  34.304  1.00  0.00     0.074 A 
ATOM     52  C   UNL A   1      44.245  26.819  30.277  1.00  0.00     0.029 A 
ATOM     53  N   UNL A   1      42.701  28.114  31.215  1.00  0.00    -0.354 N 
ATOM     54  N   UNL A   1      41.505  29.663  33.397  1.00  0.00    -0.248 NA
ATOM     55  C   UNL A   1      41.457  30.294  35.645  1.00  0.00     0.031 C 
ATOM     56  C   UNL A   1      44.566  26.978  31.628  1.00  0.00     0.029 A 
ATOM     57  C   UNL A   1      43.620  27.811  32.205  1.00  0.00     0.049 A 
ATOM     58  H   UNL A   1      41.902  28.676  31.339  1.00  0.00     0.167 HD
ATOM     59  C   UNL A   1      42.596  29.106  34.051  1.00  0.00     0.074 A 
ATOM     60  C   UNL A   1      42.537  29.556  35.426  1.00  0.00     0.031 C 
ATOM     61  C   UNL A   1      43.558  28.289  33.559  1.00  0.00     0.031 A 
BRANCH  48  62
ATOM     62  C   UNL A   1      42.909  26.953  27.569  1.00  0.00    -0.014 A 
ATOM     63  C   UNL A   1      43.815  27.606  26.720  1.00  0.00     0.009 A 
ATOM     64  C   UNL A   1      42.556  25.622  27.293  1.00  0.00     0.009 A 
ATOM     65  C   UNL A   1      44.337  26.947  25.605  1.00  0.00     0.001 A 
ATOM     66  C   UNL A   1      43.100  24.958  26.193  1.00  0.00     0.001 A 
ATOM     67  C   UNL A   1      43.984  25.622  25.345  1.00  0.00     0.000 A 
ENDBRANCH  48  62
BRANCH  49  68
ATOM     68  C   UNL A   1      39.037  31.891  35.332  1.00  0.00    -0.014 A 
ATOM     69  C   UNL A   1      39.345  33.237  35.581  1.00  0.00     0.009 A 
ATOM     70  C   UNL A   1      38.210  31.208  36.238  1.00  0.00     0.009 A 
ATOM     71  C   UNL A   1      38.865  33.871  36.730  1.00  0.00     0.001 A 
ATOM     72  C   UNL A   1      37.701  31.855  37.365  1.00  0.00     0.001 A 
ATOM     73  C   UNL A   1      38.042  33.181  37.618  1.00  0.00     0.000 A 
ENDBRANCH  49  68
BRANCH  61  74
ATOM     74  C   UNL A   1      44.659  27.887  34.497  1.00  0.00    -0.014 A 
ATOM     75  C   UNL A   1      45.840  28.636  34.601  1.00  0.00     0.009 A 
ATOM     76  C   UNL A   1      44.490  26.760  35.314  1.00  0.00     0.009 A 
ATOM     77  C   UNL A   1      46.845  28.244  35.487  1.00  0.00     0.001 A 
ATOM     78  C   UNL A   1      45.485  26.386  36.219  1.00  0.00     0.001 A 
ATOM     79  C   UNL A   1      46.665  27.123  36.298  1.00  0.00     0.000 A 
ENDBRANCH  61  74
ENDBRANCH  35  36
ENDBRANCH  28  30
ENDBRANCH  27  28
ENDBRANCH  26  27
ENDBRANCH   1  26
TORSDOF 16
ENDMDL
