MODEL 1
REMARK VINA RESULT:     -11.4      0.000      0.000
REMARK SMILES Cc1cc(F)c([C@H](O)[C@H]2CCCC[C@@H]2C(=O)OCCOC(=O)c2ccc(-c3c4nc(c(-c5ccccc5)c5ccc([nH]5)c(-c5ccccc5)c5nc(c(-c6ccccc6)c6ccc3[nH]6)C=C5)C=C4)cc2)cc1F
REMARK SMILES IDX 18 1 17 2 15 3 16 4 14 5 9 6 10 7 11 8 13 9 12 10 7 11 6 12
REMARK SMILES IDX 1 13 2 14 3 15 72 16 4 17 71 18 73 19 5 20 8 21 19 23 20 24
REMARK SMILES IDX 21 25 22 26 23 27 24 28 70 29 25 30 69 31 26 32 27 33 28 34
REMARK SMILES IDX 63 35 29 36 68 37 62 38 64 39 30 40 67 41 61 42 60 43 31 45
REMARK SMILES IDX 53 46 38 47 52 48 39 49 42 50 51 51 65 52 40 53 41 54 50 56
REMARK SMILES IDX 66 57 43 58 32 59 33 60 37 61 34 62 36 63 35 64 54 65 55 66
REMARK SMILES IDX 59 67 56 68 58 69 57 70 44 71 45 72 49 73 46 74 48 75 47 76
REMARK H PARENT 8 22 64 44 42 55
REMARK Flexibility Score: inf
ROOT
ATOM      1  C   UNL A   1      32.244  30.584  26.799  1.00  0.00     0.274 C 
ENDROOT
BRANCH   1   2
ATOM      2  O   UNL A   1      32.692  29.301  27.271  1.00  0.00    -0.462 OA
BRANCH   2   3
ATOM      3  C   UNL A   1      31.865  28.250  27.056  1.00  0.00     0.309 C 
ATOM      4  O   UNL A   1      31.013  27.861  27.847  1.00  0.00    -0.252 OA
BRANCH   3   5
ATOM      5  C   UNL A   1      32.008  27.675  25.648  1.00  0.00     0.105 C 
ATOM      6  C   UNL A   1      31.002  26.515  25.447  1.00  0.00     0.037 C 
ATOM      7  C   UNL A   1      31.561  25.192  26.019  1.00  0.00     0.007 C 
ATOM      8  C   UNL A   1      32.967  24.863  25.538  1.00  0.00     0.000 C 
ATOM      9  C   UNL A   1      33.447  27.308  25.245  1.00  0.00     0.016 C 
ATOM     10  C   UNL A   1      33.927  25.998  25.860  1.00  0.00     0.001 C 
BRANCH   6  11
ATOM     11  C   UNL A   1      30.539  26.410  23.964  1.00  0.00     0.151 C 
BRANCH  11  12
ATOM     12  C   UNL A   1      29.914  27.664  23.375  1.00  0.00     0.019 A 
ATOM     13  C   UNL A   1      28.090  31.006  21.291  1.00  0.00     0.047 C 
ATOM     14  C   UNL A   1      28.740  29.863  22.009  1.00  0.00    -0.012 A 
ATOM     15  C   UNL A   1      30.111  29.613  21.904  1.00  0.00     0.046 A 
ATOM     16  C   UNL A   1      27.976  29.024  22.822  1.00  0.00     0.126 A 
ATOM     17  C   UNL A   1      30.679  28.525  22.575  1.00  0.00     0.129 A 
ATOM     18  C   UNL A   1      28.543  27.941  23.494  1.00  0.00     0.049 A 
ATOM     19  F   UNL A   1      26.668  29.266  22.984  1.00  0.00    -0.207 F 
ATOM     20  F   UNL A   1      31.988  28.291  22.408  1.00  0.00    -0.207 F 
ENDBRANCH  11  12
BRANCH  11  21
ATOM     21  O   UNL A   1      29.559  25.372  23.863  1.00  0.00    -0.388 OA
ATOM     22  H   UNL A   1      29.923  24.547  24.221  1.00  0.00     0.211 HD
ENDBRANCH  11  21
ENDBRANCH   6  11
ENDBRANCH   3   5
ENDBRANCH   2   3
ENDBRANCH   1   2
BRANCH   1  23
ATOM     23  C   UNL A   1      33.151  31.655  27.403  1.00  0.00     0.275 C 
BRANCH  23  24
ATOM     24  O   UNL A   1      32.421  32.894  27.502  1.00  0.00    -0.458 OA
BRANCH  24  25
ATOM     25  C   UNL A   1      33.002  33.892  28.203  1.00  0.00     0.338 C 
ATOM     26  O   UNL A   1      32.558  35.010  28.428  1.00  0.00    -0.246 OA
BRANCH  25  27
ATOM     27  C   UNL A   1      34.318  33.432  28.671  1.00  0.00     0.060 A 
ATOM     28  C   UNL A   1      34.414  32.682  29.843  1.00  0.00     0.016 A 
ATOM     29  C   UNL A   1      35.460  33.706  27.920  1.00  0.00     0.016 A 
ATOM     30  C   UNL A   1      35.670  32.244  30.283  1.00  0.00     0.010 A 
ATOM     31  C   UNL A   1      36.693  33.195  28.324  1.00  0.00     0.010 A 
ATOM     32  C   UNL A   1      36.829  32.474  29.518  1.00  0.00    -0.014 A 
BRANCH  32  33
ATOM     33  C   UNL A   1      38.164  31.940  29.933  1.00  0.00     0.031 A 
ATOM     34  C   UNL A   1      39.053  32.685  30.906  1.00  0.00     0.074 A 
ATOM     35  C   UNL A   1      38.647  30.821  29.352  1.00  0.00     0.049 A 
ATOM     36  N   UNL A   1      40.252  32.366  31.337  1.00  0.00    -0.248 NA
ATOM     37  C   UNL A   1      38.574  33.982  31.409  1.00  0.00     0.031 C 
ATOM     38  C   UNL A   1      37.983  30.063  28.289  1.00  0.00     0.029 A 
ATOM     39  N   UNL A   1      39.810  30.122  29.576  1.00  0.00    -0.354 N 
ATOM     40  C   UNL A   1      40.683  33.442  32.106  1.00  0.00     0.074 A 
ATOM     41  C   UNL A   1      39.645  34.446  32.035  1.00  0.00     0.031 C 
ATOM     42  C   UNL A   1      38.703  28.965  28.016  1.00  0.00     0.029 A 
ATOM     43  C   UNL A   1      39.899  28.955  28.854  1.00  0.00     0.049 A 
ATOM     44  H   UNL A   1      40.512  30.427  30.196  1.00  0.00     0.167 HD
ATOM     45  C   UNL A   1      41.818  33.576  32.834  1.00  0.00     0.031 A 
ATOM     46  C   UNL A   1      40.816  27.968  28.876  1.00  0.00     0.031 A 
ATOM     47  C   UNL A   1      42.816  32.547  32.977  1.00  0.00     0.049 A 
ATOM     48  C   UNL A   1      41.992  28.058  29.807  1.00  0.00     0.074 A 
ATOM     49  C   UNL A   1      43.927  32.541  33.804  1.00  0.00     0.029 A 
ATOM     50  N   UNL A   1      42.816  31.342  32.297  1.00  0.00    -0.354 N 
ATOM     51  N   UNL A   1      42.324  29.031  30.619  1.00  0.00    -0.248 NA
ATOM     52  C   UNL A   1      42.908  26.908  29.842  1.00  0.00     0.031 C 
ATOM     53  C   UNL A   1      44.622  31.347  33.595  1.00  0.00     0.029 A 
ATOM     54  C   UNL A   1      43.910  30.586  32.683  1.00  0.00     0.049 A 
ATOM     55  H   UNL A   1      42.140  31.064  31.637  1.00  0.00     0.167 HD
ATOM     56  C   UNL A   1      43.471  28.603  31.276  1.00  0.00     0.074 A 
ATOM     57  C   UNL A   1      43.769  27.275  30.782  1.00  0.00     0.031 C 
ATOM     58  C   UNL A   1      44.206  29.261  32.204  1.00  0.00     0.031 A 
BRANCH  45  59
ATOM     59  C   UNL A   1      42.039  34.864  33.588  1.00  0.00    -0.014 A 
ATOM     60  C   UNL A   1      42.826  35.881  33.024  1.00  0.00     0.009 A 
ATOM     61  C   UNL A   1      41.557  35.032  34.897  1.00  0.00     0.009 A 
ATOM     62  C   UNL A   1      43.128  37.033  33.754  1.00  0.00     0.001 A 
ATOM     63  C   UNL A   1      41.827  36.202  35.609  1.00  0.00     0.001 A 
ATOM     64  C   UNL A   1      42.622  37.197  35.042  1.00  0.00     0.000 A 
ENDBRANCH  45  59
BRANCH  46  65
ATOM     65  C   UNL A   1      40.590  26.752  28.053  1.00  0.00    -0.014 A 
ATOM     66  C   UNL A   1      39.828  25.678  28.535  1.00  0.00     0.009 A 
ATOM     67  C   UNL A   1      41.197  26.642  26.791  1.00  0.00     0.009 A 
ATOM     68  C   UNL A   1      39.694  24.510  27.779  1.00  0.00     0.001 A 
ATOM     69  C   UNL A   1      41.038  25.485  26.026  1.00  0.00     0.001 A 
ATOM     70  C   UNL A   1      40.295  24.417  26.524  1.00  0.00     0.000 A 
ENDBRANCH  46  65
BRANCH  58  71
ATOM     71  C   UNL A   1      45.406  28.568  32.787  1.00  0.00    -0.014 A 
ATOM     72  C   UNL A   1      46.644  28.655  32.130  1.00  0.00     0.009 A 
ATOM     73  C   UNL A   1      45.290  27.735  33.909  1.00  0.00     0.009 A 
ATOM     74  C   UNL A   1      47.738  27.911  32.574  1.00  0.00     0.001 A 
ATOM     75  C   UNL A   1      46.393  27.011  34.368  1.00  0.00     0.001 A 
ATOM     76  C   UNL A   1      47.612  27.091  33.695  1.00  0.00     0.000 A 
ENDBRANCH  58  71
ENDBRANCH  32  33
ENDBRANCH  25  27
ENDBRANCH  24  25
ENDBRANCH  23  24
ENDBRANCH   1  23
TORSDOF 14
ENDMDL
MODEL 2
REMARK VINA RESULT:     -11.3      3.948      8.225
REMARK SMILES Cc1cc(F)c([C@H](O)[C@H]2CCCC[C@@H]2C(=O)OCCOC(=O)c2ccc(-c3c4nc(c(-c5ccccc5)c5ccc([nH]5)c(-c5ccccc5)c5nc(c(-c6ccccc6)c6ccc3[nH]6)C=C5)C=C4)cc2)cc1F
REMARK SMILES IDX 18 1 17 2 15 3 16 4 14 5 9 6 10 7 11 8 13 9 12 10 7 11 6 12
REMARK SMILES IDX 1 13 2 14 3 15 72 16 4 17 71 18 73 19 5 20 8 21 19 23 20 24
REMARK SMILES IDX 21 25 22 26 23 27 24 28 70 29 25 30 69 31 26 32 27 33 28 34
REMARK SMILES IDX 63 35 29 36 68 37 62 38 64 39 30 40 67 41 61 42 60 43 31 45
REMARK SMILES IDX 53 46 38 47 52 48 39 49 42 50 51 51 65 52 40 53 41 54 50 56
REMARK SMILES IDX 66 57 43 58 32 59 33 60 37 61 34 62 36 63 35 64 54 65 55 66
REMARK SMILES IDX 59 67 56 68 58 69 57 70 44 71 45 72 49 73 46 74 48 75 47 76
REMARK H PARENT 8 22 64 44 42 55
REMARK Flexibility Score: inf
ROOT
ATOM      1  C   UNL A   1      34.722  21.069  25.994  1.00  0.00     0.274 C 
ENDROOT
BRANCH   1   2
ATOM      2  O   UNL A   1      34.786  22.506  26.009  1.00  0.00    -0.462 OA
BRANCH   2   3
ATOM      3  C   UNL A   1      33.623  23.165  26.226  1.00  0.00     0.309 C 
ATOM      4  O   UNL A   1      32.915  23.023  27.218  1.00  0.00    -0.252 OA
BRANCH   3   5
ATOM      5  C   UNL A   1      33.345  24.224  25.160  1.00  0.00     0.105 C 
ATOM      6  C   UNL A   1      31.934  24.011  24.559  1.00  0.00     0.037 C 
ATOM      7  C   UNL A   1      31.960  22.935  23.451  1.00  0.00     0.007 C 
ATOM      8  C   UNL A   1      33.035  23.165  22.399  1.00  0.00     0.000 C 
ATOM      9  C   UNL A   1      34.444  24.366  24.093  1.00  0.00     0.016 C 
ATOM     10  C   UNL A   1      34.410  23.259  23.044  1.00  0.00     0.001 C 
BRANCH   6  11
ATOM     11  C   UNL A   1      31.295  25.358  24.110  1.00  0.00     0.151 C 
BRANCH  11  12
ATOM     12  C   UNL A   1      31.701  26.584  24.912  1.00  0.00     0.019 A 
ATOM     13  C   UNL A   1      32.519  30.315  26.974  1.00  0.00     0.047 C 
ATOM     14  C   UNL A   1      32.255  29.030  26.249  1.00  0.00    -0.012 A 
ATOM     15  C   UNL A   1      32.791  28.777  24.984  1.00  0.00     0.046 A 
ATOM     16  C   UNL A   1      31.470  28.041  26.844  1.00  0.00     0.126 A 
ATOM     17  C   UNL A   1      32.508  27.573  24.330  1.00  0.00     0.129 A 
ATOM     18  C   UNL A   1      31.191  26.839  26.194  1.00  0.00     0.049 A 
ATOM     19  F   UNL A   1      30.984  28.231  28.078  1.00  0.00    -0.207 F 
ATOM     20  F   UNL A   1      32.999  27.391  23.096  1.00  0.00    -0.207 F 
ENDBRANCH  11  12
BRANCH  11  21
ATOM     21  O   UNL A   1      29.872  25.248  24.214  1.00  0.00    -0.388 OA
ATOM     22  H   UNL A   1      29.461  25.580  23.400  1.00  0.00     0.211 HD
ENDBRANCH  11  21
ENDBRANCH   6  11
ENDBRANCH   3   5
ENDBRANCH   2   3
ENDBRANCH   1   2
BRANCH   1  23
ATOM     23  C   UNL A   1      35.846  20.554  25.096  1.00  0.00     0.275 C 
BRANCH  23  24
ATOM     24  O   UNL A   1      36.897  21.539  25.038  1.00  0.00    -0.458 OA
BRANCH  24  25
ATOM     25  C   UNL A   1      38.110  21.167  25.497  1.00  0.00     0.338 C 
ATOM     26  O   UNL A   1      38.586  20.040  25.538  1.00  0.00    -0.246 OA
BRANCH  25  27
ATOM     27  C   UNL A   1      38.815  22.363  25.982  1.00  0.00     0.060 A 
ATOM     28  C   UNL A   1      40.082  22.239  26.551  1.00  0.00     0.016 A 
ATOM     29  C   UNL A   1      38.236  23.622  25.832  1.00  0.00     0.016 A 
ATOM     30  C   UNL A   1      40.750  23.382  27.010  1.00  0.00     0.010 A 
ATOM     31  C   UNL A   1      38.944  24.760  26.217  1.00  0.00     0.010 A 
ATOM     32  C   UNL A   1      40.201  24.666  26.829  1.00  0.00    -0.014 A 
BRANCH  32  33
ATOM     33  C   UNL A   1      40.940  25.901  27.238  1.00  0.00     0.031 A 
ATOM     34  C   UNL A   1      42.296  26.246  26.661  1.00  0.00     0.074 A 
ATOM     35  C   UNL A   1      40.447  26.679  28.225  1.00  0.00     0.049 A 
ATOM     36  N   UNL A   1      43.075  27.266  26.942  1.00  0.00    -0.248 NA
ATOM     37  C   UNL A   1      42.887  25.301  25.701  1.00  0.00     0.031 C 
ATOM     38  C   UNL A   1      39.227  26.410  28.989  1.00  0.00     0.029 A 
ATOM     39  N   UNL A   1      40.910  27.862  28.754  1.00  0.00    -0.354 N 
ATOM     40  C   UNL A   1      44.258  27.050  26.241  1.00  0.00     0.074 A 
ATOM     41  C   UNL A   1      44.118  25.777  25.570  1.00  0.00     0.031 C 
ATOM     42  C   UNL A   1      38.993  27.434  29.822  1.00  0.00     0.029 A 
ATOM     43  C   UNL A   1      40.064  28.418  29.684  1.00  0.00     0.049 A 
ATOM     44  H   UNL A   1      41.766  28.272  28.491  1.00  0.00     0.167 HD
ATOM     45  C   UNL A   1      45.349  27.847  26.132  1.00  0.00     0.031 A 
ATOM     46  C   UNL A   1      40.114  29.598  30.335  1.00  0.00     0.031 A 
ATOM     47  C   UNL A   1      45.462  29.153  26.730  1.00  0.00     0.049 A 
ATOM     48  C   UNL A   1      41.255  30.543  30.084  1.00  0.00     0.074 A 
ATOM     49  C   UNL A   1      46.468  30.088  26.559  1.00  0.00     0.029 A 
ATOM     50  N   UNL A   1      44.535  29.714  27.590  1.00  0.00    -0.354 N 
ATOM     51  N   UNL A   1      42.309  30.375  29.324  1.00  0.00    -0.248 NA
ATOM     52  C   UNL A   1      41.205  31.847  30.762  1.00  0.00     0.031 C 
ATOM     53  C   UNL A   1      46.171  31.201  27.349  1.00  0.00     0.029 A 
ATOM     54  C   UNL A   1      44.949  30.982  27.962  1.00  0.00     0.049 A 
ATOM     55  H   UNL A   1      43.706  29.277  27.894  1.00  0.00     0.167 HD
ATOM     56  C   UNL A   1      43.034  31.556  29.415  1.00  0.00     0.074 A 
ATOM     57  C   UNL A   1      42.293  32.441  30.288  1.00  0.00     0.031 C 
ATOM     58  C   UNL A   1      44.211  31.870  28.822  1.00  0.00     0.031 A 
BRANCH  45  59
ATOM     59  C   UNL A   1      46.507  27.366  25.295  1.00  0.00    -0.014 A 
ATOM     60  C   UNL A   1      47.468  26.506  25.852  1.00  0.00     0.009 A 
ATOM     61  C   UNL A   1      46.708  27.844  23.989  1.00  0.00     0.009 A 
ATOM     62  C   UNL A   1      48.602  26.140  25.125  1.00  0.00     0.001 A 
ATOM     63  C   UNL A   1      47.823  27.444  23.249  1.00  0.00     0.001 A 
ATOM     64  C   UNL A   1      48.775  26.602  23.821  1.00  0.00     0.000 A 
ENDBRANCH  45  59
BRANCH  46  65
ATOM     65  C   UNL A   1      38.981  29.990  31.212  1.00  0.00    -0.014 A 
ATOM     66  C   UNL A   1      37.929  30.782  30.731  1.00  0.00     0.009 A 
ATOM     67  C   UNL A   1      38.986  29.614  32.565  1.00  0.00     0.009 A 
ATOM     68  C   UNL A   1      36.914  31.207  31.592  1.00  0.00     0.001 A 
ATOM     69  C   UNL A   1      37.955  30.018  33.416  1.00  0.00     0.001 A 
ATOM     70  C   UNL A   1      36.926  30.821  32.931  1.00  0.00     0.000 A 
ENDBRANCH  46  65
BRANCH  58  71
ATOM     71  C   UNL A   1      44.789  33.237  29.063  1.00  0.00    -0.014 A 
ATOM     72  C   UNL A   1      45.579  33.465  30.201  1.00  0.00     0.009 A 
ATOM     73  C   UNL A   1      44.459  34.322  28.238  1.00  0.00     0.009 A 
ATOM     74  C   UNL A   1      46.012  34.753  30.519  1.00  0.00     0.001 A 
ATOM     75  C   UNL A   1      44.914  35.606  28.544  1.00  0.00     0.001 A 
ATOM     76  C   UNL A   1      45.682  35.822  29.689  1.00  0.00     0.000 A 
ENDBRANCH  58  71
ENDBRANCH  32  33
ENDBRANCH  25  27
ENDBRANCH  24  25
ENDBRANCH  23  24
ENDBRANCH   1  23
TORSDOF 14
ENDMDL
MODEL 3
REMARK VINA RESULT:     -11.3      4.044      8.203
REMARK SMILES Cc1cc(F)c([C@H](O)[C@H]2CCCC[C@@H]2C(=O)OCCOC(=O)c2ccc(-c3c4nc(c(-c5ccccc5)c5ccc([nH]5)c(-c5ccccc5)c5nc(c(-c6ccccc6)c6ccc3[nH]6)C=C5)C=C4)cc2)cc1F
REMARK SMILES IDX 18 1 17 2 15 3 16 4 14 5 9 6 10 7 11 8 13 9 12 10 7 11 6 12
REMARK SMILES IDX 1 13 2 14 3 15 72 16 4 17 71 18 73 19 5 20 8 21 19 23 20 24
REMARK SMILES IDX 21 25 22 26 23 27 24 28 70 29 25 30 69 31 26 32 27 33 28 34
REMARK SMILES IDX 63 35 29 36 68 37 62 38 64 39 30 40 67 41 61 42 60 43 31 45
REMARK SMILES IDX 53 46 38 47 52 48 39 49 42 50 51 51 65 52 40 53 41 54 50 56
REMARK SMILES IDX 66 57 43 58 32 59 33 60 37 61 34 62 36 63 35 64 54 65 55 66
REMARK SMILES IDX 59 67 56 68 58 69 57 70 44 71 45 72 49 73 46 74 48 75 47 76
REMARK H PARENT 8 22 64 44 42 55
REMARK Flexibility Score: inf
ROOT
ATOM      1  C   UNL A   1      36.452  22.520  23.529  1.00  0.00     0.274 C 
ENDROOT
BRANCH   1   2
ATOM      2  O   UNL A   1      35.176  23.094  23.194  1.00  0.00    -0.462 OA
BRANCH   2   3
ATOM      3  C   UNL A   1      34.575  23.844  24.149  1.00  0.00     0.309 C 
ATOM      4  O   UNL A   1      35.149  24.672  24.848  1.00  0.00    -0.252 OA
BRANCH   3   5
ATOM      5  C   UNL A   1      33.060  23.651  24.174  1.00  0.00     0.105 C 
ATOM      6  C   UNL A   1      32.581  23.416  25.627  1.00  0.00     0.037 C 
ATOM      7  C   UNL A   1      32.753  21.935  26.035  1.00  0.00     0.007 C 
ATOM      8  C   UNL A   1      32.157  20.953  25.038  1.00  0.00     0.000 C 
ATOM      9  C   UNL A   1      32.528  22.601  23.183  1.00  0.00     0.016 C 
ATOM     10  C   UNL A   1      32.748  21.167  23.652  1.00  0.00     0.001 C 
BRANCH   6  11
ATOM     11  C   UNL A   1      31.141  23.965  25.851  1.00  0.00     0.151 C 
BRANCH  11  12
ATOM     12  C   UNL A   1      30.901  25.398  25.404  1.00  0.00     0.019 A 
ATOM     13  C   UNL A   1      30.547  29.414  23.798  1.00  0.00     0.047 C 
ATOM     14  C   UNL A   1      30.681  28.036  24.370  1.00  0.00    -0.012 A 
ATOM     15  C   UNL A   1      31.675  27.719  25.299  1.00  0.00     0.046 A 
ATOM     16  C   UNL A   1      29.788  27.032  23.991  1.00  0.00     0.126 A 
ATOM     17  C   UNL A   1      31.781  26.417  25.797  1.00  0.00     0.129 A 
ATOM     18  C   UNL A   1      29.890  25.734  24.491  1.00  0.00     0.049 A 
ATOM     19  F   UNL A   1      28.791  27.316  23.141  1.00  0.00    -0.207 F 
ATOM     20  F   UNL A   1      32.780  26.143  26.647  1.00  0.00    -0.207 F 
ENDBRANCH  11  12
BRANCH  11  21
ATOM     21  O   UNL A   1      30.842  23.912  27.250  1.00  0.00    -0.388 OA
ATOM     22  H   UNL A   1      31.314  23.165  27.653  1.00  0.00     0.211 HD
ENDBRANCH  11  21
ENDBRANCH   6  11
ENDBRANCH   3   5
ENDBRANCH   2   3
ENDBRANCH   1   2
BRANCH   1  23
ATOM     23  C   UNL A   1      36.210  21.345  24.474  1.00  0.00     0.275 C 
BRANCH  23  24
ATOM     24  O   UNL A   1      36.895  21.589  25.719  1.00  0.00    -0.458 OA
BRANCH  24  25
ATOM     25  C   UNL A   1      38.217  21.319  25.753  1.00  0.00     0.338 C 
ATOM     26  O   UNL A   1      38.777  20.265  25.480  1.00  0.00    -0.246 OA
BRANCH  25  27
ATOM     27  C   UNL A   1      38.930  22.525  26.200  1.00  0.00     0.060 A 
ATOM     28  C   UNL A   1      40.250  22.428  26.640  1.00  0.00     0.016 A 
ATOM     29  C   UNL A   1      38.303  23.768  26.140  1.00  0.00     0.016 A 
ATOM     30  C   UNL A   1      40.925  23.580  27.063  1.00  0.00     0.010 A 
ATOM     31  C   UNL A   1      39.011  24.919  26.485  1.00  0.00     0.010 A 
ATOM     32  C   UNL A   1      40.324  24.849  26.970  1.00  0.00    -0.014 A 
BRANCH  32  33
ATOM     33  C   UNL A   1      41.063  26.097  27.339  1.00  0.00     0.031 A 
ATOM     34  C   UNL A   1      42.418  26.425  26.749  1.00  0.00     0.074 A 
ATOM     35  C   UNL A   1      40.570  26.907  28.301  1.00  0.00     0.049 A 
ATOM     36  N   UNL A   1      43.197  27.454  26.997  1.00  0.00    -0.248 NA
ATOM     37  C   UNL A   1      43.009  25.451  25.819  1.00  0.00     0.031 C 
ATOM     38  C   UNL A   1      39.351  26.661  29.074  1.00  0.00     0.029 A 
ATOM     39  N   UNL A   1      41.033  28.106  28.791  1.00  0.00    -0.354 N 
ATOM     40  C   UNL A   1      44.378  27.216  26.302  1.00  0.00     0.074 A 
ATOM     41  C   UNL A   1      44.239  25.922  25.672  1.00  0.00     0.031 C 
ATOM     42  C   UNL A   1      39.118  27.711  29.875  1.00  0.00     0.029 A 
ATOM     43  C   UNL A   1      40.187  28.691  29.704  1.00  0.00     0.049 A 
ATOM     44  H   UNL A   1      41.888  28.508  28.515  1.00  0.00     0.167 HD
ATOM     45  C   UNL A   1      45.469  28.010  26.167  1.00  0.00     0.031 A 
ATOM     46  C   UNL A   1      40.238  29.890  30.317  1.00  0.00     0.031 A 
ATOM     47  C   UNL A   1      45.582  29.334  26.722  1.00  0.00     0.049 A 
ATOM     48  C   UNL A   1      41.378  30.828  30.035  1.00  0.00     0.074 A 
ATOM     49  C   UNL A   1      46.588  30.264  26.521  1.00  0.00     0.029 A 
ATOM     50  N   UNL A   1      44.655  29.922  27.566  1.00  0.00    -0.354 N 
ATOM     51  N   UNL A   1      42.431  30.636  29.280  1.00  0.00    -0.248 NA
ATOM     52  C   UNL A   1      41.328  32.152  30.672  1.00  0.00     0.031 C 
ATOM     53  C   UNL A   1      46.290  31.402  27.276  1.00  0.00     0.029 A 
ATOM     54  C   UNL A   1      45.070  31.202  27.897  1.00  0.00     0.049 A 
ATOM     55  H   UNL A   1      43.827  29.495  27.884  1.00  0.00     0.167 HD
ATOM     56  C   UNL A   1      43.155  31.821  29.332  1.00  0.00     0.074 A 
ATOM     57  C   UNL A   1      42.415  32.732  30.178  1.00  0.00     0.031 C 
ATOM     58  C   UNL A   1      44.332  32.116  28.729  1.00  0.00     0.031 A 
BRANCH  45  59
ATOM     59  C   UNL A   1      46.627  27.504  25.344  1.00  0.00    -0.014 A 
ATOM     60  C   UNL A   1      47.636  26.736  25.948  1.00  0.00     0.009 A 
ATOM     61  C   UNL A   1      46.777  27.872  23.997  1.00  0.00     0.009 A 
ATOM     62  C   UNL A   1      48.767  26.352  25.225  1.00  0.00     0.001 A 
ATOM     63  C   UNL A   1      47.890  27.453  23.265  1.00  0.00     0.001 A 
ATOM     64  C   UNL A   1      48.890  26.703  23.882  1.00  0.00     0.000 A 
ENDBRANCH  45  59
BRANCH  46  65
ATOM     65  C   UNL A   1      39.105  30.309  31.183  1.00  0.00    -0.014 A 
ATOM     66  C   UNL A   1      37.950  30.890  30.639  1.00  0.00     0.009 A 
ATOM     67  C   UNL A   1      39.210  30.181  32.578  1.00  0.00     0.009 A 
ATOM     68  C   UNL A   1      36.931  31.351  31.476  1.00  0.00     0.001 A 
ATOM     69  C   UNL A   1      38.177  30.617  33.409  1.00  0.00     0.001 A 
ATOM     70  C   UNL A   1      37.043  31.210  32.858  1.00  0.00     0.000 A 
ENDBRANCH  46  65
BRANCH  58  71
ATOM     71  C   UNL A   1      44.909  33.490  28.925  1.00  0.00    -0.014 A 
ATOM     72  C   UNL A   1      44.607  34.507  28.004  1.00  0.00     0.009 A 
ATOM     73  C   UNL A   1      45.840  33.749  29.941  1.00  0.00     0.009 A 
ATOM     74  C   UNL A   1      45.238  35.749  28.086  1.00  0.00     0.001 A 
ATOM     75  C   UNL A   1      46.451  35.002  30.037  1.00  0.00     0.001 A 
ATOM     76  C   UNL A   1      46.158  35.997  29.104  1.00  0.00     0.000 A 
ENDBRANCH  58  71
ENDBRANCH  32  33
ENDBRANCH  25  27
ENDBRANCH  24  25
ENDBRANCH  23  24
ENDBRANCH   1  23
TORSDOF 14
ENDMDL
