MODEL 1
REMARK VINA RESULT:     -14.2      0.000      0.000
REMARK SMILES Cc1ccc(S(=O)(=O)n2cc(C(=O)C(=O)N[C@H](Cc3c[nH]c4ccccc34)C(=O)NCC(=O)OCCOC(=O)c3ccc(-c4c5nc(c(-c6ccccc6)c6ccc([nH]6)c(-c6ccccc6)c6nc(c(-c7ccccc7)c7ccc4[nH]7)C=C6)C=C5)cc3)c3ccccc32)cc1
REMARK SMILES IDX 32 1 33 2 31 3 30 4 28 5 29 6 17 8 16 9 14 10 15 11 12 13
REMARK SMILES IDX 13 14 11 15 9 16 10 17 93 18 88 19 92 20 89 21 91 22 90 23
REMARK SMILES IDX 6 24 7 25 8 26 5 27 1 28 2 29 3 30 95 31 4 32 94 33 18 34
REMARK SMILES IDX 19 35 20 36 27 37 21 38 22 39 26 40 23 42 25 43 24 44 34 45
REMARK SMILES IDX 35 46 36 47 37 48 38 49 39 50 40 51 41 52 87 53 42 54 86 55
REMARK SMILES IDX 43 56 44 57 45 58 80 59 46 60 85 61 79 62 81 63 47 64 84 65
REMARK SMILES IDX 78 66 77 67 48 69 70 70 55 71 69 72 56 73 59 74 68 75 82 76
REMARK SMILES IDX 57 77 58 78 67 80 83 81 60 82 49 83 50 84 54 85 51 86 53 87
REMARK SMILES IDX 52 88 71 89 72 90 76 91 73 92 75 93 74 94 61 95 62 96 66 97
REMARK SMILES IDX 63 98 65 99 64 100
REMARK H PARENT 30 7 16 12 21 41 81 68 59 79
REMARK Flexibility Score: inf
ROOT
ATOM      1  C   UNL A   1      43.466  22.958  24.857  1.00  0.00     0.325 C 
ATOM      2  O   UNL A   1      43.050  24.104  24.929  1.00  0.00    -0.250 OA
ENDROOT
BRANCH   1   3
ATOM      3  C   UNL A   1      43.260  21.834  25.968  1.00  0.00     0.238 C 
BRANCH   3   4
ATOM      4  N   UNL A   1      42.370  21.332  27.004  1.00  0.00    -0.343 N 
ATOM      5  C   UNL A   1      40.988  21.436  27.052  1.00  0.00     0.243 C 
ATOM      6  O   UNL A   1      40.403  20.520  27.652  1.00  0.00    -0.273 OA
ATOM      7  H   UNL A   1      42.798  20.865  27.758  1.00  0.00     0.164 HD
BRANCH   5   8
ATOM      8  C   UNL A   1      40.080  22.622  26.454  1.00  0.00     0.176 C 
BRANCH   8   9
ATOM      9  N   UNL A   1      38.776  22.367  25.419  1.00  0.00    -0.337 N 
ATOM     10  C   UNL A   1      37.338  22.508  25.159  1.00  0.00     0.293 C 
ATOM     11  O   UNL A   1      36.958  21.771  24.238  1.00  0.00    -0.265 OA
ATOM     12  H   UNL A   1      39.148  21.920  24.625  1.00  0.00     0.164 HD
BRANCH  10  13
ATOM     13  C   UNL A   1      36.140  23.596  25.852  1.00  0.00     0.252 C 
ATOM     14  O   UNL A   1      36.246  23.867  27.047  1.00  0.00    -0.283 OA
BRANCH  13  15
ATOM     15  C   UNL A   1      34.927  24.423  24.942  1.00  0.00     0.054 A 
ATOM     16  N   UNL A   1      32.166  24.158  26.208  1.00  0.00    -0.240 N 
ATOM     17  C   UNL A   1      33.831  23.420  25.976  1.00  0.00     0.117 A 
ATOM     18  C   UNL A   1      32.405  26.096  25.848  1.00  0.00     0.065 A 
ATOM     19  C   UNL A   1      33.988  26.294  24.786  1.00  0.00     0.012 A 
ATOM     20  C   UNL A   1      31.667  27.341  25.955  1.00  0.00     0.028 A 
ATOM     21  C   UNL A   1      33.786  27.312  23.762  1.00  0.00     0.011 A 
ATOM     22  C   UNL A   1      31.900  28.384  24.997  1.00  0.00     0.002 A 
ATOM     23  C   UNL A   1      32.842  28.346  23.937  1.00  0.00     0.001 A 
BRANCH  16  24
ATOM     24  S   UNL A   1      31.939  22.187  25.118  1.00  0.00     0.268 S 
ATOM     25  O   UNL A   1      31.572  22.796  23.837  1.00  0.00    -0.201 OA
ATOM     26  O   UNL A   1      30.841  21.454  25.752  1.00  0.00    -0.201 OA
BRANCH  24  27
ATOM     27  C   UNL A   1      32.752  20.360  24.388  1.00  0.00     0.088 A 
ATOM     28  C   UNL A   1      34.024  16.227  24.118  1.00  0.00     0.044 C 
ATOM     29  C   UNL A   1      33.913  17.708  23.913  1.00  0.00    -0.051 A 
ATOM     30  C   UNL A   1      32.897  18.137  23.127  1.00  0.00     0.005 A 
ATOM     31  C   UNL A   1      34.585  18.712  24.625  1.00  0.00     0.005 A 
ATOM     32  C   UNL A   1      32.400  19.438  23.341  1.00  0.00     0.022 A 
ATOM     33  C   UNL A   1      34.025  20.029  24.847  1.00  0.00     0.022 A 
ENDBRANCH  24  27
ENDBRANCH  16  24
ENDBRANCH  13  15
ENDBRANCH  10  13
ENDBRANCH   8   9
BRANCH   8  34
ATOM     34  C   UNL A   1      40.616  24.113  26.545  1.00  0.00     0.072 C 
BRANCH  34  35
ATOM     35  C   UNL A   1      40.035  25.123  27.485  1.00  0.00    -0.020 A 
ATOM     36  C   UNL A   1      39.369  24.859  28.674  1.00  0.00     0.087 A 
ATOM     37  C   UNL A   1      40.112  26.535  27.383  1.00  0.00     0.003 A 
ATOM     38  N   UNL A   1      38.836  26.029  29.139  1.00  0.00    -0.361 N 
ATOM     39  C   UNL A   1      39.301  27.073  28.382  1.00  0.00     0.046 A 
ATOM     40  C   UNL A   1      40.778  27.397  26.501  1.00  0.00     0.010 A 
ATOM     41  H   UNL A   1      38.217  26.109  29.900  1.00  0.00     0.166 HD
ATOM     42  C   UNL A   1      39.071  28.444  28.507  1.00  0.00     0.026 A 
ATOM     43  C   UNL A   1      40.598  28.773  26.640  1.00  0.00     0.001 A 
ATOM     44  C   UNL A   1      39.746  29.284  27.617  1.00  0.00     0.002 A 
ENDBRANCH  34  35
ENDBRANCH   8  34
ENDBRANCH   5   8
ENDBRANCH   3   4
ENDBRANCH   1   3
BRANCH   1  45
ATOM     45  O   UNL A   1      44.443  22.577  23.969  1.00  0.00    -0.461 OA
BRANCH  45  46
ATOM     46  C   UNL A   1      45.882  22.463  24.269  1.00  0.00     0.274 C 
BRANCH  46  47
ATOM     47  C   UNL A   1      46.779  23.738  24.438  1.00  0.00     0.275 C 
BRANCH  47  48
ATOM     48  O   UNL A   1      46.479  24.753  25.427  1.00  0.00    -0.458 OA
BRANCH  48  49
ATOM     49  C   UNL A   1      46.809  24.544  26.719  1.00  0.00     0.338 C 
ATOM     50  O   UNL A   1      47.852  24.079  27.140  1.00  0.00    -0.246 OA
BRANCH  49  51
ATOM     51  C   UNL A   1      45.587  24.712  27.512  1.00  0.00     0.060 A 
ATOM     52  C   UNL A   1      44.735  25.719  27.282  1.00  0.00     0.016 A 
ATOM     53  C   UNL A   1      45.142  23.739  28.435  1.00  0.00     0.016 A 
ATOM     54  C   UNL A   1      43.620  25.654  28.110  1.00  0.00     0.010 A 
ATOM     55  C   UNL A   1      44.010  23.766  29.293  1.00  0.00     0.010 A 
ATOM     56  C   UNL A   1      43.478  25.009  29.451  1.00  0.00    -0.014 A 
BRANCH  56  57
ATOM     57  C   UNL A   1      43.833  25.733  31.171  1.00  0.00     0.031 A 
ATOM     58  C   UNL A   1      43.356  27.388  30.947  1.00  0.00     0.074 A 
ATOM     59  C   UNL A   1      44.165  24.696  32.832  1.00  0.00     0.049 A 
ATOM     60  N   UNL A   1      43.046  28.204  31.903  1.00  0.00    -0.248 NA
ATOM     61  C   UNL A   1      43.158  28.076  29.682  1.00  0.00     0.031 C 
ATOM     62  C   UNL A   1      43.091  24.773  34.326  1.00  0.00     0.029 A 
ATOM     63  N   UNL A   1      44.447  23.349  33.257  1.00  0.00    -0.354 N 
ATOM     64  C   UNL A   1      42.288  29.242  31.406  1.00  0.00     0.074 A 
ATOM     65  C   UNL A   1      42.432  29.160  29.988  1.00  0.00     0.031 C 
ATOM     66  C   UNL A   1      42.815  23.622  34.912  1.00  0.00     0.029 A 
ATOM     67  C   UNL A   1      43.994  22.998  34.563  1.00  0.00     0.049 A 
ATOM     68  H   UNL A   1      44.926  22.709  32.681  1.00  0.00     0.167 HD
ATOM     69  C   UNL A   1      41.565  29.988  32.283  1.00  0.00     0.031 A 
ATOM     70  C   UNL A   1      44.893  23.181  35.544  1.00  0.00     0.031 A 
ATOM     71  C   UNL A   1      41.822  29.540  33.650  1.00  0.00     0.049 A 
ATOM     72  C   UNL A   1      44.746  24.853  36.374  1.00  0.00     0.074 A 
ATOM     73  C   UNL A   1      41.037  28.880  34.570  1.00  0.00     0.029 A 
ATOM     74  N   UNL A   1      43.128  29.494  34.124  1.00  0.00    -0.354 N 
ATOM     75  N   UNL A   1      44.285  26.000  35.830  1.00  0.00    -0.248 NA
ATOM     76  C   UNL A   1      45.235  25.333  37.719  1.00  0.00     0.031 C 
ATOM     77  C   UNL A   1      41.908  28.299  35.525  1.00  0.00     0.029 A 
ATOM     78  C   UNL A   1      43.208  28.679  35.241  1.00  0.00     0.049 A 
ATOM     79  H   UNL A   1      43.888  29.972  33.722  1.00  0.00     0.167 HD
ATOM     80  C   UNL A   1      44.639  27.188  36.478  1.00  0.00     0.074 A 
ATOM     81  C   UNL A   1      45.352  26.685  37.612  1.00  0.00     0.031 C 
ATOM     82  C   UNL A   1      44.465  28.464  35.952  1.00  0.00     0.031 A 
BRANCH  69  83
ATOM     83  C   UNL A   1      40.485  31.004  31.994  1.00  0.00    -0.014 A 
ATOM     84  C   UNL A   1      40.680  32.310  32.498  1.00  0.00     0.009 A 
ATOM     85  C   UNL A   1      39.264  30.774  31.340  1.00  0.00     0.009 A 
ATOM     86  C   UNL A   1      39.724  33.321  32.382  1.00  0.00     0.001 A 
ATOM     87  C   UNL A   1      38.305  31.798  31.197  1.00  0.00     0.001 A 
ATOM     88  C   UNL A   1      38.535  33.067  31.722  1.00  0.00     0.000 A 
ENDBRANCH  69  83
BRANCH  70  89
ATOM     89  C   UNL A   1      46.021  22.100  34.765  1.00  0.00    -0.014 A 
ATOM     90  C   UNL A   1      47.334  22.662  34.751  1.00  0.00     0.009 A 
ATOM     91  C   UNL A   1      46.057  20.674  34.832  1.00  0.00     0.009 A 
ATOM     92  C   UNL A   1      48.469  21.951  35.226  1.00  0.00     0.001 A 
ATOM     93  C   UNL A   1      47.195  19.951  35.310  1.00  0.00     0.001 A 
ATOM     94  C   UNL A   1      48.381  20.613  35.591  1.00  0.00     0.000 A 
ENDBRANCH  70  89
BRANCH  82  95
ATOM     95  C   UNL A   1      45.366  29.704  36.186  1.00  0.00    -0.014 A 
ATOM     96  C   UNL A   1      46.385  30.086  35.301  1.00  0.00     0.009 A 
ATOM     97  C   UNL A   1      45.106  30.636  37.230  1.00  0.00     0.009 A 
ATOM     98  C   UNL A   1      47.186  31.227  35.527  1.00  0.00     0.001 A 
ATOM     99  C   UNL A   1      45.869  31.799  37.436  1.00  0.00     0.001 A 
ATOM    100  C   UNL A   1      46.948  32.066  36.611  1.00  0.00     0.000 A 
ENDBRANCH  82  95
ENDBRANCH  56  57
ENDBRANCH  49  51
ENDBRANCH  48  49
ENDBRANCH  47  48
ENDBRANCH  46  47
ENDBRANCH  45  46
ENDBRANCH   1  45
TORSDOF 20
ENDMDL
MODEL 2
REMARK VINA RESULT:     -13.9      4.038      7.768
REMARK SMILES Cc1ccc(S(=O)(=O)n2cc(C(=O)C(=O)N[C@H](Cc3c[nH]c4ccccc34)C(=O)NCC(=O)OCCOC(=O)c3ccc(-c4c5nc(c(-c6ccccc6)c6ccc([nH]6)c(-c6ccccc6)c6nc(c(-c7ccccc7)c7ccc4[nH]7)C=C6)C=C5)cc3)c3ccccc32)cc1
REMARK SMILES IDX 32 1 33 2 31 3 30 4 28 5 29 6 17 8 16 9 14 10 15 11 12 13
REMARK SMILES IDX 13 14 11 15 9 16 10 17 93 18 88 19 92 20 89 21 91 22 90 23
REMARK SMILES IDX 6 24 7 25 8 26 5 27 1 28 2 29 3 30 95 31 4 32 94 33 18 34
REMARK SMILES IDX 19 35 20 36 27 37 21 38 22 39 26 40 23 42 25 43 24 44 34 45
REMARK SMILES IDX 35 46 36 47 37 48 38 49 39 50 40 51 41 52 87 53 42 54 86 55
REMARK SMILES IDX 43 56 44 57 45 58 80 59 46 60 85 61 79 62 81 63 47 64 84 65
REMARK SMILES IDX 78 66 77 67 48 69 70 70 55 71 69 72 56 73 59 74 68 75 82 76
REMARK SMILES IDX 57 77 58 78 67 80 83 81 60 82 49 83 50 84 54 85 51 86 53 87
REMARK SMILES IDX 52 88 71 89 72 90 76 91 73 92 75 93 74 94 61 95 62 96 66 97
REMARK SMILES IDX 63 98 65 99 64 100
REMARK H PARENT 30 7 16 12 21 41 81 68 59 79
REMARK Flexibility Score: inf
ROOT
ATOM      1  C   UNL A   1      40.273  20.585  26.566  1.00  0.00     0.325 C 
ATOM      2  O   UNL A   1      40.569  20.569  27.751  1.00  0.00    -0.250 OA
ENDROOT
BRANCH   1   3
ATOM      3  C   UNL A   1      39.197  21.552  25.900  1.00  0.00     0.238 C 
BRANCH   3   4
ATOM      4  N   UNL A   1      38.702  22.919  25.834  1.00  0.00    -0.343 N 
ATOM      5  C   UNL A   1      37.393  23.334  25.639  1.00  0.00     0.243 C 
ATOM      6  O   UNL A   1      37.094  24.422  26.155  1.00  0.00    -0.273 OA
ATOM      7  H   UNL A   1      39.373  23.632  25.940  1.00  0.00     0.164 HD
BRANCH   5   8
ATOM      8  C   UNL A   1      36.250  22.582  24.793  1.00  0.00     0.176 C 
BRANCH   8   9
ATOM      9  N   UNL A   1      34.960  23.376  24.056  1.00  0.00    -0.337 N 
ATOM     10  C   UNL A   1      33.717  24.143  24.198  1.00  0.00     0.293 C 
ATOM     11  O   UNL A   1      33.060  24.163  23.148  1.00  0.00    -0.265 OA
ATOM     12  H   UNL A   1      35.107  23.284  23.087  1.00  0.00     0.164 HD
BRANCH  10  13
ATOM     13  C   UNL A   1      33.092  25.090  25.544  1.00  0.00     0.252 C 
ATOM     14  O   UNL A   1      33.587  24.895  26.653  1.00  0.00    -0.283 OA
BRANCH  13  15
ATOM     15  C   UNL A   1      31.947  26.375  25.388  1.00  0.00     0.054 A 
ATOM     16  N   UNL A   1      33.210  28.901  24.240  1.00  0.00    -0.240 N 
ATOM     17  C   UNL A   1      33.457  27.354  25.198  1.00  0.00     0.117 A 
ATOM     18  C   UNL A   1      31.572  28.587  23.163  1.00  0.00     0.065 A 
ATOM     19  C   UNL A   1      30.578  27.191  24.021  1.00  0.00     0.012 A 
ATOM     20  C   UNL A   1      30.818  29.206  22.090  1.00  0.00     0.028 A 
ATOM     21  C   UNL A   1      29.150  27.485  23.977  1.00  0.00     0.011 A 
ATOM     22  C   UNL A   1      29.390  29.061  22.056  1.00  0.00     0.002 A 
ATOM     23  C   UNL A   1      28.607  28.312  22.971  1.00  0.00     0.001 A 
BRANCH  16  24
ATOM     24  S   UNL A   1      33.850  29.445  26.343  1.00  0.00     0.268 S 
ATOM     25  O   UNL A   1      34.517  28.167  26.603  1.00  0.00    -0.201 OA
ATOM     26  O   UNL A   1      32.636  29.642  27.137  1.00  0.00    -0.201 OA
BRANCH  24  27
ATOM     27  C   UNL A   1      34.947  30.667  27.696  1.00  0.00     0.088 A 
ATOM     28  C   UNL A   1      37.432  33.824  29.319  1.00  0.00     0.044 C 
ATOM     29  C   UNL A   1      36.732  32.514  29.115  1.00  0.00    -0.051 A 
ATOM     30  C   UNL A   1      35.422  32.467  29.454  1.00  0.00     0.005 A 
ATOM     31  C   UNL A   1      37.205  31.407  28.395  1.00  0.00     0.005 A 
ATOM     32  C   UNL A   1      34.602  31.528  28.796  1.00  0.00     0.022 A 
ATOM     33  C   UNL A   1      36.328  30.482  27.708  1.00  0.00     0.022 A 
ENDBRANCH  24  27
ENDBRANCH  16  24
ENDBRANCH  13  15
ENDBRANCH  10  13
ENDBRANCH   8   9
BRANCH   8  34
ATOM     34  C   UNL A   1      36.111  21.006  24.929  1.00  0.00     0.072 C 
BRANCH  34  35
ATOM     35  C   UNL A   1      34.802  20.333  25.204  1.00  0.00    -0.020 A 
ATOM     36  C   UNL A   1      33.676  20.915  25.770  1.00  0.00     0.087 A 
ATOM     37  C   UNL A   1      34.435  19.003  24.878  1.00  0.00     0.003 A 
ATOM     38  N   UNL A   1      32.762  19.930  26.021  1.00  0.00    -0.361 N 
ATOM     39  C   UNL A   1      33.191  18.756  25.458  1.00  0.00     0.046 A 
ATOM     40  C   UNL A   1      35.077  17.979  24.166  1.00  0.00     0.010 A 
ATOM     41  H   UNL A   1      31.925  20.046  26.526  1.00  0.00     0.166 HD
ATOM     42  C   UNL A   1      32.576  17.504  25.415  1.00  0.00     0.026 A 
ATOM     43  C   UNL A   1      34.456  16.735  24.072  1.00  0.00     0.001 A 
ATOM     44  C   UNL A   1      33.233  16.500  24.699  1.00  0.00     0.002 A 
ENDBRANCH  34  35
ENDBRANCH   8  34
ENDBRANCH   5   8
ENDBRANCH   3   4
ENDBRANCH   1   3
BRANCH   1  45
ATOM     45  O   UNL A   1      40.584  19.556  25.709  1.00  0.00    -0.461 OA
BRANCH  45  46
ATOM     46  C   UNL A   1      41.869  18.833  25.662  1.00  0.00     0.274 C 
BRANCH  46  47
ATOM     47  C   UNL A   1      43.224  19.566  25.953  1.00  0.00     0.275 C 
BRANCH  47  48
ATOM     48  O   UNL A   1      43.714  20.627  25.097  1.00  0.00    -0.458 OA
BRANCH  48  49
ATOM     49  C   UNL A   1      44.478  21.607  25.621  1.00  0.00     0.338 C 
ATOM     50  O   UNL A   1      45.684  21.588  25.779  1.00  0.00    -0.246 OA
BRANCH  49  51
ATOM     51  C   UNL A   1      43.571  22.589  26.225  1.00  0.00     0.060 A 
ATOM     52  C   UNL A   1      42.589  23.162  25.520  1.00  0.00     0.016 A 
ATOM     53  C   UNL A   1      43.558  22.856  27.614  1.00  0.00     0.016 A 
ATOM     54  C   UNL A   1      41.818  24.016  26.303  1.00  0.00     0.010 A 
ATOM     55  C   UNL A   1      42.772  23.788  28.342  1.00  0.00     0.010 A 
ATOM     56  C   UNL A   1      42.191  24.738  27.558  1.00  0.00    -0.014 A 
BRANCH  56  57
ATOM     57  C   UNL A   1      43.008  26.441  27.759  1.00  0.00     0.031 A 
ATOM     58  C   UNL A   1      41.628  27.444  28.083  1.00  0.00     0.074 A 
ATOM     59  C   UNL A   1      44.947  26.784  28.023  1.00  0.00     0.049 A 
ATOM     60  N   UNL A   1      41.674  28.601  28.660  1.00  0.00    -0.248 NA
ATOM     61  C   UNL A   1      40.234  27.116  27.834  1.00  0.00     0.031 C 
ATOM     62  C   UNL A   1      45.657  27.583  29.522  1.00  0.00     0.029 A 
ATOM     63  N   UNL A   1      46.213  26.101  27.939  1.00  0.00    -0.354 N 
ATOM     64  C   UNL A   1      40.436  28.915  29.180  1.00  0.00     0.074 A 
ATOM     65  C   UNL A   1      39.537  27.981  28.584  1.00  0.00     0.031 C 
ATOM     66  C   UNL A   1      46.758  27.041  30.013  1.00  0.00     0.029 A 
ATOM     67  C   UNL A   1      47.239  26.581  28.805  1.00  0.00     0.049 A 
ATOM     68  H   UNL A   1      46.361  25.349  27.320  1.00  0.00     0.167 HD
ATOM     69  C   UNL A   1      40.364  29.891  30.124  1.00  0.00     0.031 A 
ATOM     70  C   UNL A   1      48.043  27.515  28.270  1.00  0.00     0.031 A 
ATOM     71  C   UNL A   1      41.686  30.474  30.343  1.00  0.00     0.049 A 
ATOM     72  C   UNL A   1      47.477  29.264  28.624  1.00  0.00     0.074 A 
ATOM     73  C   UNL A   1      42.561  30.412  31.406  1.00  0.00     0.029 A 
ATOM     74  N   UNL A   1      42.395  30.992  29.265  1.00  0.00    -0.354 N 
ATOM     75  N   UNL A   1      46.213  29.686  28.845  1.00  0.00    -0.248 NA
ATOM     76  C   UNL A   1      48.229  30.571  28.585  1.00  0.00     0.031 C 
ATOM     77  C   UNL A   1      43.845  30.753  30.914  1.00  0.00     0.029 A 
ATOM     78  C   UNL A   1      43.739  31.107  29.581  1.00  0.00     0.049 A 
ATOM     79  H   UNL A   1      41.999  31.242  28.399  1.00  0.00     0.167 HD
ATOM     80  C   UNL A   1      45.973  31.055  28.682  1.00  0.00     0.074 A 
ATOM     81  C   UNL A   1      47.290  31.537  28.395  1.00  0.00     0.031 C 
ATOM     82  C   UNL A   1      44.712  31.642  28.633  1.00  0.00     0.031 A 
BRANCH  69  83
ATOM     83  C   UNL A   1      39.202  30.258  31.017  1.00  0.00    -0.014 A 
ATOM     84  C   UNL A   1      38.149  29.323  31.118  1.00  0.00     0.009 A 
ATOM     85  C   UNL A   1      39.017  31.469  31.704  1.00  0.00     0.009 A 
ATOM     86  C   UNL A   1      36.976  29.571  31.835  1.00  0.00     0.001 A 
ATOM     87  C   UNL A   1      37.847  31.716  32.450  1.00  0.00     0.001 A 
ATOM     88  C   UNL A   1      36.827  30.769  32.511  1.00  0.00     0.000 A 
ENDBRANCH  69  83
BRANCH  70  89
ATOM     89  C   UNL A   1      48.514  26.430  26.986  1.00  0.00    -0.014 A 
ATOM     90  C   UNL A   1      48.432  27.080  25.718  1.00  0.00     0.009 A 
ATOM     91  C   UNL A   1      49.544  25.440  27.008  1.00  0.00     0.009 A 
ATOM     92  C   UNL A   1      49.516  27.090  24.798  1.00  0.00     0.001 A 
ATOM     93  C   UNL A   1      50.639  25.444  26.087  1.00  0.00     0.001 A 
ATOM     94  C   UNL A   1      50.662  26.338  25.027  1.00  0.00     0.000 A 
ENDBRANCH  70  89
BRANCH  82  95
ATOM     95  C   UNL A   1      44.293  32.891  27.816  1.00  0.00    -0.014 A 
ATOM     96  C   UNL A   1      44.225  32.902  26.416  1.00  0.00     0.009 A 
ATOM     97  C   UNL A   1      43.782  34.063  28.445  1.00  0.00     0.009 A 
ATOM     98  C   UNL A   1      43.828  34.048  25.693  1.00  0.00     0.001 A 
ATOM     99  C   UNL A   1      43.342  35.192  27.732  1.00  0.00     0.001 A 
ATOM    100  C   UNL A   1      43.415  35.203  26.349  1.00  0.00     0.000 A 
ENDBRANCH  82  95
ENDBRANCH  56  57
ENDBRANCH  49  51
ENDBRANCH  48  49
ENDBRANCH  47  48
ENDBRANCH  46  47
ENDBRANCH  45  46
ENDBRANCH   1  45
TORSDOF 20
ENDMDL
MODEL 3
REMARK VINA RESULT:     -13.9      3.486      9.834
REMARK SMILES Cc1ccc(S(=O)(=O)n2cc(C(=O)C(=O)N[C@H](Cc3c[nH]c4ccccc34)C(=O)NCC(=O)OCCOC(=O)c3ccc(-c4c5nc(c(-c6ccccc6)c6ccc([nH]6)c(-c6ccccc6)c6nc(c(-c7ccccc7)c7ccc4[nH]7)C=C6)C=C5)cc3)c3ccccc32)cc1
REMARK SMILES IDX 32 1 33 2 31 3 30 4 28 5 29 6 17 8 16 9 14 10 15 11 12 13
REMARK SMILES IDX 13 14 11 15 9 16 10 17 93 18 88 19 92 20 89 21 91 22 90 23
REMARK SMILES IDX 6 24 7 25 8 26 5 27 1 28 2 29 3 30 95 31 4 32 94 33 18 34
REMARK SMILES IDX 19 35 20 36 27 37 21 38 22 39 26 40 23 42 25 43 24 44 34 45
REMARK SMILES IDX 35 46 36 47 37 48 38 49 39 50 40 51 41 52 87 53 42 54 86 55
REMARK SMILES IDX 43 56 44 57 45 58 80 59 46 60 85 61 79 62 81 63 47 64 84 65
REMARK SMILES IDX 78 66 77 67 48 69 70 70 55 71 69 72 56 73 59 74 68 75 82 76
REMARK SMILES IDX 57 77 58 78 67 80 83 81 60 82 49 83 50 84 54 85 51 86 53 87
REMARK SMILES IDX 52 88 71 89 72 90 76 91 73 92 75 93 74 94 61 95 62 96 66 97
REMARK SMILES IDX 63 98 65 99 64 100
REMARK H PARENT 30 7 16 12 21 41 81 68 59 79
REMARK Flexibility Score: inf
ROOT
ATOM      1  C   UNL A   1      32.307  32.573  27.078  1.00  0.00     0.325 C 
ATOM      2  O   UNL A   1      31.397  33.200  26.558  1.00  0.00    -0.250 OA
ENDROOT
BRANCH   1   3
ATOM      3  C   UNL A   1      32.457  30.987  27.065  1.00  0.00     0.238 C 
BRANCH   3   4
ATOM      4  N   UNL A   1      33.304  29.867  27.448  1.00  0.00    -0.343 N 
ATOM      5  C   UNL A   1      33.551  28.710  26.724  1.00  0.00     0.243 C 
ATOM      6  O   UNL A   1      34.657  28.183  26.918  1.00  0.00    -0.273 OA
ATOM      7  H   UNL A   1      33.753  29.938  28.322  1.00  0.00     0.164 HD
BRANCH   5   8
ATOM      8  C   UNL A   1      32.552  27.970  25.702  1.00  0.00     0.176 C 
BRANCH   8   9
ATOM      9  N   UNL A   1      32.210  26.321  25.763  1.00  0.00    -0.337 N 
ATOM     10  C   UNL A   1      32.308  24.999  25.133  1.00  0.00     0.293 C 
ATOM     11  O   UNL A   1      31.509  24.190  25.625  1.00  0.00    -0.265 OA
ATOM     12  H   UNL A   1      31.722  26.180  26.605  1.00  0.00     0.164 HD
BRANCH  10  13
ATOM     13  C   UNL A   1      33.413  24.381  23.911  1.00  0.00     0.252 C 
ATOM     14  O   UNL A   1      34.031  25.204  23.238  1.00  0.00    -0.283 OA
BRANCH  13  15
ATOM     15  C   UNL A   1      33.802  22.711  23.698  1.00  0.00     0.054 A 
ATOM     16  N   UNL A   1      34.777  21.424  26.284  1.00  0.00    -0.240 N 
ATOM     17  C   UNL A   1      34.618  22.962  25.293  1.00  0.00     0.117 A 
ATOM     18  C   UNL A   1      33.378  20.206  25.577  1.00  0.00     0.065 A 
ATOM     19  C   UNL A   1      32.937  20.801  23.809  1.00  0.00     0.012 A 
ATOM     20  C   UNL A   1      32.762  18.930  25.886  1.00  0.00     0.028 A 
ATOM     21  C   UNL A   1      32.739  19.659  22.925  1.00  0.00     0.011 A 
ATOM     22  C   UNL A   1      32.304  18.089  24.817  1.00  0.00     0.002 A 
ATOM     23  C   UNL A   1      32.351  18.401  23.434  1.00  0.00     0.001 A 
BRANCH  16  24
ATOM     24  S   UNL A   1      36.851  22.186  25.791  1.00  0.00     0.268 S 
ATOM     25  O   UNL A   1      36.441  23.587  25.665  1.00  0.00    -0.201 OA
ATOM     26  O   UNL A   1      37.256  21.579  24.522  1.00  0.00    -0.201 OA
BRANCH  24  27
ATOM     27  C   UNL A   1      38.893  22.491  26.309  1.00  0.00     0.088 A 
ATOM     28  C   UNL A   1      42.558  22.887  28.588  1.00  0.00     0.044 C 
ATOM     29  C   UNL A   1      41.511  23.022  27.522  1.00  0.00    -0.051 A 
ATOM     30  C   UNL A   1      41.376  21.979  26.669  1.00  0.00     0.005 A 
ATOM     31  C   UNL A   1      40.500  23.991  27.450  1.00  0.00     0.005 A 
ATOM     32  C   UNL A   1      40.122  21.785  26.057  1.00  0.00     0.022 A 
ATOM     33  C   UNL A   1      39.212  23.740  26.836  1.00  0.00     0.022 A 
ENDBRANCH  24  27
ENDBRANCH  16  24
ENDBRANCH  13  15
ENDBRANCH  10  13
ENDBRANCH   8   9
BRANCH   8  34
ATOM     34  C   UNL A   1      32.129  28.720  24.369  1.00  0.00     0.072 C 
BRANCH  34  35
ATOM     35  C   UNL A   1      30.730  28.690  23.836  1.00  0.00    -0.020 A 
ATOM     36  C   UNL A   1      30.034  27.569  23.404  1.00  0.00     0.087 A 
ATOM     37  C   UNL A   1      29.825  29.777  23.736  1.00  0.00     0.003 A 
ATOM     38  N   UNL A   1      28.868  27.983  22.824  1.00  0.00    -0.361 N 
ATOM     39  C   UNL A   1      28.704  29.327  23.040  1.00  0.00     0.046 A 
ATOM     40  C   UNL A   1      29.886  31.115  24.151  1.00  0.00     0.010 A 
ATOM     41  H   UNL A   1      28.242  27.406  22.329  1.00  0.00     0.166 HD
ATOM     42  C   UNL A   1      27.653  30.172  22.680  1.00  0.00     0.026 A 
ATOM     43  C   UNL A   1      28.824  31.963  23.841  1.00  0.00     0.001 A 
ATOM     44  C   UNL A   1      27.735  31.501  23.104  1.00  0.00     0.002 A 
ENDBRANCH  34  35
ENDBRANCH   8  34
ENDBRANCH   5   8
ENDBRANCH   3   4
ENDBRANCH   1   3
BRANCH   1  45
ATOM     45  O   UNL A   1      33.145  33.123  28.020  1.00  0.00    -0.461 OA
BRANCH  45  46
ATOM     46  C   UNL A   1      33.240  34.555  28.356  1.00  0.00     0.274 C 
BRANCH  46  47
ATOM     47  C   UNL A   1      33.616  35.026  29.804  1.00  0.00     0.275 C 
BRANCH  47  48
ATOM     48  O   UNL A   1      34.771  34.496  30.499  1.00  0.00    -0.458 OA
BRANCH  48  49
ATOM     49  C   UNL A   1      34.713  33.263  31.045  1.00  0.00     0.338 C 
ATOM     50  O   UNL A   1      34.106  32.936  32.048  1.00  0.00    -0.246 OA
BRANCH  49  51
ATOM     51  C   UNL A   1      35.732  32.445  30.380  1.00  0.00     0.060 A 
ATOM     52  C   UNL A   1      35.466  31.204  29.955  1.00  0.00     0.016 A 
ATOM     53  C   UNL A   1      36.985  32.967  29.986  1.00  0.00     0.016 A 
ATOM     54  C   UNL A   1      36.556  30.634  29.304  1.00  0.00     0.010 A 
ATOM     55  C   UNL A   1      38.079  32.306  29.367  1.00  0.00     0.010 A 
ATOM     56  C   UNL A   1      38.010  30.949  29.449  1.00  0.00    -0.014 A 
BRANCH  56  57
ATOM     57  C   UNL A   1      39.271  30.234  30.678  1.00  0.00     0.031 A 
ATOM     58  C   UNL A   1      39.835  28.838  29.812  1.00  0.00     0.074 A 
ATOM     59  C   UNL A   1      40.034  31.175  32.251  1.00  0.00     0.049 A 
ATOM     60  N   UNL A   1      40.954  28.229  30.039  1.00  0.00    -0.248 NA
ATOM     61  C   UNL A   1      39.193  28.198  28.675  1.00  0.00     0.031 C 
ATOM     62  C   UNL A   1      41.825  31.550  32.459  1.00  0.00     0.029 A 
ATOM     63  N   UNL A   1      39.821  32.361  33.042  1.00  0.00    -0.354 N 
ATOM     64  C   UNL A   1      41.321  27.494  28.932  1.00  0.00     0.074 A 
ATOM     65  C   UNL A   1      40.152  27.450  28.113  1.00  0.00     0.031 C 
ATOM     66  C   UNL A   1      42.125  32.754  32.912  1.00  0.00     0.029 A 
ATOM     67  C   UNL A   1      40.980  32.912  33.664  1.00  0.00     0.049 A 
ATOM     68  H   UNL A   1      38.930  32.765  33.147  1.00  0.00     0.167 HD
ATOM     69  C   UNL A   1      42.615  27.091  28.828  1.00  0.00     0.031 A 
ATOM     70  C   UNL A   1      41.214  32.479  34.914  1.00  0.00     0.031 A 
ATOM     71  C   UNL A   1      43.361  27.490  30.019  1.00  0.00     0.049 A 
ATOM     72  C   UNL A   1      42.367  31.006  34.979  1.00  0.00     0.074 A 
ATOM     73  C   UNL A   1      44.351  28.428  30.220  1.00  0.00     0.029 A 
ATOM     74  N   UNL A   1      42.907  27.106  31.275  1.00  0.00    -0.354 N 
ATOM     75  N   UNL A   1      42.547  30.064  34.028  1.00  0.00    -0.248 NA
ATOM     76  C   UNL A   1      43.201  30.455  36.109  1.00  0.00     0.031 C 
ATOM     77  C   UNL A   1      44.379  28.719  31.606  1.00  0.00     0.029 A 
ATOM     78  C   UNL A   1      43.475  27.898  32.258  1.00  0.00     0.049 A 
ATOM     79  H   UNL A   1      42.270  26.374  31.443  1.00  0.00     0.167 HD
ATOM     80  C   UNL A   1      43.131  28.862  34.439  1.00  0.00     0.074 A 
ATOM     81  C   UNL A   1      43.410  29.143  35.814  1.00  0.00     0.031 C 
ATOM     82  C   UNL A   1      43.184  27.700  33.675  1.00  0.00     0.031 A 
BRANCH  69  83
ATOM     83  C   UNL A   1      43.328  26.498  27.635  1.00  0.00    -0.014 A 
ATOM     84  C   UNL A   1      42.650  26.540  26.396  1.00  0.00     0.009 A 
ATOM     85  C   UNL A   1      44.568  25.839  27.635  1.00  0.00     0.009 A 
ATOM     86  C   UNL A   1      43.152  25.952  25.233  1.00  0.00     0.001 A 
ATOM     87  C   UNL A   1      45.092  25.265  26.459  1.00  0.00     0.001 A 
ATOM     88  C   UNL A   1      44.382  25.318  25.262  1.00  0.00     0.000 A 
ENDBRANCH  69  83
BRANCH  70  89
ATOM     89  C   UNL A   1      39.657  33.062  35.448  1.00  0.00    -0.014 A 
ATOM     90  C   UNL A   1      38.907  32.013  36.062  1.00  0.00     0.009 A 
ATOM     91  C   UNL A   1      39.345  34.336  36.014  1.00  0.00     0.009 A 
ATOM     92  C   UNL A   1      38.322  32.151  37.350  1.00  0.00     0.001 A 
ATOM     93  C   UNL A   1      38.757  34.483  37.310  1.00  0.00     0.001 A 
ATOM     94  C   UNL A   1      38.324  33.371  38.016  1.00  0.00     0.000 A 
ENDBRANCH  70  89
BRANCH  82  95
ATOM     95  C   UNL A   1      43.138  26.238  34.191  1.00  0.00    -0.014 A 
ATOM     96  C   UNL A   1      42.123  25.755  35.029  1.00  0.00     0.009 A 
ATOM     97  C   UNL A   1      44.034  25.242  33.707  1.00  0.00     0.009 A 
ATOM     98  C   UNL A   1      42.095  24.416  35.477  1.00  0.00     0.001 A 
ATOM     99  C   UNL A   1      43.985  23.897  34.111  1.00  0.00     0.001 A 
ATOM    100  C   UNL A   1      43.042  23.494  35.042  1.00  0.00     0.000 A 
ENDBRANCH  82  95
ENDBRANCH  56  57
ENDBRANCH  49  51
ENDBRANCH  48  49
ENDBRANCH  47  48
ENDBRANCH  46  47
ENDBRANCH  45  46
ENDBRANCH   1  45
TORSDOF 20
ENDMDL
