MODEL 1
REMARK VINA RESULT:     -10.9      0.000      0.000
REMARK SMILES Cc1ccc(/C=C2/SC(=O)N(CC(=O)OCCOC(=O)c3ccc(-c4c5nc(c(-c6ccccc6)c6ccc([nH]6)c(-c6ccccc6)c6nc(c(-c7ccccc7)c7ccc4[nH]7)C=C6)C=C5)cc3)C2=O)cc1
REMARK SMILES IDX 16 1 15 2 13 3 14 4 12 5 11 6 6 7 7 8 8 9 69 10 9 11 70 12
REMARK SMILES IDX 10 13 5 14 1 15 2 16 3 17 72 18 4 19 71 20 17 21 18 22 19 23
REMARK SMILES IDX 20 24 21 25 22 26 68 27 23 28 67 29 24 30 25 31 26 32 61 33
REMARK SMILES IDX 27 34 66 35 60 36 62 37 28 38 65 39 59 40 58 41 29 43 51 44
REMARK SMILES IDX 36 45 50 46 37 47 40 48 49 49 63 50 38 51 39 52 48 54 64 55
REMARK SMILES IDX 41 56 30 57 31 58 35 59 32 60 34 61 33 62 52 63 53 64 57 65
REMARK SMILES IDX 54 66 56 67 55 68 42 69 43 70 47 71 44 72 46 73 45 74
REMARK H PARENT 62 42 40 53
REMARK Flexibility Score: inf
ROOT
ATOM      1  C   UNL A   1      33.409  31.453  27.311  1.00  0.00     0.274 C 
ENDROOT
BRANCH   1   2
ATOM      2  O   UNL A   1      33.905  32.428  28.230  1.00  0.00    -0.461 OA
BRANCH   2   3
ATOM      3  C   UNL A   1      33.449  33.690  28.096  1.00  0.00     0.326 C 
ATOM      4  O   UNL A   1      32.376  33.979  27.585  1.00  0.00    -0.250 OA
BRANCH   3   5
ATOM      5  C   UNL A   1      34.477  34.672  28.658  1.00  0.00     0.252 C 
BRANCH   5   6
ATOM      6  N   UNL A   1      33.950  35.101  29.929  1.00  0.00    -0.257 N 
ATOM      7  C   UNL A   1      34.849  35.532  33.353  1.00  0.00     0.029 C 
ATOM      8  C   UNL A   1      34.155  35.457  32.209  1.00  0.00     0.083 C 
ATOM      9  S   UNL A   1      32.924  36.578  31.736  1.00  0.00    -0.022 SA
ATOM     10  C   UNL A   1      34.394  34.519  31.090  1.00  0.00     0.268 C 
ATOM     11  C   UNL A   1      33.023  36.080  30.056  1.00  0.00     0.294 C 
ATOM     12  O   UNL A   1      34.908  33.419  31.168  1.00  0.00    -0.268 OA
ATOM     13  O   UNL A   1      32.325  36.548  29.163  1.00  0.00    -0.261 OA
BRANCH   7  14
ATOM     14  C   UNL A   1      35.953  34.657  33.770  1.00  0.00    -0.024 A 
ATOM     15  C   UNL A   1      39.359  32.277  34.959  1.00  0.00     0.044 C 
ATOM     16  C   UNL A   1      38.163  33.067  34.519  1.00  0.00    -0.051 A 
ATOM     17  C   UNL A   1      38.316  34.116  33.608  1.00  0.00     0.004 A 
ATOM     18  C   UNL A   1      36.888  32.795  35.024  1.00  0.00     0.004 A 
ATOM     19  C   UNL A   1      37.221  34.900  33.235  1.00  0.00     0.008 A 
ATOM     20  C   UNL A   1      35.789  33.580  34.649  1.00  0.00     0.008 A 
ENDBRANCH   7  14
ENDBRANCH   5   6
ENDBRANCH   3   5
ENDBRANCH   2   3
ENDBRANCH   1   2
BRANCH   1  21
ATOM     21  C   UNL A   1      34.153  30.093  27.208  1.00  0.00     0.275 C 
BRANCH  21  22
ATOM     22  O   UNL A   1      35.618  29.876  27.250  1.00  0.00    -0.458 OA
BRANCH  22  23
ATOM     23  C   UNL A   1      36.739  30.446  27.772  1.00  0.00     0.338 C 
ATOM     24  O   UNL A   1      36.906  31.654  27.859  1.00  0.00    -0.246 OA
BRANCH  23  25
ATOM     25  C   UNL A   1      37.769  29.542  28.256  1.00  0.00     0.060 A 
ATOM     26  C   UNL A   1      37.570  28.547  29.233  1.00  0.00     0.016 A 
ATOM     27  C   UNL A   1      38.975  29.687  27.629  1.00  0.00     0.016 A 
ATOM     28  C   UNL A   1      38.607  27.653  29.510  1.00  0.00     0.010 A 
ATOM     29  C   UNL A   1      39.793  28.607  27.613  1.00  0.00     0.010 A 
ATOM     30  C   UNL A   1      39.714  27.702  28.670  1.00  0.00    -0.014 A 
BRANCH  30  31
ATOM     31  C   UNL A   1      41.032  27.141  28.897  1.00  0.00     0.031 A 
ATOM     32  C   UNL A   1      41.411  25.855  28.331  1.00  0.00     0.074 A 
ATOM     33  C   UNL A   1      41.893  28.086  29.358  1.00  0.00     0.049 A 
ATOM     34  N   UNL A   1      42.317  25.099  28.834  1.00  0.00    -0.248 NA
ATOM     35  C   UNL A   1      40.795  25.293  27.129  1.00  0.00     0.031 C 
ATOM     36  C   UNL A   1      43.335  28.210  29.351  1.00  0.00     0.029 A 
ATOM     37  N   UNL A   1      41.490  29.266  29.993  1.00  0.00    -0.354 N 
ATOM     38  C   UNL A   1      42.685  24.230  27.833  1.00  0.00     0.074 A 
ATOM     39  C   UNL A   1      41.593  24.244  26.888  1.00  0.00     0.031 C 
ATOM     40  C   UNL A   1      43.681  29.186  30.224  1.00  0.00     0.029 A 
ATOM     41  C   UNL A   1      42.466  29.654  30.890  1.00  0.00     0.049 A 
ATOM     42  H   UNL A   1      40.646  29.744  29.827  1.00  0.00     0.167 HD
ATOM     43  C   UNL A   1      43.979  23.806  27.782  1.00  0.00     0.031 A 
ATOM     44  C   UNL A   1      42.105  29.513  32.201  1.00  0.00     0.031 A 
ATOM     45  C   UNL A   1      44.773  24.493  28.808  1.00  0.00     0.049 A 
ATOM     46  C   UNL A   1      42.814  28.310  32.777  1.00  0.00     0.074 A 
ATOM     47  C   UNL A   1      45.647  25.566  28.736  1.00  0.00     0.029 A 
ATOM     48  N   UNL A   1      44.421  24.365  30.147  1.00  0.00    -0.354 N 
ATOM     49  N   UNL A   1      43.286  27.325  32.061  1.00  0.00    -0.248 NA
ATOM     50  C   UNL A   1      43.113  28.167  34.192  1.00  0.00     0.031 C 
ATOM     51  C   UNL A   1      45.756  26.129  30.040  1.00  0.00     0.029 A 
ATOM     52  C   UNL A   1      44.955  25.395  30.900  1.00  0.00     0.049 A 
ATOM     53  H   UNL A   1      43.866  23.638  30.510  1.00  0.00     0.167 HD
ATOM     54  C   UNL A   1      44.024  26.491  32.849  1.00  0.00     0.074 A 
ATOM     55  C   UNL A   1      43.865  27.052  34.183  1.00  0.00     0.031 C 
ATOM     56  C   UNL A   1      44.720  25.429  32.343  1.00  0.00     0.031 A 
BRANCH  43  57
ATOM     57  C   UNL A   1      44.605  23.044  26.638  1.00  0.00    -0.014 A 
ATOM     58  C   UNL A   1      44.095  21.774  26.299  1.00  0.00     0.009 A 
ATOM     59  C   UNL A   1      45.660  23.515  25.838  1.00  0.00     0.009 A 
ATOM     60  C   UNL A   1      44.632  21.002  25.260  1.00  0.00     0.001 A 
ATOM     61  C   UNL A   1      46.218  22.738  24.808  1.00  0.00     0.001 A 
ATOM     62  C   UNL A   1      45.704  21.480  24.520  1.00  0.00     0.000 A 
ENDBRANCH  43  57
BRANCH  44  63
ATOM     63  C   UNL A   1      40.656  29.900  32.443  1.00  0.00    -0.014 A 
ATOM     64  C   UNL A   1      40.135  31.005  31.720  1.00  0.00     0.009 A 
ATOM     65  C   UNL A   1      39.728  29.027  33.033  1.00  0.00     0.009 A 
ATOM     66  C   UNL A   1      38.760  31.158  31.492  1.00  0.00     0.001 A 
ATOM     67  C   UNL A   1      38.345  29.206  32.833  1.00  0.00     0.001 A 
ATOM     68  C   UNL A   1      37.865  30.246  32.035  1.00  0.00     0.000 A 
ENDBRANCH  44  63
BRANCH  56  69
ATOM     69  C   UNL A   1      45.311  24.304  33.156  1.00  0.00    -0.014 A 
ATOM     70  C   UNL A   1      46.596  24.318  33.702  1.00  0.00     0.009 A 
ATOM     71  C   UNL A   1      44.480  23.219  33.525  1.00  0.00     0.009 A 
ATOM     72  C   UNL A   1      47.047  23.282  34.526  1.00  0.00     0.001 A 
ATOM     73  C   UNL A   1      44.898  22.225  34.407  1.00  0.00     0.001 A 
ATOM     74  C   UNL A   1      46.194  22.248  34.893  1.00  0.00     0.000 A 
ENDBRANCH  56  69
ENDBRANCH  30  31
ENDBRANCH  23  25
ENDBRANCH  22  23
ENDBRANCH  21  22
ENDBRANCH   1  21
TORSDOF 13
ENDMDL
MODEL 2
REMARK VINA RESULT:     -10.8      4.652      9.876
REMARK SMILES Cc1ccc(/C=C2/SC(=O)N(CC(=O)OCCOC(=O)c3ccc(-c4c5nc(c(-c6ccccc6)c6ccc([nH]6)c(-c6ccccc6)c6nc(c(-c7ccccc7)c7ccc4[nH]7)C=C6)C=C5)cc3)C2=O)cc1
REMARK SMILES IDX 16 1 15 2 13 3 14 4 12 5 11 6 6 7 7 8 8 9 69 10 9 11 70 12
REMARK SMILES IDX 10 13 5 14 1 15 2 16 3 17 72 18 4 19 71 20 17 21 18 22 19 23
REMARK SMILES IDX 20 24 21 25 22 26 68 27 23 28 67 29 24 30 25 31 26 32 61 33
REMARK SMILES IDX 27 34 66 35 60 36 62 37 28 38 65 39 59 40 58 41 29 43 51 44
REMARK SMILES IDX 36 45 50 46 37 47 40 48 49 49 63 50 38 51 39 52 48 54 64 55
REMARK SMILES IDX 41 56 30 57 31 58 35 59 32 60 34 61 33 62 52 63 53 64 57 65
REMARK SMILES IDX 54 66 56 67 55 68 42 69 43 70 47 71 44 72 46 73 45 74
REMARK H PARENT 62 42 40 53
REMARK Flexibility Score: inf
ROOT
ATOM      1  C   UNL A   1      35.348  21.038  25.252  1.00  0.00     0.274 C 
ENDROOT
BRANCH   1   2
ATOM      2  O   UNL A   1      34.915  21.371  26.571  1.00  0.00    -0.461 OA
BRANCH   2   3
ATOM      3  C   UNL A   1      34.394  22.601  26.757  1.00  0.00     0.326 C 
ATOM      4  O   UNL A   1      35.041  23.636  26.687  1.00  0.00    -0.250 OA
BRANCH   3   5
ATOM      5  C   UNL A   1      32.902  22.487  27.077  1.00  0.00     0.252 C 
BRANCH   5   6
ATOM      6  N   UNL A   1      32.219  23.092  25.961  1.00  0.00    -0.257 N 
ATOM      7  C   UNL A   1      31.981  26.132  24.113  1.00  0.00     0.029 C 
ATOM      8  C   UNL A   1      31.765  24.895  24.578  1.00  0.00     0.083 C 
ATOM      9  S   UNL A   1      31.404  23.525  23.584  1.00  0.00    -0.022 SA
ATOM     10  C   UNL A   1      31.931  24.433  25.974  1.00  0.00     0.268 C 
ATOM     11  C   UNL A   1      31.841  22.401  24.859  1.00  0.00     0.294 C 
ATOM     12  O   UNL A   1      31.843  25.119  26.976  1.00  0.00    -0.268 OA
ATOM     13  O   UNL A   1      31.777  21.182  24.746  1.00  0.00    -0.261 OA
BRANCH   7  14
ATOM     14  C   UNL A   1      32.365  27.313  24.900  1.00  0.00    -0.024 A 
ATOM     15  C   UNL A   1      33.256  30.801  27.292  1.00  0.00     0.044 C 
ATOM     16  C   UNL A   1      32.971  29.610  26.425  1.00  0.00    -0.051 A 
ATOM     17  C   UNL A   1      31.691  29.424  25.896  1.00  0.00     0.004 A 
ATOM     18  C   UNL A   1      33.957  28.657  26.155  1.00  0.00     0.004 A 
ATOM     19  C   UNL A   1      31.393  28.288  25.138  1.00  0.00     0.008 A 
ATOM     20  C   UNL A   1      33.660  27.519  25.392  1.00  0.00     0.008 A 
ENDBRANCH   7  14
ENDBRANCH   5   6
ENDBRANCH   3   5
ENDBRANCH   2   3
ENDBRANCH   1   2
BRANCH   1  21
ATOM     21  C   UNL A   1      36.823  21.335  24.864  1.00  0.00     0.275 C 
BRANCH  21  22
ATOM     22  O   UNL A   1      37.895  21.828  25.760  1.00  0.00    -0.458 OA
BRANCH  22  23
ATOM     23  C   UNL A   1      39.173  21.523  26.119  1.00  0.00     0.338 C 
ATOM     24  O   UNL A   1      39.723  20.469  25.832  1.00  0.00    -0.246 OA
BRANCH  23  25
ATOM     25  C   UNL A   1      39.900  22.531  26.873  1.00  0.00     0.060 A 
ATOM     26  C   UNL A   1      40.850  22.254  27.875  1.00  0.00     0.016 A 
ATOM     27  C   UNL A   1      39.636  23.814  26.484  1.00  0.00     0.016 A 
ATOM     28  C   UNL A   1      41.578  23.309  28.427  1.00  0.00     0.010 A 
ATOM     29  C   UNL A   1      40.595  24.739  26.723  1.00  0.00     0.010 A 
ATOM     30  C   UNL A   1      41.435  24.552  27.820  1.00  0.00    -0.014 A 
BRANCH  30  31
ATOM     31  C   UNL A   1      41.800  25.852  28.349  1.00  0.00     0.031 A 
ATOM     32  C   UNL A   1      40.785  26.817  28.744  1.00  0.00     0.074 A 
ATOM     33  C   UNL A   1      43.104  25.876  28.730  1.00  0.00     0.049 A 
ATOM     34  N   UNL A   1      40.984  28.084  28.769  1.00  0.00    -0.248 NA
ATOM     35  C   UNL A   1      39.433  26.438  29.155  1.00  0.00     0.031 C 
ATOM     36  C   UNL A   1      43.859  26.694  29.655  1.00  0.00     0.029 A 
ATOM     37  N   UNL A   1      44.077  24.994  28.245  1.00  0.00    -0.354 N 
ATOM     38  C   UNL A   1      39.998  28.607  29.573  1.00  0.00     0.074 A 
ATOM     39  C   UNL A   1      38.960  27.603  29.614  1.00  0.00     0.031 C 
ATOM     40  C   UNL A   1      45.178  26.504  29.412  1.00  0.00     0.029 A 
ATOM     41  C   UNL A   1      45.305  25.624  28.252  1.00  0.00     0.049 A 
ATOM     42  H   UNL A   1      43.911  24.070  27.946  1.00  0.00     0.167 HD
ATOM     43  C   UNL A   1      40.287  29.705  30.327  1.00  0.00     0.031 A 
ATOM     44  C   UNL A   1      45.788  25.918  27.007  1.00  0.00     0.031 A 
ATOM     45  C   UNL A   1      41.706  30.051  30.186  1.00  0.00     0.049 A 
ATOM     46  C   UNL A   1      45.632  27.400  26.762  1.00  0.00     0.074 A 
ATOM     47  C   UNL A   1      42.800  29.820  31.005  1.00  0.00     0.029 A 
ATOM     48  N   UNL A   1      42.217  30.352  28.928  1.00  0.00    -0.354 N 
ATOM     49  N   UNL A   1      44.779  28.163  27.391  1.00  0.00    -0.248 NA
ATOM     50  C   UNL A   1      46.480  28.146  25.847  1.00  0.00     0.031 C 
ATOM     51  C   UNL A   1      43.974  29.913  30.203  1.00  0.00     0.029 A 
ATOM     52  C   UNL A   1      43.592  30.204  28.903  1.00  0.00     0.049 A 
ATOM     53  H   UNL A   1      41.672  30.633  28.158  1.00  0.00     0.167 HD
ATOM     54  C   UNL A   1      45.008  29.471  27.079  1.00  0.00     0.074 A 
ATOM     55  C   UNL A   1      46.072  29.405  26.088  1.00  0.00     0.031 C 
ATOM     56  C   UNL A   1      44.326  30.497  27.673  1.00  0.00     0.031 A 
BRANCH  43  57
ATOM     57  C   UNL A   1      39.412  30.269  31.422  1.00  0.00    -0.014 A 
ATOM     58  C   UNL A   1      39.585  29.809  32.743  1.00  0.00     0.009 A 
ATOM     59  C   UNL A   1      38.435  31.263  31.240  1.00  0.00     0.009 A 
ATOM     60  C   UNL A   1      38.802  30.275  33.808  1.00  0.00     0.001 A 
ATOM     61  C   UNL A   1      37.632  31.719  32.300  1.00  0.00     0.001 A 
ATOM     62  C   UNL A   1      37.816  31.223  33.584  1.00  0.00     0.000 A 
ENDBRANCH  43  57
BRANCH  44  63
ATOM     63  C   UNL A   1      45.509  24.810  26.007  1.00  0.00    -0.014 A 
ATOM     64  C   UNL A   1      46.219  23.589  26.154  1.00  0.00     0.009 A 
ATOM     65  C   UNL A   1      44.359  24.788  25.203  1.00  0.00     0.009 A 
ATOM     66  C   UNL A   1      45.733  22.383  25.630  1.00  0.00     0.001 A 
ATOM     67  C   UNL A   1      43.894  23.579  24.646  1.00  0.00     0.001 A 
ATOM     68  C   UNL A   1      44.558  22.376  24.889  1.00  0.00     0.000 A 
ENDBRANCH  44  63
BRANCH  56  69
ATOM     69  C   UNL A   1      44.304  31.926  27.190  1.00  0.00    -0.014 A 
ATOM     70  C   UNL A   1      43.952  32.314  25.896  1.00  0.00     0.009 A 
ATOM     71  C   UNL A   1      44.506  32.966  28.128  1.00  0.00     0.009 A 
ATOM     72  C   UNL A   1      43.859  33.664  25.542  1.00  0.00     0.001 A 
ATOM     73  C   UNL A   1      44.340  34.310  27.801  1.00  0.00     0.001 A 
ATOM     74  C   UNL A   1      44.035  34.659  26.498  1.00  0.00     0.000 A 
ENDBRANCH  56  69
ENDBRANCH  30  31
ENDBRANCH  23  25
ENDBRANCH  22  23
ENDBRANCH  21  22
ENDBRANCH   1  21
TORSDOF 13
ENDMDL
MODEL 3
REMARK VINA RESULT:     -10.7      4.817      8.183
REMARK SMILES Cc1ccc(/C=C2/SC(=O)N(CC(=O)OCCOC(=O)c3ccc(-c4c5nc(c(-c6ccccc6)c6ccc([nH]6)c(-c6ccccc6)c6nc(c(-c7ccccc7)c7ccc4[nH]7)C=C6)C=C5)cc3)C2=O)cc1
REMARK SMILES IDX 16 1 15 2 13 3 14 4 12 5 11 6 6 7 7 8 8 9 69 10 9 11 70 12
REMARK SMILES IDX 10 13 5 14 1 15 2 16 3 17 72 18 4 19 71 20 17 21 18 22 19 23
REMARK SMILES IDX 20 24 21 25 22 26 68 27 23 28 67 29 24 30 25 31 26 32 61 33
REMARK SMILES IDX 27 34 66 35 60 36 62 37 28 38 65 39 59 40 58 41 29 43 51 44
REMARK SMILES IDX 36 45 50 46 37 47 40 48 49 49 63 50 38 51 39 52 48 54 64 55
REMARK SMILES IDX 41 56 30 57 31 58 35 59 32 60 34 61 33 62 52 63 53 64 57 65
REMARK SMILES IDX 54 66 56 67 55 68 42 69 43 70 47 71 44 72 46 73 45 74
REMARK H PARENT 62 42 40 53
REMARK Flexibility Score: inf
ROOT
ATOM      1  C   UNL A   1      31.647  27.924  26.663  1.00  0.00     0.274 C 
ENDROOT
BRANCH   1   2
ATOM      2  O   UNL A   1      30.899  27.560  25.502  1.00  0.00    -0.461 OA
BRANCH   2   3
ATOM      3  C   UNL A   1      30.201  26.407  25.554  1.00  0.00     0.326 C 
ATOM      4  O   UNL A   1      29.975  25.790  26.585  1.00  0.00    -0.250 OA
BRANCH   3   5
ATOM      5  C   UNL A   1      29.765  26.003  24.145  1.00  0.00     0.252 C 
BRANCH   5   6
ATOM      6  N   UNL A   1      30.984  25.845  23.391  1.00  0.00    -0.257 N 
ATOM      7  C   UNL A   1      33.273  23.376  22.220  1.00  0.00     0.029 C 
ATOM      8  C   UNL A   1      32.689  24.544  22.517  1.00  0.00     0.083 C 
ATOM      9  S   UNL A   1      32.646  25.914  21.460  1.00  0.00    -0.022 SA
ATOM     10  C   UNL A   1      31.864  24.842  23.709  1.00  0.00     0.268 C 
ATOM     11  C   UNL A   1      31.320  26.642  22.349  1.00  0.00     0.294 C 
ATOM     12  O   UNL A   1      31.935  24.291  24.792  1.00  0.00    -0.268 OA
ATOM     13  O   UNL A   1      30.816  27.722  22.060  1.00  0.00    -0.261 OA
BRANCH   7  14
ATOM     14  C   UNL A   1      33.275  22.159  23.044  1.00  0.00    -0.024 A 
ATOM     15  C   UNL A   1      33.170  18.459  25.275  1.00  0.00     0.044 C 
ATOM     16  C   UNL A   1      33.189  19.765  24.539  1.00  0.00    -0.051 A 
ATOM     17  C   UNL A   1      32.228  20.027  23.559  1.00  0.00     0.004 A 
ATOM     18  C   UNL A   1      34.172  20.726  24.792  1.00  0.00     0.004 A 
ATOM     19  C   UNL A   1      32.269  21.214  22.822  1.00  0.00     0.008 A 
ATOM     20  C   UNL A   1      34.213  21.918  24.055  1.00  0.00     0.008 A 
ENDBRANCH   7  14
ENDBRANCH   5   6
ENDBRANCH   3   5
ENDBRANCH   2   3
ENDBRANCH   1   2
BRANCH   1  21
ATOM     21  C   UNL A   1      31.874  29.434  26.949  1.00  0.00     0.275 C 
BRANCH  21  22
ATOM     22  O   UNL A   1      33.177  30.124  27.095  1.00  0.00    -0.458 OA
BRANCH  22  23
ATOM     23  C   UNL A   1      33.681  31.317  27.518  1.00  0.00     0.338 C 
ATOM     24  O   UNL A   1      33.030  32.351  27.555  1.00  0.00    -0.246 OA
BRANCH  23  25
ATOM     25  C   UNL A   1      35.067  31.324  27.956  1.00  0.00     0.060 A 
ATOM     26  C   UNL A   1      35.908  32.454  27.943  1.00  0.00     0.016 A 
ATOM     27  C   UNL A   1      35.496  30.128  28.461  1.00  0.00     0.016 A 
ATOM     28  C   UNL A   1      37.176  32.361  28.519  1.00  0.00     0.010 A 
ATOM     29  C   UNL A   1      36.524  30.167  29.341  1.00  0.00     0.010 A 
ATOM     30  C   UNL A   1      37.457  31.196  29.226  1.00  0.00    -0.014 A 
BRANCH  30  31
ATOM     31  C   UNL A   1      38.752  30.695  29.642  1.00  0.00     0.031 A 
ATOM     32  C   UNL A   1      39.378  29.569  28.966  1.00  0.00     0.074 A 
ATOM     33  C   UNL A   1      39.391  31.593  30.437  1.00  0.00     0.049 A 
ATOM     34  N   UNL A   1      40.237  28.797  29.524  1.00  0.00    -0.248 NA
ATOM     35  C   UNL A   1      39.088  29.203  27.580  1.00  0.00     0.031 C 
ATOM     36  C   UNL A   1      40.781  31.817  30.774  1.00  0.00     0.029 A 
ATOM     37  N   UNL A   1      38.739  32.602  31.157  1.00  0.00    -0.354 N 
ATOM     38  C   UNL A   1      40.896  28.160  28.498  1.00  0.00     0.074 A 
ATOM     39  C   UNL A   1      40.028  28.276  27.349  1.00  0.00     0.031 C 
ATOM     40  C   UNL A   1      40.830  32.632  31.854  1.00  0.00     0.029 A 
ATOM     41  C   UNL A   1      39.460  32.880  32.302  1.00  0.00     0.049 A 
ATOM     42  H   UNL A   1      37.900  33.042  30.891  1.00  0.00     0.167 HD
ATOM     43  C   UNL A   1      42.211  27.844  28.665  1.00  0.00     0.031 A 
ATOM     44  C   UNL A   1      38.853  32.470  33.456  1.00  0.00     0.031 A 
ATOM     45  C   UNL A   1      42.696  28.378  29.944  1.00  0.00     0.049 A 
ATOM     46  C   UNL A   1      39.555  31.232  33.963  1.00  0.00     0.074 A 
ATOM     47  C   UNL A   1      43.443  29.504  30.252  1.00  0.00     0.029 A 
ATOM     48  N   UNL A   1      42.091  27.976  31.129  1.00  0.00    -0.354 N 
ATOM     49  N   UNL A   1      40.269  30.434  33.214  1.00  0.00    -0.248 NA
ATOM     50  C   UNL A   1      39.568  30.845  35.364  1.00  0.00     0.031 C 
ATOM     51  C   UNL A   1      43.219  29.816  31.623  1.00  0.00     0.029 A 
ATOM     52  C   UNL A   1      42.342  28.879  32.146  1.00  0.00     0.049 A 
ATOM     53  H   UNL A   1      41.555  27.156  31.231  1.00  0.00     0.167 HD
ATOM     54  C   UNL A   1      40.914  29.520  33.995  1.00  0.00     0.074 A 
ATOM     55  C   UNL A   1      40.422  29.807  35.335  1.00  0.00     0.031 C 
ATOM     56  C   UNL A   1      41.811  28.624  33.484  1.00  0.00     0.031 A 
BRANCH  43  57
ATOM     57  C   UNL A   1      43.139  27.357  27.578  1.00  0.00    -0.014 A 
ATOM     58  C   UNL A   1      43.404  25.977  27.469  1.00  0.00     0.009 A 
ATOM     59  C   UNL A   1      43.755  28.178  26.617  1.00  0.00     0.009 A 
ATOM     60  C   UNL A   1      44.264  25.452  26.495  1.00  0.00     0.001 A 
ATOM     61  C   UNL A   1      44.636  27.661  25.652  1.00  0.00     0.001 A 
ATOM     62  C   UNL A   1      44.891  26.298  25.592  1.00  0.00     0.000 A 
ENDBRANCH  43  57
BRANCH  44  63
ATOM     63  C   UNL A   1      37.353  32.702  33.430  1.00  0.00    -0.014 A 
ATOM     64  C   UNL A   1      36.878  34.010  33.714  1.00  0.00     0.009 A 
ATOM     65  C   UNL A   1      36.462  31.823  32.793  1.00  0.00     0.009 A 
ATOM     66  C   UNL A   1      35.625  34.455  33.270  1.00  0.00     0.001 A 
ATOM     67  C   UNL A   1      35.188  32.263  32.383  1.00  0.00     0.001 A 
ATOM     68  C   UNL A   1      34.785  33.584  32.588  1.00  0.00     0.000 A 
ENDBRANCH  44  63
BRANCH  56  69
ATOM     69  C   UNL A   1      42.340  27.409  34.206  1.00  0.00    -0.014 A 
ATOM     70  C   UNL A   1      41.543  26.499  34.903  1.00  0.00     0.009 A 
ATOM     71  C   UNL A   1      43.706  27.070  34.061  1.00  0.00     0.009 A 
ATOM     72  C   UNL A   1      42.087  25.341  35.470  1.00  0.00     0.001 A 
ATOM     73  C   UNL A   1      44.237  25.882  34.556  1.00  0.00     0.001 A 
ATOM     74  C   UNL A   1      43.427  25.024  35.280  1.00  0.00     0.000 A 
ENDBRANCH  56  69
ENDBRANCH  30  31
ENDBRANCH  23  25
ENDBRANCH  22  23
ENDBRANCH  21  22
ENDBRANCH   1  21
TORSDOF 13
ENDMDL
