MODEL 1
REMARK VINA RESULT:     -11.9      0.000      0.000
REMARK SMILES O=C(OCCOC(=O)[C@@H]1CCCN(c2ccc3cc(S(=O)(=O)N4CCCCC4)ccc3n2)C1)c1ccc(-c2c3nc(c(-c4ccccc4)c4ccc([nH]4)c(-c4ccccc4)c4nc(c(-c5ccccc5)c5ccc2[nH]5)C=C4)C=C3)cc1
REMARK SMILES IDX 5 1 4 2 3 3 2 4 1 5 34 6 35 7 81 8 36 9 80 10 37 11 38 12
REMARK SMILES IDX 39 13 74 14 40 15 79 16 73 17 75 18 41 19 78 20 72 21 71 22
REMARK SMILES IDX 42 24 64 25 49 26 63 27 50 28 53 29 62 30 76 31 51 32 52 33
REMARK SMILES IDX 61 35 77 36 54 37 43 38 44 39 48 40 45 41 47 42 46 43 65 44
REMARK SMILES IDX 66 45 70 46 67 47 69 48 68 49 55 50 56 51 60 52 57 53 59 54
REMARK SMILES IDX 58 55 6 56 7 57 8 58 9 59 10 60 33 61 11 62 13 63 12 64
REMARK SMILES IDX 14 65 15 66 32 67 16 68 31 69 17 70 30 71 18 72 29 73 19 74
REMARK SMILES IDX 20 75 21 76 22 77 23 78 24 79 28 80 25 81 27 82 26 83
REMARK H PARENT 75 23 53 34
REMARK Flexibility Score: inf
ROOT
ATOM      1  C   UNL A   1      32.889  36.456  28.963  1.00  0.00     0.274 C 
ENDROOT
BRANCH   1   2
ATOM      2  C   UNL A   1      33.231  37.153  30.276  1.00  0.00     0.275 C 
BRANCH   2   3
ATOM      3  O   UNL A   1      32.441  36.693  31.394  1.00  0.00    -0.458 OA
BRANCH   3   4
ATOM      4  C   UNL A   1      32.588  35.636  32.226  1.00  0.00     0.338 C 
ATOM      5  O   UNL A   1      31.575  35.157  32.736  1.00  0.00    -0.246 OA
BRANCH   4   6
ATOM      6  C   UNL A   1      33.897  34.999  32.598  1.00  0.00     0.060 A 
ATOM      7  C   UNL A   1      35.165  35.581  32.485  1.00  0.00     0.016 A 
ATOM      8  C   UNL A   1      33.838  33.661  33.043  1.00  0.00     0.016 A 
ATOM      9  C   UNL A   1      36.326  34.877  32.862  1.00  0.00     0.010 A 
ATOM     10  C   UNL A   1      34.992  32.948  33.397  1.00  0.00     0.010 A 
ATOM     11  C   UNL A   1      36.250  33.556  33.317  1.00  0.00    -0.014 A 
BRANCH  11  12
ATOM     12  C   UNL A   1      37.473  32.764  33.611  1.00  0.00     0.031 A 
ATOM     13  C   UNL A   1      38.305  33.122  34.800  1.00  0.00     0.074 A 
ATOM     14  C   UNL A   1      37.870  31.758  32.809  1.00  0.00     0.049 A 
ATOM     15  N   UNL A   1      39.388  32.538  35.240  1.00  0.00    -0.248 NA
ATOM     16  C   UNL A   1      37.845  34.254  35.617  1.00  0.00     0.031 C 
ATOM     17  C   UNL A   1      37.104  31.254  31.687  1.00  0.00     0.029 A 
ATOM     18  N   UNL A   1      39.007  30.992  32.787  1.00  0.00    -0.354 N 
ATOM     19  C   UNL A   1      39.713  33.198  36.411  1.00  0.00     0.074 A 
ATOM     20  C   UNL A   1      38.745  34.260  36.589  1.00  0.00     0.031 C 
ATOM     21  C   UNL A   1      37.812  30.337  31.013  1.00  0.00     0.029 A 
ATOM     22  C   UNL A   1      39.084  30.156  31.693  1.00  0.00     0.049 A 
ATOM     23  H   UNL A   1      39.702  31.035  33.484  1.00  0.00     0.167 HD
ATOM     24  C   UNL A   1      40.721  32.925  37.271  1.00  0.00     0.031 A 
ATOM     25  C   UNL A   1      40.063  29.327  31.287  1.00  0.00     0.031 A 
ATOM     26  C   UNL A   1      41.714  31.909  37.052  1.00  0.00     0.049 A 
ATOM     27  C   UNL A   1      41.257  29.159  32.178  1.00  0.00     0.074 A 
ATOM     28  C   UNL A   1      42.765  31.540  37.872  1.00  0.00     0.029 A 
ATOM     29  N   UNL A   1      41.799  31.123  35.912  1.00  0.00    -0.354 N 
ATOM     30  N   UNL A   1      41.487  29.707  33.346  1.00  0.00    -0.248 NA
ATOM     31  C   UNL A   1      42.303  28.233  31.724  1.00  0.00     0.031 C 
ATOM     32  C   UNL A   1      43.526  30.579  37.196  1.00  0.00     0.029 A 
ATOM     33  C   UNL A   1      42.921  30.315  35.977  1.00  0.00     0.049 A 
ATOM     34  H   UNL A   1      41.156  31.139  35.166  1.00  0.00     0.167 HD
ATOM     35  C   UNL A   1      42.683  29.165  33.788  1.00  0.00     0.074 A 
ATOM     36  C   UNL A   1      43.126  28.239  32.764  1.00  0.00     0.031 C 
ATOM     37  C   UNL A   1      43.348  29.409  34.942  1.00  0.00     0.031 A 
BRANCH  24  38
ATOM     38  C   UNL A   1      40.800  33.768  38.505  1.00  0.00    -0.014 A 
ATOM     39  C   UNL A   1      40.130  33.391  39.680  1.00  0.00     0.009 A 
ATOM     40  C   UNL A   1      41.545  34.955  38.492  1.00  0.00     0.009 A 
ATOM     41  C   UNL A   1      40.184  34.205  40.813  1.00  0.00     0.001 A 
ATOM     42  C   UNL A   1      41.610  35.757  39.631  1.00  0.00     0.001 A 
ATOM     43  C   UNL A   1      40.924  35.386  40.788  1.00  0.00     0.000 A 
ENDBRANCH  24  38
BRANCH  25  44
ATOM     44  C   UNL A   1      39.952  28.594  29.997  1.00  0.00    -0.014 A 
ATOM     45  C   UNL A   1      39.433  27.291  29.946  1.00  0.00     0.009 A 
ATOM     46  C   UNL A   1      40.396  29.189  28.805  1.00  0.00     0.009 A 
ATOM     47  C   UNL A   1      39.395  26.589  28.737  1.00  0.00     0.001 A 
ATOM     48  C   UNL A   1      40.335  28.493  27.594  1.00  0.00     0.001 A 
ATOM     49  C   UNL A   1      39.845  27.190  27.563  1.00  0.00     0.000 A 
ENDBRANCH  25  44
BRANCH  37  50
ATOM     50  C   UNL A   1      44.625  28.652  35.157  1.00  0.00    -0.014 A 
ATOM     51  C   UNL A   1      45.855  29.191  34.754  1.00  0.00     0.009 A 
ATOM     52  C   UNL A   1      44.598  27.407  35.802  1.00  0.00     0.009 A 
ATOM     53  C   UNL A   1      47.037  28.484  34.973  1.00  0.00     0.001 A 
ATOM     54  C   UNL A   1      45.785  26.716  36.045  1.00  0.00     0.001 A 
ATOM     55  C   UNL A   1      47.002  27.251  35.625  1.00  0.00     0.000 A 
ENDBRANCH  37  50
ENDBRANCH  11  12
ENDBRANCH   4   6
ENDBRANCH   3   4
ENDBRANCH   2   3
ENDBRANCH   1   2
BRANCH   1  56
ATOM     56  O   UNL A   1      33.922  35.520  28.647  1.00  0.00    -0.462 OA
BRANCH  56  57
ATOM     57  C   UNL A   1      33.600  34.194  28.641  1.00  0.00     0.310 C 
ATOM     58  O   UNL A   1      32.752  33.685  27.923  1.00  0.00    -0.252 OA
BRANCH  57  59
ATOM     59  C   UNL A   1      34.537  33.439  29.564  1.00  0.00     0.118 C 
ATOM     60  C   UNL A   1      36.013  33.830  29.432  1.00  0.00     0.019 C 
ATOM     61  C   UNL A   1      34.393  31.940  29.364  1.00  0.00     0.133 C 
ATOM     62  C   UNL A   1      36.688  33.244  28.184  1.00  0.00     0.022 C 
ATOM     63  N   UNL A   1      34.977  31.534  28.088  1.00  0.00    -0.356 N 
ATOM     64  C   UNL A   1      36.413  31.747  27.982  1.00  0.00     0.118 C 
BRANCH  63  65
ATOM     65  C   UNL A   1      34.368  30.554  27.319  1.00  0.00     0.129 A 
ATOM     66  C   UNL A   1      34.931  29.281  27.236  1.00  0.00     0.047 A 
ATOM     67  N   UNL A   1      33.222  30.833  26.660  1.00  0.00    -0.231 NA
ATOM     68  C   UNL A   1      34.308  28.275  26.509  1.00  0.00     0.014 A 
ATOM     69  C   UNL A   1      32.623  29.870  25.925  1.00  0.00     0.073 A 
ATOM     70  C   UNL A   1      33.121  28.557  25.847  1.00  0.00     0.002 A 
ATOM     71  C   UNL A   1      31.465  30.155  25.210  1.00  0.00     0.030 A 
ATOM     72  C   UNL A   1      32.429  27.557  25.143  1.00  0.00     0.032 A 
ATOM     73  C   UNL A   1      30.770  29.169  24.487  1.00  0.00     0.024 A 
ATOM     74  C   UNL A   1      31.234  27.857  24.487  1.00  0.00     0.083 A 
BRANCH  74  75
ATOM     75  S   UNL A   1      30.378  26.476  23.743  1.00  0.00     0.243 S 
ATOM     76  O   UNL A   1      28.968  26.712  23.981  1.00  0.00    -0.207 OA
ATOM     77  O   UNL A   1      30.901  26.372  22.398  1.00  0.00    -0.207 OA
BRANCH  75  78
ATOM     78  N   UNL A   1      30.812  25.062  24.583  1.00  0.00    -0.198 NA
ATOM     79  C   UNL A   1      30.201  24.858  25.918  1.00  0.00     0.102 C 
ATOM     80  C   UNL A   1      31.080  23.861  23.759  1.00  0.00     0.102 C 
ATOM     81  C   UNL A   1      30.872  23.723  26.683  1.00  0.00     0.017 C 
ATOM     82  C   UNL A   1      31.760  22.769  24.573  1.00  0.00     0.017 C 
ATOM     83  C   UNL A   1      30.971  22.462  25.837  1.00  0.00     0.003 C 
ENDBRANCH  75  78
ENDBRANCH  74  75
ENDBRANCH  63  65
ENDBRANCH  57  59
ENDBRANCH  56  57
ENDBRANCH   1  56
TORSDOF 14
ENDMDL
MODEL 2
REMARK VINA RESULT:     -11.7      7.198     12.302
REMARK SMILES O=C(OCCOC(=O)[C@@H]1CCCN(c2ccc3cc(S(=O)(=O)N4CCCCC4)ccc3n2)C1)c1ccc(-c2c3nc(c(-c4ccccc4)c4ccc([nH]4)c(-c4ccccc4)c4nc(c(-c5ccccc5)c5ccc2[nH]5)C=C4)C=C3)cc1
REMARK SMILES IDX 5 1 4 2 3 3 2 4 1 5 34 6 35 7 81 8 36 9 80 10 37 11 38 12
REMARK SMILES IDX 39 13 74 14 40 15 79 16 73 17 75 18 41 19 78 20 72 21 71 22
REMARK SMILES IDX 42 24 64 25 49 26 63 27 50 28 53 29 62 30 76 31 51 32 52 33
REMARK SMILES IDX 61 35 77 36 54 37 43 38 44 39 48 40 45 41 47 42 46 43 65 44
REMARK SMILES IDX 66 45 70 46 67 47 69 48 68 49 55 50 56 51 60 52 57 53 59 54
REMARK SMILES IDX 58 55 6 56 7 57 8 58 9 59 10 60 33 61 11 62 13 63 12 64
REMARK SMILES IDX 14 65 15 66 32 67 16 68 31 69 17 70 30 71 18 72 29 73 19 74
REMARK SMILES IDX 20 75 21 76 22 77 23 78 24 79 28 80 25 81 27 82 26 83
REMARK H PARENT 75 23 53 34
REMARK Flexibility Score: inf
ROOT
ATOM      1  C   UNL A   1      42.936  18.486  25.931  1.00  0.00     0.274 C 
ENDROOT
BRANCH   1   2
ATOM      2  C   UNL A   1      44.422  18.166  25.815  1.00  0.00     0.275 C 
BRANCH   2   3
ATOM      3  O   UNL A   1      45.032  18.689  24.615  1.00  0.00    -0.458 OA
BRANCH   3   4
ATOM      4  C   UNL A   1      44.874  19.864  23.965  1.00  0.00     0.338 C 
ATOM      5  O   UNL A   1      44.496  19.830  22.793  1.00  0.00    -0.246 OA
BRANCH   4   6
ATOM      6  C   UNL A   1      45.139  21.224  24.548  1.00  0.00     0.060 A 
ATOM      7  C   UNL A   1      45.652  21.493  25.822  1.00  0.00     0.016 A 
ATOM      8  C   UNL A   1      44.769  22.329  23.753  1.00  0.00     0.016 A 
ATOM      9  C   UNL A   1      45.850  22.817  26.261  1.00  0.00     0.010 A 
ATOM     10  C   UNL A   1      44.943  23.648  24.195  1.00  0.00     0.010 A 
ATOM     11  C   UNL A   1      45.495  23.904  25.455  1.00  0.00    -0.014 A 
BRANCH  11  12
ATOM     12  C   UNL A   1      45.592  25.303  25.948  1.00  0.00     0.031 A 
ATOM     13  C   UNL A   1      46.937  25.946  26.055  1.00  0.00     0.074 A 
ATOM     14  C   UNL A   1      44.502  25.990  26.338  1.00  0.00     0.049 A 
ATOM     15  N   UNL A   1      47.230  27.161  26.434  1.00  0.00    -0.248 NA
ATOM     16  C   UNL A   1      48.096  25.135  25.653  1.00  0.00     0.031 C 
ATOM     17  C   UNL A   1      43.141  25.516  26.194  1.00  0.00     0.029 A 
ATOM     18  N   UNL A   1      44.351  27.209  26.947  1.00  0.00    -0.354 N 
ATOM     19  C   UNL A   1      48.598  27.280  26.271  1.00  0.00     0.074 A 
ATOM     20  C   UNL A   1      49.088  25.999  25.807  1.00  0.00     0.031 C 
ATOM     21  C   UNL A   1      42.286  26.365  26.781  1.00  0.00     0.029 A 
ATOM     22  C   UNL A   1      43.050  27.482  27.313  1.00  0.00     0.049 A 
ATOM     23  H   UNL A   1      45.099  27.829  27.110  1.00  0.00     0.167 HD
ATOM     24  C   UNL A   1      49.371  28.372  26.471  1.00  0.00     0.031 A 
ATOM     25  C   UNL A   1      42.526  28.519  27.991  1.00  0.00     0.031 A 
ATOM     26  C   UNL A   1      48.884  29.620  26.992  1.00  0.00     0.049 A 
ATOM     27  C   UNL A   1      43.436  29.654  28.353  1.00  0.00     0.074 A 
ATOM     28  C   UNL A   1      49.583  30.793  27.214  1.00  0.00     0.029 A 
ATOM     29  N   UNL A   1      47.579  29.844  27.407  1.00  0.00    -0.354 N 
ATOM     30  N   UNL A   1      44.710  29.798  28.079  1.00  0.00    -0.248 NA
ATOM     31  C   UNL A   1      42.838  30.785  29.074  1.00  0.00     0.031 C 
ATOM     32  C   UNL A   1      48.715  31.704  27.828  1.00  0.00     0.029 A 
ATOM     33  C   UNL A   1      47.465  31.116  27.943  1.00  0.00     0.049 A 
ATOM     34  H   UNL A   1      46.843  29.195  27.332  1.00  0.00     0.167 HD
ATOM     35  C   UNL A   1      45.060  31.050  28.559  1.00  0.00     0.074 A 
ATOM     36  C   UNL A   1      43.861  31.628  29.133  1.00  0.00     0.031 C 
ATOM     37  C   UNL A   1      46.265  31.666  28.517  1.00  0.00     0.031 A 
BRANCH  24  38
ATOM     38  C   UNL A   1      50.827  28.234  26.150  1.00  0.00    -0.014 A 
ATOM     39  C   UNL A   1      51.744  27.820  27.128  1.00  0.00     0.009 A 
ATOM     40  C   UNL A   1      51.287  28.528  24.859  1.00  0.00     0.009 A 
ATOM     41  C   UNL A   1      53.103  27.728  26.824  1.00  0.00     0.001 A 
ATOM     42  C   UNL A   1      52.644  28.420  24.555  1.00  0.00     0.001 A 
ATOM     43  C   UNL A   1      53.552  28.028  25.539  1.00  0.00     0.000 A 
ENDBRANCH  24  38
BRANCH  25  44
ATOM     44  C   UNL A   1      41.084  28.538  28.356  1.00  0.00    -0.014 A 
ATOM     45  C   UNL A   1      40.626  27.934  29.537  1.00  0.00     0.009 A 
ATOM     46  C   UNL A   1      40.146  29.143  27.503  1.00  0.00     0.009 A 
ATOM     47  C   UNL A   1      39.261  27.903  29.836  1.00  0.00     0.001 A 
ATOM     48  C   UNL A   1      38.785  29.131  27.815  1.00  0.00     0.001 A 
ATOM     49  C   UNL A   1      38.341  28.502  28.976  1.00  0.00     0.000 A 
ENDBRANCH  25  44
BRANCH  37  50
ATOM     50  C   UNL A   1      46.338  33.043  29.107  1.00  0.00    -0.014 A 
ATOM     51  C   UNL A   1      46.721  33.233  30.443  1.00  0.00     0.009 A 
ATOM     52  C   UNL A   1      46.059  34.160  28.308  1.00  0.00     0.009 A 
ATOM     53  C   UNL A   1      46.800  34.519  30.976  1.00  0.00     0.001 A 
ATOM     54  C   UNL A   1      46.166  35.447  28.835  1.00  0.00     0.001 A 
ATOM     55  C   UNL A   1      46.530  35.625  30.169  1.00  0.00     0.000 A 
ENDBRANCH  37  50
ENDBRANCH  11  12
ENDBRANCH   4   6
ENDBRANCH   3   4
ENDBRANCH   2   3
ENDBRANCH   1   2
BRANCH   1  56
ATOM     56  O   UNL A   1      42.659  18.953  27.253  1.00  0.00    -0.462 OA
BRANCH  56  57
ATOM     57  C   UNL A   1      41.716  19.930  27.399  1.00  0.00     0.310 C 
ATOM     58  O   UNL A   1      40.646  19.786  27.971  1.00  0.00    -0.252 OA
BRANCH  57  59
ATOM     59  C   UNL A   1      42.255  21.240  26.858  1.00  0.00     0.118 C 
ATOM     60  C   UNL A   1      42.633  22.266  27.932  1.00  0.00     0.019 C 
ATOM     61  C   UNL A   1      41.266  21.865  25.889  1.00  0.00     0.133 C 
ATOM     62  C   UNL A   1      41.419  22.965  28.559  1.00  0.00     0.022 C 
ATOM     63  N   UNL A   1      40.107  22.391  26.606  1.00  0.00    -0.356 N 
ATOM     64  C   UNL A   1      40.404  23.479  27.526  1.00  0.00     0.118 C 
BRANCH  63  65
ATOM     65  C   UNL A   1      38.836  22.277  26.063  1.00  0.00     0.129 A 
ATOM     66  C   UNL A   1      38.446  21.092  25.439  1.00  0.00     0.047 A 
ATOM     67  N   UNL A   1      37.974  23.313  26.152  1.00  0.00    -0.231 NA
ATOM     68  C   UNL A   1      37.161  20.946  24.933  1.00  0.00     0.014 A 
ATOM     69  C   UNL A   1      36.730  23.192  25.636  1.00  0.00     0.073 A 
ATOM     70  C   UNL A   1      36.269  22.004  25.040  1.00  0.00     0.002 A 
ATOM     71  C   UNL A   1      35.845  24.264  25.685  1.00  0.00     0.030 A 
ATOM     72  C   UNL A   1      34.944  21.883  24.589  1.00  0.00     0.032 A 
ATOM     73  C   UNL A   1      34.521  24.163  25.223  1.00  0.00     0.024 A 
ATOM     74  C   UNL A   1      34.058  22.955  24.710  1.00  0.00     0.083 A 
BRANCH  74  75
ATOM     75  S   UNL A   1      32.368  22.636  24.228  1.00  0.00     0.243 S 
ATOM     76  O   UNL A   1      32.415  22.315  22.815  1.00  0.00    -0.207 OA
ATOM     77  O   UNL A   1      31.860  21.684  25.192  1.00  0.00    -0.207 OA
BRANCH  75  78
ATOM     78  N   UNL A   1      31.480  24.076  24.399  1.00  0.00    -0.198 NA
ATOM     79  C   UNL A   1      30.906  24.663  23.164  1.00  0.00     0.102 C 
ATOM     80  C   UNL A   1      30.716  24.235  25.657  1.00  0.00     0.102 C 
ATOM     81  C   UNL A   1      30.386  26.077  23.396  1.00  0.00     0.017 C 
ATOM     82  C   UNL A   1      30.235  25.668  25.837  1.00  0.00     0.017 C 
ATOM     83  C   UNL A   1      29.472  26.145  24.610  1.00  0.00     0.003 C 
ENDBRANCH  75  78
ENDBRANCH  74  75
ENDBRANCH  63  65
ENDBRANCH  57  59
ENDBRANCH  56  57
ENDBRANCH   1  56
TORSDOF 14
ENDMDL
MODEL 3
REMARK VINA RESULT:     -11.6      7.261     12.162
REMARK SMILES O=C(OCCOC(=O)[C@@H]1CCCN(c2ccc3cc(S(=O)(=O)N4CCCCC4)ccc3n2)C1)c1ccc(-c2c3nc(c(-c4ccccc4)c4ccc([nH]4)c(-c4ccccc4)c4nc(c(-c5ccccc5)c5ccc2[nH]5)C=C4)C=C3)cc1
REMARK SMILES IDX 5 1 4 2 3 3 2 4 1 5 34 6 35 7 81 8 36 9 80 10 37 11 38 12
REMARK SMILES IDX 39 13 74 14 40 15 79 16 73 17 75 18 41 19 78 20 72 21 71 22
REMARK SMILES IDX 42 24 64 25 49 26 63 27 50 28 53 29 62 30 76 31 51 32 52 33
REMARK SMILES IDX 61 35 77 36 54 37 43 38 44 39 48 40 45 41 47 42 46 43 65 44
REMARK SMILES IDX 66 45 70 46 67 47 69 48 68 49 55 50 56 51 60 52 57 53 59 54
REMARK SMILES IDX 58 55 6 56 7 57 8 58 9 59 10 60 33 61 11 62 13 63 12 64
REMARK SMILES IDX 14 65 15 66 32 67 16 68 31 69 17 70 30 71 18 72 29 73 19 74
REMARK SMILES IDX 20 75 21 76 22 77 23 78 24 79 28 80 25 81 27 82 26 83
REMARK H PARENT 75 23 53 34
REMARK Flexibility Score: inf
ROOT
ATOM      1  C   UNL A   1      43.026  18.517  25.861  1.00  0.00     0.274 C 
ENDROOT
BRANCH   1   2
ATOM      2  C   UNL A   1      44.515  18.192  25.838  1.00  0.00     0.275 C 
BRANCH   2   3
ATOM      3  O   UNL A   1      45.222  18.809  24.740  1.00  0.00    -0.458 OA
BRANCH   3   4
ATOM      4  C   UNL A   1      44.948  19.905  23.996  1.00  0.00     0.338 C 
ATOM      5  O   UNL A   1      44.621  19.738  22.821  1.00  0.00    -0.246 OA
BRANCH   4   6
ATOM      6  C   UNL A   1      45.024  21.326  24.479  1.00  0.00     0.060 A 
ATOM      7  C   UNL A   1      44.599  22.462  23.783  1.00  0.00     0.016 A 
ATOM      8  C   UNL A   1      45.647  21.529  25.729  1.00  0.00     0.016 A 
ATOM      9  C   UNL A   1      44.731  23.749  24.340  1.00  0.00     0.010 A 
ATOM     10  C   UNL A   1      45.802  22.810  26.278  1.00  0.00     0.010 A 
ATOM     11  C   UNL A   1      45.335  23.935  25.588  1.00  0.00    -0.014 A 
BRANCH  11  12
ATOM     12  C   UNL A   1      45.584  25.293  26.139  1.00  0.00     0.031 A 
ATOM     13  C   UNL A   1      44.423  26.119  26.593  1.00  0.00     0.074 A 
ATOM     14  C   UNL A   1      46.824  25.812  26.200  1.00  0.00     0.049 A 
ATOM     15  N   UNL A   1      44.433  27.311  27.126  1.00  0.00    -0.248 NA
ATOM     16  C   UNL A   1      43.088  25.516  26.465  1.00  0.00     0.031 C 
ATOM     17  C   UNL A   1      48.034  25.082  25.883  1.00  0.00     0.029 A 
ATOM     18  N   UNL A   1      47.284  27.063  26.524  1.00  0.00    -0.354 N 
ATOM     19  C   UNL A   1      43.114  27.585  27.443  1.00  0.00     0.074 A 
ATOM     20  C   UNL A   1      42.323  26.457  26.998  1.00  0.00     0.031 C 
ATOM     21  C   UNL A   1      49.096  25.898  25.923  1.00  0.00     0.029 A 
ATOM     22  C   UNL A   1      48.638  27.220  26.316  1.00  0.00     0.049 A 
ATOM     23  H   UNL A   1      46.704  27.780  26.871  1.00  0.00     0.167 HD
ATOM     24  C   UNL A   1      42.616  28.674  28.071  1.00  0.00     0.031 A 
ATOM     25  C   UNL A   1      49.426  28.303  26.437  1.00  0.00     0.031 A 
ATOM     26  C   UNL A   1      43.402  29.815  28.451  1.00  0.00     0.049 A 
ATOM     27  C   UNL A   1      48.816  29.559  26.984  1.00  0.00     0.074 A 
ATOM     28  C   UNL A   1      42.995  30.962  29.109  1.00  0.00     0.029 A 
ATOM     29  N   UNL A   1      44.753  29.969  28.174  1.00  0.00    -0.354 N 
ATOM     30  N   UNL A   1      47.587  29.759  27.393  1.00  0.00    -0.248 NA
ATOM     31  C   UNL A   1      49.700  30.723  27.128  1.00  0.00     0.031 C 
ATOM     32  C   UNL A   1      44.085  31.838  29.168  1.00  0.00     0.029 A 
ATOM     33  C   UNL A   1      45.182  31.217  28.591  1.00  0.00     0.049 A 
ATOM     34  H   UNL A   1      45.322  29.291  27.744  1.00  0.00     0.167 HD
ATOM     35  C   UNL A   1      47.556  31.056  27.879  1.00  0.00     0.074 A 
ATOM     36  C   UNL A   1      48.894  31.593  27.722  1.00  0.00     0.031 C 
ATOM     37  C   UNL A   1      46.514  31.735  28.415  1.00  0.00     0.031 A 
BRANCH  24  38
ATOM     38  C   UNL A   1      41.144  28.677  28.347  1.00  0.00    -0.014 A 
ATOM     39  C   UNL A   1      40.631  28.112  29.525  1.00  0.00     0.009 A 
ATOM     40  C   UNL A   1      40.261  29.243  27.417  1.00  0.00     0.009 A 
ATOM     41  C   UNL A   1      39.255  28.091  29.754  1.00  0.00     0.001 A 
ATOM     42  C   UNL A   1      38.887  29.234  27.656  1.00  0.00     0.001 A 
ATOM     43  C   UNL A   1      38.384  28.652  28.820  1.00  0.00     0.000 A 
ENDBRANCH  24  38
BRANCH  25  44
ATOM     44  C   UNL A   1      50.862  28.247  26.052  1.00  0.00    -0.014 A 
ATOM     45  C   UNL A   1      51.270  28.504  24.735  1.00  0.00     0.009 A 
ATOM     46  C   UNL A   1      51.836  27.904  27.004  1.00  0.00     0.009 A 
ATOM     47  C   UNL A   1      52.615  28.383  24.371  1.00  0.00     0.001 A 
ATOM     48  C   UNL A   1      53.183  27.807  26.644  1.00  0.00     0.001 A 
ATOM     49  C   UNL A   1      53.570  28.036  25.326  1.00  0.00     0.000 A 
ENDBRANCH  25  44
BRANCH  37  50
ATOM     50  C   UNL A   1      46.789  33.135  28.876  1.00  0.00    -0.014 A 
ATOM     51  C   UNL A   1      47.209  33.390  30.189  1.00  0.00     0.009 A 
ATOM     52  C   UNL A   1      46.664  34.203  27.976  1.00  0.00     0.009 A 
ATOM     53  C   UNL A   1      47.477  34.695  30.601  1.00  0.00     0.001 A 
ATOM     54  C   UNL A   1      46.960  35.504  28.382  1.00  0.00     0.001 A 
ATOM     55  C   UNL A   1      47.359  35.750  29.695  1.00  0.00     0.000 A 
ENDBRANCH  37  50
ENDBRANCH  11  12
ENDBRANCH   4   6
ENDBRANCH   3   4
ENDBRANCH   2   3
ENDBRANCH   1   2
BRANCH   1  56
ATOM     56  O   UNL A   1      42.641  18.855  27.196  1.00  0.00    -0.462 OA
BRANCH  56  57
ATOM     57  C   UNL A   1      41.709  19.839  27.360  1.00  0.00     0.310 C 
ATOM     58  O   UNL A   1      40.646  19.702  27.948  1.00  0.00    -0.252 OA
BRANCH  57  59
ATOM     59  C   UNL A   1      42.249  21.147  26.815  1.00  0.00     0.118 C 
ATOM     60  C   UNL A   1      42.638  22.172  27.886  1.00  0.00     0.019 C 
ATOM     61  C   UNL A   1      41.258  21.776  25.852  1.00  0.00     0.133 C 
ATOM     62  C   UNL A   1      41.430  22.876  28.520  1.00  0.00     0.022 C 
ATOM     63  N   UNL A   1      40.105  22.306  26.575  1.00  0.00    -0.356 N 
ATOM     64  C   UNL A   1      40.412  23.393  27.494  1.00  0.00     0.118 C 
BRANCH  63  65
ATOM     65  C   UNL A   1      38.830  22.197  26.040  1.00  0.00     0.129 A 
ATOM     66  C   UNL A   1      38.427  21.008  25.433  1.00  0.00     0.047 A 
ATOM     67  N   UNL A   1      37.978  23.242  26.119  1.00  0.00    -0.231 NA
ATOM     68  C   UNL A   1      37.138  20.868  24.934  1.00  0.00     0.014 A 
ATOM     69  C   UNL A   1      36.731  23.127  25.611  1.00  0.00     0.073 A 
ATOM     70  C   UNL A   1      36.256  21.935  25.033  1.00  0.00     0.002 A 
ATOM     71  C   UNL A   1      35.856  24.207  25.651  1.00  0.00     0.030 A 
ATOM     72  C   UNL A   1      34.928  21.821  24.589  1.00  0.00     0.032 A 
ATOM     73  C   UNL A   1      34.529  24.113  25.197  1.00  0.00     0.024 A 
ATOM     74  C   UNL A   1      34.053  22.903  24.701  1.00  0.00     0.083 A 
BRANCH  74  75
ATOM     75  S   UNL A   1      32.357  22.593  24.231  1.00  0.00     0.243 S 
ATOM     76  O   UNL A   1      32.391  22.287  22.814  1.00  0.00    -0.207 OA
ATOM     77  O   UNL A   1      31.855  21.633  25.189  1.00  0.00    -0.207 OA
BRANCH  75  78
ATOM     78  N   UNL A   1      31.475  24.034  24.425  1.00  0.00    -0.198 NA
ATOM     79  C   UNL A   1      30.851  24.610  23.209  1.00  0.00     0.102 C 
ATOM     80  C   UNL A   1      30.761  24.203  25.710  1.00  0.00     0.102 C 
ATOM     81  C   UNL A   1      30.340  26.025  23.449  1.00  0.00     0.017 C 
ATOM     82  C   UNL A   1      30.285  25.637  25.898  1.00  0.00     0.017 C 
ATOM     83  C   UNL A   1      29.474  26.102  24.698  1.00  0.00     0.003 C 
ENDBRANCH  75  78
ENDBRANCH  74  75
ENDBRANCH  63  65
ENDBRANCH  57  59
ENDBRANCH  56  57
ENDBRANCH   1  56
TORSDOF 14
ENDMDL
