MODEL 1
REMARK VINA RESULT:     -10.7      0.000      0.000
REMARK SMILES O=C(OCCOC(=O)[C@@H](CCO)NC(=O)c1c(F)ccc([N+](=O)[O-])c1F)c1ccc(-c2c3nc(c(-c4ccccc4)c4ccc([nH]4)c(-c4ccccc4)c4nc(c(-c5ccccc5)c5ccc2[nH]5)C=C4)C=C3)cc1
REMARK SMILES IDX 5 1 4 2 3 3 2 4 1 5 27 6 28 7 74 8 29 9 73 10 30 11 31 12
REMARK SMILES IDX 32 13 67 14 33 15 72 16 66 17 68 18 34 19 71 20 65 21 64 22
REMARK SMILES IDX 35 24 57 25 42 26 56 27 43 28 46 29 55 30 69 31 44 32 45 33
REMARK SMILES IDX 54 35 70 36 47 37 36 38 37 39 41 40 38 41 40 42 39 43 58 44
REMARK SMILES IDX 59 45 63 46 60 47 62 48 61 49 48 50 49 51 53 52 50 53 52 54
REMARK SMILES IDX 51 55 6 56 7 57 8 58 9 59 10 60 11 61 12 62 13 64 14 65
REMARK SMILES IDX 15 67 16 68 17 69 25 70 18 71 19 72 21 73 26 74 20 75 22 76
REMARK SMILES IDX 23 77 24 78
REMARK H PARENT 68 23 46 34 12 63 13 66
REMARK Flexibility Score: inf
ROOT
ATOM      1  C   UNL A   1      32.846  28.722  26.756  1.00  0.00     0.274 C 
ENDROOT
BRANCH   1   2
ATOM      2  C   UNL A   1      33.188  30.224  26.655  1.00  0.00     0.275 C 
BRANCH   2   3
ATOM      3  O   UNL A   1      33.238  30.851  27.944  1.00  0.00    -0.458 OA
BRANCH   3   4
ATOM      4  C   UNL A   1      34.286  31.485  28.499  1.00  0.00     0.338 C 
ATOM      5  O   UNL A   1      34.248  32.699  28.690  1.00  0.00    -0.246 OA
BRANCH   4   6
ATOM      6  C   UNL A   1      35.569  30.814  28.824  1.00  0.00     0.060 A 
ATOM      7  C   UNL A   1      36.194  30.272  30.445  1.00  0.00     0.016 A 
ATOM      8  C   UNL A   1      36.603  30.512  27.367  1.00  0.00     0.016 A 
ATOM      9  C   UNL A   1      37.737  29.338  30.579  1.00  0.00     0.010 A 
ATOM     10  C   UNL A   1      38.147  29.592  27.515  1.00  0.00     0.010 A 
ATOM     11  C   UNL A   1      38.759  29.078  29.121  1.00  0.00    -0.014 A 
BRANCH  11  12
ATOM     12  C   UNL A   1      40.157  28.625  29.361  1.00  0.00     0.031 A 
ATOM     13  C   UNL A   1      40.589  27.241  28.945  1.00  0.00     0.074 A 
ATOM     14  C   UNL A   1      41.072  29.545  29.724  1.00  0.00     0.049 A 
ATOM     15  N   UNL A   1      41.799  26.783  28.740  1.00  0.00    -0.248 NA
ATOM     16  C   UNL A   1      39.540  26.253  28.663  1.00  0.00     0.031 C 
ATOM     17  C   UNL A   1      40.767  30.924  30.101  1.00  0.00     0.029 A 
ATOM     18  N   UNL A   1      42.442  29.490  29.787  1.00  0.00    -0.354 N 
ATOM     19  C   UNL A   1      41.639  25.482  28.274  1.00  0.00     0.074 A 
ATOM     20  C   UNL A   1      40.226  25.222  28.204  1.00  0.00     0.031 C 
ATOM     21  C   UNL A   1      41.907  31.609  30.265  1.00  0.00     0.029 A 
ATOM     22  C   UNL A   1      43.028  30.698  30.097  1.00  0.00     0.049 A 
ATOM     23  H   UNL A   1      42.956  28.666  29.626  1.00  0.00     0.167 HD
ATOM     24  C   UNL A   1      42.580  24.554  27.985  1.00  0.00     0.031 A 
ATOM     25  C   UNL A   1      44.325  31.026  30.256  1.00  0.00     0.031 A 
ATOM     26  C   UNL A   1      43.978  24.758  28.231  1.00  0.00     0.049 A 
ATOM     27  C   UNL A   1      45.342  29.938  30.071  1.00  0.00     0.074 A 
ATOM     28  C   UNL A   1      45.018  23.856  28.120  1.00  0.00     0.029 A 
ATOM     29  N   UNL A   1      44.518  25.950  28.693  1.00  0.00    -0.354 N 
ATOM     30  N   UNL A   1      45.161  28.707  29.651  1.00  0.00    -0.248 NA
ATOM     31  C   UNL A   1      46.731  30.265  30.411  1.00  0.00     0.031 C 
ATOM     32  C   UNL A   1      46.176  24.481  28.595  1.00  0.00     0.029 A 
ATOM     33  C   UNL A   1      45.872  25.797  28.917  1.00  0.00     0.049 A 
ATOM     34  H   UNL A   1      44.011  26.781  28.839  1.00  0.00     0.167 HD
ATOM     35  C   UNL A   1      46.410  28.107  29.685  1.00  0.00     0.074 A 
ATOM     36  C   UNL A   1      47.345  29.124  30.130  1.00  0.00     0.031 C 
ATOM     37  C   UNL A   1      46.758  26.830  29.387  1.00  0.00     0.031 A 
BRANCH  24  38
ATOM     38  C   UNL A   1      42.086  23.205  27.531  1.00  0.00    -0.014 A 
ATOM     39  C   UNL A   1      41.876  22.914  26.172  1.00  0.00     0.009 A 
ATOM     40  C   UNL A   1      41.761  22.230  28.487  1.00  0.00     0.009 A 
ATOM     41  C   UNL A   1      41.314  21.693  25.787  1.00  0.00     0.001 A 
ATOM     42  C   UNL A   1      41.223  21.001  28.099  1.00  0.00     0.001 A 
ATOM     43  C   UNL A   1      40.989  20.738  26.750  1.00  0.00     0.000 A 
ENDBRANCH  24  38
BRANCH  25  44
ATOM     44  C   UNL A   1      44.706  32.405  30.678  1.00  0.00    -0.014 A 
ATOM     45  C   UNL A   1      44.983  33.415  29.743  1.00  0.00     0.009 A 
ATOM     46  C   UNL A   1      44.772  32.730  32.046  1.00  0.00     0.009 A 
ATOM     47  C   UNL A   1      45.311  34.709  30.168  1.00  0.00     0.001 A 
ATOM     48  C   UNL A   1      45.060  34.029  32.466  1.00  0.00     0.001 A 
ATOM     49  C   UNL A   1      45.335  35.018  31.527  1.00  0.00     0.000 A 
ENDBRANCH  25  44
BRANCH  37  50
ATOM     50  C   UNL A   1      48.209  26.478  29.531  1.00  0.00    -0.014 A 
ATOM     51  C   UNL A   1      48.726  26.005  30.746  1.00  0.00     0.009 A 
ATOM     52  C   UNL A   1      49.054  26.579  28.415  1.00  0.00     0.009 A 
ATOM     53  C   UNL A   1      50.077  25.677  30.851  1.00  0.00     0.001 A 
ATOM     54  C   UNL A   1      50.396  26.219  28.515  1.00  0.00     0.001 A 
ATOM     55  C   UNL A   1      50.909  25.779  29.735  1.00  0.00     0.000 A 
ENDBRANCH  37  50
ENDBRANCH  11  12
ENDBRANCH   4   6
ENDBRANCH   3   4
ENDBRANCH   2   3
ENDBRANCH   1   2
BRANCH   1  56
ATOM     56  O   UNL A   1      33.700  27.878  25.945  1.00  0.00    -0.461 OA
BRANCH  56  57
ATOM     57  C   UNL A   1      33.634  28.054  24.598  1.00  0.00     0.328 C 
ATOM     58  O   UNL A   1      34.429  28.739  23.964  1.00  0.00    -0.250 OA
BRANCH  57  59
ATOM     59  C   UNL A   1      32.523  27.191  23.907  1.00  0.00     0.194 C 
BRANCH  59  60
ATOM     60  C   UNL A   1      30.864  27.692  23.505  1.00  0.00     0.065 C 
BRANCH  60  61
ATOM     61  C   UNL A   1      29.903  29.309  22.384  1.00  0.00     0.159 C 
BRANCH  61  62
ATOM     62  O   UNL A   1      30.442  30.156  21.212  1.00  0.00    -0.396 OA
ATOM     63  H   UNL A   1      31.365  30.396  21.383  1.00  0.00     0.210 HD
ENDBRANCH  61  62
ENDBRANCH  60  61
ENDBRANCH  59  60
BRANCH  59  64
ATOM     64  N   UNL A   1      33.033  26.248  22.894  1.00  0.00    -0.338 N 
ATOM     65  C   UNL A   1      33.248  24.891  23.013  1.00  0.00     0.258 C 
ATOM     66  H   UNL A   1      33.247  26.640  22.016  1.00  0.00     0.164 HD
ATOM     67  O   UNL A   1      33.520  24.220  22.021  1.00  0.00    -0.269 OA
BRANCH  65  68
ATOM     68  C   UNL A   1      33.198  24.218  24.320  1.00  0.00     0.118 A 
ATOM     69  C   UNL A   1      34.338  24.011  25.097  1.00  0.00     0.139 A 
ATOM     70  C   UNL A   1      31.949  23.829  24.809  1.00  0.00     0.216 A 
ATOM     71  F   UNL A   1      35.540  24.433  24.686  1.00  0.00    -0.206 F 
ATOM     72  C   UNL A   1      34.257  23.344  26.320  1.00  0.00     0.047 A 
ATOM     73  C   UNL A   1      31.856  23.187  26.047  1.00  0.00     0.305 A 
ATOM     74  F   UNL A   1      30.862  24.061  24.060  1.00  0.00    -0.198 F 
ATOM     75  C   UNL A   1      33.015  22.924  26.799  1.00  0.00     0.092 A 
BRANCH  73  76
ATOM     76  N   UNL A   1      30.554  22.782  26.579  1.00  0.00     0.065 N 
ATOM     77  O   UNL A   1      30.061  23.437  27.504  1.00  0.00    -0.258 OA
ATOM     78  O   UNL A   1      30.025  21.782  26.074  1.00  0.00    -0.258 OA
ENDBRANCH  73  76
ENDBRANCH  65  68
ENDBRANCH  59  64
ENDBRANCH  57  59
ENDBRANCH  56  57
ENDBRANCH   1  56
TORSDOF 17
ENDMDL
MODEL 2
REMARK VINA RESULT:     -10.7      1.740      2.697
REMARK SMILES O=C(OCCOC(=O)[C@@H](CCO)NC(=O)c1c(F)ccc([N+](=O)[O-])c1F)c1ccc(-c2c3nc(c(-c4ccccc4)c4ccc([nH]4)c(-c4ccccc4)c4nc(c(-c5ccccc5)c5ccc2[nH]5)C=C4)C=C3)cc1
REMARK SMILES IDX 5 1 4 2 3 3 2 4 1 5 27 6 28 7 74 8 29 9 73 10 30 11 31 12
REMARK SMILES IDX 32 13 67 14 33 15 72 16 66 17 68 18 34 19 71 20 65 21 64 22
REMARK SMILES IDX 35 24 57 25 42 26 56 27 43 28 46 29 55 30 69 31 44 32 45 33
REMARK SMILES IDX 54 35 70 36 47 37 36 38 37 39 41 40 38 41 40 42 39 43 58 44
REMARK SMILES IDX 59 45 63 46 60 47 62 48 61 49 48 50 49 51 53 52 50 53 52 54
REMARK SMILES IDX 51 55 6 56 7 57 8 58 9 59 10 60 11 61 12 62 13 64 14 65
REMARK SMILES IDX 15 67 16 68 17 69 25 70 18 71 19 72 21 73 26 74 20 75 22 76
REMARK SMILES IDX 23 77 24 78
REMARK H PARENT 68 23 46 34 12 63 13 66
REMARK Flexibility Score: inf
ROOT
ATOM      1  C   UNL A   1      33.299  29.307  26.343  1.00  0.00     0.274 C 
ENDROOT
BRANCH   1   2
ATOM      2  C   UNL A   1      33.502  30.676  27.027  1.00  0.00     0.275 C 
BRANCH   2   3
ATOM      3  O   UNL A   1      33.929  30.538  28.389  1.00  0.00    -0.458 OA
BRANCH   3   4
ATOM      4  C   UNL A   1      35.000  31.108  28.967  1.00  0.00     0.338 C 
ATOM      5  O   UNL A   1      34.941  32.262  29.384  1.00  0.00    -0.246 OA
BRANCH   4   6
ATOM      6  C   UNL A   1      36.327  30.450  29.057  1.00  0.00     0.060 A 
ATOM      7  C   UNL A   1      37.213  29.864  30.535  1.00  0.00     0.016 A 
ATOM      8  C   UNL A   1      37.116  30.216  27.443  1.00  0.00     0.016 A 
ATOM      9  C   UNL A   1      38.768  28.955  30.385  1.00  0.00     0.010 A 
ATOM     10  C   UNL A   1      38.675  29.319  27.306  1.00  0.00     0.010 A 
ATOM     11  C   UNL A   1      39.545  28.762  28.773  1.00  0.00    -0.014 A 
BRANCH  11  12
ATOM     12  C   UNL A   1      40.968  28.327  28.768  1.00  0.00     0.031 A 
ATOM     13  C   UNL A   1      41.327  26.906  28.413  1.00  0.00     0.074 A 
ATOM     14  C   UNL A   1      41.925  29.273  28.844  1.00  0.00     0.049 A 
ATOM     15  N   UNL A   1      42.476  26.422  28.013  1.00  0.00    -0.248 NA
ATOM     16  C   UNL A   1      40.256  25.901  28.450  1.00  0.00     0.031 C 
ATOM     17  C   UNL A   1      41.684  30.684  29.136  1.00  0.00     0.029 A 
ATOM     18  N   UNL A   1      43.280  29.215  28.633  1.00  0.00    -0.354 N 
ATOM     19  C   UNL A   1      42.244  25.081  27.721  1.00  0.00     0.074 A 
ATOM     20  C   UNL A   1      40.851  24.825  27.965  1.00  0.00     0.031 C 
ATOM     21  C   UNL A   1      42.823  31.375  28.996  1.00  0.00     0.029 A 
ATOM     22  C   UNL A   1      43.900  30.445  28.696  1.00  0.00     0.049 A 
ATOM     23  H   UNL A   1      43.762  28.377  28.454  1.00  0.00     0.167 HD
ATOM     24  C   UNL A   1      43.120  24.123  27.341  1.00  0.00     0.031 A 
ATOM     25  C   UNL A   1      45.197  30.779  28.555  1.00  0.00     0.031 A 
ATOM     26  C   UNL A   1      44.536  24.342  27.277  1.00  0.00     0.049 A 
ATOM     27  C   UNL A   1      46.170  29.672  28.277  1.00  0.00     0.074 A 
ATOM     28  C   UNL A   1      45.545  23.427  27.048  1.00  0.00     0.029 A 
ATOM     29  N   UNL A   1      45.142  25.571  27.498  1.00  0.00    -0.354 N 
ATOM     30  N   UNL A   1      45.926  28.406  28.027  1.00  0.00    -0.248 NA
ATOM     31  C   UNL A   1      47.595  30.023  28.293  1.00  0.00     0.031 C 
ATOM     32  C   UNL A   1      46.766  24.089  27.213  1.00  0.00     0.029 A 
ATOM     33  C   UNL A   1      46.514  25.432  27.457  1.00  0.00     0.049 A 
ATOM     34  H   UNL A   1      44.663  26.416  27.661  1.00  0.00     0.167 HD
ATOM     35  C   UNL A   1      47.165  27.804  27.866  1.00  0.00     0.074 A 
ATOM     36  C   UNL A   1      48.156  28.855  28.009  1.00  0.00     0.031 C 
ATOM     37  C   UNL A   1      47.463  26.502  27.633  1.00  0.00     0.031 A 
BRANCH  24  38
ATOM     38  C   UNL A   1      42.564  22.738  27.134  1.00  0.00    -0.014 A 
ATOM     39  C   UNL A   1      42.401  22.193  25.849  1.00  0.00     0.009 A 
ATOM     40  C   UNL A   1      42.132  21.993  28.242  1.00  0.00     0.009 A 
ATOM     41  C   UNL A   1      41.782  20.950  25.680  1.00  0.00     0.001 A 
ATOM     42  C   UNL A   1      41.537  20.742  28.072  1.00  0.00     0.001 A 
ATOM     43  C   UNL A   1      41.351  20.226  26.791  1.00  0.00     0.000 A 
ENDBRANCH  24  38
BRANCH  25  44
ATOM     44  C   UNL A   1      45.636  32.191  28.751  1.00  0.00    -0.014 A 
ATOM     45  C   UNL A   1      45.992  32.685  30.016  1.00  0.00     0.009 A 
ATOM     46  C   UNL A   1      45.727  33.061  27.648  1.00  0.00     0.009 A 
ATOM     47  C   UNL A   1      46.429  34.008  30.167  1.00  0.00     0.001 A 
ATOM     48  C   UNL A   1      46.200  34.366  27.795  1.00  0.00     0.001 A 
ATOM     49  C   UNL A   1      46.545  34.842  29.056  1.00  0.00     0.000 A 
ENDBRANCH  25  44
BRANCH  37  50
ATOM     50  C   UNL A   1      48.917  26.156  27.513  1.00  0.00    -0.014 A 
ATOM     51  C   UNL A   1      49.569  26.173  26.271  1.00  0.00     0.009 A 
ATOM     52  C   UNL A   1      49.650  25.855  28.671  1.00  0.00     0.009 A 
ATOM     53  C   UNL A   1      50.924  25.854  26.188  1.00  0.00     0.001 A 
ATOM     54  C   UNL A   1      51.011  25.570  28.588  1.00  0.00     0.001 A 
ATOM     55  C   UNL A   1      51.644  25.558  27.346  1.00  0.00     0.000 A 
ENDBRANCH  37  50
ENDBRANCH  11  12
ENDBRANCH   4   6
ENDBRANCH   3   4
ENDBRANCH   2   3
ENDBRANCH   1   2
BRANCH   1  56
ATOM     56  O   UNL A   1      31.908  28.972  26.119  1.00  0.00    -0.461 OA
BRANCH  56  57
ATOM     57  C   UNL A   1      31.428  27.880  26.773  1.00  0.00     0.328 C 
ATOM     58  O   UNL A   1      31.208  27.854  27.979  1.00  0.00    -0.250 OA
BRANCH  57  59
ATOM     59  C   UNL A   1      31.054  26.692  25.820  1.00  0.00     0.194 C 
BRANCH  59  60
ATOM     60  C   UNL A   1      30.094  25.250  26.221  1.00  0.00     0.065 C 
BRANCH  60  61
ATOM     61  C   UNL A   1      30.481  23.172  26.791  1.00  0.00     0.159 C 
BRANCH  61  62
ATOM     62  O   UNL A   1      29.893  21.864  26.220  1.00  0.00    -0.396 OA
ATOM     63  H   UNL A   1      30.267  21.107  26.697  1.00  0.00     0.210 HD
ENDBRANCH  61  62
ENDBRANCH  60  61
ENDBRANCH  59  60
BRANCH  59  64
ATOM     64  N   UNL A   1      30.816  27.093  24.420  1.00  0.00    -0.338 N 
ATOM     65  C   UNL A   1      31.235  26.469  23.264  1.00  0.00     0.258 C 
ATOM     66  H   UNL A   1      30.287  27.914  24.295  1.00  0.00     0.164 HD
ATOM     67  O   UNL A   1      30.810  26.841  22.173  1.00  0.00    -0.269 OA
BRANCH  65  68
ATOM     68  C   UNL A   1      32.221  25.377  23.294  1.00  0.00     0.118 A 
ATOM     69  C   UNL A   1      33.591  25.612  23.413  1.00  0.00     0.139 A 
ATOM     70  C   UNL A   1      31.745  24.065  23.258  1.00  0.00     0.216 A 
ATOM     71  F   UNL A   1      34.072  26.857  23.518  1.00  0.00    -0.206 F 
ATOM     72  C   UNL A   1      34.499  24.552  23.411  1.00  0.00     0.047 A 
ATOM     73  C   UNL A   1      32.647  22.997  23.286  1.00  0.00     0.305 A 
ATOM     74  F   UNL A   1      30.424  23.859  23.171  1.00  0.00    -0.198 F 
ATOM     75  C   UNL A   1      34.032  23.239  23.343  1.00  0.00     0.092 A 
BRANCH  73  76
ATOM     76  N   UNL A   1      32.166  21.615  23.260  1.00  0.00     0.065 N 
ATOM     77  O   UNL A   1      31.812  21.130  22.179  1.00  0.00    -0.258 OA
ATOM     78  O   UNL A   1      32.126  21.011  24.341  1.00  0.00    -0.258 OA
ENDBRANCH  73  76
ENDBRANCH  65  68
ENDBRANCH  59  64
ENDBRANCH  57  59
ENDBRANCH  56  57
ENDBRANCH   1  56
TORSDOF 17
ENDMDL
MODEL 3
REMARK VINA RESULT:     -10.6      2.964      7.469
REMARK SMILES O=C(OCCOC(=O)[C@@H](CCO)NC(=O)c1c(F)ccc([N+](=O)[O-])c1F)c1ccc(-c2c3nc(c(-c4ccccc4)c4ccc([nH]4)c(-c4ccccc4)c4nc(c(-c5ccccc5)c5ccc2[nH]5)C=C4)C=C3)cc1
REMARK SMILES IDX 5 1 4 2 3 3 2 4 1 5 27 6 28 7 74 8 29 9 73 10 30 11 31 12
REMARK SMILES IDX 32 13 67 14 33 15 72 16 66 17 68 18 34 19 71 20 65 21 64 22
REMARK SMILES IDX 35 24 57 25 42 26 56 27 43 28 46 29 55 30 69 31 44 32 45 33
REMARK SMILES IDX 54 35 70 36 47 37 36 38 37 39 41 40 38 41 40 42 39 43 58 44
REMARK SMILES IDX 59 45 63 46 60 47 62 48 61 49 48 50 49 51 53 52 50 53 52 54
REMARK SMILES IDX 51 55 6 56 7 57 8 58 9 59 10 60 11 61 12 62 13 64 14 65
REMARK SMILES IDX 15 67 16 68 17 69 25 70 18 71 19 72 21 73 26 74 20 75 22 76
REMARK SMILES IDX 23 77 24 78
REMARK H PARENT 68 23 46 34 12 63 13 66
REMARK Flexibility Score: inf
ROOT
ATOM      1  C   UNL A   1      36.044  20.280  24.938  1.00  0.00     0.274 C 
ENDROOT
BRANCH   1   2
ATOM      2  C   UNL A   1      37.549  20.426  24.627  1.00  0.00     0.275 C 
BRANCH   2   3
ATOM      3  O   UNL A   1      38.369  19.885  25.672  1.00  0.00    -0.458 OA
BRANCH   3   4
ATOM      4  C   UNL A   1      39.629  20.238  25.981  1.00  0.00     0.338 C 
ATOM      5  O   UNL A   1      40.526  19.398  25.984  1.00  0.00    -0.246 OA
BRANCH   4   6
ATOM      6  C   UNL A   1      40.010  21.601  26.428  1.00  0.00     0.060 A 
ATOM      7  C   UNL A   1      39.354  23.207  25.880  1.00  0.00     0.016 A 
ATOM      8  C   UNL A   1      41.301  21.597  27.700  1.00  0.00     0.016 A 
ATOM      9  C   UNL A   1      39.875  24.743  26.677  1.00  0.00     0.010 A 
ATOM     10  C   UNL A   1      41.824  23.137  28.479  1.00  0.00     0.010 A 
ATOM     11  C   UNL A   1      41.180  24.715  27.916  1.00  0.00    -0.014 A 
BRANCH  11  12
ATOM     12  C   UNL A   1      41.797  26.024  28.263  1.00  0.00     0.031 A 
ATOM     13  C   UNL A   1      43.094  26.448  27.620  1.00  0.00     0.074 A 
ATOM     14  C   UNL A   1      41.062  26.911  28.963  1.00  0.00     0.049 A 
ATOM     15  N   UNL A   1      43.604  27.649  27.508  1.00  0.00    -0.248 NA
ATOM     16  C   UNL A   1      43.901  25.412  26.962  1.00  0.00     0.031 C 
ATOM     17  C   UNL A   1      39.773  26.619  29.587  1.00  0.00     0.029 A 
ATOM     18  N   UNL A   1      41.251  28.244  29.225  1.00  0.00    -0.354 N 
ATOM     19  C   UNL A   1      44.756  27.503  26.743  1.00  0.00     0.074 A 
ATOM     20  C   UNL A   1      44.868  26.112  26.396  1.00  0.00     0.031 C 
ATOM     21  C   UNL A   1      39.243  27.747  30.078  1.00  0.00     0.029 A 
ATOM     22  C   UNL A   1      40.194  28.831  29.887  1.00  0.00     0.049 A 
ATOM     23  H   UNL A   1      42.064  28.734  28.965  1.00  0.00     0.167 HD
ATOM     24  C   UNL A   1      45.682  28.429  26.403  1.00  0.00     0.031 A 
ATOM     25  C   UNL A   1      40.025  30.097  30.315  1.00  0.00     0.031 A 
ATOM     26  C   UNL A   1      45.661  29.773  26.904  1.00  0.00     0.049 A 
ATOM     27  C   UNL A   1      41.135  31.071  30.052  1.00  0.00     0.074 A 
ATOM     28  C   UNL A   1      46.608  30.767  26.757  1.00  0.00     0.029 A 
ATOM     29  N   UNL A   1      44.648  30.288  27.701  1.00  0.00    -0.354 N 
ATOM     30  N   UNL A   1      42.227  30.901  29.343  1.00  0.00    -0.248 NA
ATOM     31  C   UNL A   1      41.013  32.397  30.669  1.00  0.00     0.031 C 
ATOM     32  C   UNL A   1      46.205  31.858  27.536  1.00  0.00     0.029 A 
ATOM     33  C   UNL A   1      44.966  31.573  28.093  1.00  0.00     0.049 A 
ATOM     34  H   UNL A   1      43.825  29.808  27.949  1.00  0.00     0.167 HD
ATOM     35  C   UNL A   1      42.930  32.092  29.436  1.00  0.00     0.074 A 
ATOM     36  C   UNL A   1      42.119  32.989  30.239  1.00  0.00     0.031 C 
ATOM     37  C   UNL A   1      44.140  32.418  28.917  1.00  0.00     0.031 A 
BRANCH  24  38
ATOM     38  C   UNL A   1      46.854  27.950  25.586  1.00  0.00    -0.014 A 
ATOM     39  C   UNL A   1      48.070  27.582  26.186  1.00  0.00     0.009 A 
ATOM     40  C   UNL A   1      46.759  27.932  24.186  1.00  0.00     0.009 A 
ATOM     41  C   UNL A   1      49.175  27.245  25.398  1.00  0.00     0.001 A 
ATOM     42  C   UNL A   1      47.857  27.572  23.402  1.00  0.00     0.001 A 
ATOM     43  C   UNL A   1      49.068  27.240  24.007  1.00  0.00     0.000 A 
ENDBRANCH  24  38
BRANCH  25  44
ATOM     44  C   UNL A   1      38.807  30.472  31.092  1.00  0.00    -0.014 A 
ATOM     45  C   UNL A   1      37.657  30.976  30.464  1.00  0.00     0.009 A 
ATOM     46  C   UNL A   1      38.782  30.301  32.488  1.00  0.00     0.009 A 
ATOM     47  C   UNL A   1      36.517  31.293  31.215  1.00  0.00     0.001 A 
ATOM     48  C   UNL A   1      37.632  30.581  33.229  1.00  0.00     0.001 A 
ATOM     49  C   UNL A   1      36.501  31.082  32.593  1.00  0.00     0.000 A 
ENDBRANCH  25  44
BRANCH  37  50
ATOM     50  C   UNL A   1      44.643  33.802  29.202  1.00  0.00    -0.014 A 
ATOM     51  C   UNL A   1      44.335  34.877  28.355  1.00  0.00     0.009 A 
ATOM     52  C   UNL A   1      45.398  34.033  30.362  1.00  0.00     0.009 A 
ATOM     53  C   UNL A   1      44.810  36.155  28.647  1.00  0.00     0.001 A 
ATOM     54  C   UNL A   1      45.843  35.317  30.667  1.00  0.00     0.001 A 
ATOM     55  C   UNL A   1      45.558  36.375  29.804  1.00  0.00     0.000 A 
ENDBRANCH  37  50
ENDBRANCH  11  12
ENDBRANCH   4   6
ENDBRANCH   3   4
ENDBRANCH   2   3
ENDBRANCH   1   2
BRANCH   1  56
ATOM     56  O   UNL A   1      35.435  21.496  25.438  1.00  0.00    -0.461 OA
BRANCH  56  57
ATOM     57  C   UNL A   1      34.312  21.352  26.191  1.00  0.00     0.328 C 
ATOM     58  O   UNL A   1      34.291  21.483  27.410  1.00  0.00    -0.250 OA
BRANCH  57  59
ATOM     59  C   UNL A   1      33.012  21.134  25.342  1.00  0.00     0.194 C 
BRANCH  59  60
ATOM     60  C   UNL A   1      32.556  19.681  24.423  1.00  0.00     0.065 C 
BRANCH  60  61
ATOM     61  C   UNL A   1      33.527  17.836  23.753  1.00  0.00     0.159 C 
BRANCH  61  62
ATOM     62  O   UNL A   1      32.904  16.525  23.228  1.00  0.00    -0.396 OA
ATOM     63  H   UNL A   1      32.385  16.710  22.430  1.00  0.00     0.210 HD
ENDBRANCH  61  62
ENDBRANCH  60  61
ENDBRANCH  59  60
BRANCH  59  64
ATOM     64  N   UNL A   1      31.811  21.786  25.898  1.00  0.00    -0.338 N 
ATOM     65  C   UNL A   1      31.344  23.064  25.672  1.00  0.00     0.258 C 
ATOM     66  H   UNL A   1      31.271  21.236  26.510  1.00  0.00     0.164 HD
ATOM     67  O   UNL A   1      30.236  23.398  26.082  1.00  0.00    -0.269 OA
BRANCH  65  68
ATOM     68  C   UNL A   1      32.163  24.069  24.976  1.00  0.00     0.118 A 
ATOM     69  C   UNL A   1      33.219  24.733  25.600  1.00  0.00     0.139 A 
ATOM     70  C   UNL A   1      31.894  24.312  23.628  1.00  0.00     0.216 A 
ATOM     71  F   UNL A   1      33.545  24.472  26.872  1.00  0.00    -0.206 F 
ATOM     72  C   UNL A   1      33.957  25.700  24.916  1.00  0.00     0.047 A 
ATOM     73  C   UNL A   1      32.648  25.258  22.928  1.00  0.00     0.305 A 
ATOM     74  F   UNL A   1      30.892  23.645  23.039  1.00  0.00    -0.198 F 
ATOM     75  C   UNL A   1      33.672  25.971  23.577  1.00  0.00     0.092 A 
BRANCH  73  76
ATOM     76  N   UNL A   1      32.387  25.518  21.511  1.00  0.00     0.065 N 
ATOM     77  O   UNL A   1      31.377  26.161  21.202  1.00  0.00    -0.258 OA
ATOM     78  O   UNL A   1      33.197  25.058  20.695  1.00  0.00    -0.258 OA
ENDBRANCH  73  76
ENDBRANCH  65  68
ENDBRANCH  59  64
ENDBRANCH  57  59
ENDBRANCH  56  57
ENDBRANCH   1  56
TORSDOF 17
ENDMDL
