MODEL 1
REMARK VINA RESULT:     -10.2      0.000      0.000
REMARK SMILES CC[NH2+][C@@]1(C(=O)OCCOC(=O)c2ccc(-c3c4nc(c(-c5ccccc5)c5ccc([nH]5)c(-c5ccccc5)c5nc(c(-c6ccccc6)c6ccc3[nH]6)C=C5)C=C4)cc2)CCC[C@H]1CC[NH+]1CCCCC1
REMARK SMILES IDX 8 1 7 2 5 3 6 4 4 5 61 6 64 7 62 8 63 9 3 10 2 13 1 14 65 15
REMARK SMILES IDX 66 16 67 17 68 18 72 19 69 21 71 22 70 23 9 24 10 25 11 26
REMARK SMILES IDX 12 27 13 28 14 29 60 30 15 31 59 32 16 33 17 34 18 35 53 36
REMARK SMILES IDX 19 37 58 38 52 39 54 40 20 41 57 42 51 43 50 44 21 46 43 47
REMARK SMILES IDX 28 48 42 49 29 50 32 51 41 52 55 53 30 54 31 55 40 57 56 58
REMARK SMILES IDX 33 59 22 60 23 61 27 62 24 63 26 64 25 65 44 66 45 67 49 68
REMARK SMILES IDX 46 69 48 70 47 71 34 72 35 73 39 74 36 75 38 76 37 77
REMARK H PARENT 3 11 3 12 67 20 54 45 32 56
REMARK Flexibility Score: inf
ROOT
ATOM      1  C   UNL A   1      31.466  27.888  24.840  1.00  0.00     0.274 C 
ENDROOT
BRANCH   1   2
ATOM      2  O   UNL A   1      31.403  26.556  25.397  1.00  0.00    -0.457 OA
BRANCH   2   3
ATOM      3  C   UNL A   1      32.564  25.851  25.517  1.00  0.00     0.368 C 
ATOM      4  O   UNL A   1      33.607  26.316  25.972  1.00  0.00    -0.245 OA
BRANCH   3   5
ATOM      5  C   UNL A   1      32.449  24.390  24.926  1.00  0.00     0.197 C 
ATOM      6  C   UNL A   1      31.109  23.826  25.434  1.00  0.00     0.081 C 
ATOM      7  C   UNL A   1      33.484  23.382  25.512  1.00  0.00     0.068 C 
ATOM      8  C   UNL A   1      31.394  23.398  26.863  1.00  0.00     0.008 C 
ATOM      9  C   UNL A   1      32.869  23.001  26.890  1.00  0.00     0.011 C 
BRANCH   5  10
ATOM     10  N   UNL A   1      32.358  24.434  23.441  1.00  0.00    -0.332 N 
ATOM     11  H   UNL A   1      32.423  23.479  23.086  1.00  0.00     0.347 HD
ATOM     12  H   UNL A   1      31.467  24.872  23.207  1.00  0.00     0.347 HD
BRANCH  10  13
ATOM     13  C   UNL A   1      33.409  25.231  22.820  1.00  0.00     0.257 C 
ATOM     14  C   UNL A   1      32.892  25.953  21.583  1.00  0.00     0.071 C 
ENDBRANCH  10  13
ENDBRANCH   5  10
BRANCH   7  15
ATOM     15  C   UNL A   1      33.738  22.067  24.722  1.00  0.00     0.072 C 
BRANCH  15  16
ATOM     16  C   UNL A   1      34.403  20.899  25.475  1.00  0.00     0.262 C 
BRANCH  16  17
ATOM     17  N   UNL A   1      33.963  19.556  25.059  1.00  0.00    -0.335 N 
ATOM     18  C   UNL A   1      32.952  19.604  23.992  1.00  0.00     0.262 C 
ATOM     19  C   UNL A   1      35.111  18.737  24.639  1.00  0.00     0.262 C 
ATOM     20  H   UNL A   1      33.524  19.125  25.872  1.00  0.00     0.348 HD
ATOM     21  C   UNL A   1      32.444  18.198  23.659  1.00  0.00     0.062 C 
ATOM     22  C   UNL A   1      34.674  17.298  24.362  1.00  0.00     0.062 C 
ATOM     23  C   UNL A   1      33.585  17.252  23.299  1.00  0.00     0.012 C 
ENDBRANCH  16  17
ENDBRANCH  15  16
ENDBRANCH   7  15
ENDBRANCH   3   5
ENDBRANCH   2   3
ENDBRANCH   1   2
BRANCH   1  24
ATOM     24  C   UNL A   1      31.491  28.924  25.964  1.00  0.00     0.275 C 
BRANCH  24  25
ATOM     25  O   UNL A   1      32.668  29.724  25.790  1.00  0.00    -0.458 OA
BRANCH  25  26
ATOM     26  C   UNL A   1      32.865  30.757  26.640  1.00  0.00     0.338 C 
ATOM     27  O   UNL A   1      32.059  31.630  26.925  1.00  0.00    -0.246 OA
BRANCH  26  28
ATOM     28  C   UNL A   1      34.219  30.630  27.241  1.00  0.00     0.060 A 
ATOM     29  C   UNL A   1      34.786  29.374  27.431  1.00  0.00     0.016 A 
ATOM     30  C   UNL A   1      34.902  31.752  27.716  1.00  0.00     0.016 A 
ATOM     31  C   UNL A   1      35.946  29.231  28.189  1.00  0.00     0.010 A 
ATOM     32  C   UNL A   1      36.142  31.605  28.370  1.00  0.00     0.010 A 
ATOM     33  C   UNL A   1      36.677  30.334  28.647  1.00  0.00    -0.014 A 
BRANCH  33  34
ATOM     34  C   UNL A   1      37.954  30.142  29.416  1.00  0.00     0.031 A 
ATOM     35  C   UNL A   1      39.133  29.420  28.806  1.00  0.00     0.074 A 
ATOM     36  C   UNL A   1      38.109  30.638  30.666  1.00  0.00     0.049 A 
ATOM     37  N   UNL A   1      40.175  28.891  29.404  1.00  0.00    -0.248 NA
ATOM     38  C   UNL A   1      39.144  29.262  27.343  1.00  0.00     0.031 C 
ATOM     39  C   UNL A   1      37.127  31.434  31.406  1.00  0.00     0.029 A 
ATOM     40  N   UNL A   1      39.176  30.561  31.535  1.00  0.00    -0.354 N 
ATOM     41  C   UNL A   1      40.909  28.258  28.408  1.00  0.00     0.074 A 
ATOM     42  C   UNL A   1      40.213  28.496  27.160  1.00  0.00     0.031 C 
ATOM     43  C   UNL A   1      37.666  31.850  32.559  1.00  0.00     0.029 A 
ATOM     44  C   UNL A   1      38.958  31.202  32.731  1.00  0.00     0.049 A 
ATOM     45  H   UNL A   1      40.014  30.090  31.320  1.00  0.00     0.167 HD
ATOM     46  C   UNL A   1      42.048  27.531  28.528  1.00  0.00     0.031 A 
ATOM     47  C   UNL A   1      39.648  31.206  33.888  1.00  0.00     0.031 A 
ATOM     48  C   UNL A   1      42.789  27.364  29.752  1.00  0.00     0.049 A 
ATOM     49  C   UNL A   1      40.858  30.336  34.027  1.00  0.00     0.074 A 
ATOM     50  C   UNL A   1      43.957  26.649  29.963  1.00  0.00     0.029 A 
ATOM     51  N   UNL A   1      42.456  27.944  30.965  1.00  0.00    -0.354 N 
ATOM     52  N   UNL A   1      41.446  29.597  33.122  1.00  0.00    -0.248 NA
ATOM     53  C   UNL A   1      41.459  30.253  35.366  1.00  0.00     0.031 C 
ATOM     54  C   UNL A   1      44.310  26.765  31.312  1.00  0.00     0.029 A 
ATOM     55  C   UNL A   1      43.384  27.588  31.930  1.00  0.00     0.049 A 
ATOM     56  H   UNL A   1      41.675  28.523  31.117  1.00  0.00     0.167 HD
ATOM     57  C   UNL A   1      42.469  28.936  33.786  1.00  0.00     0.074 A 
ATOM     58  C   UNL A   1      42.447  29.393  35.161  1.00  0.00     0.031 C 
ATOM     59  C   UNL A   1      43.336  28.017  33.301  1.00  0.00     0.031 A 
BRANCH  46  60
ATOM     60  C   UNL A   1      42.547  26.799  27.314  1.00  0.00    -0.014 A 
ATOM     61  C   UNL A   1      43.513  27.347  26.459  1.00  0.00     0.009 A 
ATOM     62  C   UNL A   1      42.098  25.487  27.082  1.00  0.00     0.009 A 
ATOM     63  C   UNL A   1      44.007  26.601  25.386  1.00  0.00     0.001 A 
ATOM     64  C   UNL A   1      42.610  24.737  26.023  1.00  0.00     0.001 A 
ATOM     65  C   UNL A   1      43.562  25.295  25.173  1.00  0.00     0.000 A 
ENDBRANCH  46  60
BRANCH  47  66
ATOM     66  C   UNL A   1      39.104  31.946  35.057  1.00  0.00    -0.014 A 
ATOM     67  C   UNL A   1      39.324  33.321  35.205  1.00  0.00     0.009 A 
ATOM     68  C   UNL A   1      38.318  31.275  36.011  1.00  0.00     0.009 A 
ATOM     69  C   UNL A   1      38.755  34.012  36.279  1.00  0.00     0.001 A 
ATOM     70  C   UNL A   1      37.722  31.973  37.060  1.00  0.00     0.001 A 
ATOM     71  C   UNL A   1      37.944  33.342  37.194  1.00  0.00     0.000 A 
ENDBRANCH  47  66
BRANCH  59  72
ATOM     72  C   UNL A   1      44.322  27.440  34.271  1.00  0.00    -0.014 A 
ATOM     73  C   UNL A   1      44.024  26.265  34.979  1.00  0.00     0.009 A 
ATOM     74  C   UNL A   1      45.556  28.074  34.483  1.00  0.00     0.009 A 
ATOM     75  C   UNL A   1      44.934  25.752  35.905  1.00  0.00     0.001 A 
ATOM     76  C   UNL A   1      46.470  27.547  35.396  1.00  0.00     0.001 A 
ATOM     77  C   UNL A   1      46.155  26.393  36.112  1.00  0.00     0.000 A 
ENDBRANCH  59  72
ENDBRANCH  33  34
ENDBRANCH  26  28
ENDBRANCH  25  26
ENDBRANCH  24  25
ENDBRANCH   1  24
TORSDOF 16
ENDMDL
MODEL 2
REMARK VINA RESULT:     -10.2      1.053      1.809
REMARK SMILES CC[NH2+][C@@]1(C(=O)OCCOC(=O)c2ccc(-c3c4nc(c(-c5ccccc5)c5ccc([nH]5)c(-c5ccccc5)c5nc(c(-c6ccccc6)c6ccc3[nH]6)C=C5)C=C4)cc2)CCC[C@H]1CC[NH+]1CCCCC1
REMARK SMILES IDX 8 1 7 2 5 3 6 4 4 5 61 6 64 7 62 8 63 9 3 10 2 13 1 14 65 15
REMARK SMILES IDX 66 16 67 17 68 18 72 19 69 21 71 22 70 23 9 24 10 25 11 26
REMARK SMILES IDX 12 27 13 28 14 29 60 30 15 31 59 32 16 33 17 34 18 35 53 36
REMARK SMILES IDX 19 37 58 38 52 39 54 40 20 41 57 42 51 43 50 44 21 46 43 47
REMARK SMILES IDX 28 48 42 49 29 50 32 51 41 52 55 53 30 54 31 55 40 57 56 58
REMARK SMILES IDX 33 59 22 60 23 61 27 62 24 63 26 64 25 65 44 66 45 67 49 68
REMARK SMILES IDX 46 69 48 70 47 71 34 72 35 73 39 74 36 75 38 76 37 77
REMARK H PARENT 3 11 3 12 67 20 54 45 32 56
REMARK Flexibility Score: inf
ROOT
ATOM      1  C   UNL A   1      32.693  29.359  24.525  1.00  0.00     0.274 C 
ENDROOT
BRANCH   1   2
ATOM      2  O   UNL A   1      32.348  28.010  24.135  1.00  0.00    -0.457 OA
BRANCH   2   3
ATOM      3  C   UNL A   1      32.756  26.983  24.934  1.00  0.00     0.368 C 
ATOM      4  O   UNL A   1      33.620  27.088  25.801  1.00  0.00    -0.245 OA
BRANCH   3   5
ATOM      5  C   UNL A   1      32.056  25.615  24.567  1.00  0.00     0.197 C 
ATOM      6  C   UNL A   1      30.962  25.956  23.537  1.00  0.00     0.081 C 
ATOM      7  C   UNL A   1      31.237  24.985  25.734  1.00  0.00     0.068 C 
ATOM      8  C   UNL A   1      29.815  26.503  24.369  1.00  0.00     0.008 C 
ATOM      9  C   UNL A   1      29.912  25.802  25.722  1.00  0.00     0.011 C 
BRANCH   5  10
ATOM     10  N   UNL A   1      33.016  24.705  23.885  1.00  0.00    -0.332 N 
ATOM     11  H   UNL A   1      33.898  25.203  23.758  1.00  0.00     0.347 HD
ATOM     12  H   UNL A   1      33.120  23.880  24.475  1.00  0.00     0.347 HD
BRANCH  10  13
ATOM     13  C   UNL A   1      32.553  24.248  22.580  1.00  0.00     0.257 C 
ATOM     14  C   UNL A   1      33.361  23.051  22.098  1.00  0.00     0.071 C 
ENDBRANCH  10  13
ENDBRANCH   5  10
BRANCH   7  15
ATOM     15  C   UNL A   1      30.869  23.477  25.626  1.00  0.00     0.072 C 
BRANCH  15  16
ATOM     16  C   UNL A   1      31.362  22.540  26.746  1.00  0.00     0.262 C 
BRANCH  16  17
ATOM     17  N   UNL A   1      32.473  21.650  26.371  1.00  0.00    -0.335 N 
ATOM     18  C   UNL A   1      32.285  21.046  25.044  1.00  0.00     0.262 C 
ATOM     19  C   UNL A   1      33.758  22.367  26.429  1.00  0.00     0.262 C 
ATOM     20  H   UNL A   1      32.485  20.890  27.051  1.00  0.00     0.348 HD
ATOM     21  C   UNL A   1      33.405  20.049  24.734  1.00  0.00     0.062 C 
ATOM     22  C   UNL A   1      34.923  21.403  26.197  1.00  0.00     0.062 C 
ATOM     23  C   UNL A   1      34.784  20.688  24.860  1.00  0.00     0.012 C 
ENDBRANCH  16  17
ENDBRANCH  15  16
ENDBRANCH   7  15
ENDBRANCH   3   5
ENDBRANCH   2   3
ENDBRANCH   1   2
BRANCH   1  24
ATOM     24  C   UNL A   1      31.562  29.969  25.353  1.00  0.00     0.275 C 
BRANCH  24  25
ATOM     25  O   UNL A   1      32.050  30.142  26.691  1.00  0.00    -0.458 OA
BRANCH  25  26
ATOM     26  C   UNL A   1      32.570  31.344  27.026  1.00  0.00     0.338 C 
ATOM     27  O   UNL A   1      32.018  32.430  26.930  1.00  0.00    -0.246 OA
BRANCH  26  28
ATOM     28  C   UNL A   1      33.923  31.134  27.606  1.00  0.00     0.060 A 
ATOM     29  C   UNL A   1      34.394  29.845  27.837  1.00  0.00     0.016 A 
ATOM     30  C   UNL A   1      34.702  32.216  28.022  1.00  0.00     0.016 A 
ATOM     31  C   UNL A   1      35.556  29.641  28.579  1.00  0.00     0.010 A 
ATOM     32  C   UNL A   1      35.941  31.998  28.657  1.00  0.00     0.010 A 
ATOM     33  C   UNL A   1      36.380  30.701  28.976  1.00  0.00    -0.014 A 
BRANCH  33  34
ATOM     34  C   UNL A   1      37.655  30.439  29.728  1.00  0.00     0.031 A 
ATOM     35  C   UNL A   1      38.803  29.694  29.087  1.00  0.00     0.074 A 
ATOM     36  C   UNL A   1      37.837  30.889  30.992  1.00  0.00     0.049 A 
ATOM     37  N   UNL A   1      39.829  29.110  29.659  1.00  0.00    -0.248 NA
ATOM     38  C   UNL A   1      38.798  29.582  27.619  1.00  0.00     0.031 C 
ATOM     39  C   UNL A   1      36.890  31.697  31.764  1.00  0.00     0.029 A 
ATOM     40  N   UNL A   1      38.907  30.746  31.849  1.00  0.00    -0.354 N 
ATOM     41  C   UNL A   1      40.533  28.483  28.637  1.00  0.00     0.074 A 
ATOM     42  C   UNL A   1      39.837  28.785  27.403  1.00  0.00     0.031 C 
ATOM     43  C   UNL A   1      37.452  32.056  32.925  1.00  0.00     0.029 A 
ATOM     44  C   UNL A   1      38.721  31.357  33.066  1.00  0.00     0.049 A 
ATOM     45  H   UNL A   1      39.725  30.253  31.613  1.00  0.00     0.167 HD
ATOM     46  C   UNL A   1      41.646  27.712  28.725  1.00  0.00     0.031 A 
ATOM     47  C   UNL A   1      39.419  31.300  34.217  1.00  0.00     0.031 A 
ATOM     48  C   UNL A   1      42.389  27.480  29.937  1.00  0.00     0.049 A 
ATOM     49  C   UNL A   1      40.597  30.383  34.319  1.00  0.00     0.074 A 
ATOM     50  C   UNL A   1      43.532  26.717  30.116  1.00  0.00     0.029 A 
ATOM     51  N   UNL A   1      42.086  28.032  31.170  1.00  0.00    -0.354 N 
ATOM     52  N   UNL A   1      41.152  29.652  33.386  1.00  0.00    -0.248 NA
ATOM     53  C   UNL A   1      41.205  30.236  35.649  1.00  0.00     0.031 C 
ATOM     54  C   UNL A   1      43.898  26.778  31.465  1.00  0.00     0.029 A 
ATOM     55  C   UNL A   1      43.007  27.614  32.115  1.00  0.00     0.049 A 
ATOM     56  H   UNL A   1      41.328  28.635  31.347  1.00  0.00     0.167 HD
ATOM     57  C   UNL A   1      42.155  28.934  34.021  1.00  0.00     0.074 A 
ATOM     58  C   UNL A   1      42.159  29.348  35.409  1.00  0.00     0.031 C 
ATOM     59  C   UNL A   1      42.985  28.000  33.500  1.00  0.00     0.031 A 
BRANCH  46  60
ATOM     60  C   UNL A   1      42.109  27.000  27.485  1.00  0.00    -0.014 A 
ATOM     61  C   UNL A   1      41.590  25.755  27.105  1.00  0.00     0.009 A 
ATOM     62  C   UNL A   1      43.022  27.646  26.633  1.00  0.00     0.009 A 
ATOM     63  C   UNL A   1      41.991  25.163  25.904  1.00  0.00     0.001 A 
ATOM     64  C   UNL A   1      43.402  27.063  25.424  1.00  0.00     0.001 A 
ATOM     65  C   UNL A   1      42.889  25.820  25.062  1.00  0.00     0.000 A 
ENDBRANCH  46  60
BRANCH  47  66
ATOM     66  C   UNL A   1      38.910  32.021  35.414  1.00  0.00    -0.014 A 
ATOM     67  C   UNL A   1      38.157  31.355  36.389  1.00  0.00     0.009 A 
ATOM     68  C   UNL A   1      39.220  33.380  35.602  1.00  0.00     0.009 A 
ATOM     69  C   UNL A   1      37.737  32.033  37.536  1.00  0.00     0.001 A 
ATOM     70  C   UNL A   1      38.831  34.043  36.764  1.00  0.00     0.001 A 
ATOM     71  C   UNL A   1      38.087  33.370  37.730  1.00  0.00     0.000 A 
ENDBRANCH  47  66
BRANCH  59  72
ATOM     72  C   UNL A   1      43.957  27.358  34.443  1.00  0.00    -0.014 A 
ATOM     73  C   UNL A   1      43.627  26.165  35.105  1.00  0.00     0.009 A 
ATOM     74  C   UNL A   1      45.208  27.949  34.676  1.00  0.00     0.009 A 
ATOM     75  C   UNL A   1      44.524  25.590  36.007  1.00  0.00     0.001 A 
ATOM     76  C   UNL A   1      46.108  27.361  35.565  1.00  0.00     0.001 A 
ATOM     77  C   UNL A   1      45.763  26.189  36.236  1.00  0.00     0.000 A 
ENDBRANCH  59  72
ENDBRANCH  33  34
ENDBRANCH  26  28
ENDBRANCH  25  26
ENDBRANCH  24  25
ENDBRANCH   1  24
TORSDOF 16
ENDMDL
MODEL 3
REMARK VINA RESULT:     -10.2      3.748      8.721
REMARK SMILES CC[NH2+][C@@]1(C(=O)OCCOC(=O)c2ccc(-c3c4nc(c(-c5ccccc5)c5ccc([nH]5)c(-c5ccccc5)c5nc(c(-c6ccccc6)c6ccc3[nH]6)C=C5)C=C4)cc2)CCC[C@H]1CC[NH+]1CCCCC1
REMARK SMILES IDX 8 1 7 2 5 3 6 4 4 5 61 6 64 7 62 8 63 9 3 10 2 13 1 14 65 15
REMARK SMILES IDX 66 16 67 17 68 18 72 19 69 21 71 22 70 23 9 24 10 25 11 26
REMARK SMILES IDX 12 27 13 28 14 29 60 30 15 31 59 32 16 33 17 34 18 35 53 36
REMARK SMILES IDX 19 37 58 38 52 39 54 40 20 41 57 42 51 43 50 44 21 46 43 47
REMARK SMILES IDX 28 48 42 49 29 50 32 51 41 52 55 53 30 54 31 55 40 57 56 58
REMARK SMILES IDX 33 59 22 60 23 61 27 62 24 63 26 64 25 65 44 66 45 67 49 68
REMARK SMILES IDX 46 69 48 70 47 71 34 72 35 73 39 74 36 75 38 76 37 77
REMARK H PARENT 3 11 3 12 67 20 54 45 32 56
REMARK Flexibility Score: inf
ROOT
ATOM      1  C   UNL A   1      34.226  21.013  26.262  1.00  0.00     0.274 C 
ENDROOT
BRANCH   1   2
ATOM      2  O   UNL A   1      33.491  22.204  25.900  1.00  0.00    -0.457 OA
BRANCH   2   3
ATOM      3  C   UNL A   1      32.294  22.055  25.264  1.00  0.00     0.368 C 
ATOM      4  O   UNL A   1      31.591  21.050  25.348  1.00  0.00    -0.245 OA
BRANCH   3   5
ATOM      5  C   UNL A   1      31.944  23.284  24.335  1.00  0.00     0.197 C 
ATOM      6  C   UNL A   1      31.722  22.707  22.925  1.00  0.00     0.081 C 
ATOM      7  C   UNL A   1      33.129  24.272  24.113  1.00  0.00     0.068 C 
ATOM      8  C   UNL A   1      33.122  22.488  22.379  1.00  0.00     0.008 C 
ATOM      9  C   UNL A   1      33.995  23.554  23.038  1.00  0.00     0.011 C 
BRANCH   5  10
ATOM     10  N   UNL A   1      30.655  23.902  24.751  1.00  0.00    -0.332 N 
ATOM     11  H   UNL A   1      30.413  24.629  24.077  1.00  0.00     0.347 HD
ATOM     12  H   UNL A   1      29.959  23.157  24.781  1.00  0.00     0.347 HD
BRANCH  10  13
ATOM     13  C   UNL A   1      30.703  24.502  26.080  1.00  0.00     0.257 C 
ATOM     14  C   UNL A   1      29.696  25.637  26.206  1.00  0.00     0.071 C 
ENDBRANCH  10  13
ENDBRANCH   5  10
BRANCH   7  15
ATOM     15  C   UNL A   1      32.792  25.696  23.583  1.00  0.00     0.072 C 
BRANCH  15  16
ATOM     16  C   UNL A   1      33.817  26.816  23.846  1.00  0.00     0.262 C 
BRANCH  16  17
ATOM     17  N   UNL A   1      33.402  27.821  24.839  1.00  0.00    -0.335 N 
ATOM     18  C   UNL A   1      31.959  28.095  24.790  1.00  0.00     0.262 C 
ATOM     19  C   UNL A   1      33.798  27.407  26.196  1.00  0.00     0.262 C 
ATOM     20  H   UNL A   1      33.884  28.688  24.601  1.00  0.00     0.348 HD
ATOM     21  C   UNL A   1      31.584  29.217  25.763  1.00  0.00     0.062 C 
ATOM     22  C   UNL A   1      33.512  28.522  27.203  1.00  0.00     0.062 C 
ATOM     23  C   UNL A   1      32.040  28.911  27.186  1.00  0.00     0.012 C 
ENDBRANCH  16  17
ENDBRANCH  15  16
ENDBRANCH   7  15
ENDBRANCH   3   5
ENDBRANCH   2   3
ENDBRANCH   1   2
BRANCH   1  24
ATOM     24  C   UNL A   1      35.393  20.805  25.297  1.00  0.00     0.275 C 
BRANCH  24  25
ATOM     25  O   UNL A   1      36.374  21.811  25.581  1.00  0.00    -0.458 OA
BRANCH  25  26
ATOM     26  C   UNL A   1      37.676  21.447  25.577  1.00  0.00     0.338 C 
ATOM     27  O   UNL A   1      38.146  20.426  25.097  1.00  0.00    -0.246 OA
BRANCH  26  28
ATOM     28  C   UNL A   1      38.478  22.534  26.199  1.00  0.00     0.060 A 
ATOM     29  C   UNL A   1      38.030  23.850  26.152  1.00  0.00     0.016 A 
ATOM     30  C   UNL A   1      39.735  22.274  26.750  1.00  0.00     0.016 A 
ATOM     31  C   UNL A   1      38.870  24.895  26.530  1.00  0.00     0.010 A 
ATOM     32  C   UNL A   1      40.524  23.329  27.249  1.00  0.00     0.010 A 
ATOM     33  C   UNL A   1      40.119  24.669  27.122  1.00  0.00    -0.014 A 
BRANCH  33  34
ATOM     34  C   UNL A   1      40.975  25.821  27.567  1.00  0.00     0.031 A 
ATOM     35  C   UNL A   1      40.459  26.845  28.552  1.00  0.00     0.074 A 
ATOM     36  C   UNL A   1      42.249  25.966  27.134  1.00  0.00     0.049 A 
ATOM     37  N   UNL A   1      40.917  28.048  28.807  1.00  0.00    -0.248 NA
ATOM     38  C   UNL A   1      39.276  26.479  29.347  1.00  0.00     0.031 C 
ATOM     39  C   UNL A   1      42.967  25.048  26.246  1.00  0.00     0.029 A 
ATOM     40  N   UNL A   1      43.183  26.943  27.404  1.00  0.00    -0.354 N 
ATOM     41  C   UNL A   1      40.027  28.614  29.712  1.00  0.00     0.074 A 
ATOM     42  C   UNL A   1      39.019  27.612  29.990  1.00  0.00     0.031 C 
ATOM     43  C   UNL A   1      44.240  25.446  26.127  1.00  0.00     0.029 A 
ATOM     44  C   UNL A   1      44.387  26.742  26.772  1.00  0.00     0.049 A 
ATOM     45  H   UNL A   1      43.004  27.711  27.992  1.00  0.00     0.167 HD
ATOM     46  C   UNL A   1      40.040  29.861  30.247  1.00  0.00     0.031 A 
ATOM     47  C   UNL A   1      45.467  27.533  26.624  1.00  0.00     0.031 A 
ATOM     48  C   UNL A   1      41.086  30.829  30.040  1.00  0.00     0.049 A 
ATOM     49  C   UNL A   1      45.434  28.933  27.151  1.00  0.00     0.074 A 
ATOM     50  C   UNL A   1      41.184  32.116  30.547  1.00  0.00     0.029 A 
ATOM     51  N   UNL A   1      42.231  30.613  29.291  1.00  0.00    -0.354 N 
ATOM     52  N   UNL A   1      44.504  29.521  27.859  1.00  0.00    -0.248 NA
ATOM     53  C   UNL A   1      46.571  29.796  26.803  1.00  0.00     0.031 C 
ATOM     54  C   UNL A   1      42.371  32.689  30.075  1.00  0.00     0.029 A 
ATOM     55  C   UNL A   1      43.030  31.744  29.309  1.00  0.00     0.049 A 
ATOM     56  H   UNL A   1      42.445  29.776  28.818  1.00  0.00     0.167 HD
ATOM     57  C   UNL A   1      44.928  30.833  28.016  1.00  0.00     0.074 A 
ATOM     58  C   UNL A   1      46.217  30.943  27.366  1.00  0.00     0.031 C 
ATOM     59  C   UNL A   1      44.292  31.858  28.631  1.00  0.00     0.031 A 
BRANCH  46  60
ATOM     60  C   UNL A   1      38.857  30.288  31.067  1.00  0.00    -0.014 A 
ATOM     61  C   UNL A   1      37.700  30.822  30.481  1.00  0.00     0.009 A 
ATOM     62  C   UNL A   1      38.875  30.061  32.454  1.00  0.00     0.009 A 
ATOM     63  C   UNL A   1      36.592  31.135  31.273  1.00  0.00     0.001 A 
ATOM     64  C   UNL A   1      37.758  30.354  33.238  1.00  0.00     0.001 A 
ATOM     65  C   UNL A   1      36.618  30.894  32.648  1.00  0.00     0.000 A 
ENDBRANCH  46  60
BRANCH  47  66
ATOM     66  C   UNL A   1      46.608  27.059  25.796  1.00  0.00    -0.014 A 
ATOM     67  C   UNL A   1      46.756  27.475  24.467  1.00  0.00     0.009 A 
ATOM     68  C   UNL A   1      47.583  26.215  26.358  1.00  0.00     0.009 A 
ATOM     69  C   UNL A   1      47.866  27.067  23.722  1.00  0.00     0.001 A 
ATOM     70  C   UNL A   1      48.707  25.841  25.625  1.00  0.00     0.001 A 
ATOM     71  C   UNL A   1      48.846  26.265  24.305  1.00  0.00     0.000 A 
ENDBRANCH  47  66
BRANCH  59  72
ATOM     72  C   UNL A   1      44.983  33.188  28.614  1.00  0.00    -0.014 A 
ATOM     73  C   UNL A   1      44.766  34.092  27.562  1.00  0.00     0.009 A 
ATOM     74  C   UNL A   1      45.858  33.541  29.652  1.00  0.00     0.009 A 
ATOM     75  C   UNL A   1      45.439  35.316  27.536  1.00  0.00     0.001 A 
ATOM     76  C   UNL A   1      46.513  34.773  29.632  1.00  0.00     0.001 A 
ATOM     77  C   UNL A   1      46.311  35.654  28.571  1.00  0.00     0.000 A 
ENDBRANCH  59  72
ENDBRANCH  33  34
ENDBRANCH  26  28
ENDBRANCH  25  26
ENDBRANCH  24  25
ENDBRANCH   1  24
TORSDOF 16
ENDMDL
