MODEL 1
REMARK VINA RESULT:     -10.7      0.000      0.000
REMARK SMILES C[C@H](O)[C@H](C)[N@H+]1Cc2ccccc2C[C@@H]1C(=O)OCCOC(=O)c1ccc(-c2c3nc(c(-c4ccccc4)c4ccc([nH]4)c(-c4ccccc4)c4nc(c(-c5ccccc5)c5ccc2[nH]5)C=C4)C=C3)cc1
REMARK SMILES IDX 19 1 18 2 16 3 17 4 15 5 6 6 7 7 8 9 14 10 9 11 13 12 10 13
REMARK SMILES IDX 12 14 11 15 4 16 5 17 2 18 1 19 3 20 20 22 21 23 22 24 23 25
REMARK SMILES IDX 24 26 25 27 71 28 26 29 70 30 27 31 28 32 29 33 64 34 30 35
REMARK SMILES IDX 69 36 63 37 65 38 31 39 68 40 62 41 61 42 32 44 54 45 39 46
REMARK SMILES IDX 53 47 40 48 43 49 52 50 66 51 41 52 42 53 51 55 67 56 44 57
REMARK SMILES IDX 33 58 34 59 38 60 35 61 37 62 36 63 55 64 56 65 60 66 57 67
REMARK SMILES IDX 59 68 58 69 45 70 46 71 50 72 47 73 49 74 48 75
REMARK H PARENT 6 8 3 21 65 43 43 54
REMARK Flexibility Score: inf
ROOT
ATOM      1  C   UNL A   1      36.001  19.869  25.008  1.00  0.00     0.274 C 
ENDROOT
BRANCH   1   2
ATOM      2  O   UNL A   1      34.896  20.713  24.620  1.00  0.00    -0.458 OA
BRANCH   2   3
ATOM      3  C   UNL A   1      33.995  20.959  25.619  1.00  0.00     0.365 C 
ATOM      4  O   UNL A   1      34.335  21.208  26.769  1.00  0.00    -0.245 OA
BRANCH   3   5
ATOM      5  C   UNL A   1      32.528  20.793  25.131  1.00  0.00     0.300 C 
ATOM      6  N   UNL A   1      32.515  20.344  23.717  1.00  0.00    -0.315 N 
ATOM      7  C   UNL A   1      32.133  21.362  22.732  1.00  0.00     0.300 C 
ATOM      8  H   UNL A   1      33.523  20.239  23.592  1.00  0.00     0.349 HD
ATOM      9  C   UNL A   1      32.544  22.768  23.101  1.00  0.00     0.010 A 
ATOM     10  C   UNL A   1      31.811  22.144  25.377  1.00  0.00     0.113 C 
ATOM     11  C   UNL A   1      33.082  23.666  22.177  1.00  0.00     0.010 A 
ATOM     12  C   UNL A   1      32.339  23.183  24.425  1.00  0.00    -0.033 A 
ATOM     13  C   UNL A   1      33.470  24.939  22.594  1.00  0.00     0.001 A 
ATOM     14  C   UNL A   1      32.723  24.460  24.837  1.00  0.00     0.004 A 
ATOM     15  C   UNL A   1      33.310  25.330  23.922  1.00  0.00     0.000 A 
BRANCH   6  16
ATOM     16  C   UNL A   1      32.170  18.938  23.389  1.00  0.00     0.210 C 
ATOM     17  C   UNL A   1      32.378  18.547  21.909  1.00  0.00     0.078 C 
BRANCH  16  18
ATOM     18  C   UNL A   1      32.792  17.779  24.255  1.00  0.00     0.169 C 
ATOM     19  C   UNL A   1      33.740  16.841  23.509  1.00  0.00     0.045 C 
BRANCH  18  20
ATOM     20  O   UNL A   1      31.764  17.026  24.902  1.00  0.00    -0.387 OA
ATOM     21  H   UNL A   1      32.100  16.674  25.741  1.00  0.00     0.211 HD
ENDBRANCH  18  20
ENDBRANCH  16  18
ENDBRANCH   6  16
ENDBRANCH   3   5
ENDBRANCH   2   3
ENDBRANCH   1   2
BRANCH   1  22
ATOM     22  C   UNL A   1      37.382  20.438  24.665  1.00  0.00     0.275 C 
BRANCH  22  23
ATOM     23  O   UNL A   1      37.857  21.365  25.661  1.00  0.00    -0.458 OA
BRANCH  23  24
ATOM     24  C   UNL A   1      39.111  21.130  26.113  1.00  0.00     0.338 C 
ATOM     25  O   UNL A   1      39.760  20.104  25.977  1.00  0.00    -0.246 OA
BRANCH  24  26
ATOM     26  C   UNL A   1      39.693  22.353  26.701  1.00  0.00     0.060 A 
ATOM     27  C   UNL A   1      39.220  23.566  26.203  1.00  0.00     0.016 A 
ATOM     28  C   UNL A   1      40.727  22.337  27.642  1.00  0.00     0.016 A 
ATOM     29  C   UNL A   1      39.763  24.768  26.646  1.00  0.00     0.010 A 
ATOM     30  C   UNL A   1      41.291  23.552  28.074  1.00  0.00     0.010 A 
ATOM     31  C   UNL A   1      40.810  24.775  27.575  1.00  0.00    -0.014 A 
BRANCH  31  32
ATOM     32  C   UNL A   1      41.406  26.086  27.940  1.00  0.00     0.031 A 
ATOM     33  C   UNL A   1      42.702  26.512  27.312  1.00  0.00     0.074 A 
ATOM     34  C   UNL A   1      40.724  26.957  28.707  1.00  0.00     0.049 A 
ATOM     35  N   UNL A   1      43.337  27.652  27.415  1.00  0.00    -0.248 NA
ATOM     36  C   UNL A   1      43.363  25.525  26.444  1.00  0.00     0.031 C 
ATOM     37  C   UNL A   1      39.414  26.707  29.298  1.00  0.00     0.029 A 
ATOM     38  N   UNL A   1      41.013  28.253  29.065  1.00  0.00    -0.354 N 
ATOM     39  C   UNL A   1      44.483  27.514  26.645  1.00  0.00     0.074 A 
ATOM     40  C   UNL A   1      44.442  26.191  26.057  1.00  0.00     0.031 C 
ATOM     41  C   UNL A   1      38.977  27.836  29.881  1.00  0.00     0.029 A 
ATOM     42  C   UNL A   1      39.995  28.876  29.747  1.00  0.00     0.049 A 
ATOM     43  H   UNL A   1      41.868  28.693  28.853  1.00  0.00     0.167 HD
ATOM     44  C   UNL A   1      45.500  28.393  26.473  1.00  0.00     0.031 A 
ATOM     45  C   UNL A   1      39.891  30.140  30.204  1.00  0.00     0.031 A 
ATOM     46  C   UNL A   1      45.578  29.687  27.098  1.00  0.00     0.049 A 
ATOM     47  C   UNL A   1      41.063  31.075  30.052  1.00  0.00     0.074 A 
ATOM     48  C   UNL A   1      46.616  30.601  27.064  1.00  0.00     0.029 A 
ATOM     49  N   UNL A   1      44.579  30.246  27.877  1.00  0.00    -0.354 N 
ATOM     50  N   UNL A   1      42.177  30.906  29.383  1.00  0.00    -0.248 NA
ATOM     51  C   UNL A   1      40.976  32.364  30.757  1.00  0.00     0.031 C 
ATOM     52  C   UNL A   1      46.266  31.693  27.866  1.00  0.00     0.029 A 
ATOM     53  C   UNL A   1      44.984  31.483  28.350  1.00  0.00     0.049 A 
ATOM     54  H   UNL A   1      43.709  29.825  28.068  1.00  0.00     0.167 HD
ATOM     55  C   UNL A   1      42.929  32.055  29.601  1.00  0.00     0.074 A 
ATOM     56  C   UNL A   1      42.124  32.935  30.421  1.00  0.00     0.031 C 
ATOM     57  C   UNL A   1      44.184  32.343  29.183  1.00  0.00     0.031 A 
BRANCH  44  58
ATOM     58  C   UNL A   1      46.666  27.921  25.656  1.00  0.00    -0.014 A 
ATOM     59  C   UNL A   1      46.715  28.107  24.266  1.00  0.00     0.009 A 
ATOM     60  C   UNL A   1      47.729  27.266  26.297  1.00  0.00     0.009 A 
ATOM     61  C   UNL A   1      47.796  27.613  23.531  1.00  0.00     0.001 A 
ATOM     62  C   UNL A   1      48.816  26.794  25.562  1.00  0.00     0.001 A 
ATOM     63  C   UNL A   1      48.843  26.959  24.179  1.00  0.00     0.000 A 
ENDBRANCH  44  58
BRANCH  45  64
ATOM     64  C   UNL A   1      38.657  30.606  30.894  1.00  0.00    -0.014 A 
ATOM     65  C   UNL A   1      38.459  30.341  32.259  1.00  0.00     0.009 A 
ATOM     66  C   UNL A   1      37.644  31.270  30.184  1.00  0.00     0.009 A 
ATOM     67  C   UNL A   1      37.266  30.708  32.889  1.00  0.00     0.001 A 
ATOM     68  C   UNL A   1      36.468  31.666  30.824  1.00  0.00     0.001 A 
ATOM     69  C   UNL A   1      36.275  31.376  32.173  1.00  0.00     0.000 A 
ENDBRANCH  45  64
BRANCH  57  70
ATOM     70  C   UNL A   1      44.771  33.658  29.616  1.00  0.00    -0.014 A 
ATOM     71  C   UNL A   1      44.641  34.805  28.816  1.00  0.00     0.009 A 
ATOM     72  C   UNL A   1      45.428  33.762  30.852  1.00  0.00     0.009 A 
ATOM     73  C   UNL A   1      45.184  36.022  29.232  1.00  0.00     0.001 A 
ATOM     74  C   UNL A   1      45.947  34.987  31.276  1.00  0.00     0.001 A 
ATOM     75  C   UNL A   1      45.832  36.113  30.463  1.00  0.00     0.000 A 
ENDBRANCH  57  70
ENDBRANCH  31  32
ENDBRANCH  24  26
ENDBRANCH  23  24
ENDBRANCH  22  23
ENDBRANCH   1  22
TORSDOF 14
ENDMDL
MODEL 2
REMARK VINA RESULT:     -10.6      5.182      9.815
REMARK SMILES C[C@H](O)[C@H](C)[N@H+]1Cc2ccccc2C[C@@H]1C(=O)OCCOC(=O)c1ccc(-c2c3nc(c(-c4ccccc4)c4ccc([nH]4)c(-c4ccccc4)c4nc(c(-c5ccccc5)c5ccc2[nH]5)C=C4)C=C3)cc1
REMARK SMILES IDX 19 1 18 2 16 3 17 4 15 5 6 6 7 7 8 9 14 10 9 11 13 12 10 13
REMARK SMILES IDX 12 14 11 15 4 16 5 17 2 18 1 19 3 20 20 22 21 23 22 24 23 25
REMARK SMILES IDX 24 26 25 27 71 28 26 29 70 30 27 31 28 32 29 33 64 34 30 35
REMARK SMILES IDX 69 36 63 37 65 38 31 39 68 40 62 41 61 42 32 44 54 45 39 46
REMARK SMILES IDX 53 47 40 48 43 49 52 50 66 51 41 52 42 53 51 55 67 56 44 57
REMARK SMILES IDX 33 58 34 59 38 60 35 61 37 62 36 63 55 64 56 65 60 66 57 67
REMARK SMILES IDX 59 68 58 69 45 70 46 71 50 72 47 73 49 74 48 75
REMARK H PARENT 6 8 3 21 65 43 43 54
REMARK Flexibility Score: inf
ROOT
ATOM      1  C   UNL A   1      31.776  30.745  26.629  1.00  0.00     0.274 C 
ENDROOT
BRANCH   1   2
ATOM      2  O   UNL A   1      31.310  30.229  25.364  1.00  0.00    -0.458 OA
BRANCH   2   3
ATOM      3  C   UNL A   1      32.255  29.548  24.648  1.00  0.00     0.365 C 
ATOM      4  O   UNL A   1      33.427  29.480  24.998  1.00  0.00    -0.245 OA
BRANCH   3   5
ATOM      5  C   UNL A   1      31.676  28.972  23.324  1.00  0.00     0.300 C 
ATOM      6  N   UNL A   1      30.194  28.970  23.381  1.00  0.00    -0.315 N 
ATOM      7  C   UNL A   1      29.569  27.655  23.567  1.00  0.00     0.300 C 
ATOM      8  H   UNL A   1      30.086  29.430  24.286  1.00  0.00     0.349 HD
ATOM      9  C   UNL A   1      30.384  26.692  24.398  1.00  0.00     0.010 A 
ATOM     10  C   UNL A   1      32.310  27.572  23.122  1.00  0.00     0.113 C 
ATOM     11  C   UNL A   1      29.819  25.868  25.373  1.00  0.00     0.010 A 
ATOM     12  C   UNL A   1      31.762  26.613  24.144  1.00  0.00    -0.033 A 
ATOM     13  C   UNL A   1      30.636  25.025  26.126  1.00  0.00     0.001 A 
ATOM     14  C   UNL A   1      32.576  25.764  24.896  1.00  0.00     0.004 A 
ATOM     15  C   UNL A   1      32.012  24.986  25.902  1.00  0.00     0.000 A 
BRANCH   6  16
ATOM     16  C   UNL A   1      29.420  29.970  22.604  1.00  0.00     0.210 C 
ATOM     17  C   UNL A   1      28.092  29.447  22.014  1.00  0.00     0.078 C 
BRANCH  16  18
ATOM     18  C   UNL A   1      29.106  31.367  23.260  1.00  0.00     0.169 C 
ATOM     19  C   UNL A   1      27.653  31.578  23.685  1.00  0.00     0.045 C 
BRANCH  18  20
ATOM     20  O   UNL A   1      29.528  32.432  22.406  1.00  0.00    -0.387 OA
ATOM     21  H   UNL A   1      30.172  32.095  21.763  1.00  0.00     0.211 HD
ENDBRANCH  18  20
ENDBRANCH  16  18
ENDBRANCH   6  16
ENDBRANCH   3   5
ENDBRANCH   2   3
ENDBRANCH   1   2
BRANCH   1  22
ATOM     22  C   UNL A   1      31.530  32.246  26.828  1.00  0.00     0.275 C 
BRANCH  22  23
ATOM     23  O   UNL A   1      32.740  33.020  26.718  1.00  0.00    -0.458 OA
BRANCH  23  24
ATOM     24  C   UNL A   1      33.151  33.611  27.865  1.00  0.00     0.338 C 
ATOM     25  O   UNL A   1      32.528  34.417  28.538  1.00  0.00    -0.246 OA
BRANCH  24  26
ATOM     26  C   UNL A   1      34.441  33.049  28.310  1.00  0.00     0.060 A 
ATOM     27  C   UNL A   1      34.395  31.792  28.913  1.00  0.00     0.016 A 
ATOM     28  C   UNL A   1      35.651  33.745  28.232  1.00  0.00     0.016 A 
ATOM     29  C   UNL A   1      35.552  31.217  29.429  1.00  0.00     0.010 A 
ATOM     30  C   UNL A   1      36.817  33.172  28.773  1.00  0.00     0.010 A 
ATOM     31  C   UNL A   1      36.771  31.904  29.376  1.00  0.00    -0.014 A 
BRANCH  31  32
ATOM     32  C   UNL A   1      37.951  31.274  30.024  1.00  0.00     0.031 A 
ATOM     33  C   UNL A   1      38.180  31.468  31.496  1.00  0.00     0.074 A 
ATOM     34  C   UNL A   1      38.728  30.412  29.341  1.00  0.00     0.049 A 
ATOM     35  N   UNL A   1      39.085  30.927  32.271  1.00  0.00    -0.248 NA
ATOM     36  C   UNL A   1      37.259  32.385  32.185  1.00  0.00     0.031 C 
ATOM     37  C   UNL A   1      38.554  30.060  27.936  1.00  0.00     0.029 A 
ATOM     38  N   UNL A   1      39.776  29.627  29.758  1.00  0.00    -0.354 N 
ATOM     39  C   UNL A   1      38.860  31.454  33.536  1.00  0.00     0.074 A 
ATOM     40  C   UNL A   1      37.714  32.333  33.429  1.00  0.00     0.031 C 
ATOM     41  C   UNL A   1      39.415  29.076  27.625  1.00  0.00     0.029 A 
ATOM     42  C   UNL A   1      40.232  28.759  28.794  1.00  0.00     0.049 A 
ATOM     43  H   UNL A   1      40.165  29.682  30.661  1.00  0.00     0.167 HD
ATOM     44  C   UNL A   1      39.565  31.256  34.675  1.00  0.00     0.031 A 
ATOM     45  C   UNL A   1      41.192  27.814  28.849  1.00  0.00     0.031 A 
ATOM     46  C   UNL A   1      40.738  30.429  34.777  1.00  0.00     0.049 A 
ATOM     47  C   UNL A   1      42.000  27.660  30.111  1.00  0.00     0.074 A 
ATOM     48  C   UNL A   1      41.577  30.251  35.864  1.00  0.00     0.029 A 
ATOM     49  N   UNL A   1      41.243  29.648  33.751  1.00  0.00    -0.354 N 
ATOM     50  N   UNL A   1      41.824  28.221  31.282  1.00  0.00    -0.248 NA
ATOM     51  C   UNL A   1      43.170  26.769  30.042  1.00  0.00     0.031 C 
ATOM     52  C   UNL A   1      42.619  29.401  35.479  1.00  0.00     0.029 A 
ATOM     53  C   UNL A   1      42.395  29.003  34.170  1.00  0.00     0.049 A 
ATOM     54  H   UNL A   1      40.843  29.565  32.856  1.00  0.00     0.167 HD
ATOM     55  C   UNL A   1      42.867  27.766  32.081  1.00  0.00     0.074 A 
ATOM     56  C   UNL A   1      43.642  26.844  31.279  1.00  0.00     0.031 C 
ATOM     57  C   UNL A   1      43.171  28.104  33.357  1.00  0.00     0.031 A 
BRANCH  44  58
ATOM     58  C   UNL A   1      39.140  32.047  35.876  1.00  0.00    -0.014 A 
ATOM     59  C   UNL A   1      38.154  31.578  36.756  1.00  0.00     0.009 A 
ATOM     60  C   UNL A   1      39.735  33.295  36.118  1.00  0.00     0.009 A 
ATOM     61  C   UNL A   1      37.749  32.363  37.839  1.00  0.00     0.001 A 
ATOM     62  C   UNL A   1      39.343  34.066  37.212  1.00  0.00     0.001 A 
ATOM     63  C   UNL A   1      38.344  33.604  38.065  1.00  0.00     0.000 A 
ENDBRANCH  44  58
BRANCH  45  64
ATOM     64  C   UNL A   1      41.491  26.956  27.669  1.00  0.00    -0.014 A 
ATOM     65  C   UNL A   1      40.943  25.667  27.568  1.00  0.00     0.009 A 
ATOM     66  C   UNL A   1      42.367  27.397  26.665  1.00  0.00     0.009 A 
ATOM     67  C   UNL A   1      41.287  24.831  26.500  1.00  0.00     0.001 A 
ATOM     68  C   UNL A   1      42.681  26.573  25.582  1.00  0.00     0.001 A 
ATOM     69  C   UNL A   1      42.150  25.286  25.506  1.00  0.00     0.000 A 
ENDBRANCH  45  64
BRANCH  57  70
ATOM     70  C   UNL A   1      44.402  27.485  33.960  1.00  0.00    -0.014 A 
ATOM     71  C   UNL A   1      45.641  28.143  33.907  1.00  0.00     0.009 A 
ATOM     72  C   UNL A   1      44.316  26.249  34.620  1.00  0.00     0.009 A 
ATOM     73  C   UNL A   1      46.776  27.560  34.476  1.00  0.00     0.001 A 
ATOM     74  C   UNL A   1      45.448  25.682  35.210  1.00  0.00     0.001 A 
ATOM     75  C   UNL A   1      46.677  26.334  35.130  1.00  0.00     0.000 A 
ENDBRANCH  57  70
ENDBRANCH  31  32
ENDBRANCH  24  26
ENDBRANCH  23  24
ENDBRANCH  22  23
ENDBRANCH   1  22
TORSDOF 14
ENDMDL
MODEL 3
REMARK VINA RESULT:     -10.5      4.923      8.514
REMARK SMILES C[C@H](O)[C@H](C)[N@H+]1Cc2ccccc2C[C@@H]1C(=O)OCCOC(=O)c1ccc(-c2c3nc(c(-c4ccccc4)c4ccc([nH]4)c(-c4ccccc4)c4nc(c(-c5ccccc5)c5ccc2[nH]5)C=C4)C=C3)cc1
REMARK SMILES IDX 19 1 18 2 16 3 17 4 15 5 6 6 7 7 8 9 14 10 9 11 13 12 10 13
REMARK SMILES IDX 12 14 11 15 4 16 5 17 2 18 1 19 3 20 20 22 21 23 22 24 23 25
REMARK SMILES IDX 24 26 25 27 71 28 26 29 70 30 27 31 28 32 29 33 64 34 30 35
REMARK SMILES IDX 69 36 63 37 65 38 31 39 68 40 62 41 61 42 32 44 54 45 39 46
REMARK SMILES IDX 53 47 40 48 43 49 52 50 66 51 41 52 42 53 51 55 67 56 44 57
REMARK SMILES IDX 33 58 34 59 38 60 35 61 37 62 36 63 55 64 56 65 60 66 57 67
REMARK SMILES IDX 59 68 58 69 45 70 46 71 50 72 47 73 49 74 48 75
REMARK H PARENT 6 8 3 21 65 43 43 54
REMARK Flexibility Score: inf
ROOT
ATOM      1  C   UNL A   1      32.243  31.274  26.970  1.00  0.00     0.274 C 
ENDROOT
BRANCH   1   2
ATOM      2  O   UNL A   1      31.764  30.627  25.772  1.00  0.00    -0.458 OA
BRANCH   2   3
ATOM      3  C   UNL A   1      32.621  29.699  25.249  1.00  0.00     0.365 C 
ATOM      4  O   UNL A   1      33.687  29.411  25.780  1.00  0.00    -0.245 OA
BRANCH   3   5
ATOM      5  C   UNL A   1      32.117  29.148  23.885  1.00  0.00     0.300 C 
ATOM      6  N   UNL A   1      30.642  28.992  23.919  1.00  0.00    -0.315 N 
ATOM      7  C   UNL A   1      30.153  27.612  24.018  1.00  0.00     0.300 C 
ATOM      8  H   UNL A   1      30.479  29.383  24.847  1.00  0.00     0.349 HD
ATOM      9  C   UNL A   1      31.054  26.689  24.803  1.00  0.00     0.010 A 
ATOM     10  C   UNL A   1      32.892  27.834  23.611  1.00  0.00     0.113 C 
ATOM     11  C   UNL A   1      30.566  25.754  25.719  1.00  0.00     0.010 A 
ATOM     12  C   UNL A   1      32.435  26.765  24.567  1.00  0.00    -0.033 A 
ATOM     13  C   UNL A   1      31.458  24.955  26.435  1.00  0.00     0.001 A 
ATOM     14  C   UNL A   1      33.324  25.959  25.280  1.00  0.00     0.004 A 
ATOM     15  C   UNL A   1      32.832  25.069  26.231  1.00  0.00     0.000 A 
BRANCH   6  16
ATOM     16  C   UNL A   1      29.778  29.953  23.189  1.00  0.00     0.210 C 
ATOM     17  C   UNL A   1      28.736  29.306  22.250  1.00  0.00     0.078 C 
BRANCH  16  18
ATOM     18  C   UNL A   1      29.021  31.067  24.005  1.00  0.00     0.169 C 
ATOM     19  C   UNL A   1      27.660  31.479  23.444  1.00  0.00     0.045 C 
BRANCH  18  20
ATOM     20  O   UNL A   1      29.851  32.219  24.176  1.00  0.00    -0.387 OA
ATOM     21  H   UNL A   1      29.449  32.976  23.722  1.00  0.00     0.211 HD
ENDBRANCH  18  20
ENDBRANCH  16  18
ENDBRANCH   6  16
ENDBRANCH   3   5
ENDBRANCH   2   3
ENDBRANCH   1   2
BRANCH   1  22
ATOM     22  C   UNL A   1      32.041  32.794  26.991  1.00  0.00     0.275 C 
BRANCH  22  23
ATOM     23  O   UNL A   1      32.067  33.333  28.327  1.00  0.00    -0.458 OA
BRANCH  23  24
ATOM     24  C   UNL A   1      33.010  34.279  28.546  1.00  0.00     0.338 C 
ATOM     25  O   UNL A   1      32.837  35.486  28.612  1.00  0.00    -0.246 OA
BRANCH  24  26
ATOM     26  C   UNL A   1      34.316  33.658  28.844  1.00  0.00     0.060 A 
ATOM     27  C   UNL A   1      34.386  32.887  30.004  1.00  0.00     0.016 A 
ATOM     28  C   UNL A   1      35.466  33.879  28.079  1.00  0.00     0.016 A 
ATOM     29  C   UNL A   1      35.594  32.324  30.402  1.00  0.00     0.010 A 
ATOM     30  C   UNL A   1      36.692  33.326  28.494  1.00  0.00     0.010 A 
ATOM     31  C   UNL A   1      36.760  32.546  29.661  1.00  0.00    -0.014 A 
BRANCH  31  32
ATOM     32  C   UNL A   1      38.034  31.991  30.187  1.00  0.00     0.031 A 
ATOM     33  C   UNL A   1      38.576  30.711  29.618  1.00  0.00     0.074 A 
ATOM     34  C   UNL A   1      38.781  32.698  31.056  1.00  0.00     0.049 A 
ATOM     35  N   UNL A   1      39.714  30.112  29.863  1.00  0.00    -0.248 NA
ATOM     36  C   UNL A   1      37.726  30.021  28.635  1.00  0.00     0.031 C 
ATOM     37  C   UNL A   1      38.418  33.998  31.608  1.00  0.00     0.029 A 
ATOM     38  N   UNL A   1      40.031  32.450  31.572  1.00  0.00    -0.354 N 
ATOM     39  C   UNL A   1      39.710  28.964  29.084  1.00  0.00     0.074 A 
ATOM     40  C   UNL A   1      38.469  28.965  28.336  1.00  0.00     0.031 C 
ATOM     41  C   UNL A   1      39.451  34.469  32.327  1.00  0.00     0.029 A 
ATOM     42  C   UNL A   1      40.531  33.485  32.325  1.00  0.00     0.049 A 
ATOM     43  H   UNL A   1      40.521  31.610  31.418  1.00  0.00     0.167 HD
ATOM     44  C   UNL A   1      40.634  27.976  29.024  1.00  0.00     0.031 A 
ATOM     45  C   UNL A   1      41.725  33.627  32.936  1.00  0.00     0.031 A 
ATOM     46  C   UNL A   1      41.842  27.938  29.805  1.00  0.00     0.049 A 
ATOM     47  C   UNL A   1      42.708  32.486  32.902  1.00  0.00     0.074 A 
ATOM     48  C   UNL A   1      42.787  26.928  29.887  1.00  0.00     0.029 A 
ATOM     49  N   UNL A   1      42.268  28.952  30.647  1.00  0.00    -0.354 N 
ATOM     50  N   UNL A   1      42.659  31.369  32.219  1.00  0.00    -0.248 NA
ATOM     51  C   UNL A   1      43.896  32.612  33.763  1.00  0.00     0.031 C 
ATOM     52  C   UNL A   1      43.758  27.311  30.818  1.00  0.00     0.029 A 
ATOM     53  C   UNL A   1      43.449  28.585  31.270  1.00  0.00     0.049 A 
ATOM     54  H   UNL A   1      41.800  29.807  30.782  1.00  0.00     0.167 HD
ATOM     55  C   UNL A   1      43.795  30.654  32.580  1.00  0.00     0.074 A 
ATOM     56  C   UNL A   1      44.541  31.484  33.502  1.00  0.00     0.031 C 
ATOM     57  C   UNL A   1      44.173  29.409  32.202  1.00  0.00     0.031 A 
BRANCH  44  58
ATOM     58  C   UNL A   1      40.306  26.798  28.156  1.00  0.00    -0.014 A 
ATOM     59  C   UNL A   1      39.498  25.746  28.616  1.00  0.00     0.009 A 
ATOM     60  C   UNL A   1      40.831  26.739  26.856  1.00  0.00     0.009 A 
ATOM     61  C   UNL A   1      39.252  24.641  27.796  1.00  0.00     0.001 A 
ATOM     62  C   UNL A   1      40.564  25.644  26.034  1.00  0.00     0.001 A 
ATOM     63  C   UNL A   1      39.784  24.593  26.508  1.00  0.00     0.000 A 
ENDBRANCH  44  58
BRANCH  45  64
ATOM     64  C   UNL A   1      42.062  34.875  33.677  1.00  0.00    -0.014 A 
ATOM     65  C   UNL A   1      41.636  35.054  35.003  1.00  0.00     0.009 A 
ATOM     66  C   UNL A   1      42.764  35.916  33.048  1.00  0.00     0.009 A 
ATOM     67  C   UNL A   1      41.884  36.256  35.673  1.00  0.00     0.001 A 
ATOM     68  C   UNL A   1      43.039  37.101  33.731  1.00  0.00     0.001 A 
ATOM     69  C   UNL A   1      42.590  37.276  35.039  1.00  0.00     0.000 A 
ENDBRANCH  45  64
BRANCH  57  70
ATOM     70  C   UNL A   1      45.442  28.864  32.796  1.00  0.00    -0.014 A 
ATOM     71  C   UNL A   1      45.443  28.257  34.063  1.00  0.00     0.009 A 
ATOM     72  C   UNL A   1      46.641  28.922  32.070  1.00  0.00     0.009 A 
ATOM     73  C   UNL A   1      46.627  27.747  34.601  1.00  0.00     0.001 A 
ATOM     74  C   UNL A   1      47.817  28.389  32.601  1.00  0.00     0.001 A 
ATOM     75  C   UNL A   1      47.811  27.810  33.869  1.00  0.00     0.000 A 
ENDBRANCH  57  70
ENDBRANCH  31  32
ENDBRANCH  24  26
ENDBRANCH  23  24
ENDBRANCH  22  23
ENDBRANCH   1  22
TORSDOF 14
ENDMDL
