MODEL 1
REMARK VINA RESULT:     -11.0      0.000      0.000
REMARK SMILES C[C@]12CCC(=O)N1[C@H](C(=O)N1CCC[C@@H]1C(=O)OCCOC(=O)c1ccc(-c3c4nc(c(-c5ccccc5)c5ccc([nH]5)c(-c5ccccc5)c5nc(c(-c6ccccc6)c6ccc3[nH]6)C=C5)C=C4)cc1)CS2
REMARK SMILES IDX 19 1 18 2 16 3 17 4 15 5 11 6 12 7 13 8 14 9 9 10 10 11 8 12
REMARK SMILES IDX 1 13 2 14 3 15 7 16 73 17 4 18 5 19 72 20 6 21 20 22 21 23
REMARK SMILES IDX 22 24 23 25 24 26 25 27 71 28 26 29 70 30 27 31 28 32 29 33
REMARK SMILES IDX 64 34 30 35 69 36 63 37 65 38 31 39 68 40 62 41 61 42 32 44
REMARK SMILES IDX 54 45 39 46 53 47 40 48 43 49 52 50 66 51 41 52 42 53 51 55
REMARK SMILES IDX 67 56 44 57 33 58 34 59 38 60 35 61 37 62 36 63 55 64 56 65
REMARK SMILES IDX 60 66 57 67 59 68 58 69 45 70 46 71 50 72 47 73 49 74 48 75
REMARK H PARENT 65 43 43 54
REMARK Flexibility Score: inf
ROOT
ATOM      1  C   UNL A   1      35.042  21.813  25.891  1.00  0.00     0.274 C 
ENDROOT
BRANCH   1   2
ATOM      2  O   UNL A   1      33.995  22.272  25.008  1.00  0.00    -0.461 OA
BRANCH   2   3
ATOM      3  C   UNL A   1      33.251  23.331  25.431  1.00  0.00     0.328 C 
ATOM      4  O   UNL A   1      33.661  24.216  26.175  1.00  0.00    -0.250 OA
BRANCH   3   5
ATOM      5  C   UNL A   1      31.771  23.248  24.986  1.00  0.00     0.195 C 
ATOM      6  N   UNL A   1      30.997  24.477  25.151  1.00  0.00    -0.327 N 
ATOM      7  C   UNL A   1      30.035  24.343  26.239  1.00  0.00     0.120 C 
ATOM      8  C   UNL A   1      30.396  23.046  26.942  1.00  0.00     0.024 C 
ATOM      9  C   UNL A   1      31.012  22.215  25.824  1.00  0.00     0.039 C 
BRANCH   6  10
ATOM     10  C   UNL A   1      30.987  25.621  24.381  1.00  0.00     0.247 C 
ATOM     11  O   UNL A   1      31.213  25.522  23.167  1.00  0.00    -0.272 OA
BRANCH  10  12
ATOM     12  C   UNL A   1      30.917  27.030  25.039  1.00  0.00     0.186 C 
ATOM     13  C   UNL A   1      34.056  26.858  24.256  1.00  0.00     0.047 C 
ATOM     14  C   UNL A   1      33.235  27.862  25.063  1.00  0.00     0.087 C 
ATOM     15  C   UNL A   1      34.090  28.559  26.117  1.00  0.00     0.049 C 
ATOM     16  N   UNL A   1      32.134  27.304  25.808  1.00  0.00    -0.315 N 
ATOM     17  S   UNL A   1      32.402  29.000  23.897  1.00  0.00    -0.131 SA
ATOM     18  C   UNL A   1      33.147  28.829  27.279  1.00  0.00     0.103 C 
ATOM     19  C   UNL A   1      32.034  27.833  27.087  1.00  0.00     0.224 C 
ATOM     20  C   UNL A   1      30.737  28.311  24.223  1.00  0.00     0.107 C 
ATOM     21  O   UNL A   1      31.105  27.667  27.861  1.00  0.00    -0.275 OA
ENDBRANCH  10  12
ENDBRANCH   6  10
ENDBRANCH   3   5
ENDBRANCH   2   3
ENDBRANCH   1   2
BRANCH   1  22
ATOM     22  C   UNL A   1      36.010  20.861  25.197  1.00  0.00     0.275 C 
BRANCH  22  23
ATOM     23  O   UNL A   1      37.211  21.562  24.839  1.00  0.00    -0.458 OA
BRANCH  23  24
ATOM     24  C   UNL A   1      38.320  21.154  25.491  1.00  0.00     0.338 C 
ATOM     25  O   UNL A   1      38.845  20.056  25.473  1.00  0.00    -0.246 OA
BRANCH  24  26
ATOM     26  C   UNL A   1      38.905  22.296  26.195  1.00  0.00     0.060 A 
ATOM     27  C   UNL A   1      38.387  23.563  25.935  1.00  0.00     0.016 A 
ATOM     28  C   UNL A   1      40.058  22.140  26.960  1.00  0.00     0.016 A 
ATOM     29  C   UNL A   1      39.070  24.693  26.358  1.00  0.00     0.010 A 
ATOM     30  C   UNL A   1      40.706  23.277  27.448  1.00  0.00     0.010 A 
ATOM     31  C   UNL A   1      40.243  24.563  27.110  1.00  0.00    -0.014 A 
BRANCH  31  32
ATOM     32  C   UNL A   1      41.041  25.768  27.447  1.00  0.00     0.031 A 
ATOM     33  C   UNL A   1      40.493  26.765  28.432  1.00  0.00     0.074 A 
ATOM     34  C   UNL A   1      42.265  25.952  26.919  1.00  0.00     0.049 A 
ATOM     35  N   UNL A   1      40.927  27.964  28.722  1.00  0.00    -0.248 NA
ATOM     36  C   UNL A   1      39.289  26.363  29.179  1.00  0.00     0.031 C 
ATOM     37  C   UNL A   1      42.951  25.026  26.016  1.00  0.00     0.029 A 
ATOM     38  N   UNL A   1      43.158  26.979  27.083  1.00  0.00    -0.354 N 
ATOM     39  C   UNL A   1      40.009  28.487  29.624  1.00  0.00     0.074 A 
ATOM     40  C   UNL A   1      39.005  27.471  29.849  1.00  0.00     0.031 C 
ATOM     41  C   UNL A   1      44.173  25.509  25.739  1.00  0.00     0.029 A 
ATOM     42  C   UNL A   1      44.322  26.813  26.374  1.00  0.00     0.049 A 
ATOM     43  H   UNL A   1      42.981  27.762  27.654  1.00  0.00     0.167 HD
ATOM     44  C   UNL A   1      40.000  29.712  30.202  1.00  0.00     0.031 A 
ATOM     45  C   UNL A   1      45.375  27.636  26.221  1.00  0.00     0.031 A 
ATOM     46  C   UNL A   1      41.031  30.697  30.017  1.00  0.00     0.049 A 
ATOM     47  C   UNL A   1      45.345  28.989  26.870  1.00  0.00     0.074 A 
ATOM     48  C   UNL A   1      41.108  31.977  30.536  1.00  0.00     0.029 A 
ATOM     49  N   UNL A   1      42.183  30.495  29.273  1.00  0.00    -0.354 N 
ATOM     50  N   UNL A   1      44.418  29.517  27.632  1.00  0.00    -0.248 NA
ATOM     51  C   UNL A   1      46.494  29.868  26.617  1.00  0.00     0.031 C 
ATOM     52  C   UNL A   1      42.302  32.557  30.091  1.00  0.00     0.029 A 
ATOM     53  C   UNL A   1      42.981  31.624  29.323  1.00  0.00     0.049 A 
ATOM     54  H   UNL A   1      42.401  29.670  28.781  1.00  0.00     0.167 HD
ATOM     55  C   UNL A   1      44.871  30.789  27.950  1.00  0.00     0.074 A 
ATOM     56  C   UNL A   1      46.167  30.944  27.320  1.00  0.00     0.031 C 
ATOM     57  C   UNL A   1      44.265  31.751  28.688  1.00  0.00     0.031 A 
BRANCH  44  58
ATOM     58  C   UNL A   1      38.809  30.068  31.042  1.00  0.00    -0.014 A 
ATOM     59  C   UNL A   1      38.799  29.867  32.430  1.00  0.00     0.009 A 
ATOM     60  C   UNL A   1      37.681  30.635  30.427  1.00  0.00     0.009 A 
ATOM     61  C   UNL A   1      37.669  30.200  33.181  1.00  0.00     0.001 A 
ATOM     62  C   UNL A   1      36.563  30.988  31.183  1.00  0.00     0.001 A 
ATOM     63  C   UNL A   1      36.555  30.763  32.559  1.00  0.00     0.000 A 
ENDBRANCH  44  58
BRANCH  45  64
ATOM     64  C   UNL A   1      46.520  27.220  25.373  1.00  0.00    -0.014 A 
ATOM     65  C   UNL A   1      46.716  27.793  24.109  1.00  0.00     0.009 A 
ATOM     66  C   UNL A   1      47.434  26.259  25.835  1.00  0.00     0.009 A 
ATOM     67  C   UNL A   1      47.802  27.406  23.319  1.00  0.00     0.001 A 
ATOM     68  C   UNL A   1      48.532  25.893  25.054  1.00  0.00     0.001 A 
ATOM     69  C   UNL A   1      48.712  26.462  23.795  1.00  0.00     0.000 A 
ENDBRANCH  45  64
BRANCH  57  70
ATOM     70  C   UNL A   1      45.013  33.036  28.867  1.00  0.00    -0.014 A 
ATOM     71  C   UNL A   1      45.907  33.207  29.934  1.00  0.00     0.009 A 
ATOM     72  C   UNL A   1      44.839  34.078  27.942  1.00  0.00     0.009 A 
ATOM     73  C   UNL A   1      46.592  34.413  30.090  1.00  0.00     0.001 A 
ATOM     74  C   UNL A   1      45.538  35.274  28.092  1.00  0.00     0.001 A 
ATOM     75  C   UNL A   1      46.408  35.445  29.168  1.00  0.00     0.000 A 
ENDBRANCH  57  70
ENDBRANCH  31  32
ENDBRANCH  24  26
ENDBRANCH  23  24
ENDBRANCH  22  23
ENDBRANCH   1  22
TORSDOF 13
ENDMDL
MODEL 2
REMARK VINA RESULT:     -11.0      3.605      8.547
REMARK SMILES C[C@]12CCC(=O)N1[C@H](C(=O)N1CCC[C@@H]1C(=O)OCCOC(=O)c1ccc(-c3c4nc(c(-c5ccccc5)c5ccc([nH]5)c(-c5ccccc5)c5nc(c(-c6ccccc6)c6ccc3[nH]6)C=C5)C=C4)cc1)CS2
REMARK SMILES IDX 19 1 18 2 16 3 17 4 15 5 11 6 12 7 13 8 14 9 9 10 10 11 8 12
REMARK SMILES IDX 1 13 2 14 3 15 7 16 73 17 4 18 5 19 72 20 6 21 20 22 21 23
REMARK SMILES IDX 22 24 23 25 24 26 25 27 71 28 26 29 70 30 27 31 28 32 29 33
REMARK SMILES IDX 64 34 30 35 69 36 63 37 65 38 31 39 68 40 62 41 61 42 32 44
REMARK SMILES IDX 54 45 39 46 53 47 40 48 43 49 52 50 66 51 41 52 42 53 51 55
REMARK SMILES IDX 67 56 44 57 33 58 34 59 38 60 35 61 37 62 36 63 55 64 56 65
REMARK SMILES IDX 60 66 57 67 59 68 58 69 45 70 46 71 50 72 47 73 49 74 48 75
REMARK H PARENT 65 43 43 54
REMARK Flexibility Score: inf
ROOT
ATOM      1  C   UNL A   1      31.869  28.264  27.591  1.00  0.00     0.274 C 
ENDROOT
BRANCH   1   2
ATOM      2  O   UNL A   1      31.023  27.165  27.187  1.00  0.00    -0.461 OA
BRANCH   2   3
ATOM      3  C   UNL A   1      31.524  26.313  26.251  1.00  0.00     0.328 C 
ATOM      4  O   UNL A   1      32.718  26.173  26.005  1.00  0.00    -0.250 OA
BRANCH   3   5
ATOM      5  C   UNL A   1      30.424  25.617  25.414  1.00  0.00     0.195 C 
ATOM      6  N   UNL A   1      30.885  24.530  24.553  1.00  0.00    -0.327 N 
ATOM      7  C   UNL A   1      30.839  24.923  23.149  1.00  0.00     0.120 C 
ATOM      8  C   UNL A   1      30.560  26.416  23.156  1.00  0.00     0.024 C 
ATOM      9  C   UNL A   1      29.772  26.608  24.445  1.00  0.00     0.039 C 
BRANCH   6  10
ATOM     10  C   UNL A   1      31.221  23.231  24.876  1.00  0.00     0.247 C 
ATOM     11  O   UNL A   1      30.801  22.757  25.940  1.00  0.00    -0.272 OA
BRANCH  10  12
ATOM     12  C   UNL A   1      32.283  22.448  24.049  1.00  0.00     0.186 C 
ATOM     13  C   UNL A   1      33.974  23.170  26.717  1.00  0.00     0.047 C 
ATOM     14  C   UNL A   1      34.355  22.544  25.376  1.00  0.00     0.087 C 
ATOM     15  C   UNL A   1      35.814  22.825  25.027  1.00  0.00     0.049 C 
ATOM     16  N   UNL A   1      33.616  23.026  24.237  1.00  0.00    -0.315 N 
ATOM     17  S   UNL A   1      33.921  20.767  25.421  1.00  0.00    -0.131 SA
ATOM     18  C   UNL A   1      35.847  22.926  23.510  1.00  0.00     0.103 C 
ATOM     19  C   UNL A   1      34.427  23.254  23.133  1.00  0.00     0.224 C 
ATOM     20  C   UNL A   1      32.533  20.952  24.241  1.00  0.00     0.107 C 
ATOM     21  O   UNL A   1      34.044  23.498  22.000  1.00  0.00    -0.275 OA
ENDBRANCH  10  12
ENDBRANCH   6  10
ENDBRANCH   3   5
ENDBRANCH   2   3
ENDBRANCH   1   2
BRANCH   1  22
ATOM     22  C   UNL A   1      31.625  29.519  26.759  1.00  0.00     0.275 C 
BRANCH  22  23
ATOM     23  O   UNL A   1      32.878  30.074  26.333  1.00  0.00    -0.458 OA
BRANCH  23  24
ATOM     24  C   UNL A   1      33.289  31.150  27.036  1.00  0.00     0.338 C 
ATOM     25  O   UNL A   1      32.652  32.143  27.336  1.00  0.00    -0.246 OA
BRANCH  24  26
ATOM     26  C   UNL A   1      34.657  30.920  27.506  1.00  0.00     0.060 A 
ATOM     27  C   UNL A   1      35.092  29.603  27.636  1.00  0.00     0.016 A 
ATOM     28  C   UNL A   1      35.430  31.977  27.976  1.00  0.00     0.016 A 
ATOM     29  C   UNL A   1      36.263  29.323  28.324  1.00  0.00     0.010 A 
ATOM     30  C   UNL A   1      36.646  31.699  28.605  1.00  0.00     0.010 A 
ATOM     31  C   UNL A   1      37.048  30.368  28.826  1.00  0.00    -0.014 A 
BRANCH  31  32
ATOM     32  C   UNL A   1      38.228  30.064  29.672  1.00  0.00     0.031 A 
ATOM     33  C   UNL A   1      39.366  29.267  29.095  1.00  0.00     0.074 A 
ATOM     34  C   UNL A   1      38.309  30.533  30.931  1.00  0.00     0.049 A 
ATOM     35  N   UNL A   1      40.391  28.730  29.704  1.00  0.00    -0.248 NA
ATOM     36  C   UNL A   1      39.338  29.032  27.641  1.00  0.00     0.031 C 
ATOM     37  C   UNL A   1      37.317  31.385  31.589  1.00  0.00     0.029 A 
ATOM     38  N   UNL A   1      39.287  30.369  31.878  1.00  0.00    -0.354 N 
ATOM     39  C   UNL A   1      41.087  28.033  28.724  1.00  0.00     0.074 A 
ATOM     40  C   UNL A   1      40.379  28.228  27.478  1.00  0.00     0.031 C 
ATOM     41  C   UNL A   1      37.757  31.703  32.817  1.00  0.00     0.029 A 
ATOM     42  C   UNL A   1      39.016  31.009  33.062  1.00  0.00     0.049 A 
ATOM     43  H   UNL A   1      40.105  29.843  31.724  1.00  0.00     0.167 HD
ATOM     44  C   UNL A   1      42.208  27.285  28.858  1.00  0.00     0.031 A 
ATOM     45  C   UNL A   1      39.687  31.006  34.228  1.00  0.00     0.031 A 
ATOM     46  C   UNL A   1      42.936  27.140  30.089  1.00  0.00     0.049 A 
ATOM     47  C   UNL A   1      40.928  30.171  34.355  1.00  0.00     0.074 A 
ATOM     48  C   UNL A   1      44.071  26.388  30.339  1.00  0.00     0.029 A 
ATOM     49  N   UNL A   1      42.615  27.789  31.270  1.00  0.00    -0.354 N 
ATOM     50  N   UNL A   1      41.515  29.426  33.451  1.00  0.00    -0.248 NA
ATOM     51  C   UNL A   1      41.583  30.158  35.670  1.00  0.00     0.031 C 
ATOM     52  C   UNL A   1      44.427  26.570  31.681  1.00  0.00     0.029 A 
ATOM     53  C   UNL A   1      43.532  27.460  32.253  1.00  0.00     0.049 A 
ATOM     54  H   UNL A   1      41.848  28.394  31.392  1.00  0.00     0.167 HD
ATOM     55  C   UNL A   1      42.608  28.854  34.086  1.00  0.00     0.074 A 
ATOM     56  C   UNL A   1      42.618  29.360  35.444  1.00  0.00     0.031 C 
ATOM     57  C   UNL A   1      43.519  27.978  33.594  1.00  0.00     0.031 A 
BRANCH  44  58
ATOM     58  C   UNL A   1      42.676  26.525  27.652  1.00  0.00    -0.014 A 
ATOM     59  C   UNL A   1      42.204  25.237  27.362  1.00  0.00     0.009 A 
ATOM     60  C   UNL A   1      43.597  27.126  26.779  1.00  0.00     0.009 A 
ATOM     61  C   UNL A   1      42.669  24.554  26.236  1.00  0.00     0.001 A 
ATOM     62  C   UNL A   1      44.042  26.450  25.642  1.00  0.00     0.001 A 
ATOM     63  C   UNL A   1      43.583  25.161  25.376  1.00  0.00     0.000 A 
ENDBRANCH  44  58
BRANCH  45  64
ATOM     64  C   UNL A   1      39.165  31.780  35.382  1.00  0.00    -0.014 A 
ATOM     65  C   UNL A   1      38.262  31.196  36.282  1.00  0.00     0.009 A 
ATOM     66  C   UNL A   1      39.584  33.102  35.600  1.00  0.00     0.009 A 
ATOM     67  C   UNL A   1      37.781  31.925  37.372  1.00  0.00     0.001 A 
ATOM     68  C   UNL A   1      39.122  33.819  36.705  1.00  0.00     0.001 A 
ATOM     69  C   UNL A   1      38.218  33.232  37.587  1.00  0.00     0.000 A 
ENDBRANCH  45  64
BRANCH  57  70
ATOM     70  C   UNL A   1      44.605  27.540  34.528  1.00  0.00    -0.014 A 
ATOM     71  C   UNL A   1      45.807  28.257  34.622  1.00  0.00     0.009 A 
ATOM     72  C   UNL A   1      44.413  26.410  35.338  1.00  0.00     0.009 A 
ATOM     73  C   UNL A   1      46.812  27.832  35.493  1.00  0.00     0.001 A 
ATOM     74  C   UNL A   1      45.413  25.999  36.219  1.00  0.00     0.001 A 
ATOM     75  C   UNL A   1      46.614  26.705  36.291  1.00  0.00     0.000 A 
ENDBRANCH  57  70
ENDBRANCH  31  32
ENDBRANCH  24  26
ENDBRANCH  23  24
ENDBRANCH  22  23
ENDBRANCH   1  22
TORSDOF 13
ENDMDL
MODEL 3
REMARK VINA RESULT:     -10.9      3.692      8.594
REMARK SMILES C[C@]12CCC(=O)N1[C@H](C(=O)N1CCC[C@@H]1C(=O)OCCOC(=O)c1ccc(-c3c4nc(c(-c5ccccc5)c5ccc([nH]5)c(-c5ccccc5)c5nc(c(-c6ccccc6)c6ccc3[nH]6)C=C5)C=C4)cc1)CS2
REMARK SMILES IDX 19 1 18 2 16 3 17 4 15 5 11 6 12 7 13 8 14 9 9 10 10 11 8 12
REMARK SMILES IDX 1 13 2 14 3 15 7 16 73 17 4 18 5 19 72 20 6 21 20 22 21 23
REMARK SMILES IDX 22 24 23 25 24 26 25 27 71 28 26 29 70 30 27 31 28 32 29 33
REMARK SMILES IDX 64 34 30 35 69 36 63 37 65 38 31 39 68 40 62 41 61 42 32 44
REMARK SMILES IDX 54 45 39 46 53 47 40 48 43 49 52 50 66 51 41 52 42 53 51 55
REMARK SMILES IDX 67 56 44 57 33 58 34 59 38 60 35 61 37 62 36 63 55 64 56 65
REMARK SMILES IDX 60 66 57 67 59 68 58 69 45 70 46 71 50 72 47 73 49 74 48 75
REMARK H PARENT 65 43 43 54
REMARK Flexibility Score: inf
ROOT
ATOM      1  C   UNL A   1      31.283  29.558  25.311  1.00  0.00     0.274 C 
ENDROOT
BRANCH   1   2
ATOM      2  O   UNL A   1      32.029  28.361  25.623  1.00  0.00    -0.461 OA
BRANCH   2   3
ATOM      3  C   UNL A   1      31.468  27.501  26.518  1.00  0.00     0.328 C 
ATOM      4  O   UNL A   1      31.220  27.777  27.688  1.00  0.00    -0.250 OA
BRANCH   3   5
ATOM      5  C   UNL A   1      31.285  26.072  25.952  1.00  0.00     0.195 C 
ATOM      6  N   UNL A   1      31.987  25.800  24.699  1.00  0.00    -0.327 N 
ATOM      7  C   UNL A   1      31.048  25.695  23.589  1.00  0.00     0.120 C 
ATOM      8  C   UNL A   1      29.713  26.164  24.141  1.00  0.00     0.024 C 
ATOM      9  C   UNL A   1      29.814  25.807  25.618  1.00  0.00     0.039 C 
BRANCH   6  10
ATOM     10  C   UNL A   1      33.323  25.532  24.479  1.00  0.00     0.247 C 
ATOM     11  O   UNL A   1      33.877  26.048  23.498  1.00  0.00    -0.272 OA
BRANCH  10  12
ATOM     12  C   UNL A   1      34.067  24.438  25.298  1.00  0.00     0.186 C 
ATOM     13  C   UNL A   1      33.147  22.751  22.690  1.00  0.00     0.047 C 
ATOM     14  C   UNL A   1      33.795  22.353  24.015  1.00  0.00     0.087 C 
ATOM     15  C   UNL A   1      33.437  20.922  24.401  1.00  0.00     0.049 C 
ATOM     16  N   UNL A   1      33.402  23.140  25.156  1.00  0.00    -0.315 N 
ATOM     17  S   UNL A   1      35.593  22.675  23.900  1.00  0.00    -0.131 SA
ATOM     18  C   UNL A   1      33.388  20.920  25.921  1.00  0.00     0.103 C 
ATOM     19  C   UNL A   1      33.163  22.365  26.282  1.00  0.00     0.224 C 
ATOM     20  C   UNL A   1      35.538  24.091  25.060  1.00  0.00     0.107 C 
ATOM     21  O   UNL A   1      32.985  22.781  27.415  1.00  0.00    -0.275 OA
ENDBRANCH  10  12
ENDBRANCH   6  10
ENDBRANCH   3   5
ENDBRANCH   2   3
ENDBRANCH   1   2
BRANCH   1  22
ATOM     22  C   UNL A   1      31.757  30.763  26.117  1.00  0.00     0.275 C 
BRANCH  22  23
ATOM     23  O   UNL A   1      33.125  30.579  26.510  1.00  0.00    -0.458 OA
BRANCH  23  24
ATOM     24  C   UNL A   1      33.631  31.565  27.280  1.00  0.00     0.338 C 
ATOM     25  O   UNL A   1      33.083  32.586  27.654  1.00  0.00    -0.246 OA
BRANCH  24  26
ATOM     26  C   UNL A   1      34.976  31.188  27.716  1.00  0.00     0.060 A 
ATOM     27  C   UNL A   1      35.233  29.840  27.958  1.00  0.00     0.016 A 
ATOM     28  C   UNL A   1      35.911  32.163  28.050  1.00  0.00     0.016 A 
ATOM     29  C   UNL A   1      36.388  29.461  28.624  1.00  0.00     0.010 A 
ATOM     30  C   UNL A   1      37.108  31.775  28.656  1.00  0.00     0.010 A 
ATOM     31  C   UNL A   1      37.334  30.426  28.991  1.00  0.00    -0.014 A 
BRANCH  31  32
ATOM     32  C   UNL A   1      38.503  30.037  29.817  1.00  0.00     0.031 A 
ATOM     33  C   UNL A   1      39.621  29.247  29.191  1.00  0.00     0.074 A 
ATOM     34  C   UNL A   1      38.595  30.423  31.103  1.00  0.00     0.049 A 
ATOM     35  N   UNL A   1      40.629  28.645  29.765  1.00  0.00    -0.248 NA
ATOM     36  C   UNL A   1      39.590  29.105  27.725  1.00  0.00     0.031 C 
ATOM     37  C   UNL A   1      37.625  31.259  31.813  1.00  0.00     0.029 A 
ATOM     38  N   UNL A   1      39.566  30.173  32.038  1.00  0.00    -0.354 N 
ATOM     39  C   UNL A   1      41.308  27.992  28.744  1.00  0.00     0.074 A 
ATOM     40  C   UNL A   1      40.608  28.285  27.512  1.00  0.00     0.031 C 
ATOM     41  C   UNL A   1      38.071  31.486  33.059  1.00  0.00     0.029 A 
ATOM     42  C   UNL A   1      39.310  30.745  33.260  1.00  0.00     0.049 A 
ATOM     43  H   UNL A   1      40.370  29.636  31.852  1.00  0.00     0.167 HD
ATOM     44  C   UNL A   1      42.408  27.207  28.831  1.00  0.00     0.031 A 
ATOM     45  C   UNL A   1      39.978  30.649  34.424  1.00  0.00     0.031 A 
ATOM     46  C   UNL A   1      43.130  26.965  30.050  1.00  0.00     0.049 A 
ATOM     47  C   UNL A   1      41.195  29.774  34.499  1.00  0.00     0.074 A 
ATOM     48  C   UNL A   1      44.242  26.167  30.253  1.00  0.00     0.029 A 
ATOM     49  N   UNL A   1      42.824  27.546  31.270  1.00  0.00    -0.354 N 
ATOM     50  N   UNL A   1      41.764  29.072  33.550  1.00  0.00    -0.248 NA
ATOM     51  C   UNL A   1      41.847  29.661  35.810  1.00  0.00     0.031 C 
ATOM     52  C   UNL A   1      44.600  26.254  31.604  1.00  0.00     0.029 A 
ATOM     53  C   UNL A   1      43.729  27.131  32.231  1.00  0.00     0.049 A 
ATOM     54  H   UNL A   1      42.073  28.163  31.430  1.00  0.00     0.167 HD
ATOM     55  C   UNL A   1      42.840  28.431  34.147  1.00  0.00     0.074 A 
ATOM     56  C   UNL A   1      42.860  28.850  35.535  1.00  0.00     0.031 C 
ATOM     57  C   UNL A   1      43.727  27.563  33.602  1.00  0.00     0.031 A 
BRANCH  44  58
ATOM     58  C   UNL A   1      42.858  26.512  27.579  1.00  0.00    -0.014 A 
ATOM     59  C   UNL A   1      43.805  27.084  26.718  1.00  0.00     0.009 A 
ATOM     60  C   UNL A   1      42.332  25.247  27.270  1.00  0.00     0.009 A 
ATOM     61  C   UNL A   1      44.195  26.415  25.556  1.00  0.00     0.001 A 
ATOM     62  C   UNL A   1      42.740  24.571  26.120  1.00  0.00     0.001 A 
ATOM     63  C   UNL A   1      43.666  25.159  25.260  1.00  0.00     0.000 A 
ENDBRANCH  44  58
BRANCH  45  64
ATOM     64  C   UNL A   1      39.475  31.363  35.624  1.00  0.00    -0.014 A 
ATOM     65  C   UNL A   1      40.072  32.560  36.045  1.00  0.00     0.009 A 
ATOM     66  C   UNL A   1      38.379  30.858  36.345  1.00  0.00     0.009 A 
ATOM     67  C   UNL A   1      39.587  33.233  37.169  1.00  0.00     0.001 A 
ATOM     68  C   UNL A   1      37.882  31.547  37.452  1.00  0.00     0.001 A 
ATOM     69  C   UNL A   1      38.489  32.730  37.867  1.00  0.00     0.000 A 
ENDBRANCH  45  64
BRANCH  57  70
ATOM     70  C   UNL A   1      44.799  27.037  34.506  1.00  0.00    -0.014 A 
ATOM     71  C   UNL A   1      46.017  27.718  34.652  1.00  0.00     0.009 A 
ATOM     72  C   UNL A   1      44.577  25.861  35.238  1.00  0.00     0.009 A 
ATOM     73  C   UNL A   1      47.008  27.211  35.494  1.00  0.00     0.001 A 
ATOM     74  C   UNL A   1      45.563  25.367  36.092  1.00  0.00     0.001 A 
ATOM     75  C   UNL A   1      46.780  26.038  36.214  1.00  0.00     0.000 A 
ENDBRANCH  57  70
ENDBRANCH  31  32
ENDBRANCH  24  26
ENDBRANCH  23  24
ENDBRANCH  22  23
ENDBRANCH   1  22
TORSDOF 13
ENDMDL
