MODEL 1
REMARK VINA RESULT:      -9.7      0.000      0.000
REMARK SMILES CC[C@H](C)CN(CC)c1nc(C(=O)OCCOC(=O)c2ccc(-c3c4nc(c(-c5ccccc5)c5ccc([nH]5)c(-c5ccccc5)c5nc(c(-c6ccccc6)c6ccc3[nH]6)C=C5)C=C4)cc2)cc2ccccc12
REMARK SMILES IDX 15 1 14 2 12 3 13 4 11 5 9 6 10 7 74 8 69 9 73 10 68 11
REMARK SMILES IDX 70 12 72 13 71 14 6 15 5 16 3 17 4 18 2 19 1 20 7 21 8 22
REMARK SMILES IDX 16 23 17 24 18 25 19 26 20 27 21 28 67 29 22 30 66 31 23 32
REMARK SMILES IDX 24 33 25 34 60 35 26 36 65 37 59 38 61 39 27 40 64 41 58 42
REMARK SMILES IDX 57 43 28 45 50 46 35 47 49 48 36 49 39 50 48 51 62 52 37 53
REMARK SMILES IDX 38 54 47 56 63 57 40 58 29 59 30 60 34 61 31 62 33 63 32 64
REMARK SMILES IDX 51 65 52 66 56 67 53 68 55 69 54 70 41 71 42 72 46 73 43 74
REMARK SMILES IDX 45 75 44 76
REMARK H PARENT 61 44 39 55
REMARK Flexibility Score: inf
ROOT
ATOM      1  C   UNL A   1      32.093  30.316  27.017  1.00  0.00     0.275 C 
ENDROOT
BRANCH   1   2
ATOM      2  O   UNL A   1      33.148  29.988  26.090  1.00  0.00    -0.457 OA
BRANCH   2   3
ATOM      3  C   UNL A   1      33.941  28.959  26.478  1.00  0.00     0.357 C 
ATOM      4  O   UNL A   1      34.674  28.949  27.460  1.00  0.00    -0.244 OA
BRANCH   3   5
ATOM      5  C   UNL A   1      33.800  27.760  25.611  1.00  0.00     0.151 A 
ATOM      6  C   UNL A   1      33.077  25.578  25.378  1.00  0.00     0.137 A 
ATOM      7  N   UNL A   1      33.493  26.581  26.188  1.00  0.00    -0.223 NA
ATOM      8  C   UNL A   1      32.893  25.771  23.975  1.00  0.00     0.024 A 
ATOM      9  C   UNL A   1      33.413  26.943  23.403  1.00  0.00    -0.012 A 
ATOM     10  C   UNL A   1      32.225  24.886  23.097  1.00  0.00     0.012 A 
ATOM     11  C   UNL A   1      33.847  27.954  24.242  1.00  0.00     0.045 A 
ATOM     12  C   UNL A   1      33.458  27.110  22.007  1.00  0.00     0.009 A 
ATOM     13  C   UNL A   1      32.245  25.062  21.710  1.00  0.00     0.001 A 
ATOM     14  C   UNL A   1      32.903  26.155  21.163  1.00  0.00     0.001 A 
BRANCH   6  15
ATOM     15  N   UNL A   1      32.918  24.304  25.950  1.00  0.00    -0.356 N 
BRANCH  15  16
ATOM     16  C   UNL A   1      34.179  23.609  26.324  1.00  0.00     0.121 C 
BRANCH  16  17
ATOM     17  C   UNL A   1      35.313  23.794  25.288  1.00  0.00     0.005 C 
ATOM     18  C   UNL A   1      36.691  23.675  25.956  1.00  0.00     0.009 C 
BRANCH  17  19
ATOM     19  C   UNL A   1      35.218  22.829  24.089  1.00  0.00     0.002 C 
ATOM     20  C   UNL A   1      36.525  22.815  23.293  1.00  0.00     0.004 C 
ENDBRANCH  17  19
ENDBRANCH  16  17
ENDBRANCH  15  16
BRANCH  15  21
ATOM     21  C   UNL A   1      31.793  24.167  26.888  1.00  0.00     0.114 C 
ATOM     22  C   UNL A   1      30.679  23.231  26.425  1.00  0.00     0.027 C 
ENDBRANCH  15  21
ENDBRANCH   6  15
ENDBRANCH   3   5
ENDBRANCH   2   3
ENDBRANCH   1   2
BRANCH   1  23
ATOM     23  C   UNL A   1      31.775  31.811  27.003  1.00  0.00     0.275 C 
BRANCH  23  24
ATOM     24  O   UNL A   1      32.989  32.587  26.956  1.00  0.00    -0.458 OA
BRANCH  24  25
ATOM     25  C   UNL A   1      33.133  33.513  27.932  1.00  0.00     0.338 C 
ATOM     26  O   UNL A   1      32.345  34.390  28.241  1.00  0.00    -0.246 OA
BRANCH  25  27
ATOM     27  C   UNL A   1      34.404  33.316  28.658  1.00  0.00     0.060 A 
ATOM     28  C   UNL A   1      35.561  33.931  28.201  1.00  0.00     0.016 A 
ATOM     29  C   UNL A   1      34.486  32.372  29.679  1.00  0.00     0.016 A 
ATOM     30  C   UNL A   1      36.812  33.488  28.632  1.00  0.00     0.010 A 
ATOM     31  C   UNL A   1      35.737  32.035  30.218  1.00  0.00     0.010 A 
ATOM     32  C   UNL A   1      36.926  32.539  29.659  1.00  0.00    -0.014 A 
BRANCH  32  33
ATOM     33  C   UNL A   1      38.270  32.046  30.101  1.00  0.00     0.031 A 
ATOM     34  C   UNL A   1      38.872  30.798  29.490  1.00  0.00     0.074 A 
ATOM     35  C   UNL A   1      38.987  32.716  31.027  1.00  0.00     0.049 A 
ATOM     36  N   UNL A   1      39.932  30.121  29.866  1.00  0.00    -0.248 NA
ATOM     37  C   UNL A   1      38.186  30.224  28.322  1.00  0.00     0.031 C 
ATOM     38  C   UNL A   1      38.581  33.958  31.689  1.00  0.00     0.029 A 
ATOM     39  N   UNL A   1      40.230  32.458  31.559  1.00  0.00    -0.354 N 
ATOM     40  C   UNL A   1      39.986  29.005  29.037  1.00  0.00     0.074 A 
ATOM     41  C   UNL A   1      38.859  29.098  28.135  1.00  0.00     0.031 C 
ATOM     42  C   UNL A   1      39.579  34.393  32.471  1.00  0.00     0.029 A 
ATOM     43  C   UNL A   1      40.653  33.407  32.459  1.00  0.00     0.049 A 
ATOM     44  H   UNL A   1      40.765  31.668  31.318  1.00  0.00     0.167 HD
ATOM     45  C   UNL A   1      40.885  27.990  29.031  1.00  0.00     0.031 A 
ATOM     46  C   UNL A   1      41.757  33.471  33.227  1.00  0.00     0.031 A 
ATOM     47  C   UNL A   1      42.050  27.926  29.873  1.00  0.00     0.049 A 
ATOM     48  C   UNL A   1      42.743  32.342  33.201  1.00  0.00     0.074 A 
ATOM     49  C   UNL A   1      43.024  26.941  29.925  1.00  0.00     0.029 A 
ATOM     50  N   UNL A   1      42.417  28.897  30.789  1.00  0.00    -0.354 N 
ATOM     51  N   UNL A   1      42.729  31.253  32.471  1.00  0.00    -0.248 NA
ATOM     52  C   UNL A   1      43.883  32.437  34.124  1.00  0.00     0.031 C 
ATOM     53  C   UNL A   1      43.965  27.305  30.894  1.00  0.00     0.029 A 
ATOM     54  C   UNL A   1      43.599  28.535  31.414  1.00  0.00     0.049 A 
ATOM     55  H   UNL A   1      41.912  29.723  30.970  1.00  0.00     0.167 HD
ATOM     56  C   UNL A   1      43.857  30.535  32.846  1.00  0.00     0.074 A 
ATOM     57  C   UNL A   1      44.547  31.323  33.847  1.00  0.00     0.031 C 
ATOM     58  C   UNL A   1      44.275  29.325  32.407  1.00  0.00     0.031 A 
BRANCH  45  59
ATOM     59  C   UNL A   1      40.621  26.833  28.107  1.00  0.00    -0.014 A 
ATOM     60  C   UNL A   1      41.085  26.820  26.783  1.00  0.00     0.009 A 
ATOM     61  C   UNL A   1      39.926  25.713  28.594  1.00  0.00     0.009 A 
ATOM     62  C   UNL A   1      40.829  25.723  25.956  1.00  0.00     0.001 A 
ATOM     63  C   UNL A   1      39.696  24.607  27.773  1.00  0.00     0.001 A 
ATOM     64  C   UNL A   1      40.139  24.616  26.453  1.00  0.00     0.000 A 
ENDBRANCH  45  59
BRANCH  46  65
ATOM     65  C   UNL A   1      41.961  34.634  34.131  1.00  0.00    -0.014 A 
ATOM     66  C   UNL A   1      42.641  35.776  33.681  1.00  0.00     0.009 A 
ATOM     67  C   UNL A   1      41.461  34.613  35.443  1.00  0.00     0.009 A 
ATOM     68  C   UNL A   1      42.822  36.869  34.531  1.00  0.00     0.001 A 
ATOM     69  C   UNL A   1      41.615  35.721  36.278  1.00  0.00     0.001 A 
ATOM     70  C   UNL A   1      42.301  36.846  35.824  1.00  0.00     0.000 A 
ENDBRANCH  46  65
BRANCH  58  71
ATOM     71  C   UNL A   1      45.553  28.793  32.988  1.00  0.00    -0.014 A 
ATOM     72  C   UNL A   1      45.550  28.014  34.154  1.00  0.00     0.009 A 
ATOM     73  C   UNL A   1      46.772  29.061  32.347  1.00  0.00     0.009 A 
ATOM     74  C   UNL A   1      46.750  27.537  34.686  1.00  0.00     0.001 A 
ATOM     75  C   UNL A   1      47.967  28.564  32.869  1.00  0.00     0.001 A 
ATOM     76  C   UNL A   1      47.957  27.811  34.042  1.00  0.00     0.000 A 
ENDBRANCH  58  71
ENDBRANCH  32  33
ENDBRANCH  25  27
ENDBRANCH  24  25
ENDBRANCH  23  24
ENDBRANCH   1  23
TORSDOF 16
ENDMDL
MODEL 2
REMARK VINA RESULT:      -9.4      3.876      5.297
REMARK SMILES CC[C@H](C)CN(CC)c1nc(C(=O)OCCOC(=O)c2ccc(-c3c4nc(c(-c5ccccc5)c5ccc([nH]5)c(-c5ccccc5)c5nc(c(-c6ccccc6)c6ccc3[nH]6)C=C5)C=C4)cc2)cc2ccccc12
REMARK SMILES IDX 15 1 14 2 12 3 13 4 11 5 9 6 10 7 74 8 69 9 73 10 68 11
REMARK SMILES IDX 70 12 72 13 71 14 6 15 5 16 3 17 4 18 2 19 1 20 7 21 8 22
REMARK SMILES IDX 16 23 17 24 18 25 19 26 20 27 21 28 67 29 22 30 66 31 23 32
REMARK SMILES IDX 24 33 25 34 60 35 26 36 65 37 59 38 61 39 27 40 64 41 58 42
REMARK SMILES IDX 57 43 28 45 50 46 35 47 49 48 36 49 39 50 48 51 62 52 37 53
REMARK SMILES IDX 38 54 47 56 63 57 40 58 29 59 30 60 34 61 31 62 33 63 32 64
REMARK SMILES IDX 51 65 52 66 56 67 53 68 55 69 54 70 41 71 42 72 46 73 43 74
REMARK SMILES IDX 45 75 44 76
REMARK H PARENT 61 44 39 55
REMARK Flexibility Score: inf
ROOT
ATOM      1  C   UNL A   1      34.447  31.751  27.658  1.00  0.00     0.275 C 
ENDROOT
BRANCH   1   2
ATOM      2  O   UNL A   1      33.464  30.713  27.473  1.00  0.00    -0.457 OA
BRANCH   2   3
ATOM      3  C   UNL A   1      33.976  29.504  27.133  1.00  0.00     0.357 C 
ATOM      4  O   UNL A   1      34.981  28.991  27.611  1.00  0.00    -0.244 OA
BRANCH   3   5
ATOM      5  C   UNL A   1      33.149  28.787  26.128  1.00  0.00     0.151 A 
ATOM      6  C   UNL A   1      32.181  26.808  25.431  1.00  0.00     0.137 A 
ATOM      7  N   UNL A   1      33.150  27.439  26.137  1.00  0.00    -0.223 NA
ATOM      8  C   UNL A   1      31.146  27.530  24.762  1.00  0.00     0.024 A 
ATOM      9  C   UNL A   1      31.306  28.918  24.618  1.00  0.00    -0.012 A 
ATOM     10  C   UNL A   1      29.961  26.975  24.227  1.00  0.00     0.012 A 
ATOM     11  C   UNL A   1      32.308  29.547  25.334  1.00  0.00     0.045 A 
ATOM     12  C   UNL A   1      30.444  29.664  23.796  1.00  0.00     0.009 A 
ATOM     13  C   UNL A   1      29.086  27.720  23.431  1.00  0.00     0.001 A 
ATOM     14  C   UNL A   1      29.355  29.059  23.179  1.00  0.00     0.001 A 
BRANCH   6  15
ATOM     15  N   UNL A   1      32.276  25.412  25.301  1.00  0.00    -0.356 N 
BRANCH  15  16
ATOM     16  C   UNL A   1      33.461  24.920  24.548  1.00  0.00     0.121 C 
BRANCH  16  17
ATOM     17  C   UNL A   1      33.121  24.433  23.118  1.00  0.00     0.005 C 
ATOM     18  C   UNL A   1      31.683  23.899  23.049  1.00  0.00     0.009 C 
BRANCH  17  19
ATOM     19  C   UNL A   1      33.343  25.504  22.031  1.00  0.00     0.002 C 
ATOM     20  C   UNL A   1      32.010  25.979  21.450  1.00  0.00     0.004 C 
ENDBRANCH  17  19
ENDBRANCH  16  17
ENDBRANCH  15  16
BRANCH  15  21
ATOM     21  C   UNL A   1      31.890  24.637  26.490  1.00  0.00     0.114 C 
ATOM     22  C   UNL A   1      30.451  24.125  26.484  1.00  0.00     0.027 C 
ENDBRANCH  15  21
ENDBRANCH   6  15
ENDBRANCH   3   5
ENDBRANCH   2   3
ENDBRANCH   1   2
BRANCH   1  23
ATOM     23  C   UNL A   1      34.557  32.169  29.125  1.00  0.00     0.275 C 
BRANCH  23  24
ATOM     24  O   UNL A   1      35.211  31.142  29.896  1.00  0.00    -0.458 OA
BRANCH  24  25
ATOM     25  C   UNL A   1      36.347  31.516  30.529  1.00  0.00     0.338 C 
ATOM     26  O   UNL A   1      36.468  32.370  31.390  1.00  0.00    -0.246 OA
BRANCH  25  27
ATOM     27  C   UNL A   1      37.493  30.703  30.073  1.00  0.00     0.060 A 
ATOM     28  C   UNL A   1      38.375  30.172  31.005  1.00  0.00     0.016 A 
ATOM     29  C   UNL A   1      37.800  30.626  28.717  1.00  0.00     0.016 A 
ATOM     30  C   UNL A   1      39.634  29.723  30.606  1.00  0.00     0.010 A 
ATOM     31  C   UNL A   1      39.005  30.036  28.307  1.00  0.00     0.010 A 
ATOM     32  C   UNL A   1      39.971  29.634  29.248  1.00  0.00    -0.014 A 
BRANCH  32  33
ATOM     33  C   UNL A   1      41.334  29.176  28.824  1.00  0.00     0.031 A 
ATOM     34  C   UNL A   1      41.554  27.760  28.335  1.00  0.00     0.074 A 
ATOM     35  C   UNL A   1      42.387  30.021  28.838  1.00  0.00     0.049 A 
ATOM     36  N   UNL A   1      42.682  27.133  28.097  1.00  0.00    -0.248 NA
ATOM     37  C   UNL A   1      40.358  26.937  28.102  1.00  0.00     0.031 C 
ATOM     38  C   UNL A   1      42.348  31.429  29.239  1.00  0.00     0.029 A 
ATOM     39  N   UNL A   1      43.700  29.822  28.480  1.00  0.00    -0.354 N 
ATOM     40  C   UNL A   1      42.330  25.826  27.772  1.00  0.00     0.074 A 
ATOM     41  C   UNL A   1      40.888  25.752  27.835  1.00  0.00     0.031 C 
ATOM     42  C   UNL A   1      43.550  31.984  29.031  1.00  0.00     0.029 A 
ATOM     43  C   UNL A   1      44.479  30.950  28.592  1.00  0.00     0.049 A 
ATOM     44  H   UNL A   1      44.049  28.954  28.175  1.00  0.00     0.167 HD
ATOM     45  C   UNL A   1      43.134  24.781  27.458  1.00  0.00     0.031 A 
ATOM     46  C   UNL A   1      45.800  31.137  28.405  1.00  0.00     0.031 A 
ATOM     47  C   UNL A   1      44.564  24.862  27.320  1.00  0.00     0.049 A 
ATOM     48  C   UNL A   1      46.670  29.969  28.052  1.00  0.00     0.074 A 
ATOM     49  C   UNL A   1      45.458  23.855  26.990  1.00  0.00     0.029 A 
ATOM     50  N   UNL A   1      45.308  26.019  27.472  1.00  0.00    -0.354 N 
ATOM     51  N   UNL A   1      46.328  28.722  27.833  1.00  0.00    -0.248 NA
ATOM     52  C   UNL A   1      48.113  30.228  27.944  1.00  0.00     0.031 C 
ATOM     53  C   UNL A   1      46.746  24.400  26.972  1.00  0.00     0.029 A 
ATOM     54  C   UNL A   1      46.649  25.753  27.248  1.00  0.00     0.049 A 
ATOM     55  H   UNL A   1      44.938  26.902  27.706  1.00  0.00     0.167 HD
ATOM     56  C   UNL A   1      47.512  28.050  27.563  1.00  0.00     0.074 A 
ATOM     57  C   UNL A   1      48.578  29.030  27.616  1.00  0.00     0.031 C 
ATOM     58  C   UNL A   1      47.699  26.734  27.305  1.00  0.00     0.031 A 
BRANCH  45  59
ATOM     59  C   UNL A   1      42.487  23.434  27.283  1.00  0.00    -0.014 A 
ATOM     60  C   UNL A   1      42.163  22.927  26.016  1.00  0.00     0.009 A 
ATOM     61  C   UNL A   1      42.236  22.642  28.416  1.00  0.00     0.009 A 
ATOM     62  C   UNL A   1      41.571  21.666  25.890  1.00  0.00     0.001 A 
ATOM     63  C   UNL A   1      41.670  21.372  28.285  1.00  0.00     0.001 A 
ATOM     64  C   UNL A   1      41.329  20.890  27.024  1.00  0.00     0.000 A 
ENDBRANCH  45  59
BRANCH  46  65
ATOM     65  C   UNL A   1      46.388  32.488  28.604  1.00  0.00    -0.014 A 
ATOM     66  C   UNL A   1      46.478  33.391  27.534  1.00  0.00     0.009 A 
ATOM     67  C   UNL A   1      46.847  32.886  29.869  1.00  0.00     0.009 A 
ATOM     68  C   UNL A   1      47.022  34.662  27.727  1.00  0.00     0.001 A 
ATOM     69  C   UNL A   1      47.361  34.169  30.066  1.00  0.00     0.001 A 
ATOM     70  C   UNL A   1      47.455  35.054  28.994  1.00  0.00     0.000 A 
ENDBRANCH  46  65
BRANCH  58  71
ATOM     71  C   UNL A   1      49.105  26.285  27.033  1.00  0.00    -0.014 A 
ATOM     72  C   UNL A   1      49.647  26.345  25.741  1.00  0.00     0.009 A 
ATOM     73  C   UNL A   1      49.902  25.817  28.088  1.00  0.00     0.009 A 
ATOM     74  C   UNL A   1      50.954  25.914  25.504  1.00  0.00     0.001 A 
ATOM     75  C   UNL A   1      51.215  25.407  27.853  1.00  0.00     0.001 A 
ATOM     76  C   UNL A   1      51.737  25.447  26.560  1.00  0.00     0.000 A 
ENDBRANCH  58  71
ENDBRANCH  32  33
ENDBRANCH  25  27
ENDBRANCH  24  25
ENDBRANCH  23  24
ENDBRANCH   1  23
TORSDOF 16
ENDMDL
MODEL 3
REMARK VINA RESULT:      -9.3      0.491      6.003
REMARK SMILES CC[C@H](C)CN(CC)c1nc(C(=O)OCCOC(=O)c2ccc(-c3c4nc(c(-c5ccccc5)c5ccc([nH]5)c(-c5ccccc5)c5nc(c(-c6ccccc6)c6ccc3[nH]6)C=C5)C=C4)cc2)cc2ccccc12
REMARK SMILES IDX 15 1 14 2 12 3 13 4 11 5 9 6 10 7 74 8 69 9 73 10 68 11
REMARK SMILES IDX 70 12 72 13 71 14 6 15 5 16 3 17 4 18 2 19 1 20 7 21 8 22
REMARK SMILES IDX 16 23 17 24 18 25 19 26 20 27 21 28 67 29 22 30 66 31 23 32
REMARK SMILES IDX 24 33 25 34 60 35 26 36 65 37 59 38 61 39 27 40 64 41 58 42
REMARK SMILES IDX 57 43 28 45 50 46 35 47 49 48 36 49 39 50 48 51 62 52 37 53
REMARK SMILES IDX 38 54 47 56 63 57 40 58 29 59 30 60 34 61 31 62 33 63 32 64
REMARK SMILES IDX 51 65 52 66 56 67 53 68 55 69 54 70 41 71 42 72 46 73 43 74
REMARK SMILES IDX 45 75 44 76
REMARK H PARENT 61 44 39 55
REMARK Flexibility Score: inf
ROOT
ATOM      1  C   UNL A   1      32.049  30.709  27.143  1.00  0.00     0.275 C 
ENDROOT
BRANCH   1   2
ATOM      2  O   UNL A   1      32.806  30.087  26.084  1.00  0.00    -0.457 OA
BRANCH   2   3
ATOM      3  C   UNL A   1      33.642  29.101  26.492  1.00  0.00     0.357 C 
ATOM      4  O   UNL A   1      34.344  29.125  27.496  1.00  0.00    -0.244 OA
BRANCH   3   5
ATOM      5  C   UNL A   1      33.593  27.902  25.615  1.00  0.00     0.151 A 
ATOM      6  C   UNL A   1      32.984  25.690  25.344  1.00  0.00     0.137 A 
ATOM      7  N   UNL A   1      33.318  26.706  26.174  1.00  0.00    -0.223 NA
ATOM      8  C   UNL A   1      32.848  25.882  23.935  1.00  0.00     0.024 A 
ATOM      9  C   UNL A   1      33.335  27.081  23.389  1.00  0.00    -0.012 A 
ATOM     10  C   UNL A   1      32.259  24.972  23.027  1.00  0.00     0.012 A 
ATOM     11  C   UNL A   1      33.686  28.106  24.249  1.00  0.00     0.045 A 
ATOM     12  C   UNL A   1      33.429  27.258  21.998  1.00  0.00     0.009 A 
ATOM     13  C   UNL A   1      32.327  25.157  21.643  1.00  0.00     0.001 A 
ATOM     14  C   UNL A   1      32.954  26.283  21.128  1.00  0.00     0.001 A 
BRANCH   6  15
ATOM     15  N   UNL A   1      32.861  24.406  25.903  1.00  0.00    -0.356 N 
BRANCH  15  16
ATOM     16  C   UNL A   1      34.143  23.727  26.232  1.00  0.00     0.121 C 
BRANCH  16  17
ATOM     17  C   UNL A   1      35.278  24.040  25.228  1.00  0.00     0.005 C 
ATOM     18  C   UNL A   1      36.650  23.977  25.916  1.00  0.00     0.009 C 
BRANCH  17  19
ATOM     19  C   UNL A   1      35.267  23.134  23.980  1.00  0.00     0.002 C 
ATOM     20  C   UNL A   1      36.691  22.767  23.557  1.00  0.00     0.004 C 
ENDBRANCH  17  19
ENDBRANCH  16  17
ENDBRANCH  15  16
BRANCH  15  21
ATOM     21  C   UNL A   1      31.766  24.240  26.872  1.00  0.00     0.114 C 
ATOM     22  C   UNL A   1      30.911  22.992  26.668  1.00  0.00     0.027 C 
ENDBRANCH  15  21
ENDBRANCH   6  15
ENDBRANCH   3   5
ENDBRANCH   2   3
ENDBRANCH   1   2
BRANCH   1  23
ATOM     23  C   UNL A   1      31.824  32.197  26.878  1.00  0.00     0.275 C 
BRANCH  23  24
ATOM     24  O   UNL A   1      33.068  32.920  26.960  1.00  0.00    -0.458 OA
BRANCH  24  25
ATOM     25  C   UNL A   1      33.221  33.706  28.051  1.00  0.00     0.338 C 
ATOM     26  O   UNL A   1      32.431  34.525  28.489  1.00  0.00    -0.246 OA
BRANCH  25  27
ATOM     27  C   UNL A   1      34.503  33.422  28.727  1.00  0.00     0.060 A 
ATOM     28  C   UNL A   1      35.685  33.921  28.197  1.00  0.00     0.016 A 
ATOM     29  C   UNL A   1      34.554  32.507  29.775  1.00  0.00     0.016 A 
ATOM     30  C   UNL A   1      36.913  33.385  28.587  1.00  0.00     0.010 A 
ATOM     31  C   UNL A   1      35.796  32.080  30.269  1.00  0.00     0.010 A 
ATOM     32  C   UNL A   1      36.995  32.462  29.640  1.00  0.00    -0.014 A 
BRANCH  32  33
ATOM     33  C   UNL A   1      38.312  31.869  30.038  1.00  0.00     0.031 A 
ATOM     34  C   UNL A   1      39.177  32.542  31.083  1.00  0.00     0.074 A 
ATOM     35  C   UNL A   1      38.743  30.708  29.500  1.00  0.00     0.049 A 
ATOM     36  N   UNL A   1      40.416  32.279  31.426  1.00  0.00    -0.248 NA
ATOM     37  C   UNL A   1      38.583  33.666  31.822  1.00  0.00     0.031 C 
ATOM     38  C   UNL A   1      38.021  29.903  28.512  1.00  0.00     0.029 A 
ATOM     39  N   UNL A   1      39.891  29.985  29.729  1.00  0.00    -0.354 N 
ATOM     40  C   UNL A   1      40.770  33.254  32.353  1.00  0.00     0.074 A 
ATOM     41  C   UNL A   1      39.616  34.108  32.525  1.00  0.00     0.031 C 
ATOM     42  C   UNL A   1      38.697  28.769  28.282  1.00  0.00     0.029 A 
ATOM     43  C   UNL A   1      39.957  28.813  29.015  1.00  0.00     0.049 A 
ATOM     44  H   UNL A   1      40.599  30.280  30.346  1.00  0.00     0.167 HD
ATOM     45  C   UNL A   1      41.950  33.429  32.997  1.00  0.00     0.031 A 
ATOM     46  C   UNL A   1      40.931  27.887  28.916  1.00  0.00     0.031 A 
ATOM     47  C   UNL A   1      43.079  32.543  32.890  1.00  0.00     0.049 A 
ATOM     48  C   UNL A   1      42.226  28.096  29.642  1.00  0.00     0.074 A 
ATOM     49  C   UNL A   1      44.311  32.635  33.519  1.00  0.00     0.029 A 
ATOM     50  N   UNL A   1      43.105  31.387  32.130  1.00  0.00    -0.354 N 
ATOM     51  N   UNL A   1      42.572  29.072  30.446  1.00  0.00    -0.248 NA
ATOM     52  C   UNL A   1      43.275  27.090  29.425  1.00  0.00     0.031 C 
ATOM     53  C   UNL A   1      45.092  31.548  33.114  1.00  0.00     0.029 A 
ATOM     54  C   UNL A   1      44.332  30.758  32.268  1.00  0.00     0.049 A 
ATOM     55  H   UNL A   1      42.362  31.059  31.573  1.00  0.00     0.167 HD
ATOM     56  C   UNL A   1      43.876  28.796  30.832  1.00  0.00     0.074 A 
ATOM     57  C   UNL A   1      44.251  27.550  30.196  1.00  0.00     0.031 C 
ATOM     58  C   UNL A   1      44.694  29.520  31.632  1.00  0.00     0.031 A 
BRANCH  45  59
ATOM     59  C   UNL A   1      42.101  34.659  33.851  1.00  0.00    -0.014 A 
ATOM     60  C   UNL A   1      41.768  34.661  35.213  1.00  0.00     0.009 A 
ATOM     61  C   UNL A   1      42.629  35.829  33.279  1.00  0.00     0.009 A 
ATOM     62  C   UNL A   1      41.931  35.820  35.978  1.00  0.00     0.001 A 
ATOM     63  C   UNL A   1      42.815  36.977  34.051  1.00  0.00     0.001 A 
ATOM     64  C   UNL A   1      42.457  36.974  35.397  1.00  0.00     0.000 A 
ENDBRANCH  45  59
BRANCH  46  65
ATOM     65  C   UNL A   1      40.732  26.697  28.048  1.00  0.00    -0.014 A 
ATOM     66  C   UNL A   1      40.124  25.538  28.555  1.00  0.00     0.009 A 
ATOM     67  C   UNL A   1      41.135  26.720  26.703  1.00  0.00     0.009 A 
ATOM     68  C   UNL A   1      39.930  24.426  27.734  1.00  0.00     0.001 A 
ATOM     69  C   UNL A   1      40.910  25.618  25.877  1.00  0.00     0.001 A 
ATOM     70  C   UNL A   1      40.314  24.469  26.394  1.00  0.00     0.000 A 
ENDBRANCH  46  65
BRANCH  58  71
ATOM     71  C   UNL A   1      46.065  28.965  31.887  1.00  0.00    -0.014 A 
ATOM     72  C   UNL A   1      47.149  29.307  31.065  1.00  0.00     0.009 A 
ATOM     73  C   UNL A   1      46.275  28.104  32.975  1.00  0.00     0.009 A 
ATOM     74  C   UNL A   1      48.416  28.773  31.312  1.00  0.00     0.001 A 
ATOM     75  C   UNL A   1      47.546  27.589  33.231  1.00  0.00     0.001 A 
ATOM     76  C   UNL A   1      48.613  27.916  32.395  1.00  0.00     0.000 A 
ENDBRANCH  58  71
ENDBRANCH  32  33
ENDBRANCH  25  27
ENDBRANCH  24  25
ENDBRANCH  23  24
ENDBRANCH   1  23
TORSDOF 16
ENDMDL
