MODEL 1
REMARK VINA RESULT:     -11.3      0.000      0.000
REMARK SMILES CCCCc1ncc(C[N@H+]2C[C@@H]3c4ccccc4OC[C@]3(C(=O)OCCOC(=O)c3ccc(-c4c5nc(c(-c6ccccc6)c6ccc([nH]6)c(-c6ccccc6)c6nc(c(-c7ccccc7)c7ccc4[nH]7)C=C6)C=C5)cc3)C2)[nH]1
REMARK SMILES IDX 24 1 22 2 23 3 21 4 10 5 11 6 78 7 12 9 13 10 20 11 14 12
REMARK SMILES IDX 18 13 19 14 15 15 17 16 16 17 9 18 8 19 5 20 6 21 79 22 7 23
REMARK SMILES IDX 4 25 3 26 2 27 1 28 25 29 26 30 27 31 28 32 29 33 30 34
REMARK SMILES IDX 31 35 77 36 32 37 76 38 33 39 34 40 35 41 70 42 36 43 75 44
REMARK SMILES IDX 69 45 71 46 37 47 74 48 68 49 67 50 38 52 60 53 45 54 59 55
REMARK SMILES IDX 46 56 49 57 58 58 72 59 47 60 48 61 57 63 73 64 50 65 39 66
REMARK SMILES IDX 40 67 44 68 41 69 43 70 42 71 61 72 62 73 66 74 63 75 65 76
REMARK SMILES IDX 64 77 51 78 52 79 56 80 53 81 55 82 54 83
REMARK H PARENT 10 8 79 24 71 51 49 62
REMARK Flexibility Score: inf
ROOT
ATOM      1  O   UNL A   1      34.029  24.398  24.740  1.00  0.00    -0.461 OA
ENDROOT
BRANCH   1   2
ATOM      2  C   UNL A   1      33.404  25.107  23.748  1.00  0.00     0.322 C 
ATOM      3  O   UNL A   1      33.897  25.379  22.666  1.00  0.00    -0.251 OA
BRANCH   2   4
ATOM      4  C   UNL A   1      32.012  25.500  24.222  1.00  0.00     0.162 C 
ATOM      5  N   UNL A   1      30.380  24.198  25.470  1.00  0.00    -0.328 N 
ATOM      6  C   UNL A   1      30.548  25.493  26.119  1.00  0.00     0.272 C 
ATOM      7  C   UNL A   1      31.242  24.158  24.292  1.00  0.00     0.286 C 
ATOM      8  H   UNL A   1      29.412  24.118  25.160  1.00  0.00     0.348 HD
ATOM      9  C   UNL A   1      31.917  26.008  25.660  1.00  0.00     0.105 C 
ATOM     10  C   UNL A   1      31.952  27.496  25.815  1.00  0.00     0.004 A 
ATOM     11  C   UNL A   1      31.437  26.490  23.189  1.00  0.00     0.255 C 
ATOM     12  C   UNL A   1      32.217  28.075  27.068  1.00  0.00     0.008 A 
ATOM     13  C   UNL A   1      31.590  28.316  24.757  1.00  0.00     0.123 A 
ATOM     14  O   UNL A   1      31.212  27.855  23.541  1.00  0.00    -0.492 OA
ATOM     15  C   UNL A   1      32.135  29.457  27.244  1.00  0.00     0.001 A 
ATOM     16  C   UNL A   1      31.527  29.701  24.928  1.00  0.00     0.047 A 
ATOM     17  C   UNL A   1      31.801  30.273  26.169  1.00  0.00     0.004 A 
BRANCH   5  18
ATOM     18  C   UNL A   1      30.442  23.030  26.348  1.00  0.00     0.319 C 
BRANCH  18  19
ATOM     19  C   UNL A   1      31.669  22.192  26.250  1.00  0.00     0.090 A 
ATOM     20  C   UNL A   1      33.082  20.583  25.633  1.00  0.00     0.106 A 
ATOM     21  N   UNL A   1      33.701  21.246  26.588  1.00  0.00    -0.241 NA
ATOM     22  N   UNL A   1      31.849  21.139  25.388  1.00  0.00    -0.341 N 
ATOM     23  C   UNL A   1      32.841  22.238  26.976  1.00  0.00     0.140 A 
ATOM     24  H   UNL A   1      31.205  20.833  24.709  1.00  0.00     0.168 HD
BRANCH  20  25
ATOM     25  C   UNL A   1      33.650  19.435  24.866  1.00  0.00     0.075 C 
BRANCH  25  26
ATOM     26  C   UNL A   1      32.616  18.425  24.359  1.00  0.00     0.008 C 
BRANCH  26  27
ATOM     27  C   UNL A   1      33.014  17.591  23.137  1.00  0.00    -0.003 C 
ATOM     28  C   UNL A   1      34.114  16.578  23.412  1.00  0.00     0.004 C 
ENDBRANCH  26  27
ENDBRANCH  25  26
ENDBRANCH  20  25
ENDBRANCH  18  19
ENDBRANCH   5  18
ENDBRANCH   2   4
ENDBRANCH   1   2
BRANCH   1  29
ATOM     29  C   UNL A   1      35.264  23.718  24.432  1.00  0.00     0.274 C 
BRANCH  29  30
ATOM     30  C   UNL A   1      36.156  23.785  25.671  1.00  0.00     0.275 C 
BRANCH  30  31
ATOM     31  O   UNL A   1      37.510  23.727  25.201  1.00  0.00    -0.458 OA
BRANCH  31  32
ATOM     32  C   UNL A   1      38.433  23.192  26.027  1.00  0.00     0.338 C 
ATOM     33  O   UNL A   1      38.654  22.006  26.215  1.00  0.00    -0.246 OA
BRANCH  32  34
ATOM     34  C   UNL A   1      39.088  24.312  26.732  1.00  0.00     0.060 A 
ATOM     35  C   UNL A   1      38.868  24.484  28.096  1.00  0.00     0.016 A 
ATOM     36  C   UNL A   1      39.880  25.227  26.029  1.00  0.00     0.016 A 
ATOM     37  C   UNL A   1      39.354  25.633  28.724  1.00  0.00     0.010 A 
ATOM     38  C   UNL A   1      40.423  26.334  26.669  1.00  0.00     0.010 A 
ATOM     39  C   UNL A   1      40.110  26.580  28.008  1.00  0.00    -0.014 A 
BRANCH  39  40
ATOM     40  C   UNL A   1      40.522  27.851  28.648  1.00  0.00     0.031 A 
ATOM     41  C   UNL A   1      39.538  28.981  28.793  1.00  0.00     0.074 A 
ATOM     42  C   UNL A   1      41.774  27.970  29.127  1.00  0.00     0.049 A 
ATOM     43  N   UNL A   1      39.672  30.105  29.452  1.00  0.00    -0.248 NA
ATOM     44  C   UNL A   1      38.241  28.844  28.108  1.00  0.00     0.031 C 
ATOM     45  C   UNL A   1      42.822  26.957  28.991  1.00  0.00     0.029 A 
ATOM     46  N   UNL A   1      42.365  28.972  29.851  1.00  0.00    -0.354 N 
ATOM     47  C   UNL A   1      38.483  30.801  29.259  1.00  0.00     0.074 A 
ATOM     48  C   UNL A   1      37.663  30.005  28.377  1.00  0.00     0.031 C 
ATOM     49  C   UNL A   1      43.906  27.359  29.672  1.00  0.00     0.029 A 
ATOM     50  C   UNL A   1      43.638  28.667  30.265  1.00  0.00     0.049 A 
ATOM     51  H   UNL A   1      41.920  29.826  30.054  1.00  0.00     0.167 HD
ATOM     52  C   UNL A   1      38.100  31.982  29.795  1.00  0.00     0.031 A 
ATOM     53  C   UNL A   1      44.486  29.350  31.058  1.00  0.00     0.031 A 
ATOM     54  C   UNL A   1      38.921  32.760  30.683  1.00  0.00     0.049 A 
ATOM     55  C   UNL A   1      44.036  30.654  31.655  1.00  0.00     0.074 A 
ATOM     56  C   UNL A   1      38.611  33.946  31.321  1.00  0.00     0.029 A 
ATOM     57  N   UNL A   1      40.214  32.424  31.057  1.00  0.00    -0.354 N 
ATOM     58  N   UNL A   1      42.878  31.259  31.532  1.00  0.00    -0.248 NA
ATOM     59  C   UNL A   1      44.996  31.365  32.513  1.00  0.00     0.031 C 
ATOM     60  C   UNL A   1      39.735  34.359  32.038  1.00  0.00     0.029 A 
ATOM     61  C   UNL A   1      40.722  33.396  31.900  1.00  0.00     0.049 A 
ATOM     62  H   UNL A   1      40.696  31.618  30.766  1.00  0.00     0.167 HD
ATOM     63  C   UNL A   1      42.963  32.408  32.307  1.00  0.00     0.074 A 
ATOM     64  C   UNL A   1      44.279  32.408  32.912  1.00  0.00     0.031 C 
ATOM     65  C   UNL A   1      42.033  33.374  32.497  1.00  0.00     0.031 A 
BRANCH  52  66
ATOM     66  C   UNL A   1      36.730  32.505  29.460  1.00  0.00    -0.014 A 
ATOM     67  C   UNL A   1      36.530  33.258  28.292  1.00  0.00     0.009 A 
ATOM     68  C   UNL A   1      35.652  32.332  30.344  1.00  0.00     0.009 A 
ATOM     69  C   UNL A   1      35.286  33.833  28.020  1.00  0.00     0.001 A 
ATOM     70  C   UNL A   1      34.401  32.882  30.056  1.00  0.00     0.001 A 
ATOM     71  C   UNL A   1      34.222  33.640  28.900  1.00  0.00     0.000 A 
ENDBRANCH  52  66
BRANCH  53  72
ATOM     72  C   UNL A   1      45.813  28.762  31.377  1.00  0.00    -0.014 A 
ATOM     73  C   UNL A   1      46.918  28.997  30.543  1.00  0.00     0.009 A 
ATOM     74  C   UNL A   1      45.966  27.902  32.474  1.00  0.00     0.009 A 
ATOM     75  C   UNL A   1      48.139  28.362  30.782  1.00  0.00     0.001 A 
ATOM     76  C   UNL A   1      47.197  27.290  32.729  1.00  0.00     0.001 A 
ATOM     77  C   UNL A   1      48.278  27.511  31.877  1.00  0.00     0.000 A 
ENDBRANCH  53  72
BRANCH  65  78
ATOM     78  C   UNL A   1      42.379  34.524  33.401  1.00  0.00    -0.014 A 
ATOM     79  C   UNL A   1      41.971  34.497  34.744  1.00  0.00     0.009 A 
ATOM     80  C   UNL A   1      42.966  35.689  32.887  1.00  0.00     0.009 A 
ATOM     81  C   UNL A   1      42.117  35.628  35.550  1.00  0.00     0.001 A 
ATOM     82  C   UNL A   1      43.136  36.808  33.703  1.00  0.00     0.001 A 
ATOM     83  C   UNL A   1      42.700  36.782  35.029  1.00  0.00     0.000 A 
ENDBRANCH  65  78
ENDBRANCH  39  40
ENDBRANCH  32  34
ENDBRANCH  31  32
ENDBRANCH  30  31
ENDBRANCH  29  30
ENDBRANCH   1  29
TORSDOF 16
ENDMDL
MODEL 2
REMARK VINA RESULT:     -11.2      2.894      7.452
REMARK SMILES CCCCc1ncc(C[N@H+]2C[C@@H]3c4ccccc4OC[C@]3(C(=O)OCCOC(=O)c3ccc(-c4c5nc(c(-c6ccccc6)c6ccc([nH]6)c(-c6ccccc6)c6nc(c(-c7ccccc7)c7ccc4[nH]7)C=C6)C=C5)cc3)C2)[nH]1
REMARK SMILES IDX 24 1 22 2 23 3 21 4 10 5 11 6 78 7 12 9 13 10 20 11 14 12
REMARK SMILES IDX 18 13 19 14 15 15 17 16 16 17 9 18 8 19 5 20 6 21 79 22 7 23
REMARK SMILES IDX 4 25 3 26 2 27 1 28 25 29 26 30 27 31 28 32 29 33 30 34
REMARK SMILES IDX 31 35 77 36 32 37 76 38 33 39 34 40 35 41 70 42 36 43 75 44
REMARK SMILES IDX 69 45 71 46 37 47 74 48 68 49 67 50 38 52 60 53 45 54 59 55
REMARK SMILES IDX 46 56 49 57 58 58 72 59 47 60 48 61 57 63 73 64 50 65 39 66
REMARK SMILES IDX 40 67 44 68 41 69 43 70 42 71 61 72 62 73 66 74 63 75 65 76
REMARK SMILES IDX 64 77 51 78 52 79 56 80 53 81 55 82 54 83
REMARK H PARENT 10 8 79 24 71 51 49 62
REMARK Flexibility Score: inf
ROOT
ATOM      1  O   UNL A   1      35.662  22.529  25.719  1.00  0.00    -0.461 OA
ENDROOT
BRANCH   1   2
ATOM      2  C   UNL A   1      34.640  23.438  25.805  1.00  0.00     0.322 C 
ATOM      3  O   UNL A   1      34.762  24.643  25.654  1.00  0.00    -0.251 OA
BRANCH   2   4
ATOM      4  C   UNL A   1      33.347  22.702  26.125  1.00  0.00     0.162 C 
ATOM      5  N   UNL A   1      31.110  23.589  26.471  1.00  0.00    -0.328 N 
ATOM      6  C   UNL A   1      31.041  22.498  25.506  1.00  0.00     0.272 C 
ATOM      7  C   UNL A   1      32.498  23.742  26.895  1.00  0.00     0.286 C 
ATOM      8  H   UNL A   1      30.553  23.331  27.286  1.00  0.00     0.348 HD
ATOM      9  C   UNL A   1      32.456  22.372  24.928  1.00  0.00     0.105 C 
ATOM     10  C   UNL A   1      32.628  20.997  24.363  1.00  0.00     0.004 A 
ATOM     11  C   UNL A   1      33.719  21.462  26.965  1.00  0.00     0.255 C 
ATOM     12  C   UNL A   1      32.139  20.687  23.083  1.00  0.00     0.008 A 
ATOM     13  C   UNL A   1      33.150  19.980  25.149  1.00  0.00     0.123 A 
ATOM     14  O   UNL A   1      33.550  20.149  26.432  1.00  0.00    -0.492 OA
ATOM     15  C   UNL A   1      32.191  19.379  22.599  1.00  0.00     0.001 A 
ATOM     16  C   UNL A   1      33.221  18.675  24.658  1.00  0.00     0.047 A 
ATOM     17  C   UNL A   1      32.744  18.373  23.383  1.00  0.00     0.004 A 
BRANCH   5  18
ATOM     18  C   UNL A   1      30.415  24.820  26.095  1.00  0.00     0.319 C 
BRANCH  18  19
ATOM     19  C   UNL A   1      31.265  26.029  25.910  1.00  0.00     0.090 A 
ATOM     20  C   UNL A   1      32.333  27.940  26.322  1.00  0.00     0.106 A 
ATOM     21  N   UNL A   1      32.530  27.697  25.042  1.00  0.00    -0.241 NA
ATOM     22  N   UNL A   1      31.581  26.939  26.888  1.00  0.00    -0.341 N 
ATOM     23  C   UNL A   1      31.876  26.525  24.777  1.00  0.00     0.140 A 
ATOM     24  H   UNL A   1      31.315  26.884  27.834  1.00  0.00     0.168 HD
BRANCH  20  25
ATOM     25  C   UNL A   1      32.899  29.094  27.082  1.00  0.00     0.075 C 
BRANCH  25  26
ATOM     26  C   UNL A   1      34.426  29.098  27.204  1.00  0.00     0.008 C 
BRANCH  26  27
ATOM     27  C   UNL A   1      35.057  30.323  27.875  1.00  0.00    -0.003 C 
ATOM     28  C   UNL A   1      34.115  31.508  28.007  1.00  0.00     0.004 C 
ENDBRANCH  26  27
ENDBRANCH  25  26
ENDBRANCH  20  25
ENDBRANCH  18  19
ENDBRANCH   5  18
ENDBRANCH   2   4
ENDBRANCH   1   2
BRANCH   1  29
ATOM     29  C   UNL A   1      36.183  22.195  24.415  1.00  0.00     0.274 C 
BRANCH  29  30
ATOM     30  C   UNL A   1      37.320  21.193  24.609  1.00  0.00     0.275 C 
BRANCH  30  31
ATOM     31  O   UNL A   1      37.822  21.399  25.937  1.00  0.00    -0.458 OA
BRANCH  31  32
ATOM     32  C   UNL A   1      39.155  21.296  26.122  1.00  0.00     0.338 C 
ATOM     33  O   UNL A   1      39.857  20.322  25.900  1.00  0.00    -0.246 OA
BRANCH  32  34
ATOM     34  C   UNL A   1      39.609  22.567  26.721  1.00  0.00     0.060 A 
ATOM     35  C   UNL A   1      39.003  23.760  26.337  1.00  0.00     0.016 A 
ATOM     36  C   UNL A   1      40.676  22.583  27.627  1.00  0.00     0.016 A 
ATOM     37  C   UNL A   1      39.541  24.970  26.780  1.00  0.00     0.010 A 
ATOM     38  C   UNL A   1      41.167  23.784  28.124  1.00  0.00     0.010 A 
ATOM     39  C   UNL A   1      40.645  24.991  27.653  1.00  0.00    -0.014 A 
BRANCH  39  40
ATOM     40  C   UNL A   1      41.283  26.274  28.026  1.00  0.00     0.031 A 
ATOM     41  C   UNL A   1      42.625  26.649  27.454  1.00  0.00     0.074 A 
ATOM     42  C   UNL A   1      40.636  27.114  28.854  1.00  0.00     0.049 A 
ATOM     43  N   UNL A   1      43.268  27.786  27.547  1.00  0.00    -0.248 NA
ATOM     44  C   UNL A   1      43.346  25.619  26.686  1.00  0.00     0.031 C 
ATOM     45  C   UNL A   1      39.358  26.827  29.507  1.00  0.00     0.029 A 
ATOM     46  N   UNL A   1      40.943  28.387  29.259  1.00  0.00    -0.354 N 
ATOM     47  C   UNL A   1      44.459  27.605  26.854  1.00  0.00     0.074 A 
ATOM     48  C   UNL A   1      44.481  26.236  26.395  1.00  0.00     0.031 C 
ATOM     49  C   UNL A   1      38.955  27.919  30.174  1.00  0.00     0.029 A 
ATOM     50  C   UNL A   1      39.959  28.969  30.020  1.00  0.00     0.049 A 
ATOM     51  H   UNL A   1      41.786  28.840  29.027  1.00  0.00     0.167 HD
ATOM     52  C   UNL A   1      45.433  28.509  26.598  1.00  0.00     0.031 A 
ATOM     53  C   UNL A   1      39.861  30.218  30.515  1.00  0.00     0.031 A 
ATOM     54  C   UNL A   1      45.393  29.874  27.050  1.00  0.00     0.049 A 
ATOM     55  C   UNL A   1      40.946  31.212  30.207  1.00  0.00     0.074 A 
ATOM     56  C   UNL A   1      46.303  30.886  26.804  1.00  0.00     0.029 A 
ATOM     57  N   UNL A   1      44.389  30.414  27.838  1.00  0.00    -0.354 N 
ATOM     58  N   UNL A   1      42.026  31.051  29.479  1.00  0.00    -0.248 NA
ATOM     59  C   UNL A   1      40.797  32.562  30.769  1.00  0.00     0.031 C 
ATOM     60  C   UNL A   1      45.879  32.025  27.490  1.00  0.00     0.029 A 
ATOM     61  C   UNL A   1      44.670  31.741  28.107  1.00  0.00     0.049 A 
ATOM     62  H   UNL A   1      43.596  29.926  28.158  1.00  0.00     0.167 HD
ATOM     63  C   UNL A   1      42.674  32.279  29.482  1.00  0.00     0.074 A 
ATOM     64  C   UNL A   1      41.858  33.182  30.269  1.00  0.00     0.031 C 
ATOM     65  C   UNL A   1      43.841  32.624  28.887  1.00  0.00     0.031 A 
BRANCH  52  66
ATOM     66  C   UNL A   1      46.615  28.070  25.777  1.00  0.00    -0.014 A 
ATOM     67  C   UNL A   1      46.551  28.107  24.375  1.00  0.00     0.009 A 
ATOM     68  C   UNL A   1      47.761  27.534  26.388  1.00  0.00     0.009 A 
ATOM     69  C   UNL A   1      47.603  27.610  23.603  1.00  0.00     0.001 A 
ATOM     70  C   UNL A   1      48.824  27.064  25.613  1.00  0.00     0.001 A 
ATOM     71  C   UNL A   1      48.740  27.094  24.222  1.00  0.00     0.000 A 
ENDBRANCH  52  66
BRANCH  53  72
ATOM     72  C   UNL A   1      38.651  30.598  31.289  1.00  0.00    -0.014 A 
ATOM     73  C   UNL A   1      37.488  31.030  30.632  1.00  0.00     0.009 A 
ATOM     74  C   UNL A   1      38.675  30.603  32.692  1.00  0.00     0.009 A 
ATOM     75  C   UNL A   1      36.386  31.487  31.360  1.00  0.00     0.001 A 
ATOM     76  C   UNL A   1      37.562  31.032  33.419  1.00  0.00     0.001 A 
ATOM     77  C   UNL A   1      36.424  31.484  32.753  1.00  0.00     0.000 A 
ENDBRANCH  53  72
BRANCH  65  78
ATOM     78  C   UNL A   1      44.326  34.039  29.042  1.00  0.00    -0.014 A 
ATOM     79  C   UNL A   1      45.064  34.398  30.181  1.00  0.00     0.009 A 
ATOM     80  C   UNL A   1      43.923  35.038  28.145  1.00  0.00     0.009 A 
ATOM     81  C   UNL A   1      45.364  35.737  30.436  1.00  0.00     0.001 A 
ATOM     82  C   UNL A   1      44.248  36.373  28.388  1.00  0.00     0.001 A 
ATOM     83  C   UNL A   1      44.956  36.723  29.539  1.00  0.00     0.000 A 
ENDBRANCH  65  78
ENDBRANCH  39  40
ENDBRANCH  32  34
ENDBRANCH  31  32
ENDBRANCH  30  31
ENDBRANCH  29  30
ENDBRANCH   1  29
TORSDOF 16
ENDMDL
MODEL 3
REMARK VINA RESULT:     -11.1      2.983      7.454
REMARK SMILES CCCCc1ncc(C[N@H+]2C[C@@H]3c4ccccc4OC[C@]3(C(=O)OCCOC(=O)c3ccc(-c4c5nc(c(-c6ccccc6)c6ccc([nH]6)c(-c6ccccc6)c6nc(c(-c7ccccc7)c7ccc4[nH]7)C=C6)C=C5)cc3)C2)[nH]1
REMARK SMILES IDX 24 1 22 2 23 3 21 4 10 5 11 6 78 7 12 9 13 10 20 11 14 12
REMARK SMILES IDX 18 13 19 14 15 15 17 16 16 17 9 18 8 19 5 20 6 21 79 22 7 23
REMARK SMILES IDX 4 25 3 26 2 27 1 28 25 29 26 30 27 31 28 32 29 33 30 34
REMARK SMILES IDX 31 35 77 36 32 37 76 38 33 39 34 40 35 41 70 42 36 43 75 44
REMARK SMILES IDX 69 45 71 46 37 47 74 48 68 49 67 50 38 52 60 53 45 54 59 55
REMARK SMILES IDX 46 56 49 57 58 58 72 59 47 60 48 61 57 63 73 64 50 65 39 66
REMARK SMILES IDX 40 67 44 68 41 69 43 70 42 71 61 72 62 73 66 74 63 75 65 76
REMARK SMILES IDX 64 77 51 78 52 79 56 80 53 81 55 82 54 83
REMARK H PARENT 10 8 79 24 71 51 49 62
REMARK Flexibility Score: inf
ROOT
ATOM      1  O   UNL A   1      32.836  29.086  26.432  1.00  0.00    -0.461 OA
ENDROOT
BRANCH   1   2
ATOM      2  C   UNL A   1      32.042  27.970  26.461  1.00  0.00     0.322 C 
ATOM      3  O   UNL A   1      31.480  27.538  27.454  1.00  0.00    -0.251 OA
BRANCH   2   4
ATOM      4  C   UNL A   1      31.986  27.365  25.065  1.00  0.00     0.162 C 
ATOM      5  N   UNL A   1      31.926  25.027  24.397  1.00  0.00    -0.328 N 
ATOM      6  C   UNL A   1      30.855  25.742  23.712  1.00  0.00     0.272 C 
ATOM      7  C   UNL A   1      32.660  25.980  25.225  1.00  0.00     0.286 C 
ATOM      8  H   UNL A   1      32.565  24.657  23.694  1.00  0.00     0.348 HD
ATOM      9  C   UNL A   1      30.593  26.996  24.556  1.00  0.00     0.105 C 
ATOM     10  C   UNL A   1      29.932  28.028  23.698  1.00  0.00     0.004 A 
ATOM     11  C   UNL A   1      32.746  28.318  24.120  1.00  0.00     0.255 C 
ATOM     12  C   UNL A   1      28.550  27.972  23.454  1.00  0.00     0.008 A 
ATOM     13  C   UNL A   1      30.698  28.970  23.026  1.00  0.00     0.123 A 
ATOM     14  O   UNL A   1      32.048  29.041  23.106  1.00  0.00    -0.492 OA
ATOM     15  C   UNL A   1      27.949  28.861  22.561  1.00  0.00     0.001 A 
ATOM     16  C   UNL A   1      30.094  29.872  22.147  1.00  0.00     0.047 A 
ATOM     17  C   UNL A   1      28.720  29.821  21.916  1.00  0.00     0.004 A 
BRANCH   5  18
ATOM     18  C   UNL A   1      31.544  23.775  25.048  1.00  0.00     0.319 C 
BRANCH  18  19
ATOM     19  C   UNL A   1      32.360  22.576  24.709  1.00  0.00     0.090 A 
ATOM     20  C   UNL A   1      34.042  21.116  24.651  1.00  0.00     0.106 A 
ATOM     21  N   UNL A   1      33.166  20.677  23.771  1.00  0.00    -0.241 NA
ATOM     22  N   UNL A   1      33.580  22.262  25.254  1.00  0.00    -0.341 N 
ATOM     23  C   UNL A   1      32.128  21.568  23.797  1.00  0.00     0.140 A 
ATOM     24  H   UNL A   1      34.045  22.769  25.957  1.00  0.00     0.168 HD
BRANCH  20  25
ATOM     25  C   UNL A   1      35.326  20.442  25.007  1.00  0.00     0.075 C 
BRANCH  25  26
ATOM     26  C   UNL A   1      36.342  21.333  25.728  1.00  0.00     0.008 C 
BRANCH  26  27
ATOM     27  C   UNL A   1      37.148  22.300  24.853  1.00  0.00    -0.003 C 
ATOM     28  C   UNL A   1      37.470  23.623  25.530  1.00  0.00     0.004 C 
ENDBRANCH  26  27
ENDBRANCH  25  26
ENDBRANCH  20  25
ENDBRANCH  18  19
ENDBRANCH   5  18
ENDBRANCH   2   4
ENDBRANCH   1   2
BRANCH   1  29
ATOM     29  C   UNL A   1      32.220  30.379  26.602  1.00  0.00     0.274 C 
BRANCH  29  30
ATOM     30  C   UNL A   1      33.248  31.305  27.251  1.00  0.00     0.275 C 
BRANCH  30  31
ATOM     31  O   UNL A   1      34.300  30.464  27.744  1.00  0.00    -0.458 OA
BRANCH  31  32
ATOM     32  C   UNL A   1      35.059  30.941  28.753  1.00  0.00     0.338 C 
ATOM     33  O   UNL A   1      34.792  31.869  29.500  1.00  0.00    -0.246 OA
BRANCH  32  34
ATOM     34  C   UNL A   1      36.324  30.180  28.743  1.00  0.00     0.060 A 
ATOM     35  C   UNL A   1      36.761  29.566  29.914  1.00  0.00     0.016 A 
ATOM     36  C   UNL A   1      37.106  30.117  27.585  1.00  0.00     0.016 A 
ATOM     37  C   UNL A   1      38.032  28.987  29.945  1.00  0.00     0.010 A 
ATOM     38  C   UNL A   1      38.341  29.480  27.596  1.00  0.00     0.010 A 
ATOM     39  C   UNL A   1      38.842  28.966  28.793  1.00  0.00    -0.014 A 
BRANCH  39  40
ATOM     40  C   UNL A   1      40.231  28.457  28.862  1.00  0.00     0.031 A 
ATOM     41  C   UNL A   1      40.534  27.028  28.497  1.00  0.00     0.074 A 
ATOM     42  C   UNL A   1      41.221  29.294  29.221  1.00  0.00     0.049 A 
ATOM     43  N   UNL A   1      41.699  26.447  28.356  1.00  0.00    -0.248 NA
ATOM     44  C   UNL A   1      39.389  26.129  28.269  1.00  0.00     0.031 C 
ATOM     45  C   UNL A   1      41.031  30.682  29.646  1.00  0.00     0.029 A 
ATOM     46  N   UNL A   1      42.580  29.114  29.254  1.00  0.00    -0.354 N 
ATOM     47  C   UNL A   1      41.425  25.124  28.025  1.00  0.00     0.074 A 
ATOM     48  C   UNL A   1      39.990  24.970  28.043  1.00  0.00     0.031 C 
ATOM     49  C   UNL A   1      42.233  31.249  29.829  1.00  0.00     0.029 A 
ATOM     50  C   UNL A   1      43.274  30.258  29.562  1.00  0.00     0.049 A 
ATOM     51  H   UNL A   1      43.015  28.250  29.072  1.00  0.00     0.167 HD
ATOM     52  C   UNL A   1      42.293  24.137  27.706  1.00  0.00     0.031 A 
ATOM     53  C   UNL A   1      44.599  30.493  29.600  1.00  0.00     0.031 A 
ATOM     54  C   UNL A   1      43.721  24.307  27.678  1.00  0.00     0.049 A 
ATOM     55  C   UNL A   1      45.546  29.386  29.227  1.00  0.00     0.074 A 
ATOM     56  C   UNL A   1      44.688  23.386  27.320  1.00  0.00     0.029 A 
ATOM     57  N   UNL A   1      44.381  25.476  28.021  1.00  0.00    -0.354 N 
ATOM     58  N   UNL A   1      45.271  28.165  28.834  1.00  0.00    -0.248 NA
ATOM     59  C   UNL A   1      46.984  29.688  29.283  1.00  0.00     0.031 C 
ATOM     60  C   UNL A   1      45.938  23.979  27.500  1.00  0.00     0.029 A 
ATOM     61  C   UNL A   1      45.748  25.291  27.905  1.00  0.00     0.049 A 
ATOM     62  H   UNL A   1      43.945  26.311  28.305  1.00  0.00     0.167 HD
ATOM     63  C   UNL A   1      46.495  27.560  28.581  1.00  0.00     0.074 A 
ATOM     64  C   UNL A   1      47.516  28.553  28.847  1.00  0.00     0.031 C 
ATOM     65  C   UNL A   1      46.747  26.295  28.168  1.00  0.00     0.031 A 
BRANCH  52  66
ATOM     66  C   UNL A   1      41.734  22.789  27.338  1.00  0.00    -0.014 A 
ATOM     67  C   UNL A   1      41.154  22.589  26.075  1.00  0.00     0.009 A 
ATOM     68  C   UNL A   1      41.699  21.741  28.272  1.00  0.00     0.009 A 
ATOM     69  C   UNL A   1      40.543  21.373  25.759  1.00  0.00     0.001 A 
ATOM     70  C   UNL A   1      41.115  20.515  27.942  1.00  0.00     0.001 A 
ATOM     71  C   UNL A   1      40.529  20.337  26.691  1.00  0.00     0.000 A 
ENDBRANCH  52  66
BRANCH  53  72
ATOM     72  C   UNL A   1      45.085  31.856  29.938  1.00  0.00    -0.014 A 
ATOM     73  C   UNL A   1      45.321  32.802  28.928  1.00  0.00     0.009 A 
ATOM     74  C   UNL A   1      45.389  32.195  31.265  1.00  0.00     0.009 A 
ATOM     75  C   UNL A   1      45.876  34.047  29.233  1.00  0.00     0.001 A 
ATOM     76  C   UNL A   1      45.916  33.452  31.573  1.00  0.00     0.001 A 
ATOM     77  C   UNL A   1      46.171  34.372  30.557  1.00  0.00     0.000 A 
ENDBRANCH  53  72
BRANCH  65  78
ATOM     78  C   UNL A   1      48.178  25.887  27.961  1.00  0.00    -0.014 A 
ATOM     79  C   UNL A   1      48.968  25.544  29.070  1.00  0.00     0.009 A 
ATOM     80  C   UNL A   1      48.780  25.993  26.699  1.00  0.00     0.009 A 
ATOM     81  C   UNL A   1      50.342  25.343  28.925  1.00  0.00     0.001 A 
ATOM     82  C   UNL A   1      50.149  25.765  26.553  1.00  0.00     0.001 A 
ATOM     83  C   UNL A   1      50.931  25.453  27.666  1.00  0.00     0.000 A 
ENDBRANCH  65  78
ENDBRANCH  39  40
ENDBRANCH  32  34
ENDBRANCH  31  32
ENDBRANCH  30  31
ENDBRANCH  29  30
ENDBRANCH   1  29
TORSDOF 16
ENDMDL
