MODEL 1
REMARK VINA RESULT:     -11.3      0.000      0.000
REMARK SMILES O=C(OCCOC(=O)[C@@]1(CCc2ccccc2)CCC[N@@H+](Cc2cccnc2)C1)c1ccc(-c2c3nc(c(-c4ccccc4)c4ccc([nH]4)c(-c4ccccc4)c4nc(c(-c5ccccc5)c5ccc2[nH]5)C=C4)C=C3)cc1
REMARK SMILES IDX 5 1 4 2 3 3 2 4 1 5 30 6 31 7 77 8 32 9 76 10 33 11 34 12
REMARK SMILES IDX 35 13 70 14 36 15 75 16 69 17 71 18 37 19 74 20 68 21 67 22
REMARK SMILES IDX 38 24 60 25 45 26 59 27 46 28 49 29 58 30 72 31 47 32 48 33
REMARK SMILES IDX 57 35 73 36 50 37 39 38 40 39 44 40 41 41 43 42 42 43 61 44
REMARK SMILES IDX 62 45 66 46 63 47 65 48 64 49 51 50 52 51 56 52 53 53 55 54
REMARK SMILES IDX 54 55 6 56 7 57 8 58 9 59 18 60 29 61 19 62 21 63 20 64
REMARK SMILES IDX 10 66 11 67 12 68 13 69 17 70 14 71 16 72 15 73 22 74 23 75
REMARK SMILES IDX 24 76 28 77 25 78 27 79 26 80
REMARK H PARENT 71 23 49 34 21 65
REMARK Flexibility Score: inf
ROOT
ATOM      1  C   UNL A   1      31.367  29.766  25.377  1.00  0.00     0.274 C 
ENDROOT
BRANCH   1   2
ATOM      2  C   UNL A   1      31.477  31.106  26.123  1.00  0.00     0.275 C 
BRANCH   2   3
ATOM      3  O   UNL A   1      32.341  31.067  27.256  1.00  0.00    -0.458 OA
BRANCH   3   4
ATOM      4  C   UNL A   1      33.331  31.924  27.560  1.00  0.00     0.338 C 
ATOM      5  O   UNL A   1      33.034  33.125  27.633  1.00  0.00    -0.246 OA
BRANCH   4   6
ATOM      6  C   UNL A   1      34.781  31.550  27.741  1.00  0.00     0.060 A 
ATOM      7  C   UNL A   1      35.880  32.355  28.074  1.00  0.00     0.016 A 
ATOM      8  C   UNL A   1      35.011  30.179  27.717  1.00  0.00     0.016 A 
ATOM      9  C   UNL A   1      37.094  31.806  28.542  1.00  0.00     0.010 A 
ATOM     10  C   UNL A   1      36.177  29.645  28.257  1.00  0.00     0.010 A 
ATOM     11  C   UNL A   1      37.223  30.436  28.747  1.00  0.00    -0.014 A 
BRANCH  11  12
ATOM     12  C   UNL A   1      38.367  29.788  29.474  1.00  0.00     0.031 A 
ATOM     13  C   UNL A   1      38.497  30.000  30.969  1.00  0.00     0.074 A 
ATOM     14  C   UNL A   1      39.393  29.193  28.820  1.00  0.00     0.049 A 
ATOM     15  N   UNL A   1      39.546  29.878  31.743  1.00  0.00    -0.248 NA
ATOM     16  C   UNL A   1      37.319  30.553  31.656  1.00  0.00     0.031 C 
ATOM     17  C   UNL A   1      39.527  29.016  27.370  1.00  0.00     0.029 A 
ATOM     18  N   UNL A   1      40.556  28.641  29.310  1.00  0.00    -0.354 N 
ATOM     19  C   UNL A   1      39.192  30.504  32.935  1.00  0.00     0.074 A 
ATOM     20  C   UNL A   1      37.882  31.074  32.734  1.00  0.00     0.031 C 
ATOM     21  C   UNL A   1      40.678  28.376  27.095  1.00  0.00     0.029 A 
ATOM     22  C   UNL A   1      41.373  28.099  28.344  1.00  0.00     0.049 A 
ATOM     23  H   UNL A   1      40.783  28.635  30.267  1.00  0.00     0.167 HD
ATOM     24  C   UNL A   1      39.861  30.544  34.113  1.00  0.00     0.031 A 
ATOM     25  C   UNL A   1      42.533  27.423  28.460  1.00  0.00     0.031 A 
ATOM     26  C   UNL A   1      41.029  29.746  34.366  1.00  0.00     0.049 A 
ATOM     27  C   UNL A   1      43.072  27.160  29.840  1.00  0.00     0.074 A 
ATOM     28  C   UNL A   1      41.667  29.492  35.567  1.00  0.00     0.029 A 
ATOM     29  N   UNL A   1      41.677  28.992  33.400  1.00  0.00    -0.354 N 
ATOM     30  N   UNL A   1      42.703  27.689  30.982  1.00  0.00    -0.248 NA
ATOM     31  C   UNL A   1      44.137  26.155  29.959  1.00  0.00     0.031 C 
ATOM     32  C   UNL A   1      42.676  28.552  35.333  1.00  0.00     0.029 A 
ATOM     33  C   UNL A   1      42.651  28.211  33.990  1.00  0.00     0.049 A 
ATOM     34  H   UNL A   1      41.472  29.010  32.438  1.00  0.00     0.167 HD
ATOM     35  C   UNL A   1      43.447  27.039  31.957  1.00  0.00     0.074 A 
ATOM     36  C   UNL A   1      44.282  26.074  31.274  1.00  0.00     0.031 C 
ATOM     37  C   UNL A   1      43.436  27.224  33.299  1.00  0.00     0.031 A 
BRANCH  24  38
ATOM     38  C   UNL A   1      39.294  31.391  35.229  1.00  0.00    -0.014 A 
ATOM     39  C   UNL A   1      38.375  30.878  36.160  1.00  0.00     0.009 A 
ATOM     40  C   UNL A   1      39.688  32.733  35.354  1.00  0.00     0.009 A 
ATOM     41  C   UNL A   1      37.784  31.707  37.116  1.00  0.00     0.001 A 
ATOM     42  C   UNL A   1      39.141  33.547  36.350  1.00  0.00     0.001 A 
ATOM     43  C   UNL A   1      38.171  33.040  37.213  1.00  0.00     0.000 A 
ENDBRANCH  24  38
BRANCH  25  44
ATOM     44  C   UNL A   1      43.181  26.804  27.271  1.00  0.00    -0.014 A 
ATOM     45  C   UNL A   1      42.831  25.498  26.887  1.00  0.00     0.009 A 
ATOM     46  C   UNL A   1      44.167  27.479  26.539  1.00  0.00     0.009 A 
ATOM     47  C   UNL A   1      43.488  24.861  25.832  1.00  0.00     0.001 A 
ATOM     48  C   UNL A   1      44.805  26.848  25.464  1.00  0.00     0.001 A 
ATOM     49  C   UNL A   1      44.475  25.537  25.120  1.00  0.00     0.000 A 
ENDBRANCH  25  44
BRANCH  37  50
ATOM     50  C   UNL A   1      44.278  26.300  34.127  1.00  0.00    -0.014 A 
ATOM     51  C   UNL A   1      43.780  25.078  34.602  1.00  0.00     0.009 A 
ATOM     52  C   UNL A   1      45.612  26.648  34.397  1.00  0.00     0.009 A 
ATOM     53  C   UNL A   1      44.593  24.239  35.366  1.00  0.00     0.001 A 
ATOM     54  C   UNL A   1      46.429  25.794  35.138  1.00  0.00     0.001 A 
ATOM     55  C   UNL A   1      45.916  24.596  35.629  1.00  0.00     0.000 A 
ENDBRANCH  37  50
ENDBRANCH  11  12
ENDBRANCH   4   6
ENDBRANCH   3   4
ENDBRANCH   2   3
ENDBRANCH   1   2
BRANCH   1  56
ATOM     56  O   UNL A   1      32.239  28.707  25.850  1.00  0.00    -0.461 OA
BRANCH  56  57
ATOM     57  C   UNL A   1      31.616  27.665  26.470  1.00  0.00     0.317 C 
ATOM     58  O   UNL A   1      31.125  27.775  27.600  1.00  0.00    -0.251 OA
BRANCH  57  59
ATOM     59  C   UNL A   1      31.636  26.308  25.709  1.00  0.00     0.117 C 
ATOM     60  C   UNL A   1      30.323  26.280  24.884  1.00  0.00     0.030 C 
ATOM     61  C   UNL A   1      32.809  26.428  24.724  1.00  0.00     0.281 C 
ATOM     62  C   UNL A   1      30.356  25.287  23.725  1.00  0.00     0.063 C 
ATOM     63  N   UNL A   1      32.814  25.357  23.748  1.00  0.00    -0.330 N 
ATOM     64  C   UNL A   1      31.639  25.385  22.886  1.00  0.00     0.262 C 
ATOM     65  H   UNL A   1      32.737  24.543  24.357  1.00  0.00     0.348 HD
BRANCH  59  66
ATOM     66  C   UNL A   1      31.782  25.050  26.650  1.00  0.00     0.029 C 
BRANCH  66  67
ATOM     67  C   UNL A   1      31.229  23.625  26.301  1.00  0.00     0.037 C 
BRANCH  67  68
ATOM     68  C   UNL A   1      32.099  22.505  25.724  1.00  0.00    -0.048 A 
ATOM     69  C   UNL A   1      31.962  21.969  24.437  1.00  0.00     0.004 A 
ATOM     70  C   UNL A   1      33.079  21.906  26.540  1.00  0.00     0.004 A 
ATOM     71  C   UNL A   1      32.737  20.894  23.977  1.00  0.00     0.000 A 
ATOM     72  C   UNL A   1      33.883  20.850  26.077  1.00  0.00     0.000 A 
ATOM     73  C   UNL A   1      33.708  20.339  24.796  1.00  0.00     0.000 A 
ENDBRANCH  67  68
ENDBRANCH  66  67
ENDBRANCH  59  66
BRANCH  63  74
ATOM     74  C   UNL A   1      34.063  24.921  23.120  1.00  0.00     0.300 C 
BRANCH  74  75
ATOM     75  C   UNL A   1      35.048  24.002  23.805  1.00  0.00     0.025 A 
ATOM     76  C   UNL A   1      35.794  22.984  23.202  1.00  0.00     0.013 A 
ATOM     77  C   UNL A   1      35.411  24.307  25.119  1.00  0.00     0.120 A 
ATOM     78  C   UNL A   1      36.769  22.291  23.913  1.00  0.00     0.021 A 
ATOM     79  N   UNL A   1      36.361  23.663  25.840  1.00  0.00    -0.264 NA
ATOM     80  C   UNL A   1      37.011  22.660  25.219  1.00  0.00     0.111 A 
ENDBRANCH  74  75
ENDBRANCH  63  74
ENDBRANCH  57  59
ENDBRANCH  56  57
ENDBRANCH   1  56
TORSDOF 16
ENDMDL
MODEL 2
REMARK VINA RESULT:     -11.2      3.364      4.962
REMARK SMILES O=C(OCCOC(=O)[C@@]1(CCc2ccccc2)CCC[N@@H+](Cc2cccnc2)C1)c1ccc(-c2c3nc(c(-c4ccccc4)c4ccc([nH]4)c(-c4ccccc4)c4nc(c(-c5ccccc5)c5ccc2[nH]5)C=C4)C=C3)cc1
REMARK SMILES IDX 5 1 4 2 3 3 2 4 1 5 30 6 31 7 77 8 32 9 76 10 33 11 34 12
REMARK SMILES IDX 35 13 70 14 36 15 75 16 69 17 71 18 37 19 74 20 68 21 67 22
REMARK SMILES IDX 38 24 60 25 45 26 59 27 46 28 49 29 58 30 72 31 47 32 48 33
REMARK SMILES IDX 57 35 73 36 50 37 39 38 40 39 44 40 41 41 43 42 42 43 61 44
REMARK SMILES IDX 62 45 66 46 63 47 65 48 64 49 51 50 52 51 56 52 53 53 55 54
REMARK SMILES IDX 54 55 6 56 7 57 8 58 9 59 18 60 29 61 19 62 21 63 20 64
REMARK SMILES IDX 10 66 11 67 12 68 13 69 17 70 14 71 16 72 15 73 22 74 23 75
REMARK SMILES IDX 24 76 28 77 25 78 27 79 26 80
REMARK H PARENT 71 23 49 34 21 65
REMARK Flexibility Score: inf
ROOT
ATOM      1  C   UNL A   1      31.739  28.520  25.944  1.00  0.00     0.274 C 
ENDROOT
BRANCH   1   2
ATOM      2  C   UNL A   1      32.397  28.567  27.334  1.00  0.00     0.275 C 
BRANCH   2   3
ATOM      3  O   UNL A   1      33.795  28.850  27.302  1.00  0.00    -0.458 OA
BRANCH   3   4
ATOM      4  C   UNL A   1      34.437  29.872  27.892  1.00  0.00     0.338 C 
ATOM      5  O   UNL A   1      33.849  30.962  27.929  1.00  0.00    -0.246 OA
BRANCH   4   6
ATOM      6  C   UNL A   1      35.841  29.817  28.440  1.00  0.00     0.060 A 
ATOM      7  C   UNL A   1      36.298  29.384  29.693  1.00  0.00     0.016 A 
ATOM      8  C   UNL A   1      36.820  30.100  27.495  1.00  0.00     0.016 A 
ATOM      9  C   UNL A   1      37.655  29.070  29.925  1.00  0.00     0.010 A 
ATOM     10  C   UNL A   1      38.141  29.711  27.702  1.00  0.00     0.010 A 
ATOM     11  C   UNL A   1      38.585  29.124  28.893  1.00  0.00    -0.014 A 
BRANCH  11  12
ATOM     12  C   UNL A   1      39.980  28.571  28.973  1.00  0.00     0.031 A 
ATOM     13  C   UNL A   1      41.113  29.497  29.363  1.00  0.00     0.074 A 
ATOM     14  C   UNL A   1      40.292  27.335  28.516  1.00  0.00     0.049 A 
ATOM     15  N   UNL A   1      42.400  29.381  29.151  1.00  0.00    -0.248 NA
ATOM     16  C   UNL A   1      40.728  30.790  29.952  1.00  0.00     0.031 C 
ATOM     17  C   UNL A   1      39.365  26.341  27.964  1.00  0.00     0.029 A 
ATOM     18  N   UNL A   1      41.514  26.707  28.420  1.00  0.00    -0.354 N 
ATOM     19  C   UNL A   1      42.927  30.643  29.413  1.00  0.00     0.074 A 
ATOM     20  C   UNL A   1      41.810  31.510  29.702  1.00  0.00     0.031 C 
ATOM     21  C   UNL A   1      40.041  25.229  27.622  1.00  0.00     0.029 A 
ATOM     22  C   UNL A   1      41.452  25.426  27.921  1.00  0.00     0.049 A 
ATOM     23  H   UNL A   1      42.359  27.138  28.684  1.00  0.00     0.167 HD
ATOM     24  C   UNL A   1      44.223  31.034  29.476  1.00  0.00     0.031 A 
ATOM     25  C   UNL A   1      42.422  24.504  27.759  1.00  0.00     0.031 A 
ATOM     26  C   UNL A   1      45.315  30.099  29.451  1.00  0.00     0.049 A 
ATOM     27  C   UNL A   1      43.820  24.852  28.193  1.00  0.00     0.074 A 
ATOM     28  C   UNL A   1      46.649  30.311  29.747  1.00  0.00     0.029 A 
ATOM     29  N   UNL A   1      45.169  28.744  29.199  1.00  0.00    -0.354 N 
ATOM     30  N   UNL A   1      44.314  26.024  28.510  1.00  0.00    -0.248 NA
ATOM     31  C   UNL A   1      44.775  23.742  28.318  1.00  0.00     0.031 C 
ATOM     32  C   UNL A   1      47.303  29.073  29.714  1.00  0.00     0.029 A 
ATOM     33  C   UNL A   1      46.368  28.095  29.414  1.00  0.00     0.049 A 
ATOM     34  H   UNL A   1      44.334  28.309  28.911  1.00  0.00     0.167 HD
ATOM     35  C   UNL A   1      45.616  25.785  28.928  1.00  0.00     0.074 A 
ATOM     36  C   UNL A   1      45.832  24.356  28.830  1.00  0.00     0.031 C 
ATOM     37  C   UNL A   1      46.548  26.669  29.357  1.00  0.00     0.031 A 
BRANCH  24  38
ATOM     38  C   UNL A   1      44.518  32.502  29.677  1.00  0.00    -0.014 A 
ATOM     39  C   UNL A   1      44.672  33.386  28.596  1.00  0.00     0.009 A 
ATOM     40  C   UNL A   1      44.645  33.015  30.978  1.00  0.00     0.009 A 
ATOM     41  C   UNL A   1      45.050  34.714  28.803  1.00  0.00     0.001 A 
ATOM     42  C   UNL A   1      44.963  34.361  31.187  1.00  0.00     0.001 A 
ATOM     43  C   UNL A   1      45.191  35.202  30.099  1.00  0.00     0.000 A 
ENDBRANCH  24  38
BRANCH  25  44
ATOM     44  C   UNL A   1      42.096  23.119  27.321  1.00  0.00    -0.014 A 
ATOM     45  C   UNL A   1      41.432  22.247  28.202  1.00  0.00     0.009 A 
ATOM     46  C   UNL A   1      42.468  22.642  26.056  1.00  0.00     0.009 A 
ATOM     47  C   UNL A   1      41.195  20.916  27.850  1.00  0.00     0.001 A 
ATOM     48  C   UNL A   1      42.205  21.316  25.695  1.00  0.00     0.001 A 
ATOM     49  C   UNL A   1      41.582  20.451  26.595  1.00  0.00     0.000 A 
ENDBRANCH  25  44
BRANCH  37  50
ATOM     50  C   UNL A   1      47.850  26.112  29.848  1.00  0.00    -0.014 A 
ATOM     51  C   UNL A   1      48.901  25.812  28.968  1.00  0.00     0.009 A 
ATOM     52  C   UNL A   1      48.038  25.926  31.227  1.00  0.00     0.009 A 
ATOM     53  C   UNL A   1      50.103  25.299  29.458  1.00  0.00     0.001 A 
ATOM     54  C   UNL A   1      49.251  25.440  31.716  1.00  0.00     0.001 A 
ATOM     55  C   UNL A   1      50.277  25.118  30.830  1.00  0.00     0.000 A 
ENDBRANCH  37  50
ENDBRANCH  11  12
ENDBRANCH   4   6
ENDBRANCH   3   4
ENDBRANCH   2   3
ENDBRANCH   1   2
BRANCH   1  56
ATOM     56  O   UNL A   1      31.308  27.208  25.496  1.00  0.00    -0.461 OA
BRANCH  56  57
ATOM     57  C   UNL A   1      32.248  26.475  24.836  1.00  0.00     0.317 C 
ATOM     58  O   UNL A   1      32.833  26.908  23.836  1.00  0.00    -0.251 OA
BRANCH  57  59
ATOM     59  C   UNL A   1      32.480  25.029  25.363  1.00  0.00     0.117 C 
ATOM     60  C   UNL A   1      31.418  24.822  26.475  1.00  0.00     0.030 C 
ATOM     61  C   UNL A   1      32.108  24.118  24.181  1.00  0.00     0.281 C 
ATOM     62  C   UNL A   1      31.152  23.353  26.793  1.00  0.00     0.063 C 
ATOM     63  N   UNL A   1      32.011  22.726  24.575  1.00  0.00    -0.330 N 
ATOM     64  C   UNL A   1      30.941  22.495  25.536  1.00  0.00     0.262 C 
ATOM     65  H   UNL A   1      32.900  22.603  25.059  1.00  0.00     0.348 HD
BRANCH  59  66
ATOM     66  C   UNL A   1      33.948  24.763  25.875  1.00  0.00     0.029 C 
BRANCH  66  67
ATOM     67  C   UNL A   1      35.168  24.483  24.930  1.00  0.00     0.037 C 
BRANCH  67  68
ATOM     68  C   UNL A   1      36.146  23.324  25.142  1.00  0.00    -0.048 A 
ATOM     69  C   UNL A   1      37.447  23.458  25.642  1.00  0.00     0.004 A 
ATOM     70  C   UNL A   1      35.763  22.023  24.761  1.00  0.00     0.004 A 
ATOM     71  C   UNL A   1      38.332  22.375  25.753  1.00  0.00     0.000 A 
ATOM     72  C   UNL A   1      36.631  20.926  24.899  1.00  0.00     0.000 A 
ATOM     73  C   UNL A   1      37.920  21.103  25.389  1.00  0.00     0.000 A 
ENDBRANCH  67  68
ENDBRANCH  66  67
ENDBRANCH  59  66
BRANCH  63  74
ATOM     74  C   UNL A   1      32.250  21.656  23.605  1.00  0.00     0.300 C 
BRANCH  74  75
ATOM     75  C   UNL A   1      32.551  20.232  24.014  1.00  0.00     0.025 A 
ATOM     76  C   UNL A   1      32.772  19.769  25.315  1.00  0.00     0.013 A 
ATOM     77  C   UNL A   1      32.402  19.236  23.046  1.00  0.00     0.120 A 
ATOM     78  C   UNL A   1      32.907  18.410  25.581  1.00  0.00     0.021 A 
ATOM     79  N   UNL A   1      32.516  17.904  23.267  1.00  0.00    -0.264 NA
ATOM     80  C   UNL A   1      32.777  17.524  24.532  1.00  0.00     0.111 A 
ENDBRANCH  74  75
ENDBRANCH  63  74
ENDBRANCH  57  59
ENDBRANCH  56  57
ENDBRANCH   1  56
TORSDOF 16
ENDMDL
MODEL 3
REMARK VINA RESULT:     -11.1      3.937      8.770
REMARK SMILES O=C(OCCOC(=O)[C@@]1(CCc2ccccc2)CCC[N@@H+](Cc2cccnc2)C1)c1ccc(-c2c3nc(c(-c4ccccc4)c4ccc([nH]4)c(-c4ccccc4)c4nc(c(-c5ccccc5)c5ccc2[nH]5)C=C4)C=C3)cc1
REMARK SMILES IDX 5 1 4 2 3 3 2 4 1 5 30 6 31 7 77 8 32 9 76 10 33 11 34 12
REMARK SMILES IDX 35 13 70 14 36 15 75 16 69 17 71 18 37 19 74 20 68 21 67 22
REMARK SMILES IDX 38 24 60 25 45 26 59 27 46 28 49 29 58 30 72 31 47 32 48 33
REMARK SMILES IDX 57 35 73 36 50 37 39 38 40 39 44 40 41 41 43 42 42 43 61 44
REMARK SMILES IDX 62 45 66 46 63 47 65 48 64 49 51 50 52 51 56 52 53 53 55 54
REMARK SMILES IDX 54 55 6 56 7 57 8 58 9 59 18 60 29 61 19 62 21 63 20 64
REMARK SMILES IDX 10 66 11 67 12 68 13 69 17 70 14 71 16 72 15 73 22 74 23 75
REMARK SMILES IDX 24 76 28 77 25 78 27 79 26 80
REMARK H PARENT 71 23 49 34 21 65
REMARK Flexibility Score: inf
ROOT
ATOM      1  C   UNL A   1      36.827  22.914  23.775  1.00  0.00     0.274 C 
ENDROOT
BRANCH   1   2
ATOM      2  C   UNL A   1      37.149  21.522  24.343  1.00  0.00     0.275 C 
BRANCH   2   3
ATOM      3  O   UNL A   1      37.666  21.545  25.672  1.00  0.00    -0.458 OA
BRANCH   3   4
ATOM      4  C   UNL A   1      38.943  21.724  26.051  1.00  0.00     0.338 C 
ATOM      5  O   UNL A   1      39.751  20.834  25.749  1.00  0.00    -0.246 OA
BRANCH   4   6
ATOM      6  C   UNL A   1      39.451  22.877  26.878  1.00  0.00     0.060 A 
ATOM      7  C   UNL A   1      40.620  22.984  27.646  1.00  0.00     0.016 A 
ATOM      8  C   UNL A   1      38.713  24.045  26.721  1.00  0.00     0.016 A 
ATOM      9  C   UNL A   1      41.121  24.233  28.074  1.00  0.00     0.010 A 
ATOM     10  C   UNL A   1      39.253  25.279  27.072  1.00  0.00     0.010 A 
ATOM     11  C   UNL A   1      40.498  25.417  27.696  1.00  0.00    -0.014 A 
BRANCH  11  12
ATOM     12  C   UNL A   1      41.088  26.787  27.880  1.00  0.00     0.031 A 
ATOM     13  C   UNL A   1      42.369  27.135  27.149  1.00  0.00     0.074 A 
ATOM     14  C   UNL A   1      40.636  27.646  28.824  1.00  0.00     0.049 A 
ATOM     15  N   UNL A   1      43.255  28.063  27.409  1.00  0.00    -0.248 NA
ATOM     16  C   UNL A   1      42.768  26.229  26.061  1.00  0.00     0.031 C 
ATOM     17  C   UNL A   1      39.503  27.438  29.732  1.00  0.00     0.029 A 
ATOM     18  N   UNL A   1      41.110  28.885  29.195  1.00  0.00    -0.354 N 
ATOM     19  C   UNL A   1      44.369  27.728  26.643  1.00  0.00     0.074 A 
ATOM     20  C   UNL A   1      44.067  26.474  25.996  1.00  0.00     0.031 C 
ATOM     21  C   UNL A   1      39.352  28.514  30.524  1.00  0.00     0.029 A 
ATOM     22  C   UNL A   1      40.378  29.492  30.191  1.00  0.00     0.049 A 
ATOM     23  H   UNL A   1      41.902  29.300  28.785  1.00  0.00     0.167 HD
ATOM     24  C   UNL A   1      45.510  28.429  26.439  1.00  0.00     0.031 A 
ATOM     25  C   UNL A   1      40.503  30.715  30.744  1.00  0.00     0.031 A 
ATOM     26  C   UNL A   1      45.671  29.789  26.875  1.00  0.00     0.049 A 
ATOM     27  C   UNL A   1      41.579  31.629  30.224  1.00  0.00     0.074 A 
ATOM     28  C   UNL A   1      46.654  30.701  26.537  1.00  0.00     0.029 A 
ATOM     29  N   UNL A   1      44.761  30.458  27.677  1.00  0.00    -0.354 N 
ATOM     30  N   UNL A   1      42.594  31.344  29.446  1.00  0.00    -0.248 NA
ATOM     31  C   UNL A   1      41.486  33.047  30.598  1.00  0.00     0.031 C 
ATOM     32  C   UNL A   1      46.315  31.935  27.103  1.00  0.00     0.029 A 
ATOM     33  C   UNL A   1      45.113  31.790  27.777  1.00  0.00     0.049 A 
ATOM     34  H   UNL A   1      43.979  30.046  28.111  1.00  0.00     0.167 HD
ATOM     35  C   UNL A   1      43.225  32.553  29.189  1.00  0.00     0.074 A 
ATOM     36  C   UNL A   1      42.474  33.574  29.888  1.00  0.00     0.031 C 
ATOM     37  C   UNL A   1      44.326  32.796  28.438  1.00  0.00     0.031 A 
BRANCH  24  38
ATOM     38  C   UNL A   1      46.614  27.780  25.636  1.00  0.00    -0.014 A 
ATOM     39  C   UNL A   1      47.579  26.950  26.232  1.00  0.00     0.009 A 
ATOM     40  C   UNL A   1      46.691  28.001  24.252  1.00  0.00     0.009 A 
ATOM     41  C   UNL A   1      48.650  26.448  25.490  1.00  0.00     0.001 A 
ATOM     42  C   UNL A   1      47.730  27.448  23.498  1.00  0.00     0.001 A 
ATOM     43  C   UNL A   1      48.723  26.694  24.122  1.00  0.00     0.000 A 
ENDBRANCH  24  38
BRANCH  25  44
ATOM     44  C   UNL A   1      39.502  31.217  31.726  1.00  0.00    -0.014 A 
ATOM     45  C   UNL A   1      38.328  31.839  31.266  1.00  0.00     0.009 A 
ATOM     46  C   UNL A   1      39.716  31.120  33.107  1.00  0.00     0.009 A 
ATOM     47  C   UNL A   1      37.416  32.399  32.164  1.00  0.00     0.001 A 
ATOM     48  C   UNL A   1      38.787  31.658  34.006  1.00  0.00     0.001 A 
ATOM     49  C   UNL A   1      37.646  32.308  33.534  1.00  0.00     0.000 A 
ENDBRANCH  25  44
BRANCH  37  50
ATOM     50  C   UNL A   1      44.728  34.228  28.250  1.00  0.00    -0.014 A 
ATOM     51  C   UNL A   1      45.642  34.855  29.111  1.00  0.00     0.009 A 
ATOM     52  C   UNL A   1      44.210  34.946  27.161  1.00  0.00     0.009 A 
ATOM     53  C   UNL A   1      46.000  36.188  28.904  1.00  0.00     0.001 A 
ATOM     54  C   UNL A   1      44.591  36.271  26.942  1.00  0.00     0.001 A 
ATOM     55  C   UNL A   1      45.477  36.892  27.819  1.00  0.00     0.000 A 
ENDBRANCH  37  50
ENDBRANCH  11  12
ENDBRANCH   4   6
ENDBRANCH   3   4
ENDBRANCH   2   3
ENDBRANCH   1   2
BRANCH   1  56
ATOM     56  O   UNL A   1      35.651  23.563  24.326  1.00  0.00    -0.461 OA
BRANCH  56  57
ATOM     57  C   UNL A   1      34.512  23.435  23.591  1.00  0.00     0.317 C 
ATOM     58  O   UNL A   1      34.515  23.525  22.357  1.00  0.00    -0.251 OA
BRANCH  57  59
ATOM     59  C   UNL A   1      33.194  23.257  24.399  1.00  0.00     0.117 C 
ATOM     60  C   UNL A   1      33.632  23.155  25.883  1.00  0.00     0.030 C 
ATOM     61  C   UNL A   1      32.442  24.586  24.220  1.00  0.00     0.281 C 
ATOM     62  C   UNL A   1      32.506  23.449  26.870  1.00  0.00     0.063 C 
ATOM     63  N   UNL A   1      31.312  24.699  25.120  1.00  0.00    -0.330 N 
ATOM     64  C   UNL A   1      31.717  24.720  26.519  1.00  0.00     0.262 C 
ATOM     65  H   UNL A   1      30.838  23.813  24.944  1.00  0.00     0.348 HD
BRANCH  59  66
ATOM     66  C   UNL A   1      32.326  22.021  23.942  1.00  0.00     0.029 C 
BRANCH  66  67
ATOM     67  C   UNL A   1      32.243  20.668  24.731  1.00  0.00     0.037 C 
BRANCH  67  68
ATOM     68  C   UNL A   1      32.919  19.378  24.259  1.00  0.00    -0.048 A 
ATOM     69  C   UNL A   1      34.129  18.882  24.759  1.00  0.00     0.004 A 
ATOM     70  C   UNL A   1      32.339  18.644  23.206  1.00  0.00     0.004 A 
ATOM     71  C   UNL A   1      34.746  17.731  24.245  1.00  0.00     0.000 A 
ATOM     72  C   UNL A   1      32.933  17.472  22.707  1.00  0.00     0.000 A 
ATOM     73  C   UNL A   1      34.142  17.018  23.223  1.00  0.00     0.000 A 
ENDBRANCH  67  68
ENDBRANCH  66  67
ENDBRANCH  59  66
BRANCH  63  74
ATOM     74  C   UNL A   1      30.156  25.527  24.771  1.00  0.00     0.300 C 
BRANCH  74  75
ATOM     75  C   UNL A   1      30.286  26.951  24.281  1.00  0.00     0.025 A 
ATOM     76  C   UNL A   1      31.146  27.930  24.790  1.00  0.00     0.013 A 
ATOM     77  C   UNL A   1      29.646  27.286  23.087  1.00  0.00     0.120 A 
ATOM     78  C   UNL A   1      31.272  29.169  24.168  1.00  0.00     0.021 A 
ATOM     79  N   UNL A   1      29.750  28.475  22.446  1.00  0.00    -0.264 NA
ATOM     80  C   UNL A   1      30.557  29.394  23.011  1.00  0.00     0.111 A 
ENDBRANCH  74  75
ENDBRANCH  63  74
ENDBRANCH  57  59
ENDBRANCH  56  57
ENDBRANCH   1  56
TORSDOF 16
ENDMDL
