MODEL 1
REMARK VINA RESULT:      -9.6      0.000      0.000
REMARK SMILES CC[C@@](O)(C(=O)OCCOC(=O)c1ccc(-c2c3nc(c(-c4ccccc4)c4ccc([nH]4)c(-c4ccccc4)c4nc(c(-c5ccccc5)c5ccc2[nH]5)C=C4)C=C3)cc1)[C@@H](c1ccccc1)C(C)C
REMARK SMILES IDX 8 1 7 2 5 3 6 4 3 5 2 6 1 7 4 8 61 10 62 11 63 12 67 13
REMARK SMILES IDX 64 14 66 15 65 16 68 17 69 18 70 19 9 20 10 21 11 22 12 23
REMARK SMILES IDX 13 24 14 25 60 26 15 27 59 28 16 29 17 30 18 31 53 32 19 33
REMARK SMILES IDX 58 34 52 35 54 36 20 37 57 38 51 39 50 40 21 42 43 43 28 44
REMARK SMILES IDX 42 45 29 46 32 47 41 48 55 49 30 50 31 51 40 53 56 54 33 55
REMARK SMILES IDX 22 56 23 57 27 58 24 59 26 60 25 61 44 62 45 63 49 64 46 65
REMARK SMILES IDX 48 66 47 67 34 68 35 69 39 70 36 71 38 72 37 73
REMARK H PARENT 4 9 54 41 32 52
REMARK Flexibility Score: inf
ROOT
ATOM      1  C   UNL A   1      34.893  21.141  24.988  1.00  0.00     0.274 C 
ENDROOT
BRANCH   1   2
ATOM      2  O   UNL A   1      34.225  21.831  23.906  1.00  0.00    -0.460 OA
BRANCH   2   3
ATOM      3  C   UNL A   1      34.146  23.189  24.026  1.00  0.00     0.338 C 
ATOM      4  O   UNL A   1      35.112  23.937  23.902  1.00  0.00    -0.249 OA
BRANCH   3   5
ATOM      5  C   UNL A   1      32.727  23.686  24.446  1.00  0.00     0.168 C 
BRANCH   5   6
ATOM      6  C   UNL A   1      32.039  24.587  23.398  1.00  0.00     0.044 C 
ATOM      7  C   UNL A   1      30.522  24.457  23.349  1.00  0.00     0.007 C 
ENDBRANCH   5   6
BRANCH   5   8
ATOM      8  O   UNL A   1      32.000  22.434  24.419  1.00  0.00    -0.378 OA
ATOM      9  H   UNL A   1      32.075  21.998  25.283  1.00  0.00     0.212 HD
ENDBRANCH   5   8
BRANCH   5  10
ATOM     10  C   UNL A   1      32.818  24.275  25.933  1.00  0.00     0.065 C 
BRANCH  10  11
ATOM     11  C   UNL A   1      32.757  25.841  26.024  1.00  0.00    -0.041 A 
ATOM     12  C   UNL A   1      33.874  26.646  25.733  1.00  0.00     0.004 A 
ATOM     13  C   UNL A   1      31.620  26.530  26.497  1.00  0.00     0.004 A 
ATOM     14  C   UNL A   1      33.858  28.040  25.889  1.00  0.00     0.000 A 
ATOM     15  C   UNL A   1      31.605  27.921  26.674  1.00  0.00     0.000 A 
ATOM     16  C   UNL A   1      32.724  28.678  26.367  1.00  0.00     0.000 A 
ENDBRANCH  10  11
BRANCH  10  17
ATOM     17  C   UNL A   1      31.968  23.562  27.081  1.00  0.00    -0.006 C 
ATOM     18  C   UNL A   1      30.608  22.941  26.745  1.00  0.00     0.008 C 
ATOM     19  C   UNL A   1      32.792  22.413  27.718  1.00  0.00     0.008 C 
ENDBRANCH  10  17
ENDBRANCH   5  10
ENDBRANCH   3   5
ENDBRANCH   2   3
ENDBRANCH   1   2
BRANCH   1  20
ATOM     20  C   UNL A   1      36.402  21.083  24.755  1.00  0.00     0.275 C 
BRANCH  20  21
ATOM     21  O   UNL A   1      37.071  21.656  25.886  1.00  0.00    -0.458 OA
BRANCH  21  22
ATOM     22  C   UNL A   1      38.406  21.442  25.957  1.00  0.00     0.338 C 
ATOM     23  O   UNL A   1      38.992  20.435  25.600  1.00  0.00    -0.246 OA
BRANCH  22  24
ATOM     24  C   UNL A   1      39.090  22.659  26.471  1.00  0.00     0.060 A 
ATOM     25  C   UNL A   1      38.635  23.940  26.147  1.00  0.00     0.016 A 
ATOM     26  C   UNL A   1      40.270  22.522  27.208  1.00  0.00     0.016 A 
ATOM     27  C   UNL A   1      39.395  25.063  26.468  1.00  0.00     0.010 A 
ATOM     28  C   UNL A   1      40.977  23.659  27.620  1.00  0.00     0.010 A 
ATOM     29  C   UNL A   1      40.561  24.943  27.235  1.00  0.00    -0.014 A 
BRANCH  29  30
ATOM     30  C   UNL A   1      41.318  26.153  27.660  1.00  0.00     0.031 A 
ATOM     31  C   UNL A   1      40.698  27.182  28.569  1.00  0.00     0.074 A 
ATOM     32  C   UNL A   1      42.576  26.349  27.214  1.00  0.00     0.049 A 
ATOM     33  N   UNL A   1      41.150  28.365  28.911  1.00  0.00    -0.248 NA
ATOM     34  C   UNL A   1      39.404  26.838  29.179  1.00  0.00     0.031 C 
ATOM     35  C   UNL A   1      43.336  25.424  26.371  1.00  0.00     0.029 A 
ATOM     36  N   UNL A   1      43.435  27.406  27.400  1.00  0.00    -0.354 N 
ATOM     37  C   UNL A   1      40.194  28.907  29.761  1.00  0.00     0.074 A 
ATOM     38  C   UNL A   1      39.127  27.936  29.870  1.00  0.00     0.031 C 
ATOM     39  C   UNL A   1      44.547  25.943  26.124  1.00  0.00     0.029 A 
ATOM     40  C   UNL A   1      44.616  27.276  26.710  1.00  0.00     0.049 A 
ATOM     41  H   UNL A   1      43.226  28.179  27.972  1.00  0.00     0.167 HD
ATOM     42  C   UNL A   1      40.203  30.106  30.393  1.00  0.00     0.031 A 
ATOM     43  C   UNL A   1      45.621  28.148  26.505  1.00  0.00     0.031 A 
ATOM     44  C   UNL A   1      41.248  31.088  30.275  1.00  0.00     0.049 A 
ATOM     45  C   UNL A   1      45.537  29.525  27.089  1.00  0.00     0.074 A 
ATOM     46  C   UNL A   1      41.336  32.331  30.880  1.00  0.00     0.029 A 
ATOM     47  N   UNL A   1      42.381  30.944  29.492  1.00  0.00    -0.354 N 
ATOM     48  N   UNL A   1      44.615  30.035  27.866  1.00  0.00    -0.248 NA
ATOM     49  C   UNL A   1      46.623  30.453  26.747  1.00  0.00     0.031 C 
ATOM     50  C   UNL A   1      42.497  32.963  30.417  1.00  0.00     0.029 A 
ATOM     51  C   UNL A   1      43.155  32.092  29.565  1.00  0.00     0.049 A 
ATOM     52  H   UNL A   1      42.604  30.145  28.962  1.00  0.00     0.167 HD
ATOM     53  C   UNL A   1      45.012  31.341  28.115  1.00  0.00     0.074 A 
ATOM     54  C   UNL A   1      46.267  31.539  27.419  1.00  0.00     0.031 C 
ATOM     55  C   UNL A   1      44.390  32.290  28.855  1.00  0.00     0.031 A 
BRANCH  42  56
ATOM     56  C   UNL A   1      39.017  30.444  31.251  1.00  0.00    -0.014 A 
ATOM     57  C   UNL A   1      39.002  30.139  32.621  1.00  0.00     0.009 A 
ATOM     58  C   UNL A   1      37.926  31.128  30.693  1.00  0.00     0.009 A 
ATOM     59  C   UNL A   1      37.907  30.494  33.411  1.00  0.00     0.001 A 
ATOM     60  C   UNL A   1      36.842  31.500  31.489  1.00  0.00     0.001 A 
ATOM     61  C   UNL A   1      36.830  31.178  32.845  1.00  0.00     0.000 A 
ENDBRANCH  42  56
BRANCH  43  62
ATOM     62  C   UNL A   1      46.754  27.759  25.627  1.00  0.00    -0.014 A 
ATOM     63  C   UNL A   1      47.893  27.139  26.159  1.00  0.00     0.009 A 
ATOM     64  C   UNL A   1      46.684  27.989  24.243  1.00  0.00     0.009 A 
ATOM     65  C   UNL A   1      48.942  26.760  25.319  1.00  0.00     0.001 A 
ATOM     66  C   UNL A   1      47.722  27.583  23.404  1.00  0.00     0.001 A 
ATOM     67  C   UNL A   1      48.853  26.974  23.944  1.00  0.00     0.000 A 
ENDBRANCH  43  62
BRANCH  55  68
ATOM     68  C   UNL A   1      45.069  33.624  28.961  1.00  0.00    -0.014 A 
ATOM     69  C   UNL A   1      45.961  33.900  30.009  1.00  0.00     0.009 A 
ATOM     70  C   UNL A   1      44.826  34.609  27.993  1.00  0.00     0.009 A 
ATOM     71  C   UNL A   1      46.572  35.152  30.101  1.00  0.00     0.001 A 
ATOM     72  C   UNL A   1      45.458  35.852  28.076  1.00  0.00     0.001 A 
ATOM     73  C   UNL A   1      46.322  36.124  29.134  1.00  0.00     0.000 A 
ENDBRANCH  55  68
ENDBRANCH  29  30
ENDBRANCH  22  24
ENDBRANCH  21  22
ENDBRANCH  20  21
ENDBRANCH   1  20
TORSDOF 16
ENDMDL
MODEL 2
REMARK VINA RESULT:      -9.6      2.376      3.327
REMARK SMILES CC[C@@](O)(C(=O)OCCOC(=O)c1ccc(-c2c3nc(c(-c4ccccc4)c4ccc([nH]4)c(-c4ccccc4)c4nc(c(-c5ccccc5)c5ccc2[nH]5)C=C4)C=C3)cc1)[C@@H](c1ccccc1)C(C)C
REMARK SMILES IDX 8 1 7 2 5 3 6 4 3 5 2 6 1 7 4 8 61 10 62 11 63 12 67 13
REMARK SMILES IDX 64 14 66 15 65 16 68 17 69 18 70 19 9 20 10 21 11 22 12 23
REMARK SMILES IDX 13 24 14 25 60 26 15 27 59 28 16 29 17 30 18 31 53 32 19 33
REMARK SMILES IDX 58 34 52 35 54 36 20 37 57 38 51 39 50 40 21 42 43 43 28 44
REMARK SMILES IDX 42 45 29 46 32 47 41 48 55 49 30 50 31 51 40 53 56 54 33 55
REMARK SMILES IDX 22 56 23 57 27 58 24 59 26 60 25 61 44 62 45 63 49 64 46 65
REMARK SMILES IDX 48 66 47 67 34 68 35 69 39 70 36 71 38 72 37 73
REMARK H PARENT 4 9 54 41 32 52
REMARK Flexibility Score: inf
ROOT
ATOM      1  C   UNL A   1      37.656  20.157  24.722  1.00  0.00     0.274 C 
ENDROOT
BRANCH   1   2
ATOM      2  O   UNL A   1      36.470  20.652  25.389  1.00  0.00    -0.460 OA
BRANCH   2   3
ATOM      3  C   UNL A   1      35.877  21.740  24.816  1.00  0.00     0.338 C 
ATOM      4  O   UNL A   1      36.336  22.327  23.840  1.00  0.00    -0.249 OA
BRANCH   3   5
ATOM      5  C   UNL A   1      34.618  22.233  25.595  1.00  0.00     0.168 C 
BRANCH   5   6
ATOM      6  C   UNL A   1      34.611  21.849  27.091  1.00  0.00     0.044 C 
ATOM      7  C   UNL A   1      33.339  22.228  27.838  1.00  0.00     0.007 C 
ENDBRANCH   5   6
BRANCH   5   8
ATOM      8  O   UNL A   1      34.842  23.664  25.563  1.00  0.00    -0.378 OA
ATOM      9  H   UNL A   1      34.197  24.104  26.139  1.00  0.00     0.212 HD
ENDBRANCH   5   8
BRANCH   5  10
ATOM     10  C   UNL A   1      33.314  21.829  24.757  1.00  0.00     0.065 C 
BRANCH  10  11
ATOM     11  C   UNL A   1      32.706  22.986  23.887  1.00  0.00    -0.041 A 
ATOM     12  C   UNL A   1      33.329  23.434  22.708  1.00  0.00     0.004 A 
ATOM     13  C   UNL A   1      31.563  23.712  24.282  1.00  0.00     0.004 A 
ATOM     14  C   UNL A   1      32.842  24.520  21.966  1.00  0.00     0.000 A 
ATOM     15  C   UNL A   1      31.083  24.810  23.555  1.00  0.00     0.000 A 
ATOM     16  C   UNL A   1      31.722  25.213  22.394  1.00  0.00     0.000 A 
ENDBRANCH  10  11
BRANCH  10  17
ATOM     17  C   UNL A   1      33.312  20.425  23.996  1.00  0.00    -0.006 C 
ATOM     18  C   UNL A   1      33.247  19.124  24.802  1.00  0.00     0.008 C 
ATOM     19  C   UNL A   1      32.114  20.354  23.014  1.00  0.00     0.008 C 
ENDBRANCH  10  17
ENDBRANCH   5  10
ENDBRANCH   3   5
ENDBRANCH   2   3
ENDBRANCH   1   2
BRANCH   1  20
ATOM     20  C   UNL A   1      38.922  20.596  25.456  1.00  0.00     0.275 C 
BRANCH  20  21
ATOM     21  O   UNL A   1      39.655  19.432  25.859  1.00  0.00    -0.458 OA
BRANCH  21  22
ATOM     22  C   UNL A   1      40.992  19.591  25.998  1.00  0.00     0.338 C 
ATOM     23  O   UNL A   1      41.849  18.787  25.673  1.00  0.00    -0.246 OA
BRANCH  22  24
ATOM     24  C   UNL A   1      41.290  20.942  26.542  1.00  0.00     0.060 A 
ATOM     25  C   UNL A   1      41.794  21.959  25.728  1.00  0.00     0.016 A 
ATOM     26  C   UNL A   1      41.161  21.171  27.916  1.00  0.00     0.016 A 
ATOM     27  C   UNL A   1      42.253  23.152  26.286  1.00  0.00     0.010 A 
ATOM     28  C   UNL A   1      41.526  22.409  28.459  1.00  0.00     0.010 A 
ATOM     29  C   UNL A   1      42.099  23.407  27.654  1.00  0.00    -0.014 A 
BRANCH  29  30
ATOM     30  C   UNL A   1      42.500  24.720  28.232  1.00  0.00     0.031 A 
ATOM     31  C   UNL A   1      41.490  25.814  28.459  1.00  0.00     0.074 A 
ATOM     32  C   UNL A   1      43.793  24.950  28.544  1.00  0.00     0.049 A 
ATOM     33  N   UNL A   1      41.686  27.065  28.801  1.00  0.00    -0.248 NA
ATOM     34  C   UNL A   1      40.073  25.459  28.283  1.00  0.00     0.031 C 
ATOM     35  C   UNL A   1      44.882  23.978  28.431  1.00  0.00     0.029 A 
ATOM     36  N   UNL A   1      44.411  26.085  29.008  1.00  0.00    -0.354 N 
ATOM     37  C   UNL A   1      40.426  27.645  28.869  1.00  0.00     0.074 A 
ATOM     38  C   UNL A   1      39.469  26.617  28.515  1.00  0.00     0.031 C 
ATOM     39  C   UNL A   1      46.028  24.550  28.827  1.00  0.00     0.029 A 
ATOM     40  C   UNL A   1      45.773  25.954  29.129  1.00  0.00     0.049 A 
ATOM     41  H   UNL A   1      43.926  26.913  29.232  1.00  0.00     0.167 HD
ATOM     42  C   UNL A   1      40.093  28.916  29.197  1.00  0.00     0.031 A 
ATOM     43  C   UNL A   1      46.730  26.864  29.387  1.00  0.00     0.031 A 
ATOM     44  C   UNL A   1      41.036  29.951  29.530  1.00  0.00     0.049 A 
ATOM     45  C   UNL A   1      46.351  28.298  29.595  1.00  0.00     0.074 A 
ATOM     46  C   UNL A   1      40.784  31.270  29.873  1.00  0.00     0.029 A 
ATOM     47  N   UNL A   1      42.411  29.788  29.553  1.00  0.00    -0.354 N 
ATOM     48  N   UNL A   1      45.159  28.838  29.629  1.00  0.00    -0.248 NA
ATOM     49  C   UNL A   1      47.454  29.252  29.779  1.00  0.00     0.031 C 
ATOM     50  C   UNL A   1      42.013  31.919  30.047  1.00  0.00     0.029 A 
ATOM     51  C   UNL A   1      43.024  30.992  29.863  1.00  0.00     0.049 A 
ATOM     52  H   UNL A   1      42.882  28.943  29.374  1.00  0.00     0.167 HD
ATOM     53  C   UNL A   1      45.365  30.193  29.846  1.00  0.00     0.074 A 
ATOM     54  C   UNL A   1      46.796  30.390  29.952  1.00  0.00     0.031 C 
ATOM     55  C   UNL A   1      44.447  31.185  29.947  1.00  0.00     0.031 A 
BRANCH  42  56
ATOM     56  C   UNL A   1      38.635  29.277  29.176  1.00  0.00    -0.014 A 
ATOM     57  C   UNL A   1      37.860  29.236  30.344  1.00  0.00     0.009 A 
ATOM     58  C   UNL A   1      38.045  29.720  27.981  1.00  0.00     0.009 A 
ATOM     59  C   UNL A   1      36.515  29.612  30.313  1.00  0.00     0.001 A 
ATOM     60  C   UNL A   1      36.706  30.112  27.957  1.00  0.00     0.001 A 
ATOM     61  C   UNL A   1      35.941  30.053  29.121  1.00  0.00     0.000 A 
ENDBRANCH  42  56
BRANCH  43  62
ATOM     62  C   UNL A   1      48.156  26.446  29.372  1.00  0.00    -0.014 A 
ATOM     63  C   UNL A   1      48.771  25.953  30.531  1.00  0.00     0.009 A 
ATOM     64  C   UNL A   1      48.897  26.519  28.181  1.00  0.00     0.009 A 
ATOM     65  C   UNL A   1      50.106  25.544  30.496  1.00  0.00     0.001 A 
ATOM     66  C   UNL A   1      50.223  26.083  28.145  1.00  0.00     0.001 A 
ATOM     67  C   UNL A   1      50.827  25.602  29.303  1.00  0.00     0.000 A 
ENDBRANCH  43  62
BRANCH  55  68
ATOM     68  C   UNL A   1      44.967  32.570  30.201  1.00  0.00    -0.014 A 
ATOM     69  C   UNL A   1      45.240  33.445  29.139  1.00  0.00     0.009 A 
ATOM     70  C   UNL A   1      45.170  33.007  31.518  1.00  0.00     0.009 A 
ATOM     71  C   UNL A   1      45.737  34.725  29.393  1.00  0.00     0.001 A 
ATOM     72  C   UNL A   1      45.646  34.296  31.768  1.00  0.00     0.001 A 
ATOM     73  C   UNL A   1      45.937  35.149  30.706  1.00  0.00     0.000 A 
ENDBRANCH  55  68
ENDBRANCH  29  30
ENDBRANCH  22  24
ENDBRANCH  21  22
ENDBRANCH  20  21
ENDBRANCH   1  20
TORSDOF 16
ENDMDL
MODEL 3
REMARK VINA RESULT:      -9.5      2.801      6.522
REMARK SMILES CC[C@@](O)(C(=O)OCCOC(=O)c1ccc(-c2c3nc(c(-c4ccccc4)c4ccc([nH]4)c(-c4ccccc4)c4nc(c(-c5ccccc5)c5ccc2[nH]5)C=C4)C=C3)cc1)[C@@H](c1ccccc1)C(C)C
REMARK SMILES IDX 8 1 7 2 5 3 6 4 3 5 2 6 1 7 4 8 61 10 62 11 63 12 67 13
REMARK SMILES IDX 64 14 66 15 65 16 68 17 69 18 70 19 9 20 10 21 11 22 12 23
REMARK SMILES IDX 13 24 14 25 60 26 15 27 59 28 16 29 17 30 18 31 53 32 19 33
REMARK SMILES IDX 58 34 52 35 54 36 20 37 57 38 51 39 50 40 21 42 43 43 28 44
REMARK SMILES IDX 42 45 29 46 32 47 41 48 55 49 30 50 31 51 40 53 56 54 33 55
REMARK SMILES IDX 22 56 23 57 27 58 24 59 26 60 25 61 44 62 45 63 49 64 46 65
REMARK SMILES IDX 48 66 47 67 34 68 35 69 39 70 36 71 38 72 37 73
REMARK H PARENT 4 9 54 41 32 52
REMARK Flexibility Score: inf
ROOT
ATOM      1  C   UNL A   1      32.893  29.507  25.375  1.00  0.00     0.274 C 
ENDROOT
BRANCH   1   2
ATOM      2  O   UNL A   1      32.216  28.238  25.537  1.00  0.00    -0.460 OA
BRANCH   2   3
ATOM      3  C   UNL A   1      33.017  27.133  25.529  1.00  0.00     0.338 C 
ATOM      4  O   UNL A   1      33.936  26.956  26.324  1.00  0.00    -0.249 OA
BRANCH   3   5
ATOM      5  C   UNL A   1      32.720  26.168  24.338  1.00  0.00     0.168 C 
BRANCH   5   6
ATOM      6  C   UNL A   1      31.369  26.431  23.637  1.00  0.00     0.044 C 
ATOM      7  C   UNL A   1      31.485  27.008  22.233  1.00  0.00     0.007 C 
ENDBRANCH   5   6
BRANCH   5   8
ATOM      8  O   UNL A   1      33.734  26.602  23.400  1.00  0.00    -0.378 OA
ATOM      9  H   UNL A   1      34.547  26.093  23.546  1.00  0.00     0.212 HD
ENDBRANCH   5   8
BRANCH   5  10
ATOM     10  C   UNL A   1      32.981  24.665  24.827  1.00  0.00     0.065 C 
BRANCH  10  11
ATOM     11  C   UNL A   1      34.422  24.118  24.529  1.00  0.00    -0.041 A 
ATOM     12  C   UNL A   1      34.695  23.320  23.403  1.00  0.00     0.004 A 
ATOM     13  C   UNL A   1      35.503  24.304  25.416  1.00  0.00     0.004 A 
ATOM     14  C   UNL A   1      35.958  22.756  23.168  1.00  0.00     0.000 A 
ATOM     15  C   UNL A   1      36.762  23.728  25.197  1.00  0.00     0.000 A 
ATOM     16  C   UNL A   1      36.991  22.955  24.070  1.00  0.00     0.000 A 
ENDBRANCH  10  11
BRANCH  10  17
ATOM     17  C   UNL A   1      32.451  24.238  26.271  1.00  0.00    -0.006 C 
ATOM     18  C   UNL A   1      30.949  24.276  26.570  1.00  0.00     0.008 C 
ATOM     19  C   UNL A   1      32.893  22.787  26.593  1.00  0.00     0.008 C 
ENDBRANCH  10  17
ENDBRANCH   5  10
ENDBRANCH   3   5
ENDBRANCH   2   3
ENDBRANCH   1   2
BRANCH   1  20
ATOM     20  C   UNL A   1      32.798  30.347  26.649  1.00  0.00     0.275 C 
BRANCH  20  21
ATOM     21  O   UNL A   1      33.736  29.843  27.610  1.00  0.00    -0.458 OA
BRANCH  21  22
ATOM     22  C   UNL A   1      34.554  30.761  28.177  1.00  0.00     0.338 C 
ATOM     23  O   UNL A   1      34.242  31.890  28.515  1.00  0.00    -0.246 OA
BRANCH  22  24
ATOM     24  C   UNL A   1      35.899  30.169  28.410  1.00  0.00     0.060 A 
ATOM     25  C   UNL A   1      36.266  29.671  29.663  1.00  0.00     0.016 A 
ATOM     26  C   UNL A   1      36.850  30.206  27.386  1.00  0.00     0.016 A 
ATOM     27  C   UNL A   1      37.586  29.304  29.919  1.00  0.00     0.010 A 
ATOM     28  C   UNL A   1      38.150  29.738  27.617  1.00  0.00     0.010 A 
ATOM     29  C   UNL A   1      38.541  29.303  28.894  1.00  0.00    -0.014 A 
BRANCH  29  30
ATOM     30  C   UNL A   1      39.926  28.817  29.147  1.00  0.00     0.031 A 
ATOM     31  C   UNL A   1      40.986  29.735  29.696  1.00  0.00     0.074 A 
ATOM     32  C   UNL A   1      40.251  27.538  28.865  1.00  0.00     0.049 A 
ATOM     33  N   UNL A   1      42.274  29.527  29.828  1.00  0.00    -0.248 NA
ATOM     34  C   UNL A   1      40.545  31.058  30.163  1.00  0.00     0.031 C 
ATOM     35  C   UNL A   1      39.328  26.512  28.377  1.00  0.00     0.029 A 
ATOM     36  N   UNL A   1      41.459  26.887  28.937  1.00  0.00    -0.354 N 
ATOM     37  C   UNL A   1      42.795  30.691  30.378  1.00  0.00     0.074 A 
ATOM     38  C   UNL A   1      41.690  31.612  30.540  1.00  0.00     0.031 C 
ATOM     39  C   UNL A   1      39.995  25.362  28.207  1.00  0.00     0.029 A 
ATOM     40  C   UNL A   1      41.408  25.593  28.481  1.00  0.00     0.049 A 
ATOM     41  H   UNL A   1      42.281  27.307  29.282  1.00  0.00     0.167 HD
ATOM     42  C   UNL A   1      44.076  30.971  30.719  1.00  0.00     0.031 A 
ATOM     43  C   UNL A   1      42.387  24.700  28.241  1.00  0.00     0.031 A 
ATOM     44  C   UNL A   1      45.186  30.071  30.544  1.00  0.00     0.049 A 
ATOM     45  C   UNL A   1      43.815  25.086  28.481  1.00  0.00     0.074 A 
ATOM     46  C   UNL A   1      46.520  30.275  30.860  1.00  0.00     0.029 A 
ATOM     47  N   UNL A   1      45.095  28.803  29.995  1.00  0.00    -0.354 N 
ATOM     48  N   UNL A   1      44.296  26.199  28.974  1.00  0.00    -0.248 NA
ATOM     49  C   UNL A   1      44.836  24.097  28.109  1.00  0.00     0.031 C 
ATOM     50  C   UNL A   1      47.244  29.149  30.449  1.00  0.00     0.029 A 
ATOM     51  C   UNL A   1      46.353  28.227  29.925  1.00  0.00     0.049 A 
ATOM     52  H   UNL A   1      44.259  28.375  29.699  1.00  0.00     0.167 HD
ATOM     53  C   UNL A   1      45.675  26.044  28.981  1.00  0.00     0.074 A 
ATOM     54  C   UNL A   1      45.952  24.722  28.457  1.00  0.00     0.031 C 
ATOM     55  C   UNL A   1      46.625  26.921  29.385  1.00  0.00     0.031 A 
BRANCH  42  56
ATOM     56  C   UNL A   1      44.360  32.331  31.288  1.00  0.00    -0.014 A 
ATOM     57  C   UNL A   1      44.369  32.550  32.674  1.00  0.00     0.009 A 
ATOM     58  C   UNL A   1      44.680  33.393  30.428  1.00  0.00     0.009 A 
ATOM     59  C   UNL A   1      44.672  33.814  33.187  1.00  0.00     0.001 A 
ATOM     60  C   UNL A   1      45.002  34.649  30.944  1.00  0.00     0.001 A 
ATOM     61  C   UNL A   1      44.992  34.860  32.322  1.00  0.00     0.000 A 
ENDBRANCH  42  56
BRANCH  43  62
ATOM     62  C   UNL A   1      42.041  23.380  27.657  1.00  0.00    -0.014 A 
ATOM     63  C   UNL A   1      41.662  22.309  28.478  1.00  0.00     0.009 A 
ATOM     64  C   UNL A   1      42.068  23.198  26.264  1.00  0.00     0.009 A 
ATOM     65  C   UNL A   1      41.319  21.079  27.912  1.00  0.00     0.001 A 
ATOM     66  C   UNL A   1      41.697  21.975  25.702  1.00  0.00     0.001 A 
ATOM     67  C   UNL A   1      41.329  20.916  26.527  1.00  0.00     0.000 A 
ENDBRANCH  43  62
BRANCH  55  68
ATOM     68  C   UNL A   1      48.053  26.469  29.291  1.00  0.00    -0.014 A 
ATOM     69  C   UNL A   1      48.664  25.782  30.350  1.00  0.00     0.009 A 
ATOM     70  C   UNL A   1      48.788  26.720  28.123  1.00  0.00     0.009 A 
ATOM     71  C   UNL A   1      49.999  25.382  30.252  1.00  0.00     0.001 A 
ATOM     72  C   UNL A   1      50.114  26.298  28.019  1.00  0.00     0.001 A 
ATOM     73  C   UNL A   1      50.721  25.638  29.086  1.00  0.00     0.000 A 
ENDBRANCH  55  68
ENDBRANCH  29  30
ENDBRANCH  22  24
ENDBRANCH  21  22
ENDBRANCH  20  21
ENDBRANCH   1  20
TORSDOF 16
ENDMDL
