MODEL 1
REMARK VINA RESULT:     -11.3      0.000      0.000
REMARK SMILES O=C(OCCOC(=O)[C@@H]1CCn2c(C(=O)c3ccccc3)ccc21)c1ccc(-c2c3nc(c(-c4ccccc4)c4ccc([nH]4)c(-c4ccccc4)c4nc(c(-c5ccccc5)c5ccc2[nH]5)C=C4)C=C3)cc1
REMARK SMILES IDX 4 1 3 2 2 3 1 4 25 5 26 6 72 7 27 8 71 9 28 10 29 11 30 12
REMARK SMILES IDX 65 13 31 14 70 15 64 16 66 17 32 18 69 19 63 20 62 21 33 23
REMARK SMILES IDX 55 24 40 25 54 26 41 27 44 28 53 29 67 30 42 31 43 32 52 34
REMARK SMILES IDX 68 35 45 36 34 37 35 38 39 39 36 40 38 41 37 42 56 43 57 44
REMARK SMILES IDX 61 45 58 46 60 47 59 48 46 49 47 50 51 51 48 52 50 53 49 54
REMARK SMILES IDX 5 55 6 56 7 57 8 58 9 59 10 60 24 61 11 62 12 63 23 64 13 65
REMARK SMILES IDX 22 66 14 67 15 68 16 69 17 70 21 71 18 72 20 73 19 74
REMARK H PARENT 66 22 44 33
REMARK Flexibility Score: inf
ROOT
ATOM      1  C   UNL A   1      34.296  34.374  31.620  1.00  0.00     0.275 C 
ENDROOT
BRANCH   1   2
ATOM      2  O   UNL A   1      34.570  33.034  32.050  1.00  0.00    -0.458 OA
BRANCH   2   3
ATOM      3  C   UNL A   1      35.556  32.597  32.865  1.00  0.00     0.338 C 
ATOM      4  O   UNL A   1      35.520  32.868  34.063  1.00  0.00    -0.246 OA
BRANCH   3   5
ATOM      5  C   UNL A   1      36.773  31.915  32.341  1.00  0.00     0.060 A 
ATOM      6  C   UNL A   1      37.700  31.183  33.089  1.00  0.00     0.016 A 
ATOM      7  C   UNL A   1      37.036  32.114  30.984  1.00  0.00     0.016 A 
ATOM      8  C   UNL A   1      38.806  30.571  32.474  1.00  0.00     0.010 A 
ATOM      9  C   UNL A   1      38.131  31.505  30.373  1.00  0.00     0.010 A 
ATOM     10  C   UNL A   1      39.024  30.709  31.101  1.00  0.00    -0.014 A 
BRANCH  10  11
ATOM     11  C   UNL A   1      40.208  30.129  30.405  1.00  0.00     0.031 A 
ATOM     12  C   UNL A   1      41.364  31.036  30.068  1.00  0.00     0.074 A 
ATOM     13  C   UNL A   1      40.205  28.857  29.959  1.00  0.00     0.049 A 
ATOM     14  N   UNL A   1      42.382  30.831  29.270  1.00  0.00    -0.248 NA
ATOM     15  C   UNL A   1      41.343  32.371  30.689  1.00  0.00     0.031 C 
ATOM     16  C   UNL A   1      39.134  27.882  30.164  1.00  0.00     0.029 A 
ATOM     17  N   UNL A   1      41.114  28.181  29.178  1.00  0.00    -0.354 N 
ATOM     18  C   UNL A   1      43.076  32.038  29.243  1.00  0.00     0.074 A 
ATOM     19  C   UNL A   1      42.337  32.974  30.058  1.00  0.00     0.031 C 
ATOM     20  C   UNL A   1      39.402  26.770  29.460  1.00  0.00     0.029 A 
ATOM     21  C   UNL A   1      40.670  26.947  28.760  1.00  0.00     0.049 A 
ATOM     22  H   UNL A   1      41.997  28.545  28.942  1.00  0.00     0.167 HD
ATOM     23  C   UNL A   1      44.246  32.336  28.628  1.00  0.00     0.031 A 
ATOM     24  C   UNL A   1      41.208  26.073  27.886  1.00  0.00     0.031 A 
ATOM     25  C   UNL A   1      45.012  31.388  27.870  1.00  0.00     0.049 A 
ATOM     26  C   UNL A   1      42.552  26.383  27.279  1.00  0.00     0.074 A 
ATOM     27  C   UNL A   1      46.257  31.544  27.289  1.00  0.00     0.029 A 
ATOM     28  N   UNL A   1      44.602  30.091  27.608  1.00  0.00    -0.354 N 
ATOM     29  N   UNL A   1      43.265  27.479  27.376  1.00  0.00    -0.248 NA
ATOM     30  C   UNL A   1      43.177  25.333  26.463  1.00  0.00     0.031 C 
ATOM     31  C   UNL A   1      46.597  30.339  26.664  1.00  0.00     0.029 A 
ATOM     32  C   UNL A   1      45.571  29.430  26.878  1.00  0.00     0.049 A 
ATOM     33  H   UNL A   1      43.747  29.699  27.899  1.00  0.00     0.167 HD
ATOM     34  C   UNL A   1      44.433  27.237  26.664  1.00  0.00     0.074 A 
ATOM     35  C   UNL A   1      44.341  25.887  26.153  1.00  0.00     0.031 C 
ATOM     36  C   UNL A   1      45.481  28.065  26.438  1.00  0.00     0.031 A 
BRANCH  23  37
ATOM     37  C   UNL A   1      44.768  33.738  28.791  1.00  0.00    -0.014 A 
ATOM     38  C   UNL A   1      44.438  34.744  27.865  1.00  0.00     0.009 A 
ATOM     39  C   UNL A   1      45.615  34.058  29.862  1.00  0.00     0.009 A 
ATOM     40  C   UNL A   1      45.002  36.017  27.967  1.00  0.00     0.001 A 
ATOM     41  C   UNL A   1      46.148  35.344  29.983  1.00  0.00     0.001 A 
ATOM     42  C   UNL A   1      45.855  36.316  29.027  1.00  0.00     0.000 A 
ENDBRANCH  23  37
BRANCH  24  43
ATOM     43  C   UNL A   1      40.468  24.844  27.487  1.00  0.00    -0.014 A 
ATOM     44  C   UNL A   1      40.889  23.570  27.897  1.00  0.00     0.009 A 
ATOM     45  C   UNL A   1      39.359  24.941  26.631  1.00  0.00     0.009 A 
ATOM     46  C   UNL A   1      40.253  22.423  27.411  1.00  0.00     0.001 A 
ATOM     47  C   UNL A   1      38.712  23.795  26.163  1.00  0.00     0.001 A 
ATOM     48  C   UNL A   1      39.170  22.536  26.540  1.00  0.00     0.000 A 
ENDBRANCH  24  43
BRANCH  36  49
ATOM     49  C   UNL A   1      46.648  27.506  25.681  1.00  0.00    -0.014 A 
ATOM     50  C   UNL A   1      46.808  27.751  24.309  1.00  0.00     0.009 A 
ATOM     51  C   UNL A   1      47.635  26.787  26.372  1.00  0.00     0.009 A 
ATOM     52  C   UNL A   1      47.932  27.268  23.638  1.00  0.00     0.001 A 
ATOM     53  C   UNL A   1      48.768  26.324  25.702  1.00  0.00     0.001 A 
ATOM     54  C   UNL A   1      48.912  26.561  24.336  1.00  0.00     0.000 A 
ENDBRANCH  36  49
ENDBRANCH  10  11
ENDBRANCH   3   5
ENDBRANCH   2   3
ENDBRANCH   1   2
BRANCH   1  55
ATOM     55  C   UNL A   1      34.281  34.579  30.108  1.00  0.00     0.274 C 
BRANCH  55  56
ATOM     56  O   UNL A   1      33.675  33.528  29.339  1.00  0.00    -0.462 OA
BRANCH  56  57
ATOM     57  C   UNL A   1      34.453  33.018  28.337  1.00  0.00     0.315 C 
ATOM     58  O   UNL A   1      35.029  33.710  27.507  1.00  0.00    -0.251 OA
BRANCH  57  59
ATOM     59  C   UNL A   1      34.448  31.495  28.279  1.00  0.00     0.148 C 
ATOM     60  C   UNL A   1      35.750  30.815  27.785  1.00  0.00     0.043 C 
ATOM     61  C   UNL A   1      33.442  30.931  27.337  1.00  0.00     0.033 A 
ATOM     62  C   UNL A   1      35.294  29.524  27.086  1.00  0.00     0.124 C 
ATOM     63  N   UNL A   1      33.941  29.842  26.668  1.00  0.00    -0.341 N 
ATOM     64  C   UNL A   1      32.155  31.134  26.927  1.00  0.00     0.025 A 
ATOM     65  C   UNL A   1      33.087  29.417  25.696  1.00  0.00     0.090 A 
ATOM     66  C   UNL A   1      31.935  30.188  25.887  1.00  0.00     0.032 A 
BRANCH  65  67
ATOM     67  C   UNL A   1      33.289  28.494  24.586  1.00  0.00     0.209 C 
ATOM     68  O   UNL A   1      33.278  28.906  23.425  1.00  0.00    -0.287 OA
BRANCH  67  69
ATOM     69  C   UNL A   1      33.481  27.027  24.767  1.00  0.00     0.024 A 
ATOM     70  C   UNL A   1      33.881  26.267  23.657  1.00  0.00     0.012 A 
ATOM     71  C   UNL A   1      33.167  26.371  25.962  1.00  0.00     0.012 A 
ATOM     72  C   UNL A   1      33.981  24.878  23.746  1.00  0.00     0.001 A 
ATOM     73  C   UNL A   1      33.296  24.981  26.057  1.00  0.00     0.001 A 
ATOM     74  C   UNL A   1      33.702  24.236  24.949  1.00  0.00     0.000 A 
ENDBRANCH  67  69
ENDBRANCH  65  67
ENDBRANCH  57  59
ENDBRANCH  56  57
ENDBRANCH  55  56
ENDBRANCH   1  55
TORSDOF 13
ENDMDL
MODEL 2
REMARK VINA RESULT:     -11.2      4.716     10.103
REMARK SMILES O=C(OCCOC(=O)[C@@H]1CCn2c(C(=O)c3ccccc3)ccc21)c1ccc(-c2c3nc(c(-c4ccccc4)c4ccc([nH]4)c(-c4ccccc4)c4nc(c(-c5ccccc5)c5ccc2[nH]5)C=C4)C=C3)cc1
REMARK SMILES IDX 4 1 3 2 2 3 1 4 25 5 26 6 72 7 27 8 71 9 28 10 29 11 30 12
REMARK SMILES IDX 65 13 31 14 70 15 64 16 66 17 32 18 69 19 63 20 62 21 33 23
REMARK SMILES IDX 55 24 40 25 54 26 41 27 44 28 53 29 67 30 42 31 43 32 52 34
REMARK SMILES IDX 68 35 45 36 34 37 35 38 39 39 36 40 38 41 37 42 56 43 57 44
REMARK SMILES IDX 61 45 58 46 60 47 59 48 46 49 47 50 51 51 48 52 50 53 49 54
REMARK SMILES IDX 5 55 6 56 7 57 8 58 9 59 10 60 24 61 11 62 12 63 23 64 13 65
REMARK SMILES IDX 22 66 14 67 15 68 16 69 17 70 21 71 18 72 20 73 19 74
REMARK H PARENT 66 22 44 33
REMARK Flexibility Score: inf
ROOT
ATOM      1  C   UNL A   1      44.056  21.385  25.043  1.00  0.00     0.275 C 
ENDROOT
BRANCH   1   2
ATOM      2  O   UNL A   1      43.589  22.686  24.666  1.00  0.00    -0.458 OA
BRANCH   2   3
ATOM      3  C   UNL A   1      44.227  23.874  24.772  1.00  0.00     0.338 C 
ATOM      4  O   UNL A   1      45.261  24.067  24.138  1.00  0.00    -0.246 OA
BRANCH   3   5
ATOM      5  C   UNL A   1      43.802  24.917  25.748  1.00  0.00     0.060 A 
ATOM      6  C   UNL A   1      44.264  26.236  25.804  1.00  0.00     0.016 A 
ATOM      7  C   UNL A   1      42.922  24.487  26.742  1.00  0.00     0.016 A 
ATOM      8  C   UNL A   1      43.773  27.134  26.767  1.00  0.00     0.010 A 
ATOM      9  C   UNL A   1      42.433  25.378  27.697  1.00  0.00     0.010 A 
ATOM     10  C   UNL A   1      42.834  26.720  27.715  1.00  0.00    -0.014 A 
BRANCH  10  11
ATOM     11  C   UNL A   1      42.320  27.613  28.793  1.00  0.00     0.031 A 
ATOM     12  C   UNL A   1      42.950  27.532  30.160  1.00  0.00     0.074 A 
ATOM     13  C   UNL A   1      41.230  28.383  28.603  1.00  0.00     0.049 A 
ATOM     14  N   UNL A   1      42.533  28.019  31.302  1.00  0.00    -0.248 NA
ATOM     15  C   UNL A   1      44.201  26.762  30.252  1.00  0.00     0.031 C 
ATOM     16  C   UNL A   1      40.486  28.519  27.351  1.00  0.00     0.029 A 
ATOM     17  N   UNL A   1      40.514  29.153  29.491  1.00  0.00    -0.354 N 
ATOM     18  C   UNL A   1      43.436  27.549  32.252  1.00  0.00     0.074 A 
ATOM     19  C   UNL A   1      44.382  26.704  31.562  1.00  0.00     0.031 C 
ATOM     20  C   UNL A   1      39.378  29.248  27.568  1.00  0.00     0.029 A 
ATOM     21  C   UNL A   1      39.336  29.641  28.972  1.00  0.00     0.049 A 
ATOM     22  H   UNL A   1      40.815  29.336  30.410  1.00  0.00     0.167 HD
ATOM     23  C   UNL A   1      43.500  27.824  33.578  1.00  0.00     0.031 A 
ATOM     24  C   UNL A   1      38.324  30.300  29.569  1.00  0.00     0.031 A 
ATOM     25  C   UNL A   1      42.598  28.713  34.251  1.00  0.00     0.049 A 
ATOM     26  C   UNL A   1      38.452  30.673  31.022  1.00  0.00     0.074 A 
ATOM     27  C   UNL A   1      42.625  29.147  35.564  1.00  0.00     0.029 A 
ATOM     28  N   UNL A   1      41.510  29.320  33.646  1.00  0.00    -0.354 N 
ATOM     29  N   UNL A   1      39.388  30.337  31.878  1.00  0.00    -0.248 NA
ATOM     30  C   UNL A   1      37.403  31.533  31.589  1.00  0.00     0.031 C 
ATOM     31  C   UNL A   1      41.542  30.013  35.756  1.00  0.00     0.029 A 
ATOM     32  C   UNL A   1      40.858  30.132  34.555  1.00  0.00     0.049 A 
ATOM     33  H   UNL A   1      41.240  29.192  32.708  1.00  0.00     0.167 HD
ATOM     34  C   UNL A   1      39.057  30.970  33.070  1.00  0.00     0.074 A 
ATOM     35  C   UNL A   1      37.846  31.722  32.825  1.00  0.00     0.031 C 
ATOM     36  C   UNL A   1      39.691  30.919  34.266  1.00  0.00     0.031 A 
BRANCH  23  37
ATOM     37  C   UNL A   1      44.610  27.173  34.359  1.00  0.00    -0.014 A 
ATOM     38  C   UNL A   1      44.418  25.931  34.989  1.00  0.00     0.009 A 
ATOM     39  C   UNL A   1      45.851  27.813  34.491  1.00  0.00     0.009 A 
ATOM     40  C   UNL A   1      45.418  25.380  35.792  1.00  0.00     0.001 A 
ATOM     41  C   UNL A   1      46.864  27.240  35.264  1.00  0.00     0.001 A 
ATOM     42  C   UNL A   1      46.641  26.033  35.928  1.00  0.00     0.000 A 
ENDBRANCH  23  37
BRANCH  24  43
ATOM     43  C   UNL A   1      37.075  30.614  28.819  1.00  0.00    -0.014 A 
ATOM     44  C   UNL A   1      36.770  31.924  28.422  1.00  0.00     0.009 A 
ATOM     45  C   UNL A   1      36.145  29.597  28.551  1.00  0.00     0.009 A 
ATOM     46  C   UNL A   1      35.536  32.215  27.829  1.00  0.00     0.001 A 
ATOM     47  C   UNL A   1      34.922  29.886  27.940  1.00  0.00     0.001 A 
ATOM     48  C   UNL A   1      34.612  31.198  27.594  1.00  0.00     0.000 A 
ENDBRANCH  24  43
BRANCH  36  49
ATOM     49  C   UNL A   1      39.139  31.766  35.372  1.00  0.00    -0.014 A 
ATOM     50  C   UNL A   1      39.434  33.135  35.456  1.00  0.00     0.009 A 
ATOM     51  C   UNL A   1      38.253  31.196  36.299  1.00  0.00     0.009 A 
ATOM     52  C   UNL A   1      38.863  33.914  36.463  1.00  0.00     0.001 A 
ATOM     53  C   UNL A   1      37.668  31.982  37.292  1.00  0.00     0.001 A 
ATOM     54  C   UNL A   1      37.977  33.339  37.375  1.00  0.00     0.000 A 
ENDBRANCH  36  49
ENDBRANCH  10  11
ENDBRANCH   3   5
ENDBRANCH   2   3
ENDBRANCH   1   2
BRANCH   1  55
ATOM     55  C   UNL A   1      43.062  20.542  25.835  1.00  0.00     0.274 C 
BRANCH  55  56
ATOM     56  O   UNL A   1      42.420  21.203  26.938  1.00  0.00    -0.462 OA
BRANCH  56  57
ATOM     57  C   UNL A   1      41.088  20.930  27.083  1.00  0.00     0.315 C 
ATOM     58  O   UNL A   1      40.655  20.001  27.753  1.00  0.00    -0.251 OA
BRANCH  57  59
ATOM     59  C   UNL A   1      40.189  21.825  26.237  1.00  0.00     0.148 C 
ATOM     60  C   UNL A   1      39.563  23.051  26.949  1.00  0.00     0.043 C 
ATOM     61  C   UNL A   1      38.978  21.137  25.709  1.00  0.00     0.033 A 
ATOM     62  C   UNL A   1      38.213  23.282  26.251  1.00  0.00     0.124 C 
ATOM     63  N   UNL A   1      37.882  21.962  25.742  1.00  0.00    -0.341 N 
ATOM     64  C   UNL A   1      38.598  19.940  25.175  1.00  0.00     0.025 A 
ATOM     65  C   UNL A   1      36.743  21.296  25.409  1.00  0.00     0.090 A 
ATOM     66  C   UNL A   1      37.189  20.035  24.995  1.00  0.00     0.032 A 
BRANCH  65  67
ATOM     67  C   UNL A   1      35.342  21.669  25.555  1.00  0.00     0.209 C 
ATOM     68  O   UNL A   1      34.841  21.776  26.676  1.00  0.00    -0.287 OA
BRANCH  67  69
ATOM     69  C   UNL A   1      34.434  21.904  24.398  1.00  0.00     0.024 A 
ATOM     70  C   UNL A   1      34.708  22.987  23.547  1.00  0.00     0.012 A 
ATOM     71  C   UNL A   1      33.264  21.164  24.197  1.00  0.00     0.012 A 
ATOM     72  C   UNL A   1      33.837  23.311  22.506  1.00  0.00     0.001 A 
ATOM     73  C   UNL A   1      32.407  21.473  23.136  1.00  0.00     0.001 A 
ATOM     74  C   UNL A   1      32.694  22.546  22.291  1.00  0.00     0.000 A 
ENDBRANCH  67  69
ENDBRANCH  65  67
ENDBRANCH  57  59
ENDBRANCH  56  57
ENDBRANCH  55  56
ENDBRANCH   1  55
TORSDOF 13
ENDMDL
MODEL 3
REMARK VINA RESULT:     -11.1      3.190      4.895
REMARK SMILES O=C(OCCOC(=O)[C@@H]1CCn2c(C(=O)c3ccccc3)ccc21)c1ccc(-c2c3nc(c(-c4ccccc4)c4ccc([nH]4)c(-c4ccccc4)c4nc(c(-c5ccccc5)c5ccc2[nH]5)C=C4)C=C3)cc1
REMARK SMILES IDX 4 1 3 2 2 3 1 4 25 5 26 6 72 7 27 8 71 9 28 10 29 11 30 12
REMARK SMILES IDX 65 13 31 14 70 15 64 16 66 17 32 18 69 19 63 20 62 21 33 23
REMARK SMILES IDX 55 24 40 25 54 26 41 27 44 28 53 29 67 30 42 31 43 32 52 34
REMARK SMILES IDX 68 35 45 36 34 37 35 38 39 39 36 40 38 41 37 42 56 43 57 44
REMARK SMILES IDX 61 45 58 46 60 47 59 48 46 49 47 50 51 51 48 52 50 53 49 54
REMARK SMILES IDX 5 55 6 56 7 57 8 58 9 59 10 60 24 61 11 62 12 63 23 64 13 65
REMARK SMILES IDX 22 66 14 67 15 68 16 69 17 70 21 71 18 72 20 73 19 74
REMARK H PARENT 66 22 44 33
REMARK Flexibility Score: inf
ROOT
ATOM      1  C   UNL A   1      32.491  29.469  27.222  1.00  0.00     0.275 C 
ENDROOT
BRANCH   1   2
ATOM      2  O   UNL A   1      33.744  30.141  27.041  1.00  0.00    -0.458 OA
BRANCH   2   3
ATOM      3  C   UNL A   1      34.520  30.741  27.971  1.00  0.00     0.338 C 
ATOM      4  O   UNL A   1      34.212  31.852  28.396  1.00  0.00    -0.246 OA
BRANCH   3   5
ATOM      5  C   UNL A   1      35.826  30.167  28.402  1.00  0.00     0.060 A 
ATOM      6  C   UNL A   1      36.155  29.728  29.688  1.00  0.00     0.016 A 
ATOM      7  C   UNL A   1      36.828  30.158  27.430  1.00  0.00     0.016 A 
ATOM      8  C   UNL A   1      37.423  29.190  29.968  1.00  0.00     0.010 A 
ATOM      9  C   UNL A   1      38.086  29.622  27.706  1.00  0.00     0.010 A 
ATOM     10  C   UNL A   1      38.400  29.112  28.972  1.00  0.00    -0.014 A 
BRANCH  10  11
ATOM     11  C   UNL A   1      39.777  28.602  29.225  1.00  0.00     0.031 A 
ATOM     12  C   UNL A   1      40.848  29.583  29.630  1.00  0.00     0.074 A 
ATOM     13  C   UNL A   1      40.107  27.320  28.970  1.00  0.00     0.049 A 
ATOM     14  N   UNL A   1      42.148  29.431  29.671  1.00  0.00    -0.248 NA
ATOM     15  C   UNL A   1      40.385  30.931  29.999  1.00  0.00     0.031 C 
ATOM     16  C   UNL A   1      39.188  26.274  28.522  1.00  0.00     0.029 A 
ATOM     17  N   UNL A   1      41.331  26.691  28.990  1.00  0.00    -0.354 N 
ATOM     18  C   UNL A   1      42.654  30.686  30.002  1.00  0.00     0.074 A 
ATOM     19  C   UNL A   1      41.530  31.588  30.096  1.00  0.00     0.031 C 
ATOM     20  C   UNL A   1      39.886  25.164  28.228  1.00  0.00     0.029 A 
ATOM     21  C   UNL A   1      41.302  25.414  28.476  1.00  0.00     0.049 A 
ATOM     22  H   UNL A   1      42.148  27.113  29.339  1.00  0.00     0.167 HD
ATOM     23  C   UNL A   1      43.935  31.053  30.244  1.00  0.00     0.031 A 
ATOM     24  C   UNL A   1      42.306  24.558  28.204  1.00  0.00     0.031 A 
ATOM     25  C   UNL A   1      45.044  30.142  30.211  1.00  0.00     0.049 A 
ATOM     26  C   UNL A   1      43.716  24.949  28.562  1.00  0.00     0.074 A 
ATOM     27  C   UNL A   1      46.368  30.374  30.538  1.00  0.00     0.029 A 
ATOM     28  N   UNL A   1      44.945  28.810  29.844  1.00  0.00    -0.354 N 
ATOM     29  N   UNL A   1      44.162  26.099  29.009  1.00  0.00    -0.248 NA
ATOM     30  C   UNL A   1      44.757  23.924  28.403  1.00  0.00     0.031 C 
ATOM     31  C   UNL A   1      47.074  29.179  30.357  1.00  0.00     0.029 A 
ATOM     32  C   UNL A   1      46.181  28.202  29.940  1.00  0.00     0.049 A 
ATOM     33  H   UNL A   1      44.116  28.364  29.556  1.00  0.00     0.167 HD
ATOM     34  C   UNL A   1      45.525  25.924  29.213  1.00  0.00     0.074 A 
ATOM     35  C   UNL A   1      45.831  24.555  28.859  1.00  0.00     0.031 C 
ATOM     36  C   UNL A   1      46.445  26.821  29.642  1.00  0.00     0.031 A 
BRANCH  23  37
ATOM     37  C   UNL A   1      44.180  32.495  30.598  1.00  0.00    -0.014 A 
ATOM     38  C   UNL A   1      44.096  32.936  31.930  1.00  0.00     0.009 A 
ATOM     39  C   UNL A   1      44.473  33.430  29.594  1.00  0.00     0.009 A 
ATOM     40  C   UNL A   1      44.228  34.290  32.240  1.00  0.00     0.001 A 
ATOM     41  C   UNL A   1      44.643  34.779  29.913  1.00  0.00     0.001 A 
ATOM     42  C   UNL A   1      44.503  35.211  31.231  1.00  0.00     0.000 A 
ENDBRANCH  23  37
BRANCH  24  43
ATOM     43  C   UNL A   1      42.036  23.263  27.518  1.00  0.00    -0.014 A 
ATOM     44  C   UNL A   1      41.480  22.173  28.202  1.00  0.00     0.009 A 
ATOM     45  C   UNL A   1      42.398  23.097  26.171  1.00  0.00     0.009 A 
ATOM     46  C   UNL A   1      41.350  20.931  27.571  1.00  0.00     0.001 A 
ATOM     47  C   UNL A   1      42.248  21.862  25.535  1.00  0.00     0.001 A 
ATOM     48  C   UNL A   1      41.739  20.775  26.241  1.00  0.00     0.000 A 
ENDBRANCH  24  43
BRANCH  36  49
ATOM     49  C   UNL A   1      47.847  26.329  29.834  1.00  0.00    -0.014 A 
ATOM     50  C   UNL A   1      48.775  26.348  28.783  1.00  0.00     0.009 A 
ATOM     51  C   UNL A   1      48.261  25.911  31.109  1.00  0.00     0.009 A 
ATOM     52  C   UNL A   1      50.091  25.938  29.002  1.00  0.00     0.001 A 
ATOM     53  C   UNL A   1      49.582  25.521  31.328  1.00  0.00     0.001 A 
ATOM     54  C   UNL A   1      50.494  25.531  30.274  1.00  0.00     0.000 A 
ENDBRANCH  36  49
ENDBRANCH  10  11
ENDBRANCH   3   5
ENDBRANCH   2   3
ENDBRANCH   1   2
BRANCH   1  55
ATOM     55  C   UNL A   1      32.527  27.959  27.006  1.00  0.00     0.274 C 
BRANCH  55  56
ATOM     56  O   UNL A   1      33.377  27.499  25.943  1.00  0.00    -0.462 OA
BRANCH  56  57
ATOM     57  C   UNL A   1      32.855  26.497  25.173  1.00  0.00     0.315 C 
ATOM     58  O   UNL A   1      32.976  25.307  25.436  1.00  0.00    -0.251 OA
BRANCH  57  59
ATOM     59  C   UNL A   1      32.200  26.995  23.890  1.00  0.00     0.148 C 
ATOM     60  C   UNL A   1      32.338  28.509  23.583  1.00  0.00     0.043 C 
ATOM     61  C   UNL A   1      30.723  26.818  23.858  1.00  0.00     0.033 A 
ATOM     62  C   UNL A   1      31.061  28.885  22.814  1.00  0.00     0.124 C 
ATOM     63  N   UNL A   1      30.104  27.892  23.269  1.00  0.00    -0.341 N 
ATOM     64  C   UNL A   1      29.764  25.912  24.211  1.00  0.00     0.025 A 
ATOM     65  C   UNL A   1      28.749  27.810  23.375  1.00  0.00     0.090 A 
ATOM     66  C   UNL A   1      28.521  26.540  23.917  1.00  0.00     0.032 A 
BRANCH  65  67
ATOM     67  C   UNL A   1      27.712  28.809  23.146  1.00  0.00     0.209 C 
ATOM     68  O   UNL A   1      26.531  28.540  23.370  1.00  0.00    -0.287 OA
BRANCH  67  69
ATOM     69  C   UNL A   1      27.993  30.170  22.609  1.00  0.00     0.024 A 
ATOM     70  C   UNL A   1      28.140  31.228  23.520  1.00  0.00     0.012 A 
ATOM     71  C   UNL A   1      28.000  30.450  21.238  1.00  0.00     0.012 A 
ATOM     72  C   UNL A   1      28.307  32.537  23.068  1.00  0.00     0.001 A 
ATOM     73  C   UNL A   1      28.196  31.759  20.787  1.00  0.00     0.001 A 
ATOM     74  C   UNL A   1      28.349  32.802  21.702  1.00  0.00     0.000 A 
ENDBRANCH  67  69
ENDBRANCH  65  67
ENDBRANCH  57  59
ENDBRANCH  56  57
ENDBRANCH  55  56
ENDBRANCH   1  55
TORSDOF 13
ENDMDL
