MODEL 1
REMARK VINA RESULT:     -10.3      0.000      0.000
REMARK SMILES O=C(OCCOC(=O)[C@H]1C[C@@H](O)CN1C(=O)c1cc(F)c(F)cc1Cl)c1ccc(-c2c3nc(c(-c4ccccc4)c4ccc([nH]4)c(-c4ccccc4)c4nc(c(-c5ccccc5)c5ccc2[nH]5)C=C4)C=C3)cc1
REMARK SMILES IDX 4 1 3 2 2 3 1 4 26 5 27 6 73 7 28 8 72 9 29 10 30 11 31 12
REMARK SMILES IDX 66 13 32 14 71 15 65 16 67 17 33 18 70 19 64 20 63 21 34 23
REMARK SMILES IDX 56 24 41 25 55 26 42 27 45 28 54 29 68 30 43 31 44 32 53 34
REMARK SMILES IDX 69 35 46 36 35 37 36 38 40 39 37 40 39 41 38 42 57 43 58 44
REMARK SMILES IDX 62 45 59 46 61 47 60 48 47 49 48 50 52 51 49 52 51 53 50 54
REMARK SMILES IDX 5 55 6 56 7 57 8 58 9 59 10 60 14 61 11 62 13 63 15 64 16 65
REMARK SMILES IDX 17 66 18 67 24 68 19 69 23 70 25 71 20 72 21 73 22 74 12 75
REMARK H PARENT 67 22 45 33 12 76
REMARK Flexibility Score: inf
ROOT
ATOM      1  C   UNL A   1      34.373  32.772  28.036  1.00  0.00     0.275 C 
ENDROOT
BRANCH   1   2
ATOM      2  O   UNL A   1      33.661  31.546  27.810  1.00  0.00    -0.458 OA
BRANCH   2   3
ATOM      3  C   UNL A   1      34.225  30.336  27.569  1.00  0.00     0.338 C 
ATOM      4  O   UNL A   1      33.541  29.419  27.121  1.00  0.00    -0.246 OA
BRANCH   3   5
ATOM      5  C   UNL A   1      35.564  30.001  28.140  1.00  0.00     0.060 A 
ATOM      6  C   UNL A   1      36.637  30.056  27.238  1.00  0.00     0.016 A 
ATOM      7  C   UNL A   1      35.839  29.677  29.472  1.00  0.00     0.016 A 
ATOM      8  C   UNL A   1      37.915  29.648  27.624  1.00  0.00     0.010 A 
ATOM      9  C   UNL A   1      37.136  29.303  29.873  1.00  0.00     0.010 A 
ATOM     10  C   UNL A   1      38.180  29.234  28.944  1.00  0.00    -0.014 A 
BRANCH  10  11
ATOM     11  C   UNL A   1      39.570  28.847  29.307  1.00  0.00     0.031 A 
ATOM     12  C   UNL A   1      40.435  29.628  30.262  1.00  0.00     0.074 A 
ATOM     13  C   UNL A   1      40.020  27.662  28.860  1.00  0.00     0.049 A 
ATOM     14  N   UNL A   1      41.394  29.176  31.036  1.00  0.00    -0.248 NA
ATOM     15  C   UNL A   1      40.195  31.067  30.413  1.00  0.00     0.031 C 
ATOM     16  C   UNL A   1      39.296  26.786  27.939  1.00  0.00     0.029 A 
ATOM     17  N   UNL A   1      41.174  26.979  29.144  1.00  0.00    -0.354 N 
ATOM     18  C   UNL A   1      41.754  30.236  31.859  1.00  0.00     0.074 A 
ATOM     19  C   UNL A   1      40.963  31.375  31.454  1.00  0.00     0.031 C 
ATOM     20  C   UNL A   1      40.005  25.665  27.762  1.00  0.00     0.029 A 
ATOM     21  C   UNL A   1      41.251  25.765  28.515  1.00  0.00     0.049 A 
ATOM     22  H   UNL A   1      41.875  27.327  29.742  1.00  0.00     0.167 HD
ATOM     23  C   UNL A   1      42.669  30.250  32.854  1.00  0.00     0.031 A 
ATOM     24  C   UNL A   1      42.220  24.832  28.526  1.00  0.00     0.031 A 
ATOM     25  C   UNL A   1      43.650  29.218  33.060  1.00  0.00     0.049 A 
ATOM     26  C   UNL A   1      43.408  25.019  29.420  1.00  0.00     0.074 A 
ATOM     27  C   UNL A   1      44.680  29.194  33.985  1.00  0.00     0.029 A 
ATOM     28  N   UNL A   1      43.802  28.101  32.258  1.00  0.00    -0.354 N 
ATOM     29  N   UNL A   1      43.611  25.937  30.332  1.00  0.00    -0.248 NA
ATOM     30  C   UNL A   1      44.494  24.039  29.294  1.00  0.00     0.031 C 
ATOM     31  C   UNL A   1      45.528  28.133  33.657  1.00  0.00     0.029 A 
ATOM     32  C   UNL A   1      44.971  27.441  32.594  1.00  0.00     0.049 A 
ATOM     33  H   UNL A   1      43.173  27.818  31.556  1.00  0.00     0.167 HD
ATOM     34  C   UNL A   1      44.837  25.633  30.910  1.00  0.00     0.074 A 
ATOM     35  C   UNL A   1      45.329  24.444  30.245  1.00  0.00     0.031 C 
ATOM     36  C   UNL A   1      45.480  26.278  31.913  1.00  0.00     0.031 A 
BRANCH  23  37
ATOM     37  C   UNL A   1      42.734  31.422  33.788  1.00  0.00    -0.014 A 
ATOM     38  C   UNL A   1      41.853  31.518  34.875  1.00  0.00     0.009 A 
ATOM     39  C   UNL A   1      43.497  32.545  33.423  1.00  0.00     0.009 A 
ATOM     40  C   UNL A   1      41.715  32.725  35.565  1.00  0.00     0.001 A 
ATOM     41  C   UNL A   1      43.348  33.750  34.110  1.00  0.00     0.001 A 
ATOM     42  C   UNL A   1      42.454  33.841  35.176  1.00  0.00     0.000 A 
ENDBRANCH  23  37
BRANCH  24  43
ATOM     43  C   UNL A   1      42.069  23.655  27.636  1.00  0.00    -0.014 A 
ATOM     44  C   UNL A   1      41.398  22.511  28.105  1.00  0.00     0.009 A 
ATOM     45  C   UNL A   1      42.684  23.614  26.379  1.00  0.00     0.009 A 
ATOM     46  C   UNL A   1      41.397  21.332  27.362  1.00  0.00     0.001 A 
ATOM     47  C   UNL A   1      42.651  22.442  25.621  1.00  0.00     0.001 A 
ATOM     48  C   UNL A   1      42.025  21.300  26.120  1.00  0.00     0.000 A 
ENDBRANCH  24  43
BRANCH  36  49
ATOM     49  C   UNL A   1      46.803  25.730  32.369  1.00  0.00    -0.014 A 
ATOM     50  C   UNL A   1      46.859  24.900  33.501  1.00  0.00     0.009 A 
ATOM     51  C   UNL A   1      48.000  26.107  31.742  1.00  0.00     0.009 A 
ATOM     52  C   UNL A   1      48.086  24.468  34.003  1.00  0.00     0.001 A 
ATOM     53  C   UNL A   1      49.225  25.643  32.226  1.00  0.00     0.001 A 
ATOM     54  C   UNL A   1      49.268  24.832  33.361  1.00  0.00     0.000 A 
ENDBRANCH  36  49
ENDBRANCH  10  11
ENDBRANCH   3   5
ENDBRANCH   2   3
ENDBRANCH   1   2
BRANCH   1  55
ATOM     55  C   UNL A   1      33.467  34.006  28.037  1.00  0.00     0.274 C 
BRANCH  55  56
ATOM     56  O   UNL A   1      34.065  35.149  28.677  1.00  0.00    -0.461 OA
BRANCH  56  57
ATOM     57  C   UNL A   1      33.266  35.854  29.541  1.00  0.00     0.329 C 
ATOM     58  O   UNL A   1      32.155  36.275  29.251  1.00  0.00    -0.250 OA
BRANCH  57  59
ATOM     59  C   UNL A   1      33.966  36.119  30.898  1.00  0.00     0.198 C 
ATOM     60  C   UNL A   1      33.278  37.226  31.703  1.00  0.00     0.071 C 
ATOM     61  N   UNL A   1      33.995  34.982  31.831  1.00  0.00    -0.322 N 
ATOM     62  C   UNL A   1      32.454  36.463  32.738  1.00  0.00     0.136 C 
ATOM     63  C   UNL A   1      33.365  35.316  33.106  1.00  0.00     0.152 C 
BRANCH  61  64
ATOM     64  C   UNL A   1      34.773  33.873  31.603  1.00  0.00     0.256 C 
ATOM     65  O   UNL A   1      34.336  32.750  31.392  1.00  0.00    -0.269 OA
BRANCH  64  66
ATOM     66  C   UNL A   1      36.230  34.071  31.671  1.00  0.00     0.061 A 
ATOM     67  C   UNL A   1      36.940  34.099  30.463  1.00  0.00     0.057 A 
ATOM     68  C   UNL A   1      36.892  34.171  32.899  1.00  0.00     0.056 A 
ATOM     69  C   UNL A   1      38.320  34.232  30.500  1.00  0.00     0.159 A 
ATOM     70  C   UNL A   1      38.279  34.321  32.919  1.00  0.00     0.063 A 
ATOM     71  Cl  UNL A   1      36.062  34.055  34.406  1.00  0.00    -0.083 Cl
ATOM     72  F   UNL A   1      39.009  34.226  29.352  1.00  0.00    -0.204 F 
ATOM     73  C   UNL A   1      38.982  34.360  31.717  1.00  0.00     0.160 A 
ATOM     74  F   UNL A   1      40.312  34.515  31.745  1.00  0.00    -0.204 F 
ENDBRANCH  64  66
ENDBRANCH  61  64
BRANCH  62  75
ATOM     75  O   UNL A   1      31.267  35.923  32.167  1.00  0.00    -0.391 OA
ATOM     76  H   UNL A   1      30.941  36.520  31.476  1.00  0.00     0.211 HD
ENDBRANCH  62  75
ENDBRANCH  57  59
ENDBRANCH  56  57
ENDBRANCH  55  56
ENDBRANCH   1  55
TORSDOF 14
ENDMDL
MODEL 2
REMARK VINA RESULT:     -10.2      4.056      9.051
REMARK SMILES O=C(OCCOC(=O)[C@H]1C[C@@H](O)CN1C(=O)c1cc(F)c(F)cc1Cl)c1ccc(-c2c3nc(c(-c4ccccc4)c4ccc([nH]4)c(-c4ccccc4)c4nc(c(-c5ccccc5)c5ccc2[nH]5)C=C4)C=C3)cc1
REMARK SMILES IDX 4 1 3 2 2 3 1 4 26 5 27 6 73 7 28 8 72 9 29 10 30 11 31 12
REMARK SMILES IDX 66 13 32 14 71 15 65 16 67 17 33 18 70 19 64 20 63 21 34 23
REMARK SMILES IDX 56 24 41 25 55 26 42 27 45 28 54 29 68 30 43 31 44 32 53 34
REMARK SMILES IDX 69 35 46 36 35 37 36 38 40 39 37 40 39 41 38 42 57 43 58 44
REMARK SMILES IDX 62 45 59 46 61 47 60 48 47 49 48 50 52 51 49 52 51 53 50 54
REMARK SMILES IDX 5 55 6 56 7 57 8 58 9 59 10 60 14 61 11 62 13 63 15 64 16 65
REMARK SMILES IDX 17 66 18 67 24 68 19 69 23 70 25 71 20 72 21 73 22 74 12 75
REMARK H PARENT 67 22 45 33 12 76
REMARK Flexibility Score: inf
ROOT
ATOM      1  C   UNL A   1      37.154  22.001  24.944  1.00  0.00     0.275 C 
ENDROOT
BRANCH   1   2
ATOM      2  O   UNL A   1      37.683  23.098  25.705  1.00  0.00    -0.458 OA
BRANCH   2   3
ATOM      3  C   UNL A   1      38.900  23.132  26.305  1.00  0.00     0.338 C 
ATOM      4  O   UNL A   1      39.438  22.087  26.661  1.00  0.00    -0.246 OA
BRANCH   3   5
ATOM      5  C   UNL A   1      39.443  24.419  26.833  1.00  0.00     0.060 A 
ATOM      6  C   UNL A   1      39.080  24.734  28.151  1.00  0.00     0.016 A 
ATOM      7  C   UNL A   1      40.292  25.300  26.154  1.00  0.00     0.016 A 
ATOM      8  C   UNL A   1      39.427  25.966  28.711  1.00  0.00     0.010 A 
ATOM      9  C   UNL A   1      40.674  26.526  26.734  1.00  0.00     0.010 A 
ATOM     10  C   UNL A   1      40.206  26.897  27.999  1.00  0.00    -0.014 A 
BRANCH  10  11
ATOM     11  C   UNL A   1      40.577  28.176  28.661  1.00  0.00     0.031 A 
ATOM     12  C   UNL A   1      39.661  29.369  28.754  1.00  0.00     0.074 A 
ATOM     13  C   UNL A   1      41.743  28.213  29.328  1.00  0.00     0.049 A 
ATOM     14  N   UNL A   1      39.630  30.293  29.685  1.00  0.00    -0.248 NA
ATOM     15  C   UNL A   1      38.631  29.547  27.724  1.00  0.00     0.031 C 
ATOM     16  C   UNL A   1      42.732  27.136  29.343  1.00  0.00     0.029 A 
ATOM     17  N   UNL A   1      42.276  29.177  30.144  1.00  0.00    -0.354 N 
ATOM     18  C   UNL A   1      38.498  31.057  29.431  1.00  0.00     0.074 A 
ATOM     19  C   UNL A   1      37.898  30.537  28.225  1.00  0.00     0.031 C 
ATOM     20  C   UNL A   1      43.736  27.482  30.159  1.00  0.00     0.029 A 
ATOM     21  C   UNL A   1      43.484  28.821  30.682  1.00  0.00     0.049 A 
ATOM     22  H   UNL A   1      41.833  30.037  30.326  1.00  0.00     0.167 HD
ATOM     23  C   UNL A   1      38.016  32.101  30.142  1.00  0.00     0.031 A 
ATOM     24  C   UNL A   1      44.314  29.497  31.498  1.00  0.00     0.031 A 
ATOM     25  C   UNL A   1      38.761  32.796  31.158  1.00  0.00     0.049 A 
ATOM     26  C   UNL A   1      43.889  30.828  32.038  1.00  0.00     0.074 A 
ATOM     27  C   UNL A   1      38.388  33.927  31.865  1.00  0.00     0.029 A 
ATOM     28  N   UNL A   1      40.065  32.506  31.519  1.00  0.00    -0.354 N 
ATOM     29  N   UNL A   1      42.725  31.420  31.934  1.00  0.00    -0.248 NA
ATOM     30  C   UNL A   1      44.884  31.578  32.813  1.00  0.00     0.031 C 
ATOM     31  C   UNL A   1      39.511  34.395  32.551  1.00  0.00     0.029 A 
ATOM     32  C   UNL A   1      40.550  33.499  32.351  1.00  0.00     0.049 A 
ATOM     33  H   UNL A   1      40.570  31.713  31.228  1.00  0.00     0.167 HD
ATOM     34  C   UNL A   1      42.836  32.603  32.653  1.00  0.00     0.074 A 
ATOM     35  C   UNL A   1      44.182  32.641  33.189  1.00  0.00     0.031 C 
ATOM     36  C   UNL A   1      41.897  33.558  32.858  1.00  0.00     0.031 A 
BRANCH  23  37
ATOM     37  C   UNL A   1      36.645  32.634  29.844  1.00  0.00    -0.014 A 
ATOM     38  C   UNL A   1      36.471  33.677  28.923  1.00  0.00     0.009 A 
ATOM     39  C   UNL A   1      35.574  32.269  30.677  1.00  0.00     0.009 A 
ATOM     40  C   UNL A   1      35.256  34.364  28.858  1.00  0.00     0.001 A 
ATOM     41  C   UNL A   1      34.366  32.964  30.615  1.00  0.00     0.001 A 
ATOM     42  C   UNL A   1      34.209  34.014  29.710  1.00  0.00     0.000 A 
ENDBRANCH  23  37
BRANCH  24  43
ATOM     43  C   UNL A   1      45.628  28.888  31.819  1.00  0.00    -0.014 A 
ATOM     44  C   UNL A   1      46.705  29.049  30.929  1.00  0.00     0.009 A 
ATOM     45  C   UNL A   1      45.787  28.056  32.934  1.00  0.00     0.009 A 
ATOM     46  C   UNL A   1      47.892  28.343  31.113  1.00  0.00     0.001 A 
ATOM     47  C   UNL A   1      46.990  27.377  33.135  1.00  0.00     0.001 A 
ATOM     48  C   UNL A   1      48.033  27.507  32.218  1.00  0.00     0.000 A 
ENDBRANCH  24  43
BRANCH  36  49
ATOM     49  C   UNL A   1      42.272  34.747  33.697  1.00  0.00    -0.014 A 
ATOM     50  C   UNL A   1      42.862  35.868  33.089  1.00  0.00     0.009 A 
ATOM     51  C   UNL A   1      42.131  34.726  35.092  1.00  0.00     0.009 A 
ATOM     52  C   UNL A   1      43.313  36.938  33.862  1.00  0.00     0.001 A 
ATOM     53  C   UNL A   1      42.552  35.814  35.859  1.00  0.00     0.001 A 
ATOM     54  C   UNL A   1      43.151  36.914  35.245  1.00  0.00     0.000 A 
ENDBRANCH  36  49
ENDBRANCH  10  11
ENDBRANCH   3   5
ENDBRANCH   2   3
ENDBRANCH   1   2
BRANCH   1  55
ATOM     55  C   UNL A   1      35.653  22.126  24.667  1.00  0.00     0.274 C 
BRANCH  55  56
ATOM     56  O   UNL A   1      35.198  23.490  24.611  1.00  0.00    -0.461 OA
BRANCH  56  57
ATOM     57  C   UNL A   1      34.166  23.827  25.449  1.00  0.00     0.329 C 
ATOM     58  O   UNL A   1      34.228  23.756  26.669  1.00  0.00    -0.250 OA
BRANCH  57  59
ATOM     59  C   UNL A   1      32.890  24.234  24.670  1.00  0.00     0.198 C 
ATOM     60  C   UNL A   1      31.674  23.385  25.057  1.00  0.00     0.071 C 
ATOM     61  N   UNL A   1      32.428  25.614  24.882  1.00  0.00    -0.322 N 
ATOM     62  C   UNL A   1      30.890  24.287  26.008  1.00  0.00     0.136 C 
ATOM     63  C   UNL A   1      31.055  25.651  25.381  1.00  0.00     0.152 C 
BRANCH  61  64
ATOM     64  C   UNL A   1      33.117  26.696  24.392  1.00  0.00     0.256 C 
ATOM     65  O   UNL A   1      33.726  26.707  23.330  1.00  0.00    -0.269 OA
BRANCH  64  66
ATOM     66  C   UNL A   1      33.149  27.894  25.246  1.00  0.00     0.061 A 
ATOM     67  C   UNL A   1      34.070  27.916  26.302  1.00  0.00     0.057 A 
ATOM     68  C   UNL A   1      32.254  28.951  25.047  1.00  0.00     0.056 A 
ATOM     69  C   UNL A   1      34.086  29.011  27.154  1.00  0.00     0.159 A 
ATOM     70  C   UNL A   1      32.293  30.052  25.903  1.00  0.00     0.063 A 
ATOM     71  Cl  UNL A   1      31.052  28.920  23.811  1.00  0.00    -0.083 Cl
ATOM     72  F   UNL A   1      34.940  29.024  28.185  1.00  0.00    -0.204 F 
ATOM     73  C   UNL A   1      33.217  30.077  26.945  1.00  0.00     0.160 A 
ATOM     74  F   UNL A   1      33.255  31.143  27.756  1.00  0.00    -0.204 F 
ENDBRANCH  64  66
ENDBRANCH  61  64
BRANCH  62  75
ATOM     75  O   UNL A   1      31.479  24.319  27.303  1.00  0.00    -0.391 OA
ATOM     76  H   UNL A   1      32.444  24.273  27.221  1.00  0.00     0.211 HD
ENDBRANCH  62  75
ENDBRANCH  57  59
ENDBRANCH  56  57
ENDBRANCH  55  56
ENDBRANCH   1  55
TORSDOF 14
ENDMDL
MODEL 3
REMARK VINA RESULT:     -10.2      4.356      9.277
REMARK SMILES O=C(OCCOC(=O)[C@H]1C[C@@H](O)CN1C(=O)c1cc(F)c(F)cc1Cl)c1ccc(-c2c3nc(c(-c4ccccc4)c4ccc([nH]4)c(-c4ccccc4)c4nc(c(-c5ccccc5)c5ccc2[nH]5)C=C4)C=C3)cc1
REMARK SMILES IDX 4 1 3 2 2 3 1 4 26 5 27 6 73 7 28 8 72 9 29 10 30 11 31 12
REMARK SMILES IDX 66 13 32 14 71 15 65 16 67 17 33 18 70 19 64 20 63 21 34 23
REMARK SMILES IDX 56 24 41 25 55 26 42 27 45 28 54 29 68 30 43 31 44 32 53 34
REMARK SMILES IDX 69 35 46 36 35 37 36 38 40 39 37 40 39 41 38 42 57 43 58 44
REMARK SMILES IDX 62 45 59 46 61 47 60 48 47 49 48 50 52 51 49 52 51 53 50 54
REMARK SMILES IDX 5 55 6 56 7 57 8 58 9 59 10 60 14 61 11 62 13 63 15 64 16 65
REMARK SMILES IDX 17 66 18 67 24 68 19 69 23 70 25 71 20 72 21 73 22 74 12 75
REMARK H PARENT 67 22 45 33 12 76
REMARK Flexibility Score: inf
ROOT
ATOM      1  C   UNL A   1      32.505  29.431  26.739  1.00  0.00     0.275 C 
ENDROOT
BRANCH   1   2
ATOM      2  O   UNL A   1      33.886  29.822  26.746  1.00  0.00    -0.458 OA
BRANCH   2   3
ATOM      3  C   UNL A   1      34.498  30.550  27.714  1.00  0.00     0.338 C 
ATOM      4  O   UNL A   1      34.117  31.693  27.956  1.00  0.00    -0.246 OA
BRANCH   3   5
ATOM      5  C   UNL A   1      35.821  30.119  28.258  1.00  0.00     0.060 A 
ATOM      6  C   UNL A   1      36.886  30.137  27.346  1.00  0.00     0.016 A 
ATOM      7  C   UNL A   1      36.090  29.740  29.578  1.00  0.00     0.016 A 
ATOM      8  C   UNL A   1      38.141  29.641  27.704  1.00  0.00     0.010 A 
ATOM      9  C   UNL A   1      37.367  29.277  29.951  1.00  0.00     0.010 A 
ATOM     10  C   UNL A   1      38.394  29.174  29.008  1.00  0.00    -0.014 A 
BRANCH  10  11
ATOM     11  C   UNL A   1      39.762  28.693  29.343  1.00  0.00     0.031 A 
ATOM     12  C   UNL A   1      40.255  27.299  29.054  1.00  0.00     0.074 A 
ATOM     13  C   UNL A   1      40.641  29.599  29.805  1.00  0.00     0.049 A 
ATOM     14  N   UNL A   1      41.486  26.912  28.814  1.00  0.00    -0.248 NA
ATOM     15  C   UNL A   1      39.278  26.207  28.982  1.00  0.00     0.031 C 
ATOM     16  C   UNL A   1      40.319  30.990  30.124  1.00  0.00     0.029 A 
ATOM     17  N   UNL A   1      41.985  29.494  30.054  1.00  0.00    -0.354 N 
ATOM     18  C   UNL A   1      41.400  25.582  28.420  1.00  0.00     0.074 A 
ATOM     19  C   UNL A   1      40.009  25.202  28.512  1.00  0.00     0.031 C 
ATOM     20  C   UNL A   1      41.441  31.619  30.492  1.00  0.00     0.029 A 
ATOM     21  C   UNL A   1      42.547  30.667  30.482  1.00  0.00     0.049 A 
ATOM     22  H   UNL A   1      42.494  28.660  29.935  1.00  0.00     0.167 HD
ATOM     23  C   UNL A   1      42.398  24.760  28.026  1.00  0.00     0.031 A 
ATOM     24  C   UNL A   1      43.812  30.953  30.841  1.00  0.00     0.031 A 
ATOM     25  C   UNL A   1      43.796  25.044  28.213  1.00  0.00     0.049 A 
ATOM     26  C   UNL A   1      44.872  29.905  30.692  1.00  0.00     0.074 A 
ATOM     27  C   UNL A   1      44.877  24.224  27.932  1.00  0.00     0.029 A 
ATOM     28  N   UNL A   1      44.297  26.171  28.838  1.00  0.00    -0.354 N 
ATOM     29  N   UNL A   1      44.785  28.727  30.126  1.00  0.00    -0.248 NA
ATOM     30  C   UNL A   1      46.202  30.227  31.222  1.00  0.00     0.031 C 
ATOM     31  C   UNL A   1      46.013  24.800  28.506  1.00  0.00     0.029 A 
ATOM     32  C   UNL A   1      45.655  26.022  29.053  1.00  0.00     0.049 A 
ATOM     33  H   UNL A   1      43.766  26.961  29.091  1.00  0.00     0.167 HD
ATOM     34  C   UNL A   1      46.057  28.174  30.205  1.00  0.00     0.074 A 
ATOM     35  C   UNL A   1      46.895  29.148  30.875  1.00  0.00     0.031 C 
ATOM     36  C   UNL A   1      46.485  26.973  29.747  1.00  0.00     0.031 A 
BRANCH  23  37
ATOM     37  C   UNL A   1      42.068  23.435  27.403  1.00  0.00    -0.014 A 
ATOM     38  C   UNL A   1      41.804  22.316  28.206  1.00  0.00     0.009 A 
ATOM     39  C   UNL A   1      42.282  23.256  26.025  1.00  0.00     0.009 A 
ATOM     40  C   UNL A   1      41.784  21.036  27.645  1.00  0.00     0.001 A 
ATOM     41  C   UNL A   1      42.270  21.975  25.473  1.00  0.00     0.001 A 
ATOM     42  C   UNL A   1      42.027  20.866  26.283  1.00  0.00     0.000 A 
ENDBRANCH  23  37
BRANCH  24  43
ATOM     43  C   UNL A   1      44.097  32.305  31.383  1.00  0.00    -0.014 A 
ATOM     44  C   UNL A   1      44.583  33.308  30.526  1.00  0.00     0.009 A 
ATOM     45  C   UNL A   1      44.005  32.568  32.755  1.00  0.00     0.009 A 
ATOM     46  C   UNL A   1      45.027  34.526  31.037  1.00  0.00     0.001 A 
ATOM     47  C   UNL A   1      44.418  33.803  33.259  1.00  0.00     0.001 A 
ATOM     48  C   UNL A   1      44.944  34.772  32.404  1.00  0.00     0.000 A 
ENDBRANCH  24  43
BRANCH  36  49
ATOM     49  C   UNL A   1      47.930  26.615  29.950  1.00  0.00    -0.014 A 
ATOM     50  C   UNL A   1      48.867  26.908  28.945  1.00  0.00     0.009 A 
ATOM     51  C   UNL A   1      48.351  25.908  31.086  1.00  0.00     0.009 A 
ATOM     52  C   UNL A   1      50.192  26.491  29.067  1.00  0.00     0.001 A 
ATOM     53  C   UNL A   1      49.687  25.523  31.221  1.00  0.00     0.001 A 
ATOM     54  C   UNL A   1      50.603  25.806  30.209  1.00  0.00     0.000 A 
ENDBRANCH  36  49
ENDBRANCH  10  11
ENDBRANCH   3   5
ENDBRANCH   2   3
ENDBRANCH   1   2
BRANCH   1  55
ATOM     55  C   UNL A   1      32.072  28.767  25.430  1.00  0.00     0.274 C 
BRANCH  55  56
ATOM     56  O   UNL A   1      31.916  27.340  25.541  1.00  0.00    -0.461 OA
BRANCH  56  57
ATOM     57  C   UNL A   1      32.855  26.570  24.902  1.00  0.00     0.329 C 
ATOM     58  O   UNL A   1      34.020  26.908  24.744  1.00  0.00    -0.250 OA
BRANCH  57  59
ATOM     59  C   UNL A   1      32.250  25.258  24.341  1.00  0.00     0.198 C 
ATOM     60  C   UNL A   1      31.784  25.405  22.888  1.00  0.00     0.071 C 
ATOM     61  N   UNL A   1      33.163  24.106  24.295  1.00  0.00    -0.322 N 
ATOM     62  C   UNL A   1      32.907  24.756  22.081  1.00  0.00     0.136 C 
ATOM     63  C   UNL A   1      33.292  23.576  22.939  1.00  0.00     0.152 C 
BRANCH  61  64
ATOM     64  C   UNL A   1      33.586  23.467  25.435  1.00  0.00     0.256 C 
ATOM     65  O   UNL A   1      32.905  23.320  26.441  1.00  0.00    -0.269 OA
BRANCH  64  66
ATOM     66  C   UNL A   1      34.974  22.977  25.435  1.00  0.00     0.061 A 
ATOM     67  C   UNL A   1      35.993  23.910  25.671  1.00  0.00     0.057 A 
ATOM     68  C   UNL A   1      35.272  21.640  25.152  1.00  0.00     0.056 A 
ATOM     69  C   UNL A   1      37.313  23.486  25.625  1.00  0.00     0.159 A 
ATOM     70  C   UNL A   1      36.604  21.226  25.125  1.00  0.00     0.063 A 
ATOM     71  Cl  UNL A   1      34.050  20.484  24.772  1.00  0.00    -0.083 Cl
ATOM     72  F   UNL A   1      38.293  24.379  25.817  1.00  0.00    -0.204 F 
ATOM     73  C   UNL A   1      37.615  22.153  25.372  1.00  0.00     0.160 A 
ATOM     74  F   UNL A   1      38.890  21.744  25.355  1.00  0.00    -0.204 F 
ENDBRANCH  64  66
ENDBRANCH  61  64
BRANCH  62  75
ATOM     75  O   UNL A   1      34.037  25.615  21.972  1.00  0.00    -0.391 OA
ATOM     76  H   UNL A   1      34.608  25.307  21.251  1.00  0.00     0.211 HD
ENDBRANCH  62  75
ENDBRANCH  57  59
ENDBRANCH  56  57
ENDBRANCH  55  56
ENDBRANCH   1  55
TORSDOF 14
ENDMDL
