MODEL 1
REMARK VINA RESULT:     -10.0      0.000      0.000
REMARK SMILES O=C(CCS(=O)(=O)c1ccc2[nH]c(=O)oc2c1)OCCOC(=O)c1ccc(-c2c3nc(c(-c4ccccc4)c4ccc([nH]4)c(-c4ccccc4)c4nc(c(-c5ccccc5)c5ccc2[nH]5)C=C4)C=C3)cc1
REMARK SMILES IDX 19 1 18 2 2 3 1 4 3 5 4 6 5 7 6 8 7 9 8 10 9 11 17 12 10 13
REMARK SMILES IDX 16 14 11 15 15 16 12 17 13 18 14 20 20 21 21 22 22 23 23 24
REMARK SMILES IDX 24 25 25 26 71 27 26 28 70 29 27 30 28 31 29 32 64 33 30 34
REMARK SMILES IDX 69 35 63 36 65 37 31 38 68 39 62 40 61 41 32 43 54 44 39 45
REMARK SMILES IDX 53 46 40 47 43 48 52 49 66 50 41 51 42 52 51 54 67 55 44 56
REMARK SMILES IDX 33 57 34 58 38 59 35 60 37 61 36 62 55 63 56 64 60 65 57 66
REMARK SMILES IDX 59 67 58 68 45 69 46 70 50 71 47 72 49 73 48 74
REMARK H PARENT 12 19 65 42 43 53
REMARK Flexibility Score: inf
ROOT
ATOM      1  C   UNL A   1      42.372  20.194  25.907  1.00  0.00     0.274 C 
ENDROOT
BRANCH   1   2
ATOM      2  O   UNL A   1      42.981  19.246  25.004  1.00  0.00    -0.462 OA
BRANCH   2   3
ATOM      3  C   UNL A   1      44.301  19.004  24.885  1.00  0.00     0.306 C 
ATOM      4  O   UNL A   1      44.819  18.077  25.506  1.00  0.00    -0.252 OA
BRANCH   3   5
ATOM      5  C   UNL A   1      45.138  19.806  23.930  1.00  0.00     0.139 C 
BRANCH   5   6
ATOM      6  C   UNL A   1      46.026  20.787  24.680  1.00  0.00     0.154 C 
BRANCH   6   7
ATOM      7  S   UNL A   1      45.545  22.486  24.555  1.00  0.00     0.179 S 
ATOM      8  O   UNL A   1      46.626  23.180  23.876  1.00  0.00    -0.224 OA
ATOM      9  O   UNL A   1      44.201  22.517  24.013  1.00  0.00    -0.224 OA
BRANCH   7  10
ATOM     10  C   UNL A   1      45.428  23.235  26.163  1.00  0.00     0.071 A 
ATOM     11  C   UNL A   1      46.442  24.169  26.495  1.00  0.00     0.023 A 
ATOM     12  C   UNL A   1      44.455  22.873  27.095  1.00  0.00     0.069 A 
ATOM     13  C   UNL A   1      46.537  24.699  27.785  1.00  0.00     0.031 A 
ATOM     14  C   UNL A   1      44.617  23.355  28.377  1.00  0.00     0.157 A 
ATOM     15  C   UNL A   1      45.629  24.232  28.702  1.00  0.00     0.087 A 
ATOM     16  O   UNL A   1      43.853  22.994  29.478  1.00  0.00    -0.408 OA
ATOM     17  N   UNL A   1      45.525  24.453  30.044  1.00  0.00    -0.287 N 
ATOM     18  C   UNL A   1      44.485  23.689  30.517  1.00  0.00     0.417 A 
ATOM     19  H   UNL A   1      46.095  25.052  30.580  1.00  0.00     0.173 HD
ATOM     20  O   UNL A   1      44.153  23.615  31.692  1.00  0.00    -0.224 OA
ENDBRANCH   7  10
ENDBRANCH   6   7
ENDBRANCH   5   6
ENDBRANCH   3   5
ENDBRANCH   2   3
ENDBRANCH   1   2
BRANCH   1  21
ATOM     21  C   UNL A   1      41.116  19.634  26.573  1.00  0.00     0.275 C 
BRANCH  21  22
ATOM     22  O   UNL A   1      40.417  20.666  27.283  1.00  0.00    -0.458 OA
BRANCH  22  23
ATOM     23  C   UNL A   1      39.654  21.474  26.501  1.00  0.00     0.338 C 
ATOM     24  O   UNL A   1      38.816  21.140  25.686  1.00  0.00    -0.246 OA
BRANCH  23  25
ATOM     25  C   UNL A   1      39.879  22.862  26.938  1.00  0.00     0.060 A 
ATOM     26  C   UNL A   1      39.095  23.882  26.383  1.00  0.00     0.016 A 
ATOM     27  C   UNL A   1      40.852  23.148  27.899  1.00  0.00     0.016 A 
ATOM     28  C   UNL A   1      39.306  25.206  26.764  1.00  0.00     0.010 A 
ATOM     29  C   UNL A   1      41.073  24.469  28.268  1.00  0.00     0.010 A 
ATOM     30  C   UNL A   1      40.329  25.503  27.672  1.00  0.00    -0.014 A 
BRANCH  30  31
ATOM     31  C   UNL A   1      40.828  26.884  27.826  1.00  0.00     0.031 A 
ATOM     32  C   UNL A   1      42.183  27.193  27.259  1.00  0.00     0.074 A 
ATOM     33  C   UNL A   1      40.144  27.803  28.526  1.00  0.00     0.049 A 
ATOM     34  N   UNL A   1      42.927  28.255  27.416  1.00  0.00    -0.248 NA
ATOM     35  C   UNL A   1      42.789  26.145  26.421  1.00  0.00     0.031 C 
ATOM     36  C   UNL A   1      38.810  27.622  29.091  1.00  0.00     0.029 A 
ATOM     37  N   UNL A   1      40.510  29.068  28.908  1.00  0.00    -0.354 N 
ATOM     38  C   UNL A   1      44.097  27.991  26.716  1.00  0.00     0.074 A 
ATOM     39  C   UNL A   1      43.977  26.663  26.160  1.00  0.00     0.031 C 
ATOM     40  C   UNL A   1      38.475  28.732  29.773  1.00  0.00     0.029 A 
ATOM     41  C   UNL A   1      39.591  29.677  29.726  1.00  0.00     0.049 A 
ATOM     42  H   UNL A   1      41.349  29.498  28.623  1.00  0.00     0.167 HD
ATOM     43  C   UNL A   1      45.181  28.785  26.554  1.00  0.00     0.031 A 
ATOM     44  C   UNL A   1      39.664  30.848  30.385  1.00  0.00     0.031 A 
ATOM     45  C   UNL A   1      45.303  30.092  27.140  1.00  0.00     0.049 A 
ATOM     46  C   UNL A   1      40.907  31.691  30.251  1.00  0.00     0.074 A 
ATOM     47  C   UNL A   1      46.347  30.991  27.030  1.00  0.00     0.029 A 
ATOM     48  N   UNL A   1      44.348  30.676  27.958  1.00  0.00    -0.354 N 
ATOM     49  N   UNL A   1      41.999  31.452  29.565  1.00  0.00    -0.248 NA
ATOM     50  C   UNL A   1      40.923  32.968  30.979  1.00  0.00     0.031 C 
ATOM     51  C   UNL A   1      46.050  32.096  27.835  1.00  0.00     0.029 A 
ATOM     52  C   UNL A   1      44.789  31.916  28.384  1.00  0.00     0.049 A 
ATOM     53  H   UNL A   1      43.485  30.270  28.199  1.00  0.00     0.167 HD
ATOM     54  C   UNL A   1      42.814  32.563  29.745  1.00  0.00     0.074 A 
ATOM     55  C   UNL A   1      42.089  33.476  30.606  1.00  0.00     0.031 C 
ATOM     56  C   UNL A   1      44.046  32.811  29.235  1.00  0.00     0.031 A 
BRANCH  43  57
ATOM     57  C   UNL A   1      46.326  28.225  25.760  1.00  0.00    -0.014 A 
ATOM     58  C   UNL A   1      47.485  27.738  26.386  1.00  0.00     0.009 A 
ATOM     59  C   UNL A   1      46.252  28.204  24.358  1.00  0.00     0.009 A 
ATOM     60  C   UNL A   1      48.566  27.289  25.623  1.00  0.00     0.001 A 
ATOM     61  C   UNL A   1      47.320  27.721  23.600  1.00  0.00     0.001 A 
ATOM     62  C   UNL A   1      48.480  27.278  24.232  1.00  0.00     0.000 A 
ENDBRANCH  43  57
BRANCH  44  63
ATOM     63  C   UNL A   1      38.531  31.286  31.240  1.00  0.00    -0.014 A 
ATOM     64  C   UNL A   1      37.486  32.052  30.701  1.00  0.00     0.009 A 
ATOM     65  C   UNL A   1      38.480  30.933  32.598  1.00  0.00     0.009 A 
ATOM     66  C   UNL A   1      36.424  32.468  31.507  1.00  0.00     0.001 A 
ATOM     67  C   UNL A   1      37.403  31.326  33.394  1.00  0.00     0.001 A 
ATOM     68  C   UNL A   1      36.379  32.099  32.851  1.00  0.00     0.000 A 
ENDBRANCH  44  63
BRANCH  56  69
ATOM     69  C   UNL A   1      44.673  34.143  29.541  1.00  0.00    -0.014 A 
ATOM     70  C   UNL A   1      44.473  35.260  28.717  1.00  0.00     0.009 A 
ATOM     71  C   UNL A   1      45.413  34.296  30.725  1.00  0.00     0.009 A 
ATOM     72  C   UNL A   1      45.020  36.498  29.063  1.00  0.00     0.001 A 
ATOM     73  C   UNL A   1      45.931  35.540  31.085  1.00  0.00     0.001 A 
ATOM     74  C   UNL A   1      45.740  36.638  30.249  1.00  0.00     0.000 A 
ENDBRANCH  56  69
ENDBRANCH  30  31
ENDBRANCH  23  25
ENDBRANCH  22  23
ENDBRANCH  21  22
ENDBRANCH   1  21
TORSDOF 14
ENDMDL
MODEL 2
REMARK VINA RESULT:      -9.6      4.283      9.216
REMARK SMILES O=C(CCS(=O)(=O)c1ccc2[nH]c(=O)oc2c1)OCCOC(=O)c1ccc(-c2c3nc(c(-c4ccccc4)c4ccc([nH]4)c(-c4ccccc4)c4nc(c(-c5ccccc5)c5ccc2[nH]5)C=C4)C=C3)cc1
REMARK SMILES IDX 19 1 18 2 2 3 1 4 3 5 4 6 5 7 6 8 7 9 8 10 9 11 17 12 10 13
REMARK SMILES IDX 16 14 11 15 15 16 12 17 13 18 14 20 20 21 21 22 22 23 23 24
REMARK SMILES IDX 24 25 25 26 71 27 26 28 70 29 27 30 28 31 29 32 64 33 30 34
REMARK SMILES IDX 69 35 63 36 65 37 31 38 68 39 62 40 61 41 32 43 54 44 39 45
REMARK SMILES IDX 53 46 40 47 43 48 52 49 66 50 41 51 42 52 51 54 67 55 44 56
REMARK SMILES IDX 33 57 34 58 38 59 35 60 37 61 36 62 55 63 56 64 60 65 57 66
REMARK SMILES IDX 59 67 58 68 45 69 46 70 50 71 47 72 49 73 48 74
REMARK H PARENT 12 19 65 42 43 53
REMARK Flexibility Score: inf
ROOT
ATOM      1  C   UNL A   1      36.179  20.615  25.055  1.00  0.00     0.274 C 
ENDROOT
BRANCH   1   2
ATOM      2  O   UNL A   1      35.949  21.655  26.029  1.00  0.00    -0.462 OA
BRANCH   2   3
ATOM      3  C   UNL A   1      35.539  22.911  25.761  1.00  0.00     0.306 C 
ATOM      4  O   UNL A   1      36.244  23.871  26.070  1.00  0.00    -0.252 OA
BRANCH   3   5
ATOM      5  C   UNL A   1      34.262  23.151  25.009  1.00  0.00     0.139 C 
BRANCH   5   6
ATOM      6  C   UNL A   1      33.059  22.714  25.830  1.00  0.00     0.154 C 
BRANCH   6   7
ATOM      7  S   UNL A   1      31.817  21.825  24.936  1.00  0.00     0.179 S 
ATOM      8  O   UNL A   1      30.690  21.656  25.836  1.00  0.00    -0.224 OA
ATOM      9  O   UNL A   1      31.642  22.492  23.660  1.00  0.00    -0.224 OA
BRANCH   7  10
ATOM     10  C   UNL A   1      32.369  20.182  24.542  1.00  0.00     0.071 A 
ATOM     11  C   UNL A   1      32.249  19.788  23.184  1.00  0.00     0.023 A 
ATOM     12  C   UNL A   1      32.812  19.281  25.511  1.00  0.00     0.069 A 
ATOM     13  C   UNL A   1      32.505  18.471  22.791  1.00  0.00     0.031 A 
ATOM     14  C   UNL A   1      32.986  17.974  25.108  1.00  0.00     0.157 A 
ATOM     15  C   UNL A   1      32.830  17.591  23.793  1.00  0.00     0.087 A 
ATOM     16  O   UNL A   1      33.272  16.903  25.942  1.00  0.00    -0.408 OA
ATOM     17  N   UNL A   1      33.021  16.241  23.764  1.00  0.00    -0.287 N 
ATOM     18  C   UNL A   1      33.252  15.821  25.052  1.00  0.00     0.417 A 
ATOM     19  H   UNL A   1      32.995  15.668  22.964  1.00  0.00     0.173 HD
ATOM     20  O   UNL A   1      33.414  14.656  25.387  1.00  0.00    -0.224 OA
ENDBRANCH   7  10
ENDBRANCH   6   7
ENDBRANCH   5   6
ENDBRANCH   3   5
ENDBRANCH   2   3
ENDBRANCH   1   2
BRANCH   1  21
ATOM     21  C   UNL A   1      37.647  20.196  24.993  1.00  0.00     0.275 C 
BRANCH  21  22
ATOM     22  O   UNL A   1      38.504  21.311  25.274  1.00  0.00    -0.458 OA
BRANCH  22  23
ATOM     23  C   UNL A   1      39.532  21.036  26.118  1.00  0.00     0.338 C 
ATOM     24  O   UNL A   1      40.094  19.969  26.279  1.00  0.00    -0.246 OA
BRANCH  23  25
ATOM     25  C   UNL A   1      39.995  22.311  26.691  1.00  0.00     0.060 A 
ATOM     26  C   UNL A   1      39.434  23.507  26.223  1.00  0.00     0.016 A 
ATOM     27  C   UNL A   1      40.970  22.319  27.691  1.00  0.00     0.016 A 
ATOM     28  C   UNL A   1      39.874  24.727  26.734  1.00  0.00     0.010 A 
ATOM     29  C   UNL A   1      41.420  23.535  28.189  1.00  0.00     0.010 A 
ATOM     30  C   UNL A   1      40.902  24.742  27.683  1.00  0.00    -0.014 A 
BRANCH  30  31
ATOM     31  C   UNL A   1      41.643  25.984  27.979  1.00  0.00     0.031 A 
ATOM     32  C   UNL A   1      40.934  27.032  28.785  1.00  0.00     0.074 A 
ATOM     33  C   UNL A   1      42.865  26.211  27.470  1.00  0.00     0.049 A 
ATOM     34  N   UNL A   1      41.276  28.270  29.025  1.00  0.00    -0.248 NA
ATOM     35  C   UNL A   1      39.648  26.631  29.381  1.00  0.00     0.031 C 
ATOM     36  C   UNL A   1      43.657  25.254  26.703  1.00  0.00     0.029 A 
ATOM     37  N   UNL A   1      43.632  27.346  27.500  1.00  0.00    -0.354 N 
ATOM     38  C   UNL A   1      40.236  28.800  29.778  1.00  0.00     0.074 A 
ATOM     39  C   UNL A   1      39.242  27.763  29.930  1.00  0.00     0.031 C 
ATOM     40  C   UNL A   1      44.796  25.852  26.310  1.00  0.00     0.029 A 
ATOM     41  C   UNL A   1      44.785  27.243  26.762  1.00  0.00     0.049 A 
ATOM     42  H   UNL A   1      43.381  28.156  28.001  1.00  0.00     0.167 HD
ATOM     43  C   UNL A   1      40.119  30.046  30.294  1.00  0.00     0.031 A 
ATOM     44  C   UNL A   1      45.704  28.179  26.462  1.00  0.00     0.031 A 
ATOM     45  C   UNL A   1      41.100  31.079  30.108  1.00  0.00     0.049 A 
ATOM     46  C   UNL A   1      45.525  29.582  26.986  1.00  0.00     0.074 A 
ATOM     47  C   UNL A   1      41.094  32.372  30.597  1.00  0.00     0.029 A 
ATOM     48  N   UNL A   1      42.258  30.934  29.358  1.00  0.00    -0.354 N 
ATOM     49  N   UNL A   1      44.556  30.072  27.722  1.00  0.00    -0.248 NA
ATOM     50  C   UNL A   1      46.569  30.557  26.643  1.00  0.00     0.031 C 
ATOM     51  C   UNL A   1      42.219  33.030  30.091  1.00  0.00     0.029 A 
ATOM     52  C   UNL A   1      42.963  32.124  29.349  1.00  0.00     0.049 A 
ATOM     53  H   UNL A   1      42.537  30.108  28.902  1.00  0.00     0.167 HD
ATOM     54  C   UNL A   1      44.892  31.398  27.963  1.00  0.00     0.074 A 
ATOM     55  C   UNL A   1      46.156  31.635  27.293  1.00  0.00     0.031 C 
ATOM     56  C   UNL A   1      44.223  32.334  28.682  1.00  0.00     0.031 A 
BRANCH  43  57
ATOM     57  C   UNL A   1      38.860  30.355  31.052  1.00  0.00    -0.014 A 
ATOM     58  C   UNL A   1      37.723  30.873  30.410  1.00  0.00     0.009 A 
ATOM     59  C   UNL A   1      38.816  30.143  32.439  1.00  0.00     0.009 A 
ATOM     60  C   UNL A   1      36.589  31.220  31.148  1.00  0.00     0.001 A 
ATOM     61  C   UNL A   1      37.669  30.458  33.168  1.00  0.00     0.001 A 
ATOM     62  C   UNL A   1      36.563  31.009  32.525  1.00  0.00     0.000 A 
ENDBRANCH  43  57
BRANCH  44  63
ATOM     63  C   UNL A   1      46.872  27.824  25.614  1.00  0.00    -0.014 A 
ATOM     64  C   UNL A   1      46.794  27.925  24.217  1.00  0.00     0.009 A 
ATOM     65  C   UNL A   1      48.075  27.393  26.196  1.00  0.00     0.009 A 
ATOM     66  C   UNL A   1      47.890  27.585  23.420  1.00  0.00     0.001 A 
ATOM     67  C   UNL A   1      49.177  27.082  25.399  1.00  0.00     0.001 A 
ATOM     68  C   UNL A   1      49.083  27.171  24.011  1.00  0.00     0.000 A 
ENDBRANCH  44  63
BRANCH  56  69
ATOM     69  C   UNL A   1      44.864  33.685  28.837  1.00  0.00    -0.014 A 
ATOM     70  C   UNL A   1      45.815  33.942  29.835  1.00  0.00     0.009 A 
ATOM     71  C   UNL A   1      44.564  34.696  27.908  1.00  0.00     0.009 A 
ATOM     72  C   UNL A   1      46.435  35.191  29.913  1.00  0.00     0.001 A 
ATOM     73  C   UNL A   1      45.208  35.931  27.969  1.00  0.00     0.001 A 
ATOM     74  C   UNL A   1      46.138  36.180  28.976  1.00  0.00     0.000 A 
ENDBRANCH  56  69
ENDBRANCH  30  31
ENDBRANCH  23  25
ENDBRANCH  22  23
ENDBRANCH  21  22
ENDBRANCH   1  21
TORSDOF 14
ENDMDL
MODEL 3
REMARK VINA RESULT:      -9.5      2.314      6.402
REMARK SMILES O=C(CCS(=O)(=O)c1ccc2[nH]c(=O)oc2c1)OCCOC(=O)c1ccc(-c2c3nc(c(-c4ccccc4)c4ccc([nH]4)c(-c4ccccc4)c4nc(c(-c5ccccc5)c5ccc2[nH]5)C=C4)C=C3)cc1
REMARK SMILES IDX 19 1 18 2 2 3 1 4 3 5 4 6 5 7 6 8 7 9 8 10 9 11 17 12 10 13
REMARK SMILES IDX 16 14 11 15 15 16 12 17 13 18 14 20 20 21 21 22 22 23 23 24
REMARK SMILES IDX 24 25 25 26 71 27 26 28 70 29 27 30 28 31 29 32 64 33 30 34
REMARK SMILES IDX 69 35 63 36 65 37 31 38 68 39 62 40 61 41 32 43 54 44 39 45
REMARK SMILES IDX 53 46 40 47 43 48 52 49 66 50 41 51 42 52 51 54 67 55 44 56
REMARK SMILES IDX 33 57 34 58 38 59 35 60 37 61 36 62 55 63 56 64 60 65 57 66
REMARK SMILES IDX 59 67 58 68 45 69 46 70 50 71 47 72 49 73 48 74
REMARK H PARENT 12 19 65 42 43 53
REMARK Flexibility Score: inf
ROOT
ATOM      1  C   UNL A   1      42.889  18.808  25.952  1.00  0.00     0.274 C 
ENDROOT
BRANCH   1   2
ATOM      2  O   UNL A   1      43.582  19.491  24.886  1.00  0.00    -0.462 OA
BRANCH   2   3
ATOM      3  C   UNL A   1      44.548  20.418  25.037  1.00  0.00     0.306 C 
ATOM      4  O   UNL A   1      45.711  20.155  24.731  1.00  0.00    -0.252 OA
BRANCH   3   5
ATOM      5  C   UNL A   1      44.206  21.805  25.499  1.00  0.00     0.139 C 
BRANCH   5   6
ATOM      6  C   UNL A   1      44.641  22.840  24.473  1.00  0.00     0.154 C 
BRANCH   6   7
ATOM      7  S   UNL A   1      46.134  23.708  24.864  1.00  0.00     0.179 S 
ATOM      8  O   UNL A   1      46.606  23.182  26.134  1.00  0.00    -0.224 OA
ATOM      9  O   UNL A   1      46.982  23.660  23.690  1.00  0.00    -0.224 OA
BRANCH   7  10
ATOM     10  C   UNL A   1      45.812  25.433  25.149  1.00  0.00     0.071 A 
ATOM     11  C   UNL A   1      46.947  26.256  25.361  1.00  0.00     0.023 A 
ATOM     12  C   UNL A   1      44.522  25.953  25.253  1.00  0.00     0.069 A 
ATOM     13  C   UNL A   1      46.805  27.593  25.747  1.00  0.00     0.031 A 
ATOM     14  C   UNL A   1      44.412  27.251  25.706  1.00  0.00     0.157 A 
ATOM     15  C   UNL A   1      45.521  28.034  25.947  1.00  0.00     0.087 A 
ATOM     16  O   UNL A   1      43.227  27.899  26.022  1.00  0.00    -0.408 OA
ATOM     17  N   UNL A   1      45.052  29.221  26.429  1.00  0.00    -0.287 N 
ATOM     18  C   UNL A   1      43.683  29.132  26.506  1.00  0.00     0.417 A 
ATOM     19  H   UNL A   1      45.598  30.001  26.679  1.00  0.00     0.173 HD
ATOM     20  O   UNL A   1      42.952  30.008  26.946  1.00  0.00    -0.224 OA
ENDBRANCH   7  10
ENDBRANCH   6   7
ENDBRANCH   5   6
ENDBRANCH   3   5
ENDBRANCH   2   3
ENDBRANCH   1   2
BRANCH   1  21
ATOM     21  C   UNL A   1      41.373  18.978  25.860  1.00  0.00     0.275 C 
BRANCH  21  22
ATOM     22  O   UNL A   1      40.890  19.799  26.932  1.00  0.00    -0.458 OA
BRANCH  22  23
ATOM     23  C   UNL A   1      40.235  20.921  26.535  1.00  0.00     0.338 C 
ATOM     24  O   UNL A   1      39.143  20.994  26.004  1.00  0.00    -0.246 OA
BRANCH  23  25
ATOM     25  C   UNL A   1      40.997  22.081  27.027  1.00  0.00     0.060 A 
ATOM     26  C   UNL A   1      41.596  22.011  28.292  1.00  0.00     0.016 A 
ATOM     27  C   UNL A   1      41.124  23.225  26.236  1.00  0.00     0.016 A 
ATOM     28  C   UNL A   1      42.301  23.106  28.788  1.00  0.00     0.010 A 
ATOM     29  C   UNL A   1      41.814  24.322  26.736  1.00  0.00     0.010 A 
ATOM     30  C   UNL A   1      42.368  24.279  28.028  1.00  0.00    -0.014 A 
BRANCH  30  31
ATOM     31  C   UNL A   1      42.775  25.558  28.643  1.00  0.00     0.031 A 
ATOM     32  C   UNL A   1      41.702  26.585  28.869  1.00  0.00     0.074 A 
ATOM     33  C   UNL A   1      44.062  25.835  28.904  1.00  0.00     0.049 A 
ATOM     34  N   UNL A   1      41.812  27.840  29.213  1.00  0.00    -0.248 NA
ATOM     35  C   UNL A   1      40.318  26.133  28.649  1.00  0.00     0.031 C 
ATOM     36  C   UNL A   1      45.178  24.904  28.754  1.00  0.00     0.029 A 
ATOM     37  N   UNL A   1      44.644  27.005  29.319  1.00  0.00    -0.354 N 
ATOM     38  C   UNL A   1      40.513  28.332  29.228  1.00  0.00     0.074 A 
ATOM     39  C   UNL A   1      39.638  27.252  28.832  1.00  0.00     0.031 C 
ATOM     40  C   UNL A   1      46.320  25.550  29.050  1.00  0.00     0.029 A 
ATOM     41  C   UNL A   1      46.014  26.945  29.365  1.00  0.00     0.049 A 
ATOM     42  H   UNL A   1      44.129  27.809  29.560  1.00  0.00     0.167 HD
ATOM     43  C   UNL A   1      40.087  29.577  29.540  1.00  0.00     0.031 A 
ATOM     44  C   UNL A   1      46.913  27.918  29.601  1.00  0.00     0.031 A 
ATOM     45  C   UNL A   1      40.969  30.652  29.901  1.00  0.00     0.049 A 
ATOM     46  C   UNL A   1      46.427  29.318  29.879  1.00  0.00     0.074 A 
ATOM     47  C   UNL A   1      40.649  31.950  30.253  1.00  0.00     0.029 A 
ATOM     48  N   UNL A   1      42.352  30.551  29.942  1.00  0.00    -0.354 N 
ATOM     49  N   UNL A   1      45.197  29.773  29.921  1.00  0.00    -0.248 NA
ATOM     50  C   UNL A   1      47.453  30.335  30.148  1.00  0.00     0.031 C 
ATOM     51  C   UNL A   1      41.843  32.653  30.445  1.00  0.00     0.029 A 
ATOM     52  C   UNL A   1      42.902  31.772  30.288  1.00  0.00     0.049 A 
ATOM     53  H   UNL A   1      42.864  29.733  29.754  1.00  0.00     0.167 HD
ATOM     54  C   UNL A   1      45.298  31.117  30.259  1.00  0.00     0.074 A 
ATOM     55  C   UNL A   1      46.711  31.402  30.411  1.00  0.00     0.031 C 
ATOM     56  C   UNL A   1      44.312  32.030  30.440  1.00  0.00     0.031 A 
BRANCH  43  57
ATOM     57  C   UNL A   1      38.611  29.839  29.444  1.00  0.00    -0.014 A 
ATOM     58  C   UNL A   1      38.021  30.293  28.253  1.00  0.00     0.009 A 
ATOM     59  C   UNL A   1      37.798  29.647  30.573  1.00  0.00     0.009 A 
ATOM     60  C   UNL A   1      36.658  30.598  28.209  1.00  0.00     0.001 A 
ATOM     61  C   UNL A   1      36.430  29.918  30.515  1.00  0.00     0.001 A 
ATOM     62  C   UNL A   1      35.865  30.407  29.339  1.00  0.00     0.000 A 
ENDBRANCH  43  57
BRANCH  44  63
ATOM     63  C   UNL A   1      48.366  27.605  29.573  1.00  0.00    -0.014 A 
ATOM     64  C   UNL A   1      49.090  27.477  30.768  1.00  0.00     0.009 A 
ATOM     65  C   UNL A   1      49.035  27.420  28.352  1.00  0.00     0.009 A 
ATOM     66  C   UNL A   1      50.456  27.188  30.740  1.00  0.00     0.001 A 
ATOM     67  C   UNL A   1      50.394  27.103  28.329  1.00  0.00     0.001 A 
ATOM     68  C   UNL A   1      51.106  26.994  29.522  1.00  0.00     0.000 A 
ENDBRANCH  44  63
BRANCH  56  69
ATOM     69  C   UNL A   1      44.712  33.412  30.879  1.00  0.00    -0.014 A 
ATOM     70  C   UNL A   1      45.085  34.401  29.957  1.00  0.00     0.009 A 
ATOM     71  C   UNL A   1      44.633  33.747  32.241  1.00  0.00     0.009 A 
ATOM     72  C   UNL A   1      45.391  35.691  30.394  1.00  0.00     0.001 A 
ATOM     73  C   UNL A   1      44.909  35.045  32.671  1.00  0.00     0.001 A 
ATOM     74  C   UNL A   1      45.295  36.013  31.747  1.00  0.00     0.000 A 
ENDBRANCH  56  69
ENDBRANCH  30  31
ENDBRANCH  23  25
ENDBRANCH  22  23
ENDBRANCH  21  22
ENDBRANCH   1  21
TORSDOF 14
ENDMDL
