MODEL 1
REMARK VINA RESULT:     -10.3      0.000      0.000
REMARK SMILES C[C@@H](C(=O)OCCOC(=O)c1ccc(-c2c3nc(c(-c4ccccc4)c4ccc([nH]4)c(-c4ccccc4)c4nc(c(-c5ccccc5)c5ccc2[nH]5)C=C4)C=C3)cc1)c1ccc(Cc2cccs2)cc1F
REMARK SMILES IDX 6 1 5 2 3 3 4 4 2 5 1 6 59 7 60 8 70 9 61 10 69 11 71 12
REMARK SMILES IDX 62 13 63 14 64 15 65 16 68 17 66 18 67 19 7 20 8 21 9 22
REMARK SMILES IDX 10 23 11 24 12 25 58 26 13 27 57 28 14 29 15 30 16 31 51 32
REMARK SMILES IDX 17 33 56 34 50 35 52 36 18 37 55 38 49 39 48 40 19 42 41 43
REMARK SMILES IDX 26 44 40 45 27 46 30 47 39 48 53 49 28 50 29 51 38 53 54 54
REMARK SMILES IDX 31 55 20 56 21 57 25 58 22 59 24 60 23 61 42 62 43 63 47 64
REMARK SMILES IDX 44 65 46 66 45 67 32 68 33 69 37 70 34 71 36 72 35 73
REMARK H PARENT 52 41 30 52
REMARK Flexibility Score: inf
ROOT
ATOM      1  C   UNL A   1      34.027  34.135  31.782  1.00  0.00     0.274 C 
ENDROOT
BRANCH   1   2
ATOM      2  O   UNL A   1      34.051  33.314  30.597  1.00  0.00    -0.462 OA
BRANCH   2   3
ATOM      3  C   UNL A   1      34.886  33.719  29.598  1.00  0.00     0.313 C 
ATOM      4  O   UNL A   1      36.001  34.184  29.809  1.00  0.00    -0.252 OA
BRANCH   3   5
ATOM      5  C   UNL A   1      34.239  33.588  28.204  1.00  0.00     0.129 C 
ATOM      6  C   UNL A   1      32.938  34.398  28.104  1.00  0.00     0.025 C 
BRANCH   5   7
ATOM      7  C   UNL A   1      34.081  32.125  27.784  1.00  0.00     0.002 A 
ATOM      8  C   UNL A   1      32.842  31.509  27.553  1.00  0.00     0.008 A 
ATOM      9  C   UNL A   1      35.222  31.324  27.648  1.00  0.00     0.127 A 
ATOM     10  C   UNL A   1      32.758  30.148  27.220  1.00  0.00     0.004 A 
ATOM     11  C   UNL A   1      35.139  29.957  27.378  1.00  0.00     0.043 A 
ATOM     12  F   UNL A   1      36.440  31.872  27.775  1.00  0.00    -0.207 F 
ATOM     13  C   UNL A   1      33.897  29.335  27.179  1.00  0.00    -0.040 A 
BRANCH  13  14
ATOM     14  C   UNL A   1      33.862  27.870  26.781  1.00  0.00     0.082 C 
BRANCH  14  15
ATOM     15  C   UNL A   1      33.684  27.497  25.326  1.00  0.00     0.009 A 
ATOM     16  C   UNL A   1      33.542  26.280  24.684  1.00  0.00     0.016 A 
ATOM     17  S   UNL A   1      33.526  28.794  24.191  1.00  0.00    -0.149 S 
ATOM     18  C   UNL A   1      33.219  26.418  23.303  1.00  0.00     0.012 A 
ATOM     19  C   UNL A   1      33.199  27.731  22.900  1.00  0.00     0.065 A 
ENDBRANCH  14  15
ENDBRANCH  13  14
ENDBRANCH   5   7
ENDBRANCH   3   5
ENDBRANCH   2   3
ENDBRANCH   1   2
BRANCH   1  20
ATOM     20  C   UNL A   1      34.458  33.361  33.031  1.00  0.00     0.275 C 
BRANCH  20  21
ATOM     21  O   UNL A   1      35.202  32.173  32.699  1.00  0.00    -0.458 OA
BRANCH  21  22
ATOM     22  C   UNL A   1      36.377  32.021  33.344  1.00  0.00     0.338 C 
ATOM     23  O   UNL A   1      36.621  32.281  34.516  1.00  0.00    -0.246 OA
BRANCH  22  24
ATOM     24  C   UNL A   1      37.353  31.362  32.465  1.00  0.00     0.060 A 
ATOM     25  C   UNL A   1      38.454  30.765  33.072  1.00  0.00     0.016 A 
ATOM     26  C   UNL A   1      37.271  31.426  31.074  1.00  0.00     0.016 A 
ATOM     27  C   UNL A   1      39.499  30.269  32.304  1.00  0.00     0.010 A 
ATOM     28  C   UNL A   1      38.311  30.888  30.296  1.00  0.00     0.010 A 
ATOM     29  C   UNL A   1      39.447  30.327  30.905  1.00  0.00    -0.014 A 
BRANCH  29  30
ATOM     30  C   UNL A   1      40.630  29.852  30.134  1.00  0.00     0.031 A 
ATOM     31  C   UNL A   1      40.629  28.482  29.508  1.00  0.00     0.074 A 
ATOM     32  C   UNL A   1      41.636  30.707  29.858  1.00  0.00     0.049 A 
ATOM     33  N   UNL A   1      41.538  27.917  28.750  1.00  0.00    -0.248 NA
ATOM     34  C   UNL A   1      39.445  27.641  29.749  1.00  0.00     0.031 C 
ATOM     35  C   UNL A   1      41.727  32.089  30.336  1.00  0.00     0.029 A 
ATOM     36  N   UNL A   1      42.746  30.559  29.062  1.00  0.00    -0.354 N 
ATOM     37  C   UNL A   1      41.011  26.686  28.381  1.00  0.00     0.074 A 
ATOM     38  C   UNL A   1      39.750  26.539  29.076  1.00  0.00     0.031 C 
ATOM     39  C   UNL A   1      42.793  32.679  29.772  1.00  0.00     0.029 A 
ATOM     40  C   UNL A   1      43.493  31.706  28.939  1.00  0.00     0.049 A 
ATOM     41  H   UNL A   1      42.984  29.711  28.622  1.00  0.00     0.167 HD
ATOM     42  C   UNL A   1      41.487  25.795  27.479  1.00  0.00     0.031 A 
ATOM     43  C   UNL A   1      44.617  31.952  28.240  1.00  0.00     0.031 A 
ATOM     44  C   UNL A   1      42.708  25.944  26.738  1.00  0.00     0.049 A 
ATOM     45  C   UNL A   1      45.237  30.849  27.430  1.00  0.00     0.074 A 
ATOM     46  C   UNL A   1      43.258  25.085  25.803  1.00  0.00     0.029 A 
ATOM     47  N   UNL A   1      43.562  27.030  26.836  1.00  0.00    -0.354 N 
ATOM     48  N   UNL A   1      44.764  29.659  27.154  1.00  0.00    -0.248 NA
ATOM     49  C   UNL A   1      46.562  31.120  26.850  1.00  0.00     0.031 C 
ATOM     50  C   UNL A   1      44.456  25.643  25.344  1.00  0.00     0.029 A 
ATOM     51  C   UNL A   1      44.634  26.863  25.973  1.00  0.00     0.049 A 
ATOM     52  H   UNL A   1      43.428  27.804  27.428  1.00  0.00     0.167 HD
ATOM     53  C   UNL A   1      45.725  29.046  26.361  1.00  0.00     0.074 A 
ATOM     54  C   UNL A   1      46.801  29.999  26.185  1.00  0.00     0.031 C 
ATOM     55  C   UNL A   1      45.713  27.802  25.825  1.00  0.00     0.031 A 
BRANCH  42  56
ATOM     56  C   UNL A   1      40.641  24.589  27.195  1.00  0.00    -0.014 A 
ATOM     57  C   UNL A   1      39.448  24.717  26.466  1.00  0.00     0.009 A 
ATOM     58  C   UNL A   1      41.062  23.315  27.601  1.00  0.00     0.009 A 
ATOM     59  C   UNL A   1      38.681  23.590  26.165  1.00  0.00     0.001 A 
ATOM     60  C   UNL A   1      40.300  22.188  27.283  1.00  0.00     0.001 A 
ATOM     61  C   UNL A   1      39.109  22.328  26.570  1.00  0.00     0.000 A 
ENDBRANCH  42  56
BRANCH  43  62
ATOM     62  C   UNL A   1      45.267  33.287  28.304  1.00  0.00    -0.014 A 
ATOM     63  C   UNL A   1      46.154  33.604  29.345  1.00  0.00     0.009 A 
ATOM     64  C   UNL A   1      44.972  34.268  27.343  1.00  0.00     0.009 A 
ATOM     65  C   UNL A   1      46.717  34.880  29.428  1.00  0.00     0.001 A 
ATOM     66  C   UNL A   1      45.559  35.532  27.413  1.00  0.00     0.001 A 
ATOM     67  C   UNL A   1      46.424  35.840  28.461  1.00  0.00     0.000 A 
ENDBRANCH  43  62
BRANCH  55  68
ATOM     68  C   UNL A   1      46.895  27.406  24.990  1.00  0.00    -0.014 A 
ATOM     69  C   UNL A   1      47.886  26.558  25.508  1.00  0.00     0.009 A 
ATOM     70  C   UNL A   1      47.008  27.863  23.669  1.00  0.00     0.009 A 
ATOM     71  C   UNL A   1      48.983  26.195  24.724  1.00  0.00     0.001 A 
ATOM     72  C   UNL A   1      48.094  27.480  22.881  1.00  0.00     0.001 A 
ATOM     73  C   UNL A   1      49.084  26.653  23.410  1.00  0.00     0.000 A 
ENDBRANCH  55  68
ENDBRANCH  29  30
ENDBRANCH  22  24
ENDBRANCH  21  22
ENDBRANCH  20  21
ENDBRANCH   1  20
TORSDOF 14
ENDMDL
MODEL 2
REMARK VINA RESULT:     -10.3      5.175     10.913
REMARK SMILES C[C@@H](C(=O)OCCOC(=O)c1ccc(-c2c3nc(c(-c4ccccc4)c4ccc([nH]4)c(-c4ccccc4)c4nc(c(-c5ccccc5)c5ccc2[nH]5)C=C4)C=C3)cc1)c1ccc(Cc2cccs2)cc1F
REMARK SMILES IDX 6 1 5 2 3 3 4 4 2 5 1 6 59 7 60 8 70 9 61 10 69 11 71 12
REMARK SMILES IDX 62 13 63 14 64 15 65 16 68 17 66 18 67 19 7 20 8 21 9 22
REMARK SMILES IDX 10 23 11 24 12 25 58 26 13 27 57 28 14 29 15 30 16 31 51 32
REMARK SMILES IDX 17 33 56 34 50 35 52 36 18 37 55 38 49 39 48 40 19 42 41 43
REMARK SMILES IDX 26 44 40 45 27 46 30 47 39 48 53 49 28 50 29 51 38 53 54 54
REMARK SMILES IDX 31 55 20 56 21 57 25 58 22 59 24 60 23 61 42 62 43 63 47 64
REMARK SMILES IDX 44 65 46 66 45 67 32 68 33 69 37 70 34 71 36 72 35 73
REMARK H PARENT 52 41 30 52
REMARK Flexibility Score: inf
ROOT
ATOM      1  C   UNL A   1      44.333  21.742  25.167  1.00  0.00     0.274 C 
ENDROOT
BRANCH   1   2
ATOM      2  O   UNL A   1      42.893  21.797  25.218  1.00  0.00    -0.462 OA
BRANCH   2   3
ATOM      3  C   UNL A   1      42.267  20.720  25.774  1.00  0.00     0.313 C 
ATOM      4  O   UNL A   1      42.374  19.583  25.328  1.00  0.00    -0.252 OA
BRANCH   3   5
ATOM      5  C   UNL A   1      41.371  21.114  26.966  1.00  0.00     0.129 C 
ATOM      6  C   UNL A   1      41.130  19.928  27.911  1.00  0.00     0.025 C 
BRANCH   5   7
ATOM      7  C   UNL A   1      40.083  21.801  26.507  1.00  0.00     0.002 A 
ATOM      8  C   UNL A   1      39.763  23.135  26.802  1.00  0.00     0.008 A 
ATOM      9  C   UNL A   1      39.138  21.069  25.778  1.00  0.00     0.127 A 
ATOM     10  C   UNL A   1      38.541  23.696  26.397  1.00  0.00     0.004 A 
ATOM     11  C   UNL A   1      37.897  21.604  25.428  1.00  0.00     0.043 A 
ATOM     12  F   UNL A   1      39.418  19.814  25.395  1.00  0.00    -0.207 F 
ATOM     13  C   UNL A   1      37.565  22.928  25.751  1.00  0.00    -0.040 A 
BRANCH  13  14
ATOM     14  C   UNL A   1      36.248  23.500  25.255  1.00  0.00     0.082 C 
BRANCH  14  15
ATOM     15  C   UNL A   1      34.972  23.190  26.004  1.00  0.00     0.009 A 
ATOM     16  C   UNL A   1      34.705  22.401  27.109  1.00  0.00     0.016 A 
ATOM     17  S   UNL A   1      33.538  24.019  25.500  1.00  0.00    -0.149 S 
ATOM     18  C   UNL A   1      33.369  22.548  27.583  1.00  0.00     0.012 A 
ATOM     19  C   UNL A   1      32.621  23.382  26.787  1.00  0.00     0.065 A 
ENDBRANCH  14  15
ENDBRANCH  13  14
ENDBRANCH   5   7
ENDBRANCH   3   5
ENDBRANCH   2   3
ENDBRANCH   1   2
BRANCH   1  20
ATOM     20  C   UNL A   1      44.923  22.845  24.284  1.00  0.00     0.275 C 
BRANCH  20  21
ATOM     21  O   UNL A   1      44.170  24.069  24.375  1.00  0.00    -0.458 OA
BRANCH  21  22
ATOM     22  C   UNL A   1      44.792  25.091  24.998  1.00  0.00     0.338 C 
ATOM     23  O   UNL A   1      45.889  25.568  24.730  1.00  0.00    -0.246 OA
BRANCH  22  24
ATOM     24  C   UNL A   1      43.907  25.678  26.013  1.00  0.00     0.060 A 
ATOM     25  C   UNL A   1      44.121  27.010  26.352  1.00  0.00     0.016 A 
ATOM     26  C   UNL A   1      42.968  24.921  26.716  1.00  0.00     0.016 A 
ATOM     27  C   UNL A   1      43.438  27.585  27.415  1.00  0.00     0.010 A 
ATOM     28  C   UNL A   1      42.248  25.515  27.767  1.00  0.00     0.010 A 
ATOM     29  C   UNL A   1      42.496  26.847  28.143  1.00  0.00    -0.014 A 
BRANCH  29  30
ATOM     30  C   UNL A   1      41.852  27.491  29.321  1.00  0.00     0.031 A 
ATOM     31  C   UNL A   1      42.548  27.500  30.657  1.00  0.00     0.074 A 
ATOM     32  C   UNL A   1      40.721  28.208  29.157  1.00  0.00     0.049 A 
ATOM     33  N   UNL A   1      42.176  28.064  31.782  1.00  0.00    -0.248 NA
ATOM     34  C   UNL A   1      43.840  26.800  30.739  1.00  0.00     0.031 C 
ATOM     35  C   UNL A   1      39.984  28.349  27.900  1.00  0.00     0.029 A 
ATOM     36  N   UNL A   1      40.026  29.000  30.039  1.00  0.00    -0.354 N 
ATOM     37  C   UNL A   1      43.210  27.835  32.680  1.00  0.00     0.074 A 
ATOM     38  C   UNL A   1      44.179  26.997  32.007  1.00  0.00     0.031 C 
ATOM     39  C   UNL A   1      38.982  29.226  28.074  1.00  0.00     0.029 A 
ATOM     40  C   UNL A   1      38.970  29.666  29.465  1.00  0.00     0.049 A 
ATOM     41  H   UNL A   1      40.261  29.081  30.991  1.00  0.00     0.167 HD
ATOM     42  C   UNL A   1      43.383  28.344  33.923  1.00  0.00     0.031 A 
ATOM     43  C   UNL A   1      38.085  30.532  29.995  1.00  0.00     0.031 A 
ATOM     44  C   UNL A   1      42.462  29.220  34.590  1.00  0.00     0.049 A 
ATOM     45  C   UNL A   1      38.185  30.890  31.451  1.00  0.00     0.074 A 
ATOM     46  C   UNL A   1      42.568  29.782  35.851  1.00  0.00     0.029 A 
ATOM     47  N   UNL A   1      41.272  29.675  34.047  1.00  0.00    -0.354 N 
ATOM     48  N   UNL A   1      39.130  30.599  32.311  1.00  0.00    -0.248 NA
ATOM     49  C   UNL A   1      37.080  31.681  32.014  1.00  0.00     0.031 C 
ATOM     50  C   UNL A   1      41.432  30.566  36.079  1.00  0.00     0.029 A 
ATOM     51  C   UNL A   1      40.635  30.514  34.948  1.00  0.00     0.049 A 
ATOM     52  H   UNL A   1      40.929  29.438  33.156  1.00  0.00     0.167 HD
ATOM     53  C   UNL A   1      38.740  31.181  33.510  1.00  0.00     0.074 A 
ATOM     54  C   UNL A   1      37.482  31.855  33.265  1.00  0.00     0.031 C 
ATOM     55  C   UNL A   1      39.372  31.158  34.707  1.00  0.00     0.031 A 
BRANCH  42  56
ATOM     56  C   UNL A   1      44.665  28.011  34.627  1.00  0.00    -0.014 A 
ATOM     57  C   UNL A   1      45.831  28.747  34.364  1.00  0.00     0.009 A 
ATOM     58  C   UNL A   1      44.698  27.002  35.601  1.00  0.00     0.009 A 
ATOM     59  C   UNL A   1      47.014  28.465  35.049  1.00  0.00     0.001 A 
ATOM     60  C   UNL A   1      45.879  26.734  36.296  1.00  0.00     0.001 A 
ATOM     61  C   UNL A   1      47.036  27.463  36.016  1.00  0.00     0.000 A 
ENDBRANCH  42  56
BRANCH  43  62
ATOM     62  C   UNL A   1      36.990  31.094  29.162  1.00  0.00    -0.014 A 
ATOM     63  C   UNL A   1      37.018  32.436  28.751  1.00  0.00     0.009 A 
ATOM     64  C   UNL A   1      35.890  30.299  28.803  1.00  0.00     0.009 A 
ATOM     65  C   UNL A   1      35.959  32.971  28.014  1.00  0.00     0.001 A 
ATOM     66  C   UNL A   1      34.846  30.829  28.043  1.00  0.00     0.001 A 
ATOM     67  C   UNL A   1      34.877  32.167  27.657  1.00  0.00     0.000 A 
ENDBRANCH  43  62
BRANCH  55  68
ATOM     68  C   UNL A   1      38.718  31.892  35.840  1.00  0.00    -0.014 A 
ATOM     69  C   UNL A   1      37.999  31.196  36.825  1.00  0.00     0.009 A 
ATOM     70  C   UNL A   1      38.838  33.286  35.939  1.00  0.00     0.009 A 
ATOM     71  C   UNL A   1      37.394  31.888  37.876  1.00  0.00     0.001 A 
ATOM     72  C   UNL A   1      38.250  33.972  37.002  1.00  0.00     0.001 A 
ATOM     73  C   UNL A   1      37.523  33.275  37.966  1.00  0.00     0.000 A 
ENDBRANCH  55  68
ENDBRANCH  29  30
ENDBRANCH  22  24
ENDBRANCH  21  22
ENDBRANCH  20  21
ENDBRANCH   1  20
TORSDOF 14
ENDMDL
MODEL 3
REMARK VINA RESULT:     -10.2      5.009      9.543
REMARK SMILES C[C@@H](C(=O)OCCOC(=O)c1ccc(-c2c3nc(c(-c4ccccc4)c4ccc([nH]4)c(-c4ccccc4)c4nc(c(-c5ccccc5)c5ccc2[nH]5)C=C4)C=C3)cc1)c1ccc(Cc2cccs2)cc1F
REMARK SMILES IDX 6 1 5 2 3 3 4 4 2 5 1 6 59 7 60 8 70 9 61 10 69 11 71 12
REMARK SMILES IDX 62 13 63 14 64 15 65 16 68 17 66 18 67 19 7 20 8 21 9 22
REMARK SMILES IDX 10 23 11 24 12 25 58 26 13 27 57 28 14 29 15 30 16 31 51 32
REMARK SMILES IDX 17 33 56 34 50 35 52 36 18 37 55 38 49 39 48 40 19 42 41 43
REMARK SMILES IDX 26 44 40 45 27 46 30 47 39 48 53 49 28 50 29 51 38 53 54 54
REMARK SMILES IDX 31 55 20 56 21 57 25 58 22 59 24 60 23 61 42 62 43 63 47 64
REMARK SMILES IDX 44 65 46 66 45 67 32 68 33 69 37 70 34 71 36 72 35 73
REMARK H PARENT 52 41 30 52
REMARK Flexibility Score: inf
ROOT
ATOM      1  C   UNL A   1      41.893  19.489  26.118  1.00  0.00     0.274 C 
ENDROOT
BRANCH   1   2
ATOM      2  O   UNL A   1      42.335  20.691  26.779  1.00  0.00    -0.462 OA
BRANCH   2   3
ATOM      3  C   UNL A   1      41.992  21.870  26.183  1.00  0.00     0.313 C 
ATOM      4  O   UNL A   1      42.316  22.155  25.035  1.00  0.00    -0.252 OA
BRANCH   3   5
ATOM      5  C   UNL A   1      41.224  22.807  27.137  1.00  0.00     0.129 C 
ATOM      6  C   UNL A   1      41.421  22.407  28.606  1.00  0.00     0.025 C 
BRANCH   5   7
ATOM      7  C   UNL A   1      39.754  22.950  26.734  1.00  0.00     0.002 A 
ATOM      8  C   UNL A   1      39.017  21.935  26.105  1.00  0.00     0.008 A 
ATOM      9  C   UNL A   1      39.094  24.162  26.967  1.00  0.00     0.127 A 
ATOM     10  C   UNL A   1      37.684  22.142  25.713  1.00  0.00     0.004 A 
ATOM     11  C   UNL A   1      37.791  24.393  26.522  1.00  0.00     0.043 A 
ATOM     12  F   UNL A   1      39.719  25.143  27.637  1.00  0.00    -0.207 F 
ATOM     13  C   UNL A   1      37.065  23.388  25.864  1.00  0.00    -0.040 A 
BRANCH  13  14
ATOM     14  C   UNL A   1      35.615  23.648  25.496  1.00  0.00     0.082 C 
BRANCH  14  15
ATOM     15  C   UNL A   1      34.671  22.481  25.316  1.00  0.00     0.009 A 
ATOM     16  C   UNL A   1      34.198  21.827  24.193  1.00  0.00     0.016 A 
ATOM     17  S   UNL A   1      34.101  21.696  26.750  1.00  0.00    -0.149 S 
ATOM     18  C   UNL A   1      33.457  20.650  24.509  1.00  0.00     0.012 A 
ATOM     19  C   UNL A   1      33.312  20.474  25.864  1.00  0.00     0.065 A 
ENDBRANCH  14  15
ENDBRANCH  13  14
ENDBRANCH   5   7
ENDBRANCH   3   5
ENDBRANCH   2   3
ENDBRANCH   1   2
BRANCH   1  20
ATOM     20  C   UNL A   1      43.033  18.786  25.375  1.00  0.00     0.275 C 
BRANCH  20  21
ATOM     21  O   UNL A   1      44.322  19.317  25.738  1.00  0.00    -0.458 OA
BRANCH  21  22
ATOM     22  C   UNL A   1      45.093  19.729  24.710  1.00  0.00     0.338 C 
ATOM     23  O   UNL A   1      45.408  19.089  23.714  1.00  0.00    -0.246 OA
BRANCH  22  24
ATOM     24  C   UNL A   1      45.434  21.149  24.873  1.00  0.00     0.060 A 
ATOM     25  C   UNL A   1      45.668  21.603  26.168  1.00  0.00     0.016 A 
ATOM     26  C   UNL A   1      45.407  22.053  23.811  1.00  0.00     0.016 A 
ATOM     27  C   UNL A   1      45.832  22.958  26.421  1.00  0.00     0.010 A 
ATOM     28  C   UNL A   1      45.612  23.421  24.062  1.00  0.00     0.010 A 
ATOM     29  C   UNL A   1      45.802  23.889  25.374  1.00  0.00    -0.014 A 
BRANCH  29  30
ATOM     30  C   UNL A   1      45.904  25.336  25.713  1.00  0.00     0.031 A 
ATOM     31  C   UNL A   1      44.698  26.087  26.211  1.00  0.00     0.074 A 
ATOM     32  C   UNL A   1      47.112  25.934  25.729  1.00  0.00     0.049 A 
ATOM     33  N   UNL A   1      44.605  27.332  26.616  1.00  0.00    -0.248 NA
ATOM     34  C   UNL A   1      43.431  25.340  26.283  1.00  0.00     0.031 C 
ATOM     35  C   UNL A   1      48.376  25.301  25.346  1.00  0.00     0.029 A 
ATOM     36  N   UNL A   1      47.484  27.193  26.138  1.00  0.00    -0.354 N 
ATOM     37  C   UNL A   1      43.293  27.495  27.039  1.00  0.00     0.074 A 
ATOM     38  C   UNL A   1      42.597  26.259  26.752  1.00  0.00     0.031 C 
ATOM     39  C   UNL A   1      49.387  26.148  25.599  1.00  0.00     0.029 A 
ATOM     40  C   UNL A   1      48.842  27.402  26.109  1.00  0.00     0.049 A 
ATOM     41  H   UNL A   1      46.839  27.879  26.424  1.00  0.00     0.167 HD
ATOM     42  C   UNL A   1      42.735  28.545  27.688  1.00  0.00     0.031 A 
ATOM     43  C   UNL A   1      49.572  28.482  26.448  1.00  0.00     0.031 A 
ATOM     44  C   UNL A   1      43.420  29.760  28.031  1.00  0.00     0.049 A 
ATOM     45  C   UNL A   1      48.875  29.714  26.952  1.00  0.00     0.074 A 
ATOM     46  C   UNL A   1      42.923  30.870  28.692  1.00  0.00     0.029 A 
ATOM     47  N   UNL A   1      44.751  30.019  27.756  1.00  0.00    -0.354 N 
ATOM     48  N   UNL A   1      47.616  29.879  27.274  1.00  0.00    -0.248 NA
ATOM     49  C   UNL A   1      49.702  30.919  27.118  1.00  0.00     0.031 C 
ATOM     50  C   UNL A   1      43.952  31.812  28.803  1.00  0.00     0.029 A 
ATOM     51  C   UNL A   1      45.095  31.273  28.237  1.00  0.00     0.049 A 
ATOM     52  H   UNL A   1      45.363  29.406  27.288  1.00  0.00     0.167 HD
ATOM     53  C   UNL A   1      47.503  31.198  27.692  1.00  0.00     0.074 A 
ATOM     54  C   UNL A   1      48.823  31.787  27.599  1.00  0.00     0.031 C 
ATOM     55  C   UNL A   1      46.402  31.861  28.116  1.00  0.00     0.031 A 
BRANCH  42  56
ATOM     56  C   UNL A   1      41.309  28.398  28.130  1.00  0.00    -0.014 A 
ATOM     57  C   UNL A   1      41.008  27.794  29.361  1.00  0.00     0.009 A 
ATOM     58  C   UNL A   1      40.267  28.917  27.349  1.00  0.00     0.009 A 
ATOM     59  C   UNL A   1      39.684  27.693  29.793  1.00  0.00     0.001 A 
ATOM     60  C   UNL A   1      38.945  28.829  27.793  1.00  0.00     0.001 A 
ATOM     61  C   UNL A   1      38.655  28.215  29.011  1.00  0.00     0.000 A 
ENDBRANCH  42  56
BRANCH  43  62
ATOM     62  C   UNL A   1      51.049  28.474  26.284  1.00  0.00    -0.014 A 
ATOM     63  C   UNL A   1      51.883  28.016  27.316  1.00  0.00     0.009 A 
ATOM     64  C   UNL A   1      51.636  28.960  25.105  1.00  0.00     0.009 A 
ATOM     65  C   UNL A   1      53.272  28.063  27.175  1.00  0.00     0.001 A 
ATOM     66  C   UNL A   1      53.023  28.980  24.955  1.00  0.00     0.001 A 
ATOM     67  C   UNL A   1      53.841  28.540  25.994  1.00  0.00     0.000 A 
ENDBRANCH  43  62
BRANCH  55  68
ATOM     68  C   UNL A   1      46.579  33.294  28.522  1.00  0.00    -0.014 A 
ATOM     69  C   UNL A   1      46.987  33.626  29.824  1.00  0.00     0.009 A 
ATOM     70  C   UNL A   1      46.361  34.322  27.592  1.00  0.00     0.009 A 
ATOM     71  C   UNL A   1      47.149  34.963  30.192  1.00  0.00     0.001 A 
ATOM     72  C   UNL A   1      46.545  35.655  27.958  1.00  0.00     0.001 A 
ATOM     73  C   UNL A   1      46.933  35.976  29.258  1.00  0.00     0.000 A 
ENDBRANCH  55  68
ENDBRANCH  29  30
ENDBRANCH  22  24
ENDBRANCH  21  22
ENDBRANCH  20  21
ENDBRANCH   1  20
TORSDOF 14
ENDMDL
