MODEL 1
REMARK VINA RESULT:     -10.1      0.000      0.000
REMARK SMILES CC(C)[C@H](/N=C1\C(=O)C(=O)[C@H]1[NH+]1CCCC1)C(=O)OCCOC(=O)c1ccc(-c2c3nc(c(-c4ccccc4)c4ccc([nH]4)c(-c4ccccc4)c4nc(c(-c5ccccc5)c5ccc2[nH]5)C=C4)C=C3)cc1
REMARK SMILES IDX 20 1 19 2 17 3 18 4 4 5 2 6 1 7 3 8 5 9 6 10 7 11 11 12 8 13
REMARK SMILES IDX 9 14 10 15 12 16 13 17 16 18 14 20 15 21 21 22 22 23 23 24
REMARK SMILES IDX 24 25 25 26 26 27 72 28 27 29 71 30 28 31 29 32 30 33 65 34
REMARK SMILES IDX 31 35 70 36 64 37 66 38 32 39 69 40 63 41 62 42 33 44 55 45
REMARK SMILES IDX 40 46 54 47 41 48 44 49 53 50 67 51 42 52 43 53 52 55 68 56
REMARK SMILES IDX 45 57 34 58 35 59 39 60 36 61 38 62 37 63 56 64 57 65 61 66
REMARK SMILES IDX 58 67 60 68 59 69 46 70 47 71 51 72 48 73 50 74 49 75
REMARK H PARENT 12 19 66 43 44 54
REMARK Flexibility Score: inf
ROOT
ATOM      1  C   UNL A   1      41.195  20.104  27.198  1.00  0.00     0.274 C 
ENDROOT
BRANCH   1   2
ATOM      2  O   UNL A   1      41.609  19.991  25.823  1.00  0.00    -0.460 OA
BRANCH   2   3
ATOM      3  C   UNL A   1      42.693  19.200  25.602  1.00  0.00     0.331 C 
ATOM      4  O   UNL A   1      42.694  17.984  25.781  1.00  0.00    -0.250 OA
BRANCH   3   5
ATOM      5  C   UNL A   1      43.924  19.951  25.062  1.00  0.00     0.218 C 
BRANCH   5   6
ATOM      6  C   UNL A   1      45.015  18.967  24.584  1.00  0.00     0.019 C 
ATOM      7  C   UNL A   1      45.242  19.059  23.064  1.00  0.00     0.010 C 
ATOM      8  C   UNL A   1      46.354  19.251  25.276  1.00  0.00     0.010 C 
ENDBRANCH   5   6
BRANCH   5   9
ATOM      9  N   UNL A   1      44.466  20.893  26.079  1.00  0.00    -0.264 NA
ATOM     10  C   UNL A   1      44.717  22.101  25.714  1.00  0.00     0.153 C 
ATOM     11  C   UNL A   1      44.726  22.808  24.404  1.00  0.00     0.255 C 
ATOM     12  C   UNL A   1      45.371  23.294  26.438  1.00  0.00     0.314 C 
ATOM     13  O   UNL A   1      44.481  22.497  23.280  1.00  0.00    -0.283 OA
ATOM     14  C   UNL A   1      45.408  23.993  25.027  1.00  0.00     0.268 C 
ATOM     15  O   UNL A   1      45.759  25.006  24.486  1.00  0.00    -0.283 OA
BRANCH  12  16
ATOM     16  N   UNL A   1      44.640  24.058  27.475  1.00  0.00    -0.321 N 
ATOM     17  C   UNL A   1      45.243  23.904  28.802  1.00  0.00     0.263 C 
ATOM     18  C   UNL A   1      43.198  23.793  27.580  1.00  0.00     0.263 C 
ATOM     19  H   UNL A   1      44.730  25.019  27.146  1.00  0.00     0.349 HD
ATOM     20  C   UNL A   1      44.249  23.099  29.610  1.00  0.00     0.067 C 
ATOM     21  C   UNL A   1      42.915  23.552  29.055  1.00  0.00     0.067 C 
ENDBRANCH  12  16
ENDBRANCH   5   9
ENDBRANCH   3   5
ENDBRANCH   2   3
ENDBRANCH   1   2
BRANCH   1  22
ATOM     22  C   UNL A   1      40.511  21.446  27.489  1.00  0.00     0.275 C 
BRANCH  22  23
ATOM     23  O   UNL A   1      40.437  22.311  26.336  1.00  0.00    -0.458 OA
BRANCH  23  24
ATOM     24  C   UNL A   1      39.298  23.027  26.248  1.00  0.00     0.338 C 
ATOM     25  O   UNL A   1      38.218  22.660  25.814  1.00  0.00    -0.246 OA
BRANCH  24  26
ATOM     26  C   UNL A   1      39.415  24.354  26.843  1.00  0.00     0.060 A 
ATOM     27  C   UNL A   1      40.141  25.301  26.125  1.00  0.00     0.016 A 
ATOM     28  C   UNL A   1      39.066  24.576  28.174  1.00  0.00     0.016 A 
ATOM     29  C   UNL A   1      40.577  26.458  26.744  1.00  0.00     0.010 A 
ATOM     30  C   UNL A   1      39.443  25.778  28.776  1.00  0.00     0.010 A 
ATOM     31  C   UNL A   1      40.214  26.718  28.068  1.00  0.00    -0.014 A 
BRANCH  31  32
ATOM     32  C   UNL A   1      40.619  27.998  28.685  1.00  0.00     0.031 A 
ATOM     33  C   UNL A   1      42.019  28.194  29.181  1.00  0.00     0.074 A 
ATOM     34  C   UNL A   1      39.706  28.981  28.782  1.00  0.00     0.049 A 
ATOM     35  N   UNL A   1      42.506  29.177  29.893  1.00  0.00    -0.248 NA
ATOM     36  C   UNL A   1      42.997  27.148  28.843  1.00  0.00     0.031 C 
ATOM     37  C   UNL A   1      38.335  28.917  28.268  1.00  0.00     0.029 A 
ATOM     38  N   UNL A   1      39.793  30.227  29.343  1.00  0.00    -0.354 N 
ATOM     39  C   UNL A   1      43.837  28.850  30.124  1.00  0.00     0.074 A 
ATOM     40  C   UNL A   1      44.079  27.577  29.479  1.00  0.00     0.031 C 
ATOM     41  C   UNL A   1      37.714  30.075  28.527  1.00  0.00     0.029 A 
ATOM     42  C   UNL A   1      38.613  30.926  29.296  1.00  0.00     0.049 A 
ATOM     43  H   UNL A   1      40.619  30.585  29.742  1.00  0.00     0.167 HD
ATOM     44  C   UNL A   1      44.761  29.553  30.821  1.00  0.00     0.031 A 
ATOM     45  C   UNL A   1      38.272  32.099  29.856  1.00  0.00     0.031 A 
ATOM     46  C   UNL A   1      44.499  30.828  31.437  1.00  0.00     0.049 A 
ATOM     47  C   UNL A   1      39.294  32.822  30.681  1.00  0.00     0.074 A 
ATOM     48  C   UNL A   1      45.367  31.634  32.155  1.00  0.00     0.029 A 
ATOM     49  N   UNL A   1      43.278  31.486  31.401  1.00  0.00    -0.354 N 
ATOM     50  N   UNL A   1      40.538  32.488  30.928  1.00  0.00    -0.248 NA
ATOM     51  C   UNL A   1      38.863  34.073  31.315  1.00  0.00     0.031 C 
ATOM     52  C   UNL A   1      44.654  32.753  32.597  1.00  0.00     0.029 A 
ATOM     53  C   UNL A   1      43.360  32.672  32.108  1.00  0.00     0.049 A 
ATOM     54  H   UNL A   1      42.472  31.156  30.941  1.00  0.00     0.167 HD
ATOM     55  C   UNL A   1      41.044  33.495  31.736  1.00  0.00     0.074 A 
ATOM     56  C   UNL A   1      39.978  34.460  31.920  1.00  0.00     0.031 C 
ATOM     57  C   UNL A   1      42.280  33.610  32.281  1.00  0.00     0.031 A 
BRANCH  44  58
ATOM     58  C   UNL A   1      46.121  28.936  30.998  1.00  0.00    -0.014 A 
ATOM     59  C   UNL A   1      47.168  29.186  30.100  1.00  0.00     0.009 A 
ATOM     60  C   UNL A   1      46.366  28.122  32.117  1.00  0.00     0.009 A 
ATOM     61  C   UNL A   1      48.425  28.609  30.303  1.00  0.00     0.001 A 
ATOM     62  C   UNL A   1      47.630  27.569  32.331  1.00  0.00     0.001 A 
ATOM     63  C   UNL A   1      48.656  27.806  31.419  1.00  0.00     0.000 A 
ENDBRANCH  44  58
BRANCH  45  64
ATOM     64  C   UNL A   1      36.889  32.615  29.702  1.00  0.00    -0.014 A 
ATOM     65  C   UNL A   1      35.913  32.350  30.674  1.00  0.00     0.009 A 
ATOM     66  C   UNL A   1      36.545  33.403  28.590  1.00  0.00     0.009 A 
ATOM     67  C   UNL A   1      34.618  32.854  30.528  1.00  0.00     0.001 A 
ATOM     68  C   UNL A   1      35.260  33.931  28.465  1.00  0.00     0.001 A 
ATOM     69  C   UNL A   1      34.295  33.650  29.429  1.00  0.00     0.000 A 
ENDBRANCH  45  64
BRANCH  57  70
ATOM     70  C   UNL A   1      42.541  34.837  33.105  1.00  0.00    -0.014 A 
ATOM     71  C   UNL A   1      43.148  35.970  32.543  1.00  0.00     0.009 A 
ATOM     72  C   UNL A   1      42.146  34.866  34.450  1.00  0.00     0.009 A 
ATOM     73  C   UNL A   1      43.381  37.102  33.326  1.00  0.00     0.001 A 
ATOM     74  C   UNL A   1      42.355  36.008  35.222  1.00  0.00     0.001 A 
ATOM     75  C   UNL A   1      42.981  37.121  34.662  1.00  0.00     0.000 A 
ENDBRANCH  57  70
ENDBRANCH  31  32
ENDBRANCH  24  26
ENDBRANCH  23  24
ENDBRANCH  22  23
ENDBRANCH   1  22
TORSDOF 14
ENDMDL
MODEL 2
REMARK VINA RESULT:      -9.6      5.168     10.751
REMARK SMILES CC(C)[C@H](/N=C1\C(=O)C(=O)[C@H]1[NH+]1CCCC1)C(=O)OCCOC(=O)c1ccc(-c2c3nc(c(-c4ccccc4)c4ccc([nH]4)c(-c4ccccc4)c4nc(c(-c5ccccc5)c5ccc2[nH]5)C=C4)C=C3)cc1
REMARK SMILES IDX 20 1 19 2 17 3 18 4 4 5 2 6 1 7 3 8 5 9 6 10 7 11 11 12 8 13
REMARK SMILES IDX 9 14 10 15 12 16 13 17 16 18 14 20 15 21 21 22 22 23 23 24
REMARK SMILES IDX 24 25 25 26 26 27 72 28 27 29 71 30 28 31 29 32 30 33 65 34
REMARK SMILES IDX 31 35 70 36 64 37 66 38 32 39 69 40 63 41 62 42 33 44 55 45
REMARK SMILES IDX 40 46 54 47 41 48 44 49 53 50 67 51 42 52 43 53 52 55 68 56
REMARK SMILES IDX 45 57 34 58 35 59 39 60 36 61 38 62 37 63 56 64 57 65 61 66
REMARK SMILES IDX 58 67 60 68 59 69 46 70 47 71 51 72 48 73 50 74 49 75
REMARK H PARENT 12 19 66 43 44 54
REMARK Flexibility Score: inf
ROOT
ATOM      1  C   UNL A   1      32.918  31.056  27.290  1.00  0.00     0.274 C 
ENDROOT
BRANCH   1   2
ATOM      2  O   UNL A   1      32.734  30.429  26.006  1.00  0.00    -0.460 OA
BRANCH   2   3
ATOM      3  C   UNL A   1      33.452  29.292  25.803  1.00  0.00     0.331 C 
ATOM      4  O   UNL A   1      34.471  29.011  26.431  1.00  0.00    -0.250 OA
BRANCH   3   5
ATOM      5  C   UNL A   1      32.858  28.350  24.740  1.00  0.00     0.218 C 
BRANCH   5   6
ATOM      6  C   UNL A   1      33.963  27.750  23.842  1.00  0.00     0.019 C 
ATOM      7  C   UNL A   1      33.652  26.294  23.449  1.00  0.00     0.010 C 
ATOM      8  C   UNL A   1      34.123  28.561  22.550  1.00  0.00     0.010 C 
ENDBRANCH   5   6
BRANCH   5   9
ATOM      9  N   UNL A   1      31.828  29.047  23.922  1.00  0.00    -0.264 NA
ATOM     10  C   UNL A   1      30.642  28.548  23.887  1.00  0.00     0.153 C 
ATOM     11  C   UNL A   1      30.033  27.286  24.390  1.00  0.00     0.255 C 
ATOM     12  C   UNL A   1      29.380  28.917  23.084  1.00  0.00     0.314 C 
ATOM     13  O   UNL A   1      30.431  26.347  25.004  1.00  0.00    -0.283 OA
ATOM     14  C   UNL A   1      28.784  27.552  23.596  1.00  0.00     0.268 C 
ATOM     15  O   UNL A   1      27.802  26.864  23.521  1.00  0.00    -0.283 OA
BRANCH  12  16
ATOM     16  N   UNL A   1      28.565  30.104  23.435  1.00  0.00    -0.321 N 
ATOM     17  C   UNL A   1      27.655  30.488  22.353  1.00  0.00     0.263 C 
ATOM     18  C   UNL A   1      29.310  31.295  23.869  1.00  0.00     0.263 C 
ATOM     19  H   UNL A   1      28.044  29.781  24.250  1.00  0.00     0.349 HD
ATOM     20  C   UNL A   1      28.182  31.806  21.826  1.00  0.00     0.067 C 
ATOM     21  C   UNL A   1      28.755  32.461  23.065  1.00  0.00     0.067 C 
ENDBRANCH  12  16
ENDBRANCH   5   9
ENDBRANCH   3   5
ENDBRANCH   2   3
ENDBRANCH   1   2
BRANCH   1  22
ATOM     22  C   UNL A   1      32.143  32.375  27.406  1.00  0.00     0.275 C 
BRANCH  22  23
ATOM     23  O   UNL A   1      32.992  33.541  27.377  1.00  0.00    -0.458 OA
BRANCH  23  24
ATOM     24  C   UNL A   1      33.193  34.115  28.580  1.00  0.00     0.338 C 
ATOM     25  O   UNL A   1      32.415  34.808  29.215  1.00  0.00    -0.246 OA
BRANCH  24  26
ATOM     26  C   UNL A   1      34.473  33.749  29.177  1.00  0.00     0.060 A 
ATOM     27  C   UNL A   1      35.620  34.131  28.484  1.00  0.00     0.016 A 
ATOM     28  C   UNL A   1      34.540  32.831  30.223  1.00  0.00     0.016 A 
ATOM     29  C   UNL A   1      36.840  33.557  28.790  1.00  0.00     0.010 A 
ATOM     30  C   UNL A   1      35.784  32.307  30.580  1.00  0.00     0.010 A 
ATOM     31  C   UNL A   1      36.938  32.657  29.855  1.00  0.00    -0.014 A 
BRANCH  31  32
ATOM     32  C   UNL A   1      38.265  32.119  30.219  1.00  0.00     0.031 A 
ATOM     33  C   UNL A   1      38.758  30.838  29.618  1.00  0.00     0.074 A 
ATOM     34  C   UNL A   1      39.019  32.808  31.094  1.00  0.00     0.049 A 
ATOM     35  N   UNL A   1      39.812  30.134  29.940  1.00  0.00    -0.248 NA
ATOM     36  C   UNL A   1      37.961  30.269  28.519  1.00  0.00     0.031 C 
ATOM     37  C   UNL A   1      38.661  34.101  31.686  1.00  0.00     0.029 A 
ATOM     38  N   UNL A   1      40.243  32.522  31.637  1.00  0.00    -0.354 N 
ATOM     39  C   UNL A   1      39.784  29.018  29.113  1.00  0.00     0.074 A 
ATOM     40  C   UNL A   1      38.608  29.137  28.278  1.00  0.00     0.031 C 
ATOM     41  C   UNL A   1      39.648  34.500  32.499  1.00  0.00     0.029 A 
ATOM     42  C   UNL A   1      40.663  33.456  32.550  1.00  0.00     0.049 A 
ATOM     43  H   UNL A   1      40.768  31.724  31.398  1.00  0.00     0.167 HD
ATOM     44  C   UNL A   1      40.662  27.987  29.072  1.00  0.00     0.031 A 
ATOM     45  C   UNL A   1      41.721  33.450  33.378  1.00  0.00     0.031 A 
ATOM     46  C   UNL A   1      41.836  27.902  29.901  1.00  0.00     0.049 A 
ATOM     47  C   UNL A   1      42.638  32.265  33.359  1.00  0.00     0.074 A 
ATOM     48  C   UNL A   1      42.802  26.910  29.931  1.00  0.00     0.029 A 
ATOM     49  N   UNL A   1      42.207  28.850  30.843  1.00  0.00    -0.354 N 
ATOM     50  N   UNL A   1      42.585  31.195  32.603  1.00  0.00    -0.248 NA
ATOM     51  C   UNL A   1      43.751  32.278  34.317  1.00  0.00     0.031 C 
ATOM     52  C   UNL A   1      43.727  27.234  30.928  1.00  0.00     0.029 A 
ATOM     53  C   UNL A   1      43.370  28.454  31.480  1.00  0.00     0.049 A 
ATOM     54  H   UNL A   1      41.715  29.682  31.031  1.00  0.00     0.167 HD
ATOM     55  C   UNL A   1      43.664  30.412  32.983  1.00  0.00     0.074 A 
ATOM     56  C   UNL A   1      44.365  31.140  34.023  1.00  0.00     0.031 C 
ATOM     57  C   UNL A   1      44.041  29.196  32.517  1.00  0.00     0.031 A 
BRANCH  44  58
ATOM     58  C   UNL A   1      40.360  26.848  28.138  1.00  0.00    -0.014 A 
ATOM     59  C   UNL A   1      40.877  26.803  26.835  1.00  0.00     0.009 A 
ATOM     60  C   UNL A   1      39.574  25.776  28.592  1.00  0.00     0.009 A 
ATOM     61  C   UNL A   1      40.590  25.722  25.997  1.00  0.00     0.001 A 
ATOM     62  C   UNL A   1      39.310  24.685  27.762  1.00  0.00     0.001 A 
ATOM     63  C   UNL A   1      39.811  24.663  26.463  1.00  0.00     0.000 A 
ENDBRANCH  44  58
BRANCH  45  64
ATOM     64  C   UNL A   1      41.920  34.575  34.327  1.00  0.00    -0.014 A 
ATOM     65  C   UNL A   1      41.383  34.522  35.621  1.00  0.00     0.009 A 
ATOM     66  C   UNL A   1      42.676  35.697  33.950  1.00  0.00     0.009 A 
ATOM     67  C   UNL A   1      41.590  35.578  36.513  1.00  0.00     0.001 A 
ATOM     68  C   UNL A   1      42.907  36.734  34.854  1.00  0.00     0.001 A 
ATOM     69  C   UNL A   1      42.357  36.678  36.132  1.00  0.00     0.000 A 
ENDBRANCH  45  64
BRANCH  57  70
ATOM     70  C   UNL A   1      45.280  28.599  33.116  1.00  0.00    -0.014 A 
ATOM     71  C   UNL A   1      46.550  28.898  32.600  1.00  0.00     0.009 A 
ATOM     72  C   UNL A   1      45.174  27.753  34.230  1.00  0.00     0.009 A 
ATOM     73  C   UNL A   1      47.691  28.334  33.173  1.00  0.00     0.001 A 
ATOM     74  C   UNL A   1      46.318  27.212  34.817  1.00  0.00     0.001 A 
ATOM     75  C   UNL A   1      47.574  27.495  34.283  1.00  0.00     0.000 A 
ENDBRANCH  57  70
ENDBRANCH  31  32
ENDBRANCH  24  26
ENDBRANCH  23  24
ENDBRANCH  22  23
ENDBRANCH   1  22
TORSDOF 14
ENDMDL
MODEL 3
REMARK VINA RESULT:      -9.6      4.952     10.328
REMARK SMILES CC(C)[C@H](/N=C1\C(=O)C(=O)[C@H]1[NH+]1CCCC1)C(=O)OCCOC(=O)c1ccc(-c2c3nc(c(-c4ccccc4)c4ccc([nH]4)c(-c4ccccc4)c4nc(c(-c5ccccc5)c5ccc2[nH]5)C=C4)C=C3)cc1
REMARK SMILES IDX 20 1 19 2 17 3 18 4 4 5 2 6 1 7 3 8 5 9 6 10 7 11 11 12 8 13
REMARK SMILES IDX 9 14 10 15 12 16 13 17 16 18 14 20 15 21 21 22 22 23 23 24
REMARK SMILES IDX 24 25 25 26 26 27 72 28 27 29 71 30 28 31 29 32 30 33 65 34
REMARK SMILES IDX 31 35 70 36 64 37 66 38 32 39 69 40 63 41 62 42 33 44 55 45
REMARK SMILES IDX 40 46 54 47 41 48 44 49 53 50 67 51 42 52 43 53 52 55 68 56
REMARK SMILES IDX 45 57 34 58 35 59 39 60 36 61 38 62 37 63 56 64 57 65 61 66
REMARK SMILES IDX 58 67 60 68 59 69 46 70 47 71 51 72 48 73 50 74 49 75
REMARK H PARENT 12 19 66 43 44 54
REMARK Flexibility Score: inf
ROOT
ATOM      1  C   UNL A   1      33.561  28.317  25.752  1.00  0.00     0.274 C 
ENDROOT
BRANCH   1   2
ATOM      2  O   UNL A   1      32.472  28.876  24.993  1.00  0.00    -0.460 OA
BRANCH   2   3
ATOM      3  C   UNL A   1      32.602  28.800  23.642  1.00  0.00     0.331 C 
ATOM      4  O   UNL A   1      33.587  29.208  23.030  1.00  0.00    -0.250 OA
BRANCH   3   5
ATOM      5  C   UNL A   1      31.421  28.113  22.931  1.00  0.00     0.218 C 
BRANCH   5   6
ATOM      6  C   UNL A   1      30.136  28.966  23.028  1.00  0.00     0.019 C 
ATOM      7  C   UNL A   1      29.986  29.912  21.822  1.00  0.00     0.010 C 
ATOM      8  C   UNL A   1      28.888  28.076  23.084  1.00  0.00     0.010 C 
ENDBRANCH   5   6
BRANCH   5   9
ATOM      9  N   UNL A   1      31.194  26.745  23.470  1.00  0.00    -0.264 NA
ATOM     10  C   UNL A   1      31.963  25.797  23.063  1.00  0.00     0.153 C 
ATOM     11  C   UNL A   1      33.015  25.693  22.014  1.00  0.00     0.255 C 
ATOM     12  C   UNL A   1      31.960  24.275  23.305  1.00  0.00     0.314 C 
ATOM     13  O   UNL A   1      33.502  26.450  21.235  1.00  0.00    -0.283 OA
ATOM     14  C   UNL A   1      33.037  24.197  22.159  1.00  0.00     0.268 C 
ATOM     15  O   UNL A   1      33.705  23.410  21.545  1.00  0.00    -0.283 OA
BRANCH  12  16
ATOM     16  N   UNL A   1      32.406  23.702  24.597  1.00  0.00    -0.321 N 
ATOM     17  C   UNL A   1      31.765  22.415  24.881  1.00  0.00     0.263 C 
ATOM     18  C   UNL A   1      32.263  24.569  25.775  1.00  0.00     0.263 C 
ATOM     19  H   UNL A   1      33.408  23.583  24.451  1.00  0.00     0.349 HD
ATOM     20  C   UNL A   1      30.838  22.671  26.050  1.00  0.00     0.067 C 
ATOM     21  C   UNL A   1      31.577  23.729  26.842  1.00  0.00     0.067 C 
ENDBRANCH  12  16
ENDBRANCH   5   9
ENDBRANCH   3   5
ENDBRANCH   2   3
ENDBRANCH   1   2
BRANCH   1  22
ATOM     22  C   UNL A   1      33.733  29.006  27.113  1.00  0.00     0.275 C 
BRANCH  22  23
ATOM     23  O   UNL A   1      34.133  30.388  27.006  1.00  0.00    -0.458 OA
BRANCH  23  24
ATOM     24  C   UNL A   1      34.845  30.846  28.055  1.00  0.00     0.338 C 
ATOM     25  O   UNL A   1      34.517  31.698  28.865  1.00  0.00    -0.246 OA
BRANCH  24  26
ATOM     26  C   UNL A   1      36.103  30.131  28.242  1.00  0.00     0.060 A 
ATOM     27  C   UNL A   1      36.383  29.681  29.531  1.00  0.00     0.016 A 
ATOM     28  C   UNL A   1      37.090  30.148  27.259  1.00  0.00     0.016 A 
ATOM     29  C   UNL A   1      37.667  29.295  29.869  1.00  0.00     0.010 A 
ATOM     30  C   UNL A   1      38.369  29.688  27.581  1.00  0.00     0.010 A 
ATOM     31  C   UNL A   1      38.666  29.274  28.892  1.00  0.00    -0.014 A 
BRANCH  31  32
ATOM     32  C   UNL A   1      40.011  28.779  29.253  1.00  0.00     0.031 A 
ATOM     33  C   UNL A   1      40.968  29.654  30.002  1.00  0.00     0.074 A 
ATOM     34  C   UNL A   1      40.350  27.526  28.901  1.00  0.00     0.049 A 
ATOM     35  N   UNL A   1      42.235  29.454  30.257  1.00  0.00    -0.248 NA
ATOM     36  C   UNL A   1      40.438  30.923  30.527  1.00  0.00     0.031 C 
ATOM     37  C   UNL A   1      39.467  26.567  28.229  1.00  0.00     0.029 A 
ATOM     38  N   UNL A   1      41.525  26.841  29.059  1.00  0.00    -0.354 N 
ATOM     39  C   UNL A   1      42.666  30.588  30.935  1.00  0.00     0.074 A 
ATOM     40  C   UNL A   1      41.527  31.472  31.049  1.00  0.00     0.031 C 
ATOM     41  C   UNL A   1      40.128  25.416  28.045  1.00  0.00     0.029 A 
ATOM     42  C   UNL A   1      41.499  25.585  28.507  1.00  0.00     0.049 A 
ATOM     43  H   UNL A   1      42.310  27.213  29.523  1.00  0.00     0.167 HD
ATOM     44  C   UNL A   1      43.907  30.858  31.406  1.00  0.00     0.031 A 
ATOM     45  C   UNL A   1      42.484  24.687  28.340  1.00  0.00     0.031 A 
ATOM     46  C   UNL A   1      45.020  29.951  31.297  1.00  0.00     0.049 A 
ATOM     47  C   UNL A   1      43.863  25.041  28.809  1.00  0.00     0.074 A 
ATOM     48  C   UNL A   1      46.317  30.118  31.752  1.00  0.00     0.029 A 
ATOM     49  N   UNL A   1      44.965  28.703  30.693  1.00  0.00    -0.354 N 
ATOM     50  N   UNL A   1      44.272  26.130  29.413  1.00  0.00    -0.248 NA
ATOM     51  C   UNL A   1      44.918  24.050  28.560  1.00  0.00     0.031 C 
ATOM     52  C   UNL A   1      47.057  28.991  31.377  1.00  0.00     0.029 A 
ATOM     53  C   UNL A   1      46.209  28.100  30.738  1.00  0.00     0.049 A 
ATOM     54  H   UNL A   1      44.158  28.305  30.292  1.00  0.00     0.167 HD
ATOM     55  C   UNL A   1      45.630  25.952  29.630  1.00  0.00     0.074 A 
ATOM     56  C   UNL A   1      45.970  24.642  29.109  1.00  0.00     0.031 C 
ATOM     57  C   UNL A   1      46.520  26.799  30.205  1.00  0.00     0.031 A 
BRANCH  44  58
ATOM     58  C   UNL A   1      44.138  32.204  32.034  1.00  0.00    -0.014 A 
ATOM     59  C   UNL A   1      44.658  33.281  31.303  1.00  0.00     0.009 A 
ATOM     60  C   UNL A   1      43.784  32.405  33.379  1.00  0.00     0.009 A 
ATOM     61  C   UNL A   1      44.847  34.525  31.914  1.00  0.00     0.001 A 
ATOM     62  C   UNL A   1      43.949  33.655  33.979  1.00  0.00     0.001 A 
ATOM     63  C   UNL A   1      44.488  34.711  33.248  1.00  0.00     0.000 A 
ENDBRANCH  44  58
BRANCH  45  64
ATOM     64  C   UNL A   1      42.203  23.405  27.645  1.00  0.00    -0.014 A 
ATOM     65  C   UNL A   1      41.651  22.320  28.340  1.00  0.00     0.009 A 
ATOM     66  C   UNL A   1      42.458  23.272  26.269  1.00  0.00     0.009 A 
ATOM     67  C   UNL A   1      41.374  21.123  27.673  1.00  0.00     0.001 A 
ATOM     68  C   UNL A   1      42.150  22.087  25.601  1.00  0.00     0.001 A 
ATOM     69  C   UNL A   1      41.616  21.011  26.305  1.00  0.00     0.000 A 
ENDBRANCH  45  64
BRANCH  57  70
ATOM     70  C   UNL A   1      47.935  26.313  30.319  1.00  0.00    -0.014 A 
ATOM     71  C   UNL A   1      48.405  25.723  31.501  1.00  0.00     0.009 A 
ATOM     72  C   UNL A   1      48.796  26.422  29.217  1.00  0.00     0.009 A 
ATOM     73  C   UNL A   1      49.725  25.277  31.586  1.00  0.00     0.001 A 
ATOM     74  C   UNL A   1      50.105  25.949  29.295  1.00  0.00     0.001 A 
ATOM     75  C   UNL A   1      50.572  25.386  30.483  1.00  0.00     0.000 A 
ENDBRANCH  57  70
ENDBRANCH  31  32
ENDBRANCH  24  26
ENDBRANCH  23  24
ENDBRANCH  22  23
ENDBRANCH   1  22
TORSDOF 14
ENDMDL
