MODEL 1
REMARK VINA RESULT:     -11.4      0.000      0.000
REMARK SMILES O=C(OCCOC(=O)[C@@H]1CCCCN1C(=O)[C@@H]1CCS(=O)(=O)C1)c1ccc(-c2c3nc(c(-c4ccccc4)c4ccc([nH]4)c(-c4ccccc4)c4nc(c(-c5ccccc5)c5ccc2[nH]5)C=C4)C=C3)cc1
REMARK SMILES IDX 4 1 3 2 2 3 1 4 24 5 25 6 71 7 26 8 70 9 27 10 28 11 29 12
REMARK SMILES IDX 64 13 30 14 69 15 63 16 65 17 31 18 68 19 62 20 61 21 32 23
REMARK SMILES IDX 54 24 39 25 53 26 40 27 43 28 52 29 66 30 41 31 42 32 51 34
REMARK SMILES IDX 67 35 44 36 33 37 34 38 38 39 35 40 37 41 36 42 55 43 56 44
REMARK SMILES IDX 60 45 57 46 59 47 58 48 45 49 46 50 50 51 47 52 49 53 48 54
REMARK SMILES IDX 5 55 6 56 7 57 8 58 9 59 10 60 14 61 11 62 13 63 12 64 15 65
REMARK SMILES IDX 16 66 17 67 18 68 23 69 19 70 20 71 21 72 22 73
REMARK H PARENT 65 22 43 33
REMARK Flexibility Score: inf
ROOT
ATOM      1  C   UNL A   1      47.290  23.508  37.306  1.00  0.00     0.275 C 
ENDROOT
BRANCH   1   2
ATOM      2  O   UNL A   1      45.920  23.053  37.233  1.00  0.00    -0.458 OA
BRANCH   2   3
ATOM      3  C   UNL A   1      45.061  23.095  36.182  1.00  0.00     0.338 C 
ATOM      4  O   UNL A   1      44.862  22.093  35.502  1.00  0.00    -0.246 OA
BRANCH   3   5
ATOM      5  C   UNL A   1      44.376  24.342  35.742  1.00  0.00     0.060 A 
ATOM      6  C   UNL A   1      42.561  24.555  35.761  1.00  0.00     0.016 A 
ATOM      7  C   UNL A   1      45.402  25.725  35.122  1.00  0.00     0.016 A 
ATOM      8  C   UNL A   1      41.775  26.024  35.127  1.00  0.00     0.010 A 
ATOM      9  C   UNL A   1      44.534  27.232  34.424  1.00  0.00     0.010 A 
ATOM     10  C   UNL A   1      42.698  27.342  34.394  1.00  0.00    -0.014 A 
BRANCH  10  11
ATOM     11  C   UNL A   1      41.737  28.322  33.638  1.00  0.00     0.031 A 
ATOM     12  C   UNL A   1      40.995  29.615  34.154  1.00  0.00     0.074 A 
ATOM     13  C   UNL A   1      41.717  28.259  32.298  1.00  0.00     0.049 A 
ATOM     14  N   UNL A   1      39.764  30.029  33.925  1.00  0.00    -0.248 NA
ATOM     15  C   UNL A   1      41.696  30.539  35.080  1.00  0.00     0.031 C 
ATOM     16  C   UNL A   1      42.608  27.473  31.459  1.00  0.00     0.029 A 
ATOM     17  N   UNL A   1      40.865  28.858  31.411  1.00  0.00    -0.354 N 
ATOM     18  C   UNL A   1      39.472  30.979  34.927  1.00  0.00     0.074 A 
ATOM     19  C   UNL A   1      40.658  31.065  35.731  1.00  0.00     0.031 C 
ATOM     20  C   UNL A   1      42.166  27.498  30.197  1.00  0.00     0.029 A 
ATOM     21  C   UNL A   1      40.967  28.317  30.156  1.00  0.00     0.049 A 
ATOM     22  H   UNL A   1      40.252  29.591  31.646  1.00  0.00     0.167 HD
ATOM     23  C   UNL A   1      38.363  31.750  35.122  1.00  0.00     0.031 A 
ATOM     24  C   UNL A   1      40.147  28.434  29.103  1.00  0.00     0.031 A 
ATOM     25  C   UNL A   1      37.473  32.028  34.023  1.00  0.00     0.049 A 
ATOM     26  C   UNL A   1      38.988  29.375  29.220  1.00  0.00     0.074 A 
ATOM     27  C   UNL A   1      36.421  32.922  33.923  1.00  0.00     0.029 A 
ATOM     28  N   UNL A   1      37.665  31.485  32.763  1.00  0.00    -0.354 N 
ATOM     29  N   UNL A   1      38.554  30.040  30.266  1.00  0.00    -0.248 NA
ATOM     30  C   UNL A   1      38.252  29.637  27.982  1.00  0.00     0.031 C 
ATOM     31  C   UNL A   1      35.959  32.888  32.598  1.00  0.00     0.029 A 
ATOM     32  C   UNL A   1      36.774  32.030  31.869  1.00  0.00     0.049 A 
ATOM     33  H   UNL A   1      38.342  30.806  32.540  1.00  0.00     0.167 HD
ATOM     34  C   UNL A   1      37.532  30.854  29.797  1.00  0.00     0.074 A 
ATOM     35  C   UNL A   1      37.425  30.594  28.373  1.00  0.00     0.031 C 
ATOM     36  C   UNL A   1      36.753  31.746  30.460  1.00  0.00     0.031 A 
BRANCH  23  37
ATOM     37  C   UNL A   1      38.063  32.355  36.496  1.00  0.00    -0.014 A 
ATOM     38  C   UNL A   1      38.387  33.668  36.873  1.00  0.00     0.009 A 
ATOM     39  C   UNL A   1      37.466  31.541  37.483  1.00  0.00     0.009 A 
ATOM     40  C   UNL A   1      38.287  34.090  38.209  1.00  0.00     0.001 A 
ATOM     41  C   UNL A   1      37.306  31.982  38.805  1.00  0.00     0.001 A 
ATOM     42  C   UNL A   1      37.759  33.242  39.179  1.00  0.00     0.000 A 
ENDBRANCH  23  37
BRANCH  24  43
ATOM     43  C   UNL A   1      40.480  27.704  27.856  1.00  0.00    -0.014 A 
ATOM     44  C   UNL A   1      41.363  28.278  26.931  1.00  0.00     0.009 A 
ATOM     45  C   UNL A   1      40.007  26.401  27.628  1.00  0.00     0.009 A 
ATOM     46  C   UNL A   1      41.743  27.577  25.787  1.00  0.00     0.001 A 
ATOM     47  C   UNL A   1      40.412  25.690  26.495  1.00  0.00     0.001 A 
ATOM     48  C   UNL A   1      41.272  26.283  25.571  1.00  0.00     0.000 A 
ENDBRANCH  24  43
BRANCH  36  49
ATOM     49  C   UNL A   1      35.797  32.546  29.636  1.00  0.00    -0.014 A 
ATOM     50  C   UNL A   1      36.114  33.843  29.216  1.00  0.00     0.009 A 
ATOM     51  C   UNL A   1      34.595  31.952  29.220  1.00  0.00     0.009 A 
ATOM     52  C   UNL A   1      35.220  34.552  28.418  1.00  0.00     0.001 A 
ATOM     53  C   UNL A   1      33.725  32.647  28.386  1.00  0.00     0.001 A 
ATOM     54  C   UNL A   1      34.033  33.950  27.997  1.00  0.00     0.000 A 
ENDBRANCH  36  49
ENDBRANCH  10  11
ENDBRANCH   3   5
ENDBRANCH   2   3
ENDBRANCH   1   2
BRANCH   1  55
ATOM     55  C   UNL A   1      48.213  22.565  38.122  1.00  0.00     0.274 C 
BRANCH  55  56
ATOM     56  O   UNL A   1      49.047  21.691  37.326  1.00  0.00    -0.461 OA
BRANCH  56  57
ATOM     57  C   UNL A   1      48.578  20.432  37.112  1.00  0.00     0.328 C 
ATOM     58  O   UNL A   1      48.058  20.074  36.061  1.00  0.00    -0.250 OA
BRANCH  57  59
ATOM     59  C   UNL A   1      48.871  19.458  38.353  1.00  0.00     0.195 C 
ATOM     60  C   UNL A   1      50.347  19.002  38.235  1.00  0.00     0.037 C 
ATOM     61  N   UNL A   1      47.896  18.459  39.472  1.00  0.00    -0.329 N 
ATOM     62  C   UNL A   1      51.119  18.995  39.547  1.00  0.00     0.005 C 
ATOM     63  C   UNL A   1      48.976  18.745  40.825  1.00  0.00     0.120 C 
ATOM     64  C   UNL A   1      50.390  18.233  40.616  1.00  0.00     0.022 C 
BRANCH  61  65
ATOM     65  C   UNL A   1      46.045  17.736  39.381  1.00  0.00     0.227 C 
ATOM     66  O   UNL A   1      45.120  17.786  38.480  1.00  0.00    -0.275 OA
BRANCH  65  67
ATOM     67  C   UNL A   1      45.041  16.841  40.711  1.00  0.00     0.094 C 
ATOM     68  C   UNL A   1      43.742  16.973  41.547  1.00  0.00     0.030 C 
ATOM     69  C   UNL A   1      45.963  16.252  41.751  1.00  0.00     0.150 C 
ATOM     70  C   UNL A   1      44.017  17.433  42.996  1.00  0.00     0.138 C 
ATOM     71  S   UNL A   1      45.699  17.005  43.350  1.00  0.00     0.151 S 
ATOM     72  O   UNL A   1      46.441  18.239  43.505  1.00  0.00    -0.229 OA
ATOM     73  O   UNL A   1      45.733  15.984  44.370  1.00  0.00    -0.229 OA
ENDBRANCH  65  67
ENDBRANCH  61  65
ENDBRANCH  57  59
ENDBRANCH  56  57
ENDBRANCH  55  56
ENDBRANCH   1  55
TORSDOF 13
ENDMDL
MODEL 2
REMARK VINA RESULT:     -11.4      1.974      3.311
REMARK SMILES O=C(OCCOC(=O)[C@@H]1CCCCN1C(=O)[C@@H]1CCS(=O)(=O)C1)c1ccc(-c2c3nc(c(-c4ccccc4)c4ccc([nH]4)c(-c4ccccc4)c4nc(c(-c5ccccc5)c5ccc2[nH]5)C=C4)C=C3)cc1
REMARK SMILES IDX 4 1 3 2 2 3 1 4 24 5 25 6 71 7 26 8 70 9 27 10 28 11 29 12
REMARK SMILES IDX 64 13 30 14 69 15 63 16 65 17 31 18 68 19 62 20 61 21 32 23
REMARK SMILES IDX 54 24 39 25 53 26 40 27 43 28 52 29 66 30 41 31 42 32 51 34
REMARK SMILES IDX 67 35 44 36 33 37 34 38 38 39 35 40 37 41 36 42 55 43 56 44
REMARK SMILES IDX 60 45 57 46 59 47 58 48 45 49 46 50 50 51 47 52 49 53 48 54
REMARK SMILES IDX 5 55 6 56 7 57 8 58 9 59 10 60 14 61 11 62 13 63 12 64 15 65
REMARK SMILES IDX 16 66 17 67 18 68 23 69 19 70 20 71 21 72 22 73
REMARK H PARENT 65 22 43 33
REMARK Flexibility Score: inf
ROOT
ATOM      1  C   UNL A   1      47.483  23.966  37.794  1.00  0.00     0.275 C 
ENDROOT
BRANCH   1   2
ATOM      2  O   UNL A   1      46.061  23.705  37.782  1.00  0.00    -0.458 OA
BRANCH   2   3
ATOM      3  C   UNL A   1      45.211  23.650  36.725  1.00  0.00     0.338 C 
ATOM      4  O   UNL A   1      44.971  22.578  36.176  1.00  0.00    -0.246 OA
BRANCH   3   5
ATOM      5  C   UNL A   1      44.586  24.859  36.120  1.00  0.00     0.060 A 
ATOM      6  C   UNL A   1      42.848  25.346  36.407  1.00  0.00     0.016 A 
ATOM      7  C   UNL A   1      45.602  25.898  35.007  1.00  0.00     0.016 A 
ATOM      8  C   UNL A   1      42.109  26.742  35.581  1.00  0.00     0.010 A 
ATOM      9  C   UNL A   1      44.774  27.329  34.125  1.00  0.00     0.010 A 
ATOM     10  C   UNL A   1      42.994  27.709  34.395  1.00  0.00    -0.014 A 
BRANCH  10  11
ATOM     11  C   UNL A   1      42.007  28.634  33.604  1.00  0.00     0.031 A 
ATOM     12  C   UNL A   1      41.295  29.970  34.045  1.00  0.00     0.074 A 
ATOM     13  C   UNL A   1      41.929  28.463  32.275  1.00  0.00     0.049 A 
ATOM     14  N   UNL A   1      40.057  30.376  33.836  1.00  0.00    -0.248 NA
ATOM     15  C   UNL A   1      42.040  30.959  34.863  1.00  0.00     0.031 C 
ATOM     16  C   UNL A   1      42.779  27.604  31.466  1.00  0.00     0.029 A 
ATOM     17  N   UNL A   1      41.043  28.996  31.379  1.00  0.00    -0.354 N 
ATOM     18  C   UNL A   1      39.814  31.405  34.768  1.00  0.00     0.074 A 
ATOM     19  C   UNL A   1      41.033  31.546  35.512  1.00  0.00     0.031 C 
ATOM     20  C   UNL A   1      42.283  27.532  30.225  1.00  0.00     0.029 A 
ATOM     21  C   UNL A   1      41.088  28.355  30.169  1.00  0.00     0.049 A 
ATOM     22  H   UNL A   1      40.444  29.751  31.581  1.00  0.00     0.167 HD
ATOM     23  C   UNL A   1      38.718  32.199  34.948  1.00  0.00     0.031 A 
ATOM     24  C   UNL A   1      40.224  28.395  29.146  1.00  0.00     0.031 A 
ATOM     25  C   UNL A   1      37.783  32.396  33.869  1.00  0.00     0.049 A 
ATOM     26  C   UNL A   1      39.076  29.352  29.235  1.00  0.00     0.074 A 
ATOM     27  C   UNL A   1      36.733  33.289  33.741  1.00  0.00     0.029 A 
ATOM     28  N   UNL A   1      37.918  31.752  32.649  1.00  0.00    -0.354 N 
ATOM     29  N   UNL A   1      38.691  30.103  30.242  1.00  0.00    -0.248 NA
ATOM     30  C   UNL A   1      38.289  29.519  28.013  1.00  0.00     0.031 C 
ATOM     31  C   UNL A   1      36.215  33.152  32.444  1.00  0.00     0.029 A 
ATOM     32  C   UNL A   1      36.992  32.231  31.753  1.00  0.00     0.049 A 
ATOM     33  H   UNL A   1      38.581  31.051  32.453  1.00  0.00     0.167 HD
ATOM     34  C   UNL A   1      37.655  30.885  29.753  1.00  0.00     0.074 A 
ATOM     35  C   UNL A   1      37.485  30.513  28.360  1.00  0.00     0.031 C 
ATOM     36  C   UNL A   1      36.910  31.834  30.373  1.00  0.00     0.031 A 
BRANCH  23  37
ATOM     37  C   UNL A   1      38.481  32.916  36.279  1.00  0.00    -0.014 A 
ATOM     38  C   UNL A   1      38.926  34.215  36.573  1.00  0.00     0.009 A 
ATOM     39  C   UNL A   1      37.816  32.225  37.316  1.00  0.00     0.009 A 
ATOM     40  C   UNL A   1      38.870  34.728  37.879  1.00  0.00     0.001 A 
ATOM     41  C   UNL A   1      37.702  32.762  38.607  1.00  0.00     0.001 A 
ATOM     42  C   UNL A   1      38.271  33.996  38.900  1.00  0.00     0.000 A 
ENDBRANCH  23  37
BRANCH  24  43
ATOM     43  C   UNL A   1      40.499  27.564  27.949  1.00  0.00    -0.014 A 
ATOM     44  C   UNL A   1      41.345  28.054  26.944  1.00  0.00     0.009 A 
ATOM     45  C   UNL A   1      40.010  26.250  27.848  1.00  0.00     0.009 A 
ATOM     46  C   UNL A   1      41.671  27.259  25.845  1.00  0.00     0.001 A 
ATOM     47  C   UNL A   1      40.362  25.447  26.760  1.00  0.00     0.001 A 
ATOM     48  C   UNL A   1      41.185  25.956  25.755  1.00  0.00     0.000 A 
ENDBRANCH  24  43
BRANCH  36  49
ATOM     49  C   UNL A   1      35.924  32.574  29.529  1.00  0.00    -0.014 A 
ATOM     50  C   UNL A   1      34.675  32.020  29.222  1.00  0.00     0.009 A 
ATOM     51  C   UNL A   1      36.233  33.875  29.102  1.00  0.00     0.009 A 
ATOM     52  C   UNL A   1      33.761  32.747  28.464  1.00  0.00     0.001 A 
ATOM     53  C   UNL A   1      35.300  34.615  28.383  1.00  0.00     0.001 A 
ATOM     54  C   UNL A   1      34.070  34.045  28.056  1.00  0.00     0.000 A 
ENDBRANCH  36  49
ENDBRANCH  10  11
ENDBRANCH   3   5
ENDBRANCH   2   3
ENDBRANCH   1   2
BRANCH   1  55
ATOM     55  C   UNL A   1      48.278  23.022  38.734  1.00  0.00     0.274 C 
BRANCH  55  56
ATOM     56  O   UNL A   1      47.575  21.819  39.124  1.00  0.00    -0.461 OA
BRANCH  56  57
ATOM     57  C   UNL A   1      48.341  20.732  39.407  1.00  0.00     0.328 C 
ATOM     58  O   UNL A   1      49.494  20.806  39.819  1.00  0.00    -0.250 OA
BRANCH  57  59
ATOM     59  C   UNL A   1      47.533  19.357  39.228  1.00  0.00     0.195 C 
ATOM     60  C   UNL A   1      48.257  18.290  40.088  1.00  0.00     0.037 C 
ATOM     61  N   UNL A   1      46.402  18.668  38.027  1.00  0.00    -0.329 N 
ATOM     62  C   UNL A   1      47.332  17.377  40.882  1.00  0.00     0.005 C 
ATOM     63  C   UNL A   1      45.480  17.803  39.245  1.00  0.00     0.120 C 
ATOM     64  C   UNL A   1      46.277  16.760  40.007  1.00  0.00     0.022 C 
BRANCH  61  65
ATOM     65  C   UNL A   1      46.004  19.112  36.129  1.00  0.00     0.227 C 
ATOM     66  O   UNL A   1      45.027  18.813  35.338  1.00  0.00    -0.275 OA
BRANCH  65  67
ATOM     67  C   UNL A   1      47.066  20.036  34.866  1.00  0.00     0.094 C 
ATOM     68  C   UNL A   1      47.963  19.795  33.624  1.00  0.00     0.030 C 
ATOM     69  C   UNL A   1      47.850  21.131  35.546  1.00  0.00     0.150 C 
ATOM     70  C   UNL A   1      49.469  19.865  33.962  1.00  0.00     0.138 C 
ATOM     71  S   UNL A   1      49.609  20.827  35.442  1.00  0.00     0.151 S 
ATOM     72  O   UNL A   1      50.077  19.946  36.493  1.00  0.00    -0.229 OA
ATOM     73  O   UNL A   1      50.291  22.066  35.152  1.00  0.00    -0.229 OA
ENDBRANCH  65  67
ENDBRANCH  61  65
ENDBRANCH  57  59
ENDBRANCH  56  57
ENDBRANCH  55  56
ENDBRANCH   1  55
TORSDOF 13
ENDMDL
MODEL 3
REMARK VINA RESULT:     -11.3     11.799     19.322
REMARK SMILES O=C(OCCOC(=O)[C@@H]1CCCCN1C(=O)[C@@H]1CCS(=O)(=O)C1)c1ccc(-c2c3nc(c(-c4ccccc4)c4ccc([nH]4)c(-c4ccccc4)c4nc(c(-c5ccccc5)c5ccc2[nH]5)C=C4)C=C3)cc1
REMARK SMILES IDX 4 1 3 2 2 3 1 4 24 5 25 6 71 7 26 8 70 9 27 10 28 11 29 12
REMARK SMILES IDX 64 13 30 14 69 15 63 16 65 17 31 18 68 19 62 20 61 21 32 23
REMARK SMILES IDX 54 24 39 25 53 26 40 27 43 28 52 29 66 30 41 31 42 32 51 34
REMARK SMILES IDX 67 35 44 36 33 37 34 38 38 39 35 40 37 41 36 42 55 43 56 44
REMARK SMILES IDX 60 45 57 46 59 47 58 48 45 49 46 50 50 51 47 52 49 53 48 54
REMARK SMILES IDX 5 55 6 56 7 57 8 58 9 59 10 60 14 61 11 62 13 63 12 64 15 65
REMARK SMILES IDX 16 66 17 67 18 68 23 69 19 70 20 71 21 72 22 73
REMARK H PARENT 65 22 43 33
REMARK Flexibility Score: inf
ROOT
ATOM      1  C   UNL A   1      45.194  40.273  26.761  1.00  0.00     0.275 C 
ENDROOT
BRANCH   1   2
ATOM      2  O   UNL A   1      45.162  38.885  27.162  1.00  0.00    -0.458 OA
BRANCH   2   3
ATOM      3  C   UNL A   1      44.091  38.066  27.323  1.00  0.00     0.338 C 
ATOM      4  O   UNL A   1      42.957  38.532  27.388  1.00  0.00    -0.246 OA
BRANCH   3   5
ATOM      5  C   UNL A   1      44.213  36.593  27.505  1.00  0.00     0.060 A 
ATOM      6  C   UNL A   1      43.966  35.386  26.155  1.00  0.00     0.016 A 
ATOM      7  C   UNL A   1      44.605  35.954  29.175  1.00  0.00     0.016 A 
ATOM      8  C   UNL A   1      44.018  33.627  26.439  1.00  0.00     0.010 A 
ATOM      9  C   UNL A   1      44.606  34.099  29.439  1.00  0.00     0.010 A 
ATOM     10  C   UNL A   1      44.261  32.941  28.051  1.00  0.00    -0.014 A 
BRANCH  10  11
ATOM     11  C   UNL A   1      43.927  31.411  28.046  1.00  0.00     0.031 A 
ATOM     12  C   UNL A   1      44.769  30.191  27.504  1.00  0.00     0.074 A 
ATOM     13  C   UNL A   1      42.926  30.991  28.835  1.00  0.00     0.049 A 
ATOM     14  N   UNL A   1      44.376  29.128  26.829  1.00  0.00    -0.248 NA
ATOM     15  C   UNL A   1      46.240  30.176  27.698  1.00  0.00     0.031 C 
ATOM     16  C   UNL A   1      42.209  31.793  29.814  1.00  0.00     0.029 A 
ATOM     17  N   UNL A   1      42.318  29.768  28.894  1.00  0.00    -0.354 N 
ATOM     18  C   UNL A   1      45.535  28.582  26.240  1.00  0.00     0.074 A 
ATOM     19  C   UNL A   1      46.615  29.430  26.657  1.00  0.00     0.031 C 
ATOM     20  C   UNL A   1      41.153  31.104  30.262  1.00  0.00     0.029 A 
ATOM     21  C   UNL A   1      41.145  29.811  29.600  1.00  0.00     0.049 A 
ATOM     22  H   UNL A   1      42.681  28.953  28.477  1.00  0.00     0.167 HD
ATOM     23  C   UNL A   1      45.701  27.455  25.487  1.00  0.00     0.031 A 
ATOM     24  C   UNL A   1      40.147  28.919  29.661  1.00  0.00     0.031 A 
ATOM     25  C   UNL A   1      44.739  26.385  25.565  1.00  0.00     0.049 A 
ATOM     26  C   UNL A   1      40.337  27.609  28.963  1.00  0.00     0.074 A 
ATOM     27  C   UNL A   1      44.787  25.094  25.068  1.00  0.00     0.029 A 
ATOM     28  N   UNL A   1      43.595  26.477  26.342  1.00  0.00    -0.354 N 
ATOM     29  N   UNL A   1      41.307  27.218  28.167  1.00  0.00    -0.248 NA
ATOM     30  C   UNL A   1      39.325  26.587  29.236  1.00  0.00     0.031 C 
ATOM     31  C   UNL A   1      43.645  24.419  25.525  1.00  0.00     0.029 A 
ATOM     32  C   UNL A   1      42.935  25.271  26.362  1.00  0.00     0.049 A 
ATOM     33  H   UNL A   1      43.297  27.289  26.812  1.00  0.00     0.167 HD
ATOM     34  C   UNL A   1      41.058  25.880  27.897  1.00  0.00     0.074 A 
ATOM     35  C   UNL A   1      39.848  25.537  28.623  1.00  0.00     0.031 C 
ATOM     36  C   UNL A   1      41.754  24.999  27.136  1.00  0.00     0.031 A 
BRANCH  23  37
ATOM     37  C   UNL A   1      46.921  27.295  24.577  1.00  0.00    -0.014 A 
ATOM     38  C   UNL A   1      47.128  28.020  23.392  1.00  0.00     0.009 A 
ATOM     39  C   UNL A   1      47.892  26.324  24.903  1.00  0.00     0.009 A 
ATOM     40  C   UNL A   1      48.149  27.673  22.492  1.00  0.00     0.001 A 
ATOM     41  C   UNL A   1      48.951  26.018  24.035  1.00  0.00     0.001 A 
ATOM     42  C   UNL A   1      49.053  26.662  22.806  1.00  0.00     0.000 A 
ENDBRANCH  23  37
BRANCH  24  43
ATOM     43  C   UNL A   1      38.957  29.235  30.487  1.00  0.00    -0.014 A 
ATOM     44  C   UNL A   1      37.807  29.753  29.876  1.00  0.00     0.009 A 
ATOM     45  C   UNL A   1      38.923  28.931  31.859  1.00  0.00     0.009 A 
ATOM     46  C   UNL A   1      36.655  29.991  30.625  1.00  0.00     0.001 A 
ATOM     47  C   UNL A   1      37.758  29.144  32.600  1.00  0.00     0.001 A 
ATOM     48  C   UNL A   1      36.628  29.683  31.984  1.00  0.00     0.000 A 
ENDBRANCH  24  43
BRANCH  36  49
ATOM     49  C   UNL A   1      41.269  23.586  27.130  1.00  0.00    -0.014 A 
ATOM     50  C   UNL A   1      40.167  23.202  26.355  1.00  0.00     0.009 A 
ATOM     51  C   UNL A   1      41.979  22.618  27.858  1.00  0.00     0.009 A 
ATOM     52  C   UNL A   1      39.759  21.871  26.339  1.00  0.00     0.001 A 
ATOM     53  C   UNL A   1      41.596  21.282  27.804  1.00  0.00     0.001 A 
ATOM     54  C   UNL A   1      40.480  20.913  27.054  1.00  0.00     0.000 A 
ENDBRANCH  36  49
ENDBRANCH  10  11
ENDBRANCH   3   5
ENDBRANCH   2   3
ENDBRANCH   1   2
BRANCH   1  55
ATOM     55  C   UNL A   1      45.789  40.496  25.346  1.00  0.00     0.274 C 
BRANCH  55  56
ATOM     56  O   UNL A   1      45.248  41.631  24.630  1.00  0.00    -0.461 OA
BRANCH  56  57
ATOM     57  C   UNL A   1      46.093  42.675  24.417  1.00  0.00     0.328 C 
ATOM     58  O   UNL A   1      46.574  43.351  25.319  1.00  0.00    -0.250 OA
BRANCH  57  59
ATOM     59  C   UNL A   1      46.453  42.854  22.864  1.00  0.00     0.195 C 
ATOM     60  C   UNL A   1      47.700  43.773  22.790  1.00  0.00     0.037 C 
ATOM     61  N   UNL A   1      45.590  42.686  21.307  1.00  0.00    -0.329 N 
ATOM     62  C   UNL A   1      48.758  43.332  21.787  1.00  0.00     0.005 C 
ATOM     63  C   UNL A   1      47.016  42.104  20.466  1.00  0.00     0.120 C 
ATOM     64  C   UNL A   1      48.167  43.093  20.427  1.00  0.00     0.022 C 
BRANCH  61  65
ATOM     65  C   UNL A   1      43.661  42.660  20.823  1.00  0.00     0.227 C 
ATOM     66  O   UNL A   1      42.742  41.755  20.904  1.00  0.00    -0.275 OA
BRANCH  65  67
ATOM     67  C   UNL A   1      42.625  43.982  19.951  1.00  0.00     0.094 C 
ATOM     68  C   UNL A   1      41.230  44.207  19.313  1.00  0.00     0.030 C 
ATOM     69  C   UNL A   1      43.483  44.762  18.986  1.00  0.00     0.150 C 
ATOM     70  C   UNL A   1      41.272  44.159  17.770  1.00  0.00     0.138 C 
ATOM     71  S   UNL A   1      42.939  44.524  17.300  1.00  0.00     0.151 S 
ATOM     72  O   UNL A   1      43.498  43.327  16.706  1.00  0.00    -0.229 OA
ATOM     73  O   UNL A   1      42.979  45.788  16.602  1.00  0.00    -0.229 OA
ENDBRANCH  65  67
ENDBRANCH  61  65
ENDBRANCH  57  59
ENDBRANCH  56  57
ENDBRANCH  55  56
ENDBRANCH   1  55
TORSDOF 13
ENDMDL
