MODEL 1
REMARK VINA RESULT:     -12.0      0.000      0.000
REMARK SMILES CC(C)Oc1ccc(-c2ccc(/C(=C\c3ccc(S(C)(=O)=O)cc3)C(=O)OCCOC(=O)c3ccc(-c4c5nc(c(-c6ccccc6)c6ccc([nH]6)c(-c6ccccc6)c6nc(c(-c7ccccc7)c7ccc4[nH]7)C=C6)C=C5)cc3)cc2)cc1
REMARK SMILES IDX 28 1 27 2 25 3 26 4 13 5 14 6 12 7 9 8 10 9 82 10 11 11
REMARK SMILES IDX 81 12 8 13 5 14 6 15 84 16 7 17 83 18 4 19 2 20 1 21 3 22
REMARK SMILES IDX 15 23 16 24 24 25 17 26 23 27 18 28 19 29 20 30 21 31 22 32
REMARK SMILES IDX 29 33 30 34 31 35 32 36 33 37 34 38 80 39 35 40 79 41 36 42
REMARK SMILES IDX 37 43 38 44 73 45 39 46 78 47 72 48 74 49 40 50 77 51 71 52
REMARK SMILES IDX 70 53 41 55 63 56 48 57 62 58 49 59 52 60 61 61 75 62 50 63
REMARK SMILES IDX 51 64 60 66 76 67 53 68 42 69 43 70 47 71 44 72 46 73 45 74
REMARK SMILES IDX 64 75 65 76 69 77 66 78 68 79 67 80 54 81 55 82 59 83 56 84
REMARK SMILES IDX 58 85 57 86
REMARK H PARENT 74 54 52 65
REMARK Flexibility Score: inf
ROOT
ATOM      1  C   UNL A   1      32.703  28.003  24.057  1.00  0.00     0.275 C 
ENDROOT
BRANCH   1   2
ATOM      2  O   UNL A   1      32.280  26.641  24.286  1.00  0.00    -0.458 OA
BRANCH   2   3
ATOM      3  C   UNL A   1      32.191  25.814  23.203  1.00  0.00     0.338 C 
ATOM      4  O   UNL A   1      31.779  26.163  22.107  1.00  0.00    -0.246 OA
BRANCH   3   5
ATOM      5  C   UNL A   1      32.687  24.410  23.522  1.00  0.00     0.067 C 
ATOM      6  C   UNL A   1      31.699  23.472  23.459  1.00  0.00     0.024 C 
BRANCH   5   7
ATOM      7  C   UNL A   1      34.147  24.182  23.910  1.00  0.00    -0.011 A 
ATOM      8  C   UNL A   1      36.678  23.176  24.882  1.00  0.00    -0.018 A 
ATOM      9  C   UNL A   1      36.270  22.955  23.576  1.00  0.00     0.009 A 
ATOM     10  C   UNL A   1      35.910  24.069  25.632  1.00  0.00     0.009 A 
ATOM     11  C   UNL A   1      35.064  23.496  23.101  1.00  0.00     0.009 A 
ATOM     12  C   UNL A   1      34.662  24.546  25.165  1.00  0.00     0.009 A 
BRANCH   8  13
ATOM     13  C   UNL A   1      37.830  22.455  25.441  1.00  0.00    -0.018 A 
ATOM     14  C   UNL A   1      40.046  21.093  26.568  1.00  0.00     0.119 A 
ATOM     15  C   UNL A   1      39.135  20.427  25.746  1.00  0.00     0.047 A 
ATOM     16  C   UNL A   1      39.860  22.443  26.819  1.00  0.00     0.047 A 
ATOM     17  C   UNL A   1      38.035  21.096  25.191  1.00  0.00     0.012 A 
ATOM     18  C   UNL A   1      38.748  23.102  26.284  1.00  0.00     0.012 A 
BRANCH  14  19
ATOM     19  O   UNL A   1      41.121  20.367  26.983  1.00  0.00    -0.491 OA
BRANCH  19  20
ATOM     20  C   UNL A   1      42.167  20.029  26.057  1.00  0.00     0.167 C 
ATOM     21  C   UNL A   1      43.323  21.019  26.030  1.00  0.00     0.052 C 
ATOM     22  C   UNL A   1      42.631  18.579  26.152  1.00  0.00     0.052 C 
ENDBRANCH  19  20
ENDBRANCH  14  19
ENDBRANCH   8  13
ENDBRANCH   5   7
BRANCH   6  23
ATOM     23  C   UNL A   1      31.799  22.026  23.689  1.00  0.00    -0.025 A 
ATOM     24  C   UNL A   1      31.787  21.174  22.575  1.00  0.00     0.009 A 
ATOM     25  C   UNL A   1      32.111  21.514  24.959  1.00  0.00     0.009 A 
ATOM     26  C   UNL A   1      32.240  19.861  22.696  1.00  0.00     0.021 A 
ATOM     27  C   UNL A   1      32.579  20.202  25.082  1.00  0.00     0.021 A 
ATOM     28  C   UNL A   1      32.682  19.400  23.940  1.00  0.00     0.067 A 
BRANCH  28  29
ATOM     29  S   UNL A   1      33.610  17.881  24.003  1.00  0.00     0.175 S 
ATOM     30  C   UNL A   1      32.760  16.905  25.207  1.00  0.00     0.163 C 
ATOM     31  O   UNL A   1      33.457  17.239  22.711  1.00  0.00    -0.224 OA
ATOM     32  O   UNL A   1      34.928  18.192  24.521  1.00  0.00    -0.224 OA
ENDBRANCH  28  29
ENDBRANCH   6  23
ENDBRANCH   3   5
ENDBRANCH   2   3
ENDBRANCH   1   2
BRANCH   1  33
ATOM     33  C   UNL A   1      32.343  28.893  25.250  1.00  0.00     0.275 C 
BRANCH  33  34
ATOM     34  O   UNL A   1      33.230  30.025  25.325  1.00  0.00    -0.458 OA
BRANCH  34  35
ATOM     35  C   UNL A   1      33.102  30.769  26.448  1.00  0.00     0.338 C 
ATOM     36  O   UNL A   1      32.098  31.334  26.852  1.00  0.00    -0.246 OA
BRANCH  35  37
ATOM     37  C   UNL A   1      34.318  30.624  27.264  1.00  0.00     0.060 A 
ATOM     38  C   UNL A   1      34.625  29.333  27.676  1.00  0.00     0.016 A 
ATOM     39  C   UNL A   1      35.141  31.693  27.635  1.00  0.00     0.016 A 
ATOM     40  C   UNL A   1      35.775  29.104  28.418  1.00  0.00     0.010 A 
ATOM     41  C   UNL A   1      36.292  31.452  28.408  1.00  0.00     0.010 A 
ATOM     42  C   UNL A   1      36.629  30.146  28.792  1.00  0.00    -0.014 A 
BRANCH  42  43
ATOM     43  C   UNL A   1      37.812  29.824  29.636  1.00  0.00     0.031 A 
ATOM     44  C   UNL A   1      38.948  29.031  29.053  1.00  0.00     0.074 A 
ATOM     45  C   UNL A   1      37.948  30.350  30.868  1.00  0.00     0.049 A 
ATOM     46  N   UNL A   1      40.060  28.636  29.618  1.00  0.00    -0.248 NA
ATOM     47  C   UNL A   1      38.820  28.655  27.638  1.00  0.00     0.031 C 
ATOM     48  C   UNL A   1      36.993  31.247  31.516  1.00  0.00     0.029 A 
ATOM     49  N   UNL A   1      38.968  30.231  31.784  1.00  0.00    -0.354 N 
ATOM     50  C   UNL A   1      40.763  27.956  28.633  1.00  0.00     0.074 A 
ATOM     51  C   UNL A   1      39.951  27.993  27.435  1.00  0.00     0.031 C 
ATOM     52  C   UNL A   1      37.480  31.613  32.714  1.00  0.00     0.029 A 
ATOM     53  C   UNL A   1      38.749  30.926  32.950  1.00  0.00     0.049 A 
ATOM     54  H   UNL A   1      39.779  29.697  31.620  1.00  0.00     0.167 HD
ATOM     55  C   UNL A   1      41.972  27.349  28.716  1.00  0.00     0.031 A 
ATOM     56  C   UNL A   1      39.470  30.976  34.089  1.00  0.00     0.031 A 
ATOM     57  C   UNL A   1      42.777  27.283  29.908  1.00  0.00     0.049 A 
ATOM     58  C   UNL A   1      40.746  30.176  34.200  1.00  0.00     0.074 A 
ATOM     59  C   UNL A   1      44.010  26.676  30.082  1.00  0.00     0.029 A 
ATOM     60  N   UNL A   1      42.442  27.858  31.123  1.00  0.00    -0.354 N 
ATOM     61  N   UNL A   1      41.356  29.455  33.291  1.00  0.00    -0.248 NA
ATOM     62  C   UNL A   1      41.422  30.185  35.508  1.00  0.00     0.031 C 
ATOM     63  C   UNL A   1      44.409  26.863  31.410  1.00  0.00     0.029 A 
ATOM     64  C   UNL A   1      43.453  27.638  32.045  1.00  0.00     0.049 A 
ATOM     65  H   UNL A   1      41.609  28.350  31.305  1.00  0.00     0.167 HD
ATOM     66  C   UNL A   1      42.497  28.954  33.906  1.00  0.00     0.074 A 
ATOM     67  C   UNL A   1      42.504  29.461  35.261  1.00  0.00     0.031 C 
ATOM     68  C   UNL A   1      43.454  28.142  33.393  1.00  0.00     0.031 A 
BRANCH  55  69
ATOM     69  C   UNL A   1      42.480  26.663  27.480  1.00  0.00    -0.014 A 
ATOM     70  C   UNL A   1      43.202  27.358  26.497  1.00  0.00     0.009 A 
ATOM     71  C   UNL A   1      42.251  25.289  27.313  1.00  0.00     0.009 A 
ATOM     72  C   UNL A   1      43.650  26.696  25.352  1.00  0.00     0.001 A 
ATOM     73  C   UNL A   1      42.726  24.624  26.182  1.00  0.00     0.001 A 
ATOM     74  C   UNL A   1      43.415  25.329  25.197  1.00  0.00     0.000 A 
ENDBRANCH  55  69
BRANCH  56  75
ATOM     75  C   UNL A   1      38.969  31.740  35.268  1.00  0.00    -0.014 A 
ATOM     76  C   UNL A   1      38.149  31.134  36.233  1.00  0.00     0.009 A 
ATOM     77  C   UNL A   1      39.255  33.109  35.391  1.00  0.00     0.009 A 
ATOM     78  C   UNL A   1      37.599  31.892  37.272  1.00  0.00     0.001 A 
ATOM     79  C   UNL A   1      38.734  33.856  36.450  1.00  0.00     0.001 A 
ATOM     80  C   UNL A   1      37.895  33.250  37.382  1.00  0.00     0.000 A 
ENDBRANCH  56  75
BRANCH  68  81
ATOM     81  C   UNL A   1      44.613  27.783  34.283  1.00  0.00    -0.014 A 
ATOM     82  C   UNL A   1      45.744  28.609  34.380  1.00  0.00     0.009 A 
ATOM     83  C   UNL A   1      44.554  26.622  35.072  1.00  0.00     0.009 A 
ATOM     84  C   UNL A   1      46.802  28.267  35.226  1.00  0.00     0.001 A 
ATOM     85  C   UNL A   1      45.600  26.298  35.940  1.00  0.00     0.001 A 
ATOM     86  C   UNL A   1      46.725  27.116  36.010  1.00  0.00     0.000 A 
ENDBRANCH  68  81
ENDBRANCH  42  43
ENDBRANCH  35  37
ENDBRANCH  34  35
ENDBRANCH  33  34
ENDBRANCH   1  33
TORSDOF 17
ENDMDL
MODEL 2
REMARK VINA RESULT:     -11.7      0.654      5.606
REMARK SMILES CC(C)Oc1ccc(-c2ccc(/C(=C\c3ccc(S(C)(=O)=O)cc3)C(=O)OCCOC(=O)c3ccc(-c4c5nc(c(-c6ccccc6)c6ccc([nH]6)c(-c6ccccc6)c6nc(c(-c7ccccc7)c7ccc4[nH]7)C=C6)C=C5)cc3)cc2)cc1
REMARK SMILES IDX 28 1 27 2 25 3 26 4 13 5 14 6 12 7 9 8 10 9 82 10 11 11
REMARK SMILES IDX 81 12 8 13 5 14 6 15 84 16 7 17 83 18 4 19 2 20 1 21 3 22
REMARK SMILES IDX 15 23 16 24 24 25 17 26 23 27 18 28 19 29 20 30 21 31 22 32
REMARK SMILES IDX 29 33 30 34 31 35 32 36 33 37 34 38 80 39 35 40 79 41 36 42
REMARK SMILES IDX 37 43 38 44 73 45 39 46 78 47 72 48 74 49 40 50 77 51 71 52
REMARK SMILES IDX 70 53 41 55 63 56 48 57 62 58 49 59 52 60 61 61 75 62 50 63
REMARK SMILES IDX 51 64 60 66 76 67 53 68 42 69 43 70 47 71 44 72 46 73 45 74
REMARK SMILES IDX 64 75 65 76 69 77 66 78 68 79 67 80 54 81 55 82 59 83 56 84
REMARK SMILES IDX 58 85 57 86
REMARK H PARENT 74 54 52 65
REMARK Flexibility Score: inf
ROOT
ATOM      1  C   UNL A   1      33.095  28.111  24.251  1.00  0.00     0.275 C 
ENDROOT
BRANCH   1   2
ATOM      2  O   UNL A   1      32.709  26.725  24.376  1.00  0.00    -0.458 OA
BRANCH   2   3
ATOM      3  C   UNL A   1      32.738  25.955  23.249  1.00  0.00     0.338 C 
ATOM      4  O   UNL A   1      32.508  26.376  22.125  1.00  0.00    -0.246 OA
BRANCH   3   5
ATOM      5  C   UNL A   1      33.113  24.511  23.560  1.00  0.00     0.067 C 
ATOM      6  C   UNL A   1      32.046  23.664  23.509  1.00  0.00     0.024 C 
BRANCH   5   7
ATOM      7  C   UNL A   1      34.552  24.156  23.930  1.00  0.00    -0.011 A 
ATOM      8  C   UNL A   1      36.995  22.939  24.885  1.00  0.00    -0.018 A 
ATOM      9  C   UNL A   1      36.543  22.726  23.593  1.00  0.00     0.009 A 
ATOM     10  C   UNL A   1      36.328  23.918  25.625  1.00  0.00     0.009 A 
ATOM     11  C   UNL A   1      35.385  23.367  23.124  1.00  0.00     0.009 A 
ATOM     12  C   UNL A   1      35.123  24.500  25.166  1.00  0.00     0.009 A 
BRANCH   8  13
ATOM     13  C   UNL A   1      38.085  22.125  25.444  1.00  0.00    -0.018 A 
ATOM     14  C   UNL A   1      40.179  20.584  26.571  1.00  0.00     0.119 A 
ATOM     15  C   UNL A   1      39.265  20.014  25.682  1.00  0.00     0.047 A 
ATOM     16  C   UNL A   1      40.057  21.926  26.889  1.00  0.00     0.047 A 
ATOM     17  C   UNL A   1      38.225  20.772  25.128  1.00  0.00     0.012 A 
ATOM     18  C   UNL A   1      39.004  22.675  26.353  1.00  0.00     0.012 A 
BRANCH  14  19
ATOM     19  O   UNL A   1      41.197  19.778  26.982  1.00  0.00    -0.491 OA
BRANCH  19  20
ATOM     20  C   UNL A   1      42.243  19.409  26.068  1.00  0.00     0.167 C 
ATOM     21  C   UNL A   1      43.195  20.543  25.718  1.00  0.00     0.052 C 
ATOM     22  C   UNL A   1      42.969  18.122  26.448  1.00  0.00     0.052 C 
ENDBRANCH  19  20
ENDBRANCH  14  19
ENDBRANCH   8  13
ENDBRANCH   5   7
BRANCH   6  23
ATOM     23  C   UNL A   1      32.022  22.214  23.736  1.00  0.00    -0.025 A 
ATOM     24  C   UNL A   1      31.971  21.368  22.619  1.00  0.00     0.009 A 
ATOM     25  C   UNL A   1      32.257  21.677  25.012  1.00  0.00     0.009 A 
ATOM     26  C   UNL A   1      32.312  20.022  22.748  1.00  0.00     0.021 A 
ATOM     27  C   UNL A   1      32.612  20.331  25.143  1.00  0.00     0.021 A 
ATOM     28  C   UNL A   1      32.681  19.525  24.002  1.00  0.00     0.067 A 
BRANCH  28  29
ATOM     29  S   UNL A   1      33.480  17.935  24.085  1.00  0.00     0.175 S 
ATOM     30  C   UNL A   1      32.636  17.094  25.390  1.00  0.00     0.163 C 
ATOM     31  O   UNL A   1      33.187  17.250  22.840  1.00  0.00    -0.224 OA
ATOM     32  O   UNL A   1      34.852  18.154  24.500  1.00  0.00    -0.224 OA
ENDBRANCH  28  29
ENDBRANCH   6  23
ENDBRANCH   3   5
ENDBRANCH   2   3
ENDBRANCH   1   2
BRANCH   1  33
ATOM     33  C   UNL A   1      32.706  28.900  25.505  1.00  0.00     0.275 C 
BRANCH  33  34
ATOM     34  O   UNL A   1      33.565  30.044  25.671  1.00  0.00    -0.458 OA
BRANCH  34  35
ATOM     35  C   UNL A   1      33.449  30.666  26.868  1.00  0.00     0.338 C 
ATOM     36  O   UNL A   1      32.432  31.107  27.379  1.00  0.00    -0.246 OA
BRANCH  35  37
ATOM     37  C   UNL A   1      34.721  30.544  27.598  1.00  0.00     0.060 A 
ATOM     38  C   UNL A   1      34.941  29.333  28.241  1.00  0.00     0.016 A 
ATOM     39  C   UNL A   1      35.677  31.563  27.678  1.00  0.00     0.016 A 
ATOM     40  C   UNL A   1      36.132  29.122  28.922  1.00  0.00     0.010 A 
ATOM     41  C   UNL A   1      36.870  31.348  28.391  1.00  0.00     0.010 A 
ATOM     42  C   UNL A   1      37.115  30.111  29.007  1.00  0.00    -0.014 A 
BRANCH  42  43
ATOM     43  C   UNL A   1      38.340  29.827  29.804  1.00  0.00     0.031 A 
ATOM     44  C   UNL A   1      38.473  30.392  31.189  1.00  0.00     0.074 A 
ATOM     45  C   UNL A   1      39.269  28.957  29.362  1.00  0.00     0.049 A 
ATOM     46  N   UNL A   1      39.457  30.275  32.044  1.00  0.00    -0.248 NA
ATOM     47  C   UNL A   1      37.332  31.175  31.685  1.00  0.00     0.031 C 
ATOM     48  C   UNL A   1      39.210  28.227  28.098  1.00  0.00     0.029 A 
ATOM     49  N   UNL A   1      40.430  28.514  29.950  1.00  0.00    -0.354 N 
ATOM     50  C   UNL A   1      39.063  30.975  33.175  1.00  0.00     0.074 A 
ATOM     51  C   UNL A   1      37.747  31.514  32.898  1.00  0.00     0.031 C 
ATOM     52  C   UNL A   1      40.276  27.412  28.014  1.00  0.00     0.029 A 
ATOM     53  C   UNL A   1      41.128  27.610  29.185  1.00  0.00     0.049 A 
ATOM     54  H   UNL A   1      40.734  28.817  30.837  1.00  0.00     0.167 HD
ATOM     55  C   UNL A   1      39.733  31.160  34.338  1.00  0.00     0.031 A 
ATOM     56  C   UNL A   1      42.332  27.035  29.388  1.00  0.00     0.031 A 
ATOM     57  C   UNL A   1      41.051  30.652  34.616  1.00  0.00     0.049 A 
ATOM     58  C   UNL A   1      43.119  27.369  30.632  1.00  0.00     0.074 A 
ATOM     59  C   UNL A   1      41.809  30.805  35.765  1.00  0.00     0.029 A 
ATOM     60  N   UNL A   1      41.801  29.877  33.745  1.00  0.00    -0.354 N 
ATOM     61  N   UNL A   1      42.776  28.112  31.656  1.00  0.00    -0.248 NA
ATOM     62  C   UNL A   1      44.471  26.796  30.735  1.00  0.00     0.031 C 
ATOM     63  C   UNL A   1      43.028  30.142  35.580  1.00  0.00     0.029 A 
ATOM     64  C   UNL A   1      43.002  29.527  34.340  1.00  0.00     0.049 A 
ATOM     65  H   UNL A   1      41.521  29.614  32.839  1.00  0.00     0.167 HD
ATOM     66  C   UNL A   1      43.854  28.069  32.534  1.00  0.00     0.074 A 
ATOM     67  C   UNL A   1      44.856  27.219  31.931  1.00  0.00     0.031 C 
ATOM     68  C   UNL A   1      43.999  28.683  33.734  1.00  0.00     0.031 A 
BRANCH  55  69
ATOM     69  C   UNL A   1      39.059  31.993  35.391  1.00  0.00    -0.014 A 
ATOM     70  C   UNL A   1      38.286  31.409  36.407  1.00  0.00     0.009 A 
ATOM     71  C   UNL A   1      39.225  33.386  35.377  1.00  0.00     0.009 A 
ATOM     72  C   UNL A   1      37.661  32.211  37.365  1.00  0.00     0.001 A 
ATOM     73  C   UNL A   1      38.624  34.182  36.353  1.00  0.00     0.001 A 
ATOM     74  C   UNL A   1      37.834  33.595  37.339  1.00  0.00     0.000 A 
ENDBRANCH  55  69
BRANCH  56  75
ATOM     75  C   UNL A   1      42.929  26.145  28.350  1.00  0.00    -0.014 A 
ATOM     76  C   UNL A   1      43.691  26.668  27.294  1.00  0.00     0.009 A 
ATOM     77  C   UNL A   1      42.673  24.764  28.376  1.00  0.00     0.009 A 
ATOM     78  C   UNL A   1      44.150  25.833  26.270  1.00  0.00     0.001 A 
ATOM     79  C   UNL A   1      43.164  23.927  27.373  1.00  0.00     0.001 A 
ATOM     80  C   UNL A   1      43.890  24.463  26.313  1.00  0.00     0.000 A 
ENDBRANCH  56  75
BRANCH  68  81
ATOM     81  C   UNL A   1      45.270  28.427  34.498  1.00  0.00    -0.014 A 
ATOM     82  C   UNL A   1      46.432  29.177  34.255  1.00  0.00     0.009 A 
ATOM     83  C   UNL A   1      45.293  27.451  35.508  1.00  0.00     0.009 A 
ATOM     84  C   UNL A   1      47.597  28.936  34.988  1.00  0.00     0.001 A 
ATOM     85  C   UNL A   1      46.450  27.233  36.260  1.00  0.00     0.001 A 
ATOM     86  C   UNL A   1      47.603  27.970  35.994  1.00  0.00     0.000 A 
ENDBRANCH  68  81
ENDBRANCH  42  43
ENDBRANCH  35  37
ENDBRANCH  34  35
ENDBRANCH  33  34
ENDBRANCH   1  33
TORSDOF 17
ENDMDL
MODEL 3
REMARK VINA RESULT:     -11.6      3.691      9.552
REMARK SMILES CC(C)Oc1ccc(-c2ccc(/C(=C\c3ccc(S(C)(=O)=O)cc3)C(=O)OCCOC(=O)c3ccc(-c4c5nc(c(-c6ccccc6)c6ccc([nH]6)c(-c6ccccc6)c6nc(c(-c7ccccc7)c7ccc4[nH]7)C=C6)C=C5)cc3)cc2)cc1
REMARK SMILES IDX 28 1 27 2 25 3 26 4 13 5 14 6 12 7 9 8 10 9 82 10 11 11
REMARK SMILES IDX 81 12 8 13 5 14 6 15 84 16 7 17 83 18 4 19 2 20 1 21 3 22
REMARK SMILES IDX 15 23 16 24 24 25 17 26 23 27 18 28 19 29 20 30 21 31 22 32
REMARK SMILES IDX 29 33 30 34 31 35 32 36 33 37 34 38 80 39 35 40 79 41 36 42
REMARK SMILES IDX 37 43 38 44 73 45 39 46 78 47 72 48 74 49 40 50 77 51 71 52
REMARK SMILES IDX 70 53 41 55 63 56 48 57 62 58 49 59 52 60 61 61 75 62 50 63
REMARK SMILES IDX 51 64 60 66 76 67 53 68 42 69 43 70 47 71 44 72 46 73 45 74
REMARK SMILES IDX 64 75 65 76 69 77 66 78 68 79 67 80 54 81 55 82 59 83 56 84
REMARK SMILES IDX 58 85 57 86
REMARK H PARENT 74 54 52 65
REMARK Flexibility Score: inf
ROOT
ATOM      1  C   UNL A   1      34.055  21.617  25.048  1.00  0.00     0.275 C 
ENDROOT
BRANCH   1   2
ATOM      2  O   UNL A   1      33.507  22.938  24.848  1.00  0.00    -0.458 OA
BRANCH   2   3
ATOM      3  C   UNL A   1      32.192  23.133  25.161  1.00  0.00     0.338 C 
ATOM      4  O   UNL A   1      31.460  22.267  25.616  1.00  0.00    -0.246 OA
BRANCH   3   5
ATOM      5  C   UNL A   1      31.754  24.568  24.895  1.00  0.00     0.067 C 
ATOM      6  C   UNL A   1      30.871  24.668  23.861  1.00  0.00     0.024 C 
BRANCH   5   7
ATOM      7  C   UNL A   1      32.339  25.713  25.719  1.00  0.00    -0.011 A 
ATOM      8  C   UNL A   1      33.178  28.260  26.803  1.00  0.00    -0.018 A 
ATOM      9  C   UNL A   1      31.984  27.672  27.190  1.00  0.00     0.009 A 
ATOM     10  C   UNL A   1      34.037  27.476  26.029  1.00  0.00     0.009 A 
ATOM     11  C   UNL A   1      31.615  26.409  26.698  1.00  0.00     0.009 A 
ATOM     12  C   UNL A   1      33.620  26.239  25.483  1.00  0.00     0.009 A 
BRANCH   8  13
ATOM     13  C   UNL A   1      33.477  29.655  27.155  1.00  0.00    -0.018 A 
ATOM     14  C   UNL A   1      33.998  32.352  27.853  1.00  0.00     0.119 A 
ATOM     15  C   UNL A   1      34.964  31.362  28.040  1.00  0.00     0.047 A 
ATOM     16  C   UNL A   1      32.775  32.001  27.305  1.00  0.00     0.047 A 
ATOM     17  C   UNL A   1      34.707  30.026  27.701  1.00  0.00     0.012 A 
ATOM     18  C   UNL A   1      32.512  30.664  26.991  1.00  0.00     0.012 A 
BRANCH  14  19
ATOM     19  O   UNL A   1      34.384  33.627  28.137  1.00  0.00    -0.491 OA
BRANCH  19  20
ATOM     20  C   UNL A   1      33.750  34.355  29.202  1.00  0.00     0.167 C 
ATOM     21  C   UNL A   1      34.417  34.185  30.559  1.00  0.00     0.052 C 
ATOM     22  C   UNL A   1      33.458  35.814  28.865  1.00  0.00     0.052 C 
ENDBRANCH  19  20
ENDBRANCH  14  19
ENDBRANCH   8  13
ENDBRANCH   5   7
BRANCH   6  23
ATOM     23  C   UNL A   1      30.225  25.874  23.327  1.00  0.00    -0.025 A 
ATOM     24  C   UNL A   1      28.910  26.155  23.725  1.00  0.00     0.009 A 
ATOM     25  C   UNL A   1      30.962  26.833  22.613  1.00  0.00     0.009 A 
ATOM     26  C   UNL A   1      28.390  27.438  23.555  1.00  0.00     0.021 A 
ATOM     27  C   UNL A   1      30.448  28.123  22.453  1.00  0.00     0.021 A 
ATOM     28  C   UNL A   1      29.182  28.428  22.966  1.00  0.00     0.067 A 
BRANCH  28  29
ATOM     29  S   UNL A   1      28.667  30.127  23.109  1.00  0.00     0.175 S 
ATOM     30  C   UNL A   1      28.792  30.757  21.463  1.00  0.00     0.163 C 
ATOM     31  O   UNL A   1      27.265  30.112  23.483  1.00  0.00    -0.224 OA
ATOM     32  O   UNL A   1      29.643  30.814  23.933  1.00  0.00    -0.224 OA
ENDBRANCH  28  29
ENDBRANCH   6  23
ENDBRANCH   3   5
ENDBRANCH   2   3
ENDBRANCH   1   2
BRANCH   1  33
ATOM     33  C   UNL A   1      35.550  21.593  24.720  1.00  0.00     0.275 C 
BRANCH  33  34
ATOM     34  O   UNL A   1      36.335  21.572  25.927  1.00  0.00    -0.458 OA
BRANCH  34  35
ATOM     35  C   UNL A   1      37.660  21.377  25.735  1.00  0.00     0.338 C 
ATOM     36  O   UNL A   1      38.201  20.409  25.224  1.00  0.00    -0.246 OA
BRANCH  35  37
ATOM     37  C   UNL A   1      38.379  22.625  26.036  1.00  0.00     0.060 A 
ATOM     38  C   UNL A   1      39.652  22.481  26.574  1.00  0.00     0.016 A 
ATOM     39  C   UNL A   1      37.851  23.903  25.819  1.00  0.00     0.016 A 
ATOM     40  C   UNL A   1      40.413  23.607  26.853  1.00  0.00     0.010 A 
ATOM     41  C   UNL A   1      38.622  25.039  26.127  1.00  0.00     0.010 A 
ATOM     42  C   UNL A   1      39.924  24.898  26.632  1.00  0.00    -0.014 A 
BRANCH  42  43
ATOM     43  C   UNL A   1      40.780  26.055  27.010  1.00  0.00     0.031 A 
ATOM     44  C   UNL A   1      40.286  27.045  28.026  1.00  0.00     0.074 A 
ATOM     45  C   UNL A   1      42.048  26.154  26.565  1.00  0.00     0.049 A 
ATOM     46  N   UNL A   1      40.868  28.124  28.486  1.00  0.00    -0.248 NA
ATOM     47  C   UNL A   1      38.970  26.768  28.619  1.00  0.00     0.031 C 
ATOM     48  C   UNL A   1      42.711  25.197  25.682  1.00  0.00     0.029 A 
ATOM     49  N   UNL A   1      43.017  27.095  26.827  1.00  0.00    -0.354 N 
ATOM     50  C   UNL A   1      39.988  28.662  29.414  1.00  0.00     0.074 A 
ATOM     51  C   UNL A   1      38.833  27.789  29.453  1.00  0.00     0.031 C 
ATOM     52  C   UNL A   1      43.983  25.588  25.491  1.00  0.00     0.029 A 
ATOM     53  C   UNL A   1      44.208  26.857  26.182  1.00  0.00     0.049 A 
ATOM     54  H   UNL A   1      42.871  27.867  27.419  1.00  0.00     0.167 HD
ATOM     55  C   UNL A   1      40.123  29.782  30.165  1.00  0.00     0.031 A 
ATOM     56  C   UNL A   1      45.337  27.594  26.127  1.00  0.00     0.031 A 
ATOM     57  C   UNL A   1      41.254  30.671  30.116  1.00  0.00     0.049 A 
ATOM     58  C   UNL A   1      45.406  28.909  26.864  1.00  0.00     0.074 A 
ATOM     59  C   UNL A   1      41.465  31.838  30.834  1.00  0.00     0.029 A 
ATOM     60  N   UNL A   1      42.374  30.485  29.321  1.00  0.00    -0.354 N 
ATOM     61  N   UNL A   1      44.528  29.459  27.666  1.00  0.00    -0.248 NA
ATOM     62  C   UNL A   1      46.623  29.715  26.668  1.00  0.00     0.031 C 
ATOM     63  C   UNL A   1      42.703  32.370  30.455  1.00  0.00     0.029 A 
ATOM     64  C   UNL A   1      43.287  31.503  29.547  1.00  0.00     0.049 A 
ATOM     65  H   UNL A   1      42.502  29.742  28.690  1.00  0.00     0.167 HD
ATOM     66  C   UNL A   1      45.097  30.653  28.093  1.00  0.00     0.074 A 
ATOM     67  C   UNL A   1      46.401  30.745  27.473  1.00  0.00     0.031 C 
ATOM     68  C   UNL A   1      44.582  31.592  28.925  1.00  0.00     0.031 A 
BRANCH  55  69
ATOM     69  C   UNL A   1      38.984  30.135  31.079  1.00  0.00    -0.014 A 
ATOM     70  C   UNL A   1      38.953  29.706  32.414  1.00  0.00     0.009 A 
ATOM     71  C   UNL A   1      37.937  30.935  30.596  1.00  0.00     0.009 A 
ATOM     72  C   UNL A   1      37.874  30.039  33.236  1.00  0.00     0.001 A 
ATOM     73  C   UNL A   1      36.876  31.291  31.428  1.00  0.00     0.001 A 
ATOM     74  C   UNL A   1      36.838  30.834  32.743  1.00  0.00     0.000 A 
ENDBRANCH  55  69
BRANCH  56  75
ATOM     75  C   UNL A   1      46.479  27.162  25.271  1.00  0.00    -0.014 A 
ATOM     76  C   UNL A   1      47.392  26.190  25.710  1.00  0.00     0.009 A 
ATOM     77  C   UNL A   1      46.702  27.783  24.031  1.00  0.00     0.009 A 
ATOM     78  C   UNL A   1      48.518  25.877  24.942  1.00  0.00     0.001 A 
ATOM     79  C   UNL A   1      47.808  27.442  23.249  1.00  0.00     0.001 A 
ATOM     80  C   UNL A   1      48.723  26.500  23.712  1.00  0.00     0.000 A 
ENDBRANCH  56  75
BRANCH  68  81
ATOM     81  C   UNL A   1      45.444  32.783  29.248  1.00  0.00    -0.014 A 
ATOM     82  C   UNL A   1      45.367  33.966  28.498  1.00  0.00     0.009 A 
ATOM     83  C   UNL A   1      46.314  32.735  30.350  1.00  0.00     0.009 A 
ATOM     84  C   UNL A   1      46.162  35.067  28.826  1.00  0.00     0.001 A 
ATOM     85  C   UNL A   1      47.086  33.848  30.694  1.00  0.00     0.001 A 
ATOM     86  C   UNL A   1      47.016  35.009  29.928  1.00  0.00     0.000 A 
ENDBRANCH  68  81
ENDBRANCH  42  43
ENDBRANCH  35  37
ENDBRANCH  34  35
ENDBRANCH  33  34
ENDBRANCH   1  33
TORSDOF 17
ENDMDL
