MODEL 1
REMARK VINA RESULT:     -10.7      0.000      0.000
REMARK SMILES C[C@H](CNC(=O)Cn1cccc1C(=O)OCCOC(=O)c1ccc(-c2c3nc(c(-c4ccccc4)c4ccc([nH]4)c(-c4ccccc4)c4nc(c(-c5ccccc5)c5ccc2[nH]5)C=C4)C=C3)cc1)[NH+](C)C
REMARK SMILES IDX 15 1 13 2 14 3 12 4 8 5 9 6 10 7 11 8 7 9 5 10 4 11 6 13
REMARK SMILES IDX 3 14 2 15 1 16 69 17 70 18 71 19 16 21 17 22 18 23 19 24
REMARK SMILES IDX 20 25 21 26 22 27 68 28 23 29 67 30 24 31 25 32 26 33 61 34
REMARK SMILES IDX 27 35 66 36 60 37 62 38 28 39 65 40 59 41 58 42 29 44 51 45
REMARK SMILES IDX 36 46 50 47 37 48 40 49 49 50 63 51 38 52 39 53 48 55 64 56
REMARK SMILES IDX 41 57 30 58 31 59 35 60 32 61 34 62 33 63 52 64 53 65 57 66
REMARK SMILES IDX 54 67 56 68 55 69 42 70 43 71 47 72 44 73 46 74 45 75
REMARK H PARENT 4 12 69 20 62 43 40 54
REMARK Flexibility Score: inf
ROOT
ATOM      1  O   UNL A   1      38.108  21.729  24.991  1.00  0.00    -0.457 OA
ENDROOT
BRANCH   1   2
ATOM      2  C   UNL A   1      36.888  22.202  24.545  1.00  0.00     0.355 C 
ATOM      3  O   UNL A   1      36.629  22.561  23.416  1.00  0.00    -0.244 OA
BRANCH   2   4
ATOM      4  C   UNL A   1      35.796  22.133  25.556  1.00  0.00     0.128 A 
ATOM      5  N   UNL A   1      34.750  21.246  25.720  1.00  0.00    -0.333 N 
ATOM      6  C   UNL A   1      34.046  21.528  26.877  1.00  0.00     0.087 A 
ATOM      7  C   UNL A   1      34.439  22.759  27.321  1.00  0.00     0.020 A 
ATOM      8  C   UNL A   1      35.527  23.140  26.502  1.00  0.00     0.035 A 
BRANCH   5   9
ATOM      9  C   UNL A   1      34.288  20.177  24.862  1.00  0.00     0.222 C 
BRANCH   9  10
ATOM     10  C   UNL A   1      32.843  20.123  24.479  1.00  0.00     0.240 C 
ATOM     11  N   UNL A   1      32.192  21.070  23.723  1.00  0.00    -0.349 N 
ATOM     12  H   UNL A   1      31.216  21.016  23.840  1.00  0.00     0.163 HD
ATOM     13  O   UNL A   1      32.165  19.184  24.920  1.00  0.00    -0.273 OA
BRANCH  11  14
ATOM     14  C   UNL A   1      32.573  22.165  22.765  1.00  0.00     0.180 C 
BRANCH  14  15
ATOM     15  C   UNL A   1      32.368  23.868  22.904  1.00  0.00     0.199 C 
ATOM     16  C   UNL A   1      33.584  24.407  23.665  1.00  0.00     0.077 C 
BRANCH  15  17
ATOM     17  N   UNL A   1      31.750  24.933  22.001  1.00  0.00    -0.336 N 
ATOM     18  C   UNL A   1      31.244  26.088  22.787  1.00  0.00     0.332 C 
ATOM     19  C   UNL A   1      32.530  25.578  20.928  1.00  0.00     0.332 C 
ATOM     20  H   UNL A   1      31.062  24.334  21.545  1.00  0.00     0.347 HD
ENDBRANCH  15  17
ENDBRANCH  14  15
ENDBRANCH  11  14
ENDBRANCH   9  10
ENDBRANCH   5   9
ENDBRANCH   2   4
ENDBRANCH   1   2
BRANCH   1  21
ATOM     21  C   UNL A   1      38.963  22.043  26.199  1.00  0.00     0.275 C 
BRANCH  21  22
ATOM     22  C   UNL A   1      40.437  22.850  26.140  1.00  0.00     0.275 C 
BRANCH  22  23
ATOM     23  O   UNL A   1      40.776  24.055  26.982  1.00  0.00    -0.458 OA
BRANCH  23  24
ATOM     24  C   UNL A   1      40.871  25.334  26.486  1.00  0.00     0.338 C 
ATOM     25  O   UNL A   1      41.332  25.598  25.386  1.00  0.00    -0.246 OA
BRANCH  24  26
ATOM     26  C   UNL A   1      40.207  26.447  27.289  1.00  0.00     0.060 A 
ATOM     27  C   UNL A   1      40.747  27.748  27.295  1.00  0.00     0.016 A 
ATOM     28  C   UNL A   1      39.268  26.158  28.290  1.00  0.00     0.016 A 
ATOM     29  C   UNL A   1      40.331  28.748  28.184  1.00  0.00     0.010 A 
ATOM     30  C   UNL A   1      38.936  27.126  29.275  1.00  0.00     0.010 A 
ATOM     31  C   UNL A   1      39.489  28.419  29.238  1.00  0.00    -0.014 A 
BRANCH  31  32
ATOM     32  C   UNL A   1      39.279  29.439  30.311  1.00  0.00     0.031 A 
ATOM     33  C   UNL A   1      40.108  29.193  31.580  1.00  0.00     0.074 A 
ATOM     34  C   UNL A   1      38.349  30.422  30.062  1.00  0.00     0.049 A 
ATOM     35  N   UNL A   1      39.986  29.721  32.762  1.00  0.00    -0.248 NA
ATOM     36  C   UNL A   1      41.214  28.200  31.552  1.00  0.00     0.031 C 
ATOM     37  C   UNL A   1      37.534  30.507  28.824  1.00  0.00     0.029 A 
ATOM     38  N   UNL A   1      37.881  31.527  30.760  1.00  0.00    -0.354 N 
ATOM     39  C   UNL A   1      41.083  29.289  33.540  1.00  0.00     0.074 A 
ATOM     40  C   UNL A   1      41.755  28.288  32.770  1.00  0.00     0.031 C 
ATOM     41  C   UNL A   1      36.661  31.536  28.879  1.00  0.00     0.029 A 
ATOM     42  C   UNL A   1      36.840  32.261  30.122  1.00  0.00     0.049 A 
ATOM     43  H   UNL A   1      38.243  31.785  31.638  1.00  0.00     0.167 HD
ATOM     44  C   UNL A   1      41.456  29.883  34.713  1.00  0.00     0.031 A 
ATOM     45  C   UNL A   1      36.159  33.371  30.546  1.00  0.00     0.031 A 
ATOM     46  C   UNL A   1      40.514  30.875  35.100  1.00  0.00     0.049 A 
ATOM     47  C   UNL A   1      36.853  33.857  31.743  1.00  0.00     0.074 A 
ATOM     48  C   UNL A   1      39.222  30.807  35.550  1.00  0.00     0.029 A 
ATOM     49  N   UNL A   1      40.784  32.159  34.693  1.00  0.00    -0.354 N 
ATOM     50  N   UNL A   1      38.006  34.452  31.735  1.00  0.00    -0.248 NA
ATOM     51  C   UNL A   1      36.221  33.694  33.058  1.00  0.00     0.031 C 
ATOM     52  C   UNL A   1      38.607  31.910  34.921  1.00  0.00     0.029 A 
ATOM     53  C   UNL A   1      39.586  32.700  34.307  1.00  0.00     0.049 A 
ATOM     54  H   UNL A   1      41.663  32.602  34.680  1.00  0.00     0.167 HD
ATOM     55  C   UNL A   1      38.403  34.318  33.040  1.00  0.00     0.074 A 
ATOM     56  C   UNL A   1      37.194  34.179  33.826  1.00  0.00     0.031 C 
ATOM     57  C   UNL A   1      39.598  33.723  33.289  1.00  0.00     0.031 A 
BRANCH  44  58
ATOM     58  C   UNL A   1      42.763  29.858  35.456  1.00  0.00    -0.014 A 
ATOM     59  C   UNL A   1      43.904  30.386  34.804  1.00  0.00     0.009 A 
ATOM     60  C   UNL A   1      42.981  29.040  36.569  1.00  0.00     0.009 A 
ATOM     61  C   UNL A   1      45.201  30.025  35.180  1.00  0.00     0.001 A 
ATOM     62  C   UNL A   1      44.283  28.707  36.969  1.00  0.00     0.001 A 
ATOM     63  C   UNL A   1      45.388  29.170  36.255  1.00  0.00     0.000 A 
ENDBRANCH  44  58
BRANCH  45  64
ATOM     64  C   UNL A   1      34.949  34.196  30.162  1.00  0.00    -0.014 A 
ATOM     65  C   UNL A   1      34.024  34.754  31.046  1.00  0.00     0.009 A 
ATOM     66  C   UNL A   1      34.800  34.582  28.796  1.00  0.00     0.009 A 
ATOM     67  C   UNL A   1      33.083  35.713  30.602  1.00  0.00     0.001 A 
ATOM     68  C   UNL A   1      33.914  35.572  28.364  1.00  0.00     0.001 A 
ATOM     69  C   UNL A   1      33.059  36.153  29.278  1.00  0.00     0.000 A 
ENDBRANCH  45  64
BRANCH  57  70
ATOM     70  C   UNL A   1      40.625  33.841  32.166  1.00  0.00    -0.014 A 
ATOM     71  C   UNL A   1      40.754  32.818  31.211  1.00  0.00     0.009 A 
ATOM     72  C   UNL A   1      41.563  34.886  32.101  1.00  0.00     0.009 A 
ATOM     73  C   UNL A   1      41.789  32.822  30.265  1.00  0.00     0.001 A 
ATOM     74  C   UNL A   1      42.599  34.899  31.154  1.00  0.00     0.001 A 
ATOM     75  C   UNL A   1      42.715  33.860  30.238  1.00  0.00     0.000 A 
ENDBRANCH  57  70
ENDBRANCH  31  32
ENDBRANCH  24  26
ENDBRANCH  23  24
ENDBRANCH  22  23
ENDBRANCH  21  22
ENDBRANCH   1  21
TORSDOF 16
ENDMDL
MODEL 2
REMARK VINA RESULT:     -10.7      3.982      7.172
REMARK SMILES C[C@H](CNC(=O)Cn1cccc1C(=O)OCCOC(=O)c1ccc(-c2c3nc(c(-c4ccccc4)c4ccc([nH]4)c(-c4ccccc4)c4nc(c(-c5ccccc5)c5ccc2[nH]5)C=C4)C=C3)cc1)[NH+](C)C
REMARK SMILES IDX 15 1 13 2 14 3 12 4 8 5 9 6 10 7 11 8 7 9 5 10 4 11 6 13
REMARK SMILES IDX 3 14 2 15 1 16 69 17 70 18 71 19 16 21 17 22 18 23 19 24
REMARK SMILES IDX 20 25 21 26 22 27 68 28 23 29 67 30 24 31 25 32 26 33 61 34
REMARK SMILES IDX 27 35 66 36 60 37 62 38 28 39 65 40 59 41 58 42 29 44 51 45
REMARK SMILES IDX 36 46 50 47 37 48 40 49 49 50 63 51 38 52 39 53 48 55 64 56
REMARK SMILES IDX 41 57 30 58 31 59 35 60 32 61 34 62 33 63 52 64 53 65 57 66
REMARK SMILES IDX 54 67 56 68 55 69 42 70 43 71 47 72 44 73 46 74 45 75
REMARK H PARENT 4 12 69 20 62 43 40 54
REMARK Flexibility Score: inf
ROOT
ATOM      1  O   UNL A   1      32.009  29.319  26.230  1.00  0.00    -0.457 OA
ENDROOT
BRANCH   1   2
ATOM      2  C   UNL A   1      31.778  27.984  26.510  1.00  0.00     0.355 C 
ATOM      3  O   UNL A   1      30.982  27.550  27.313  1.00  0.00    -0.244 OA
BRANCH   2   4
ATOM      4  C   UNL A   1      32.520  27.036  25.633  1.00  0.00     0.128 A 
ATOM      5  N   UNL A   1      32.201  26.471  24.414  1.00  0.00    -0.333 N 
ATOM      6  C   UNL A   1      33.260  25.724  23.929  1.00  0.00     0.087 A 
ATOM      7  C   UNL A   1      34.160  25.557  24.944  1.00  0.00     0.020 A 
ATOM      8  C   UNL A   1      33.703  26.372  26.006  1.00  0.00     0.035 A 
BRANCH   5   9
ATOM      9  C   UNL A   1      30.965  26.501  23.665  1.00  0.00     0.222 C 
BRANCH   9  10
ATOM     10  C   UNL A   1      30.950  27.131  22.308  1.00  0.00     0.240 C 
ATOM     11  N   UNL A   1      30.435  28.374  22.021  1.00  0.00    -0.349 N 
ATOM     12  H   UNL A   1      30.245  28.473  21.060  1.00  0.00     0.163 HD
ATOM     13  O   UNL A   1      31.383  26.463  21.357  1.00  0.00    -0.273 OA
BRANCH  11  14
ATOM     14  C   UNL A   1      30.087  29.623  22.784  1.00  0.00     0.180 C 
BRANCH  14  15
ATOM     15  C   UNL A   1      28.939  30.851  22.417  1.00  0.00     0.199 C 
ATOM     16  C   UNL A   1      27.716  30.604  23.306  1.00  0.00     0.077 C 
BRANCH  15  17
ATOM     17  N   UNL A   1      29.058  32.320  22.016  1.00  0.00    -0.336 N 
ATOM     18  C   UNL A   1      27.995  32.710  21.053  1.00  0.00     0.332 C 
ATOM     19  C   UNL A   1      29.007  33.398  23.021  1.00  0.00     0.332 C 
ATOM     20  H   UNL A   1      30.017  32.283  21.671  1.00  0.00     0.347 HD
ENDBRANCH  15  17
ENDBRANCH  14  15
ENDBRANCH  11  14
ENDBRANCH   9  10
ENDBRANCH   5   9
ENDBRANCH   2   4
ENDBRANCH   1   2
BRANCH   1  21
ATOM     21  C   UNL A   1      31.580  30.608  26.896  1.00  0.00     0.275 C 
BRANCH  21  22
ATOM     22  C   UNL A   1      32.260  32.113  26.584  1.00  0.00     0.275 C 
BRANCH  22  23
ATOM     23  O   UNL A   1      31.914  33.372  27.341  1.00  0.00    -0.458 OA
BRANCH  23  24
ATOM     24  C   UNL A   1      32.821  34.097  28.076  1.00  0.00     0.338 C 
ATOM     25  O   UNL A   1      32.582  35.200  28.545  1.00  0.00    -0.246 OA
BRANCH  24  26
ATOM     26  C   UNL A   1      34.125  33.404  28.460  1.00  0.00     0.060 A 
ATOM     27  C   UNL A   1      34.151  32.449  29.495  1.00  0.00     0.016 A 
ATOM     28  C   UNL A   1      35.365  33.916  28.053  1.00  0.00     0.016 A 
ATOM     29  C   UNL A   1      35.339  31.953  30.051  1.00  0.00     0.010 A 
ATOM     30  C   UNL A   1      36.564  33.515  28.700  1.00  0.00     0.010 A 
ATOM     31  C   UNL A   1      36.548  32.548  29.722  1.00  0.00    -0.014 A 
BRANCH  31  32
ATOM     32  C   UNL A   1      37.753  32.175  30.525  1.00  0.00     0.031 A 
ATOM     33  C   UNL A   1      38.545  30.989  29.954  1.00  0.00     0.074 A 
ATOM     34  C   UNL A   1      37.975  32.886  31.682  1.00  0.00     0.049 A 
ATOM     35  N   UNL A   1      39.468  30.265  30.514  1.00  0.00    -0.248 NA
ATOM     36  C   UNL A   1      38.257  30.511  28.576  1.00  0.00     0.031 C 
ATOM     37  C   UNL A   1      37.084  33.961  32.185  1.00  0.00     0.029 A 
ATOM     38  N   UNL A   1      38.950  32.871  32.670  1.00  0.00    -0.354 N 
ATOM     39  C   UNL A   1      39.995  29.402  29.528  1.00  0.00     0.074 A 
ATOM     40  C   UNL A   1      39.151  29.539  28.381  1.00  0.00     0.031 C 
ATOM     41  C   UNL A   1      37.513  34.441  33.373  1.00  0.00     0.029 A 
ATOM     42  C   UNL A   1      38.745  33.777  33.750  1.00  0.00     0.049 A 
ATOM     43  H   UNL A   1      39.731  32.273  32.627  1.00  0.00     0.167 HD
ATOM     44  C   UNL A   1      41.178  28.733  29.666  1.00  0.00     0.031 A 
ATOM     45  C   UNL A   1      39.499  33.991  34.873  1.00  0.00     0.031 A 
ATOM     46  C   UNL A   1      41.711  28.910  30.972  1.00  0.00     0.049 A 
ATOM     47  C   UNL A   1      40.752  33.251  34.686  1.00  0.00     0.074 A 
ATOM     48  C   UNL A   1      41.319  28.462  32.206  1.00  0.00     0.029 A 
ATOM     49  N   UNL A   1      42.603  29.942  31.128  1.00  0.00    -0.354 N 
ATOM     50  N   UNL A   1      41.698  33.600  33.870  1.00  0.00    -0.248 NA
ATOM     51  C   UNL A   1      40.994  32.036  35.473  1.00  0.00     0.031 C 
ATOM     52  C   UNL A   1      41.583  29.566  33.043  1.00  0.00     0.029 A 
ATOM     53  C   UNL A   1      42.307  30.528  32.330  1.00  0.00     0.049 A 
ATOM     54  H   UNL A   1      43.313  30.209  30.500  1.00  0.00     0.167 HD
ATOM     55  C   UNL A   1      42.404  32.433  33.738  1.00  0.00     0.074 A 
ATOM     56  C   UNL A   1      42.158  31.665  34.943  1.00  0.00     0.031 C 
ATOM     57  C   UNL A   1      42.592  31.934  32.490  1.00  0.00     0.031 A 
BRANCH  44  58
ATOM     58  C   UNL A   1      42.086  28.120  28.636  1.00  0.00    -0.014 A 
ATOM     59  C   UNL A   1      42.701  28.986  27.699  1.00  0.00     0.009 A 
ATOM     60  C   UNL A   1      42.072  26.754  28.334  1.00  0.00     0.009 A 
ATOM     61  C   UNL A   1      43.179  28.522  26.470  1.00  0.00     0.001 A 
ATOM     62  C   UNL A   1      42.584  26.284  27.117  1.00  0.00     0.001 A 
ATOM     63  C   UNL A   1      43.104  27.169  26.174  1.00  0.00     0.000 A 
ENDBRANCH  44  58
BRANCH  45  64
ATOM     64  C   UNL A   1      39.414  34.726  36.194  1.00  0.00    -0.014 A 
ATOM     65  C   UNL A   1      38.759  34.276  37.341  1.00  0.00     0.009 A 
ATOM     66  C   UNL A   1      40.190  35.912  36.359  1.00  0.00     0.009 A 
ATOM     67  C   UNL A   1      38.955  34.915  38.587  1.00  0.00     0.001 A 
ATOM     68  C   UNL A   1      40.435  36.511  37.597  1.00  0.00     0.001 A 
ATOM     69  C   UNL A   1      39.825  35.997  38.724  1.00  0.00     0.000 A 
ENDBRANCH  45  64
BRANCH  57  70
ATOM     70  C   UNL A   1      42.579  32.972  31.371  1.00  0.00    -0.014 A 
ATOM     71  C   UNL A   1      43.695  33.800  31.157  1.00  0.00     0.009 A 
ATOM     72  C   UNL A   1      41.436  33.243  30.599  1.00  0.00     0.009 A 
ATOM     73  C   UNL A   1      43.656  34.864  30.245  1.00  0.00     0.001 A 
ATOM     74  C   UNL A   1      41.391  34.305  29.682  1.00  0.00     0.001 A 
ATOM     75  C   UNL A   1      42.502  35.121  29.510  1.00  0.00     0.000 A 
ENDBRANCH  57  70
ENDBRANCH  31  32
ENDBRANCH  24  26
ENDBRANCH  23  24
ENDBRANCH  22  23
ENDBRANCH  21  22
ENDBRANCH   1  21
TORSDOF 16
ENDMDL
MODEL 3
REMARK VINA RESULT:     -10.6      5.044     10.912
REMARK SMILES C[C@H](CNC(=O)Cn1cccc1C(=O)OCCOC(=O)c1ccc(-c2c3nc(c(-c4ccccc4)c4ccc([nH]4)c(-c4ccccc4)c4nc(c(-c5ccccc5)c5ccc2[nH]5)C=C4)C=C3)cc1)[NH+](C)C
REMARK SMILES IDX 15 1 13 2 14 3 12 4 8 5 9 6 10 7 11 8 7 9 5 10 4 11 6 13
REMARK SMILES IDX 3 14 2 15 1 16 69 17 70 18 71 19 16 21 17 22 18 23 19 24
REMARK SMILES IDX 20 25 21 26 22 27 68 28 23 29 67 30 24 31 25 32 26 33 61 34
REMARK SMILES IDX 27 35 66 36 60 37 62 38 28 39 65 40 59 41 58 42 29 44 51 45
REMARK SMILES IDX 36 46 50 47 37 48 40 49 49 50 63 51 38 52 39 53 48 55 64 56
REMARK SMILES IDX 41 57 30 58 31 59 35 60 32 61 34 62 33 63 52 64 53 65 57 66
REMARK SMILES IDX 54 67 56 68 55 69 42 70 43 71 47 72 44 73 46 74 45 75
REMARK H PARENT 4 12 69 20 62 43 40 54
REMARK Flexibility Score: inf
ROOT
ATOM      1  O   UNL A   1      38.274  31.662  31.440  1.00  0.00    -0.457 OA
ENDROOT
BRANCH   1   2
ATOM      2  C   UNL A   1      37.323  31.229  32.346  1.00  0.00     0.355 C 
ATOM      3  O   UNL A   1      36.281  30.672  32.077  1.00  0.00    -0.244 OA
BRANCH   2   4
ATOM      4  C   UNL A   1      37.721  31.381  33.773  1.00  0.00     0.128 A 
ATOM      5  N   UNL A   1      37.373  32.314  34.730  1.00  0.00    -0.333 N 
ATOM      6  C   UNL A   1      37.919  31.983  35.958  1.00  0.00     0.087 A 
ATOM      7  C   UNL A   1      38.853  31.007  35.755  1.00  0.00     0.020 A 
ATOM      8  C   UNL A   1      38.734  30.629  34.397  1.00  0.00     0.035 A 
BRANCH   5   9
ATOM      9  C   UNL A   1      36.621  33.543  34.607  1.00  0.00     0.222 C 
BRANCH   9  10
ATOM     10  C   UNL A   1      36.939  34.484  33.487  1.00  0.00     0.240 C 
ATOM     11  N   UNL A   1      36.075  34.822  32.472  1.00  0.00    -0.349 N 
ATOM     12  H   UNL A   1      36.557  35.193  31.698  1.00  0.00     0.163 HD
ATOM     13  O   UNL A   1      38.086  34.953  33.438  1.00  0.00    -0.273 OA
BRANCH  11  14
ATOM     14  C   UNL A   1      34.591  34.777  32.230  1.00  0.00     0.180 C 
BRANCH  14  15
ATOM     15  C   UNL A   1      33.682  35.328  30.877  1.00  0.00     0.199 C 
ATOM     16  C   UNL A   1      32.635  36.312  31.410  1.00  0.00     0.077 C 
BRANCH  15  17
ATOM     17  N   UNL A   1      34.029  35.608  29.416  1.00  0.00    -0.336 N 
ATOM     18  C   UNL A   1      33.499  34.549  28.518  1.00  0.00     0.332 C 
ATOM     19  C   UNL A   1      33.602  36.853  28.750  1.00  0.00     0.332 C 
ATOM     20  H   UNL A   1      35.040  35.667  29.532  1.00  0.00     0.347 HD
ENDBRANCH  15  17
ENDBRANCH  14  15
ENDBRANCH  11  14
ENDBRANCH   9  10
ENDBRANCH   5   9
ENDBRANCH   2   4
ENDBRANCH   1   2
BRANCH   1  21
ATOM     21  C   UNL A   1      38.207  32.524  30.198  1.00  0.00     0.275 C 
BRANCH  21  22
ATOM     22  C   UNL A   1      36.790  32.907  29.380  1.00  0.00     0.275 C 
BRANCH  22  23
ATOM     23  O   UNL A   1      36.345  32.242  28.101  1.00  0.00    -0.458 OA
BRANCH  23  24
ATOM     24  C   UNL A   1      35.933  30.932  28.022  1.00  0.00     0.338 C 
ATOM     25  O   UNL A   1      34.788  30.599  27.760  1.00  0.00    -0.246 OA
BRANCH  24  26
ATOM     26  C   UNL A   1      37.010  29.854  28.100  1.00  0.00     0.060 A 
ATOM     27  C   UNL A   1      37.074  28.981  29.203  1.00  0.00     0.016 A 
ATOM     28  C   UNL A   1      38.146  29.905  27.279  1.00  0.00     0.016 A 
ATOM     29  C   UNL A   1      38.163  28.134  29.449  1.00  0.00     0.010 A 
ATOM     30  C   UNL A   1      39.305  29.146  27.595  1.00  0.00     0.010 A 
ATOM     31  C   UNL A   1      39.322  28.276  28.700  1.00  0.00    -0.014 A 
BRANCH  31  32
ATOM     32  C   UNL A   1      40.545  27.547  29.158  1.00  0.00     0.031 A 
ATOM     33  C   UNL A   1      40.876  26.295  28.331  1.00  0.00     0.074 A 
ATOM     34  C   UNL A   1      41.183  28.040  30.273  1.00  0.00     0.049 A 
ATOM     35  N   UNL A   1      41.692  25.320  28.598  1.00  0.00    -0.248 NA
ATOM     36  C   UNL A   1      40.184  26.071  27.034  1.00  0.00     0.031 C 
ATOM     37  C   UNL A   1      40.716  29.214  31.052  1.00  0.00     0.029 A 
ATOM     38  N   UNL A   1      42.317  27.684  30.990  1.00  0.00    -0.354 N 
ATOM     39  C   UNL A   1      41.761  24.492  27.455  1.00  0.00     0.074 A 
ATOM     40  C   UNL A   1      40.746  24.956  26.560  1.00  0.00     0.031 C 
ATOM     41  C   UNL A   1      41.501  29.433  32.130  1.00  0.00     0.029 A 
ATOM     42  C   UNL A   1      42.583  28.470  32.148  1.00  0.00     0.049 A 
ATOM     43  H   UNL A   1      42.898  26.938  30.717  1.00  0.00     0.167 HD
ATOM     44  C   UNL A   1      42.744  23.565  27.254  1.00  0.00     0.031 A 
ATOM     45  C   UNL A   1      43.595  28.369  33.066  1.00  0.00     0.031 A 
ATOM     46  C   UNL A   1      43.578  23.454  28.400  1.00  0.00     0.049 A 
ATOM     47  C   UNL A   1      44.555  27.398  32.529  1.00  0.00     0.074 A 
ATOM     48  C   UNL A   1      43.369  22.953  29.658  1.00  0.00     0.029 A 
ATOM     49  N   UNL A   1      44.708  24.234  28.406  1.00  0.00    -0.354 N 
ATOM     50  N   UNL A   1      45.355  27.628  31.534  1.00  0.00    -0.248 NA
ATOM     51  C   UNL A   1      44.659  26.071  33.147  1.00  0.00     0.031 C 
ATOM     52  C   UNL A   1      44.074  23.857  30.481  1.00  0.00     0.029 A 
ATOM     53  C   UNL A   1      44.836  24.716  29.681  1.00  0.00     0.049 A 
ATOM     54  H   UNL A   1      45.305  24.413  27.645  1.00  0.00     0.167 HD
ATOM     55  C   UNL A   1      45.706  26.359  31.153  1.00  0.00     0.074 A 
ATOM     56  C   UNL A   1      45.550  25.520  32.325  1.00  0.00     0.031 C 
ATOM     57  C   UNL A   1      45.486  25.992  29.864  1.00  0.00     0.031 A 
BRANCH  44  58
ATOM     58  C   UNL A   1      43.225  22.900  25.994  1.00  0.00    -0.014 A 
ATOM     59  C   UNL A   1      43.404  21.495  26.016  1.00  0.00     0.009 A 
ATOM     60  C   UNL A   1      43.833  23.608  24.952  1.00  0.00     0.009 A 
ATOM     61  C   UNL A   1      44.240  20.844  25.104  1.00  0.00     0.001 A 
ATOM     62  C   UNL A   1      44.643  22.950  24.016  1.00  0.00     0.001 A 
ATOM     63  C   UNL A   1      44.874  21.579  24.112  1.00  0.00     0.000 A 
ENDBRANCH  44  58
BRANCH  45  64
ATOM     64  C   UNL A   1      43.985  28.932  34.416  1.00  0.00    -0.014 A 
ATOM     65  C   UNL A   1      45.179  29.589  34.717  1.00  0.00     0.009 A 
ATOM     66  C   UNL A   1      43.003  28.944  35.452  1.00  0.00     0.009 A 
ATOM     67  C   UNL A   1      45.333  30.295  35.932  1.00  0.00     0.001 A 
ATOM     68  C   UNL A   1      43.127  29.690  36.627  1.00  0.00     0.001 A 
ATOM     69  C   UNL A   1      44.296  30.385  36.861  1.00  0.00     0.000 A 
ENDBRANCH  45  64
BRANCH  57  70
ATOM     70  C   UNL A   1      45.483  27.138  28.858  1.00  0.00    -0.014 A 
ATOM     71  C   UNL A   1      44.268  27.654  28.372  1.00  0.00     0.009 A 
ATOM     72  C   UNL A   1      46.658  27.641  28.274  1.00  0.00     0.009 A 
ATOM     73  C   UNL A   1      44.233  28.595  27.334  1.00  0.00     0.001 A 
ATOM     74  C   UNL A   1      46.631  28.586  27.237  1.00  0.00     0.001 A 
ATOM     75  C   UNL A   1      45.414  29.059  26.762  1.00  0.00     0.000 A 
ENDBRANCH  57  70
ENDBRANCH  31  32
ENDBRANCH  24  26
ENDBRANCH  23  24
ENDBRANCH  22  23
ENDBRANCH  21  22
ENDBRANCH   1  21
TORSDOF 16
ENDMDL
