MODEL 1
REMARK VINA RESULT:     -11.4      0.000      0.000
REMARK SMILES COc1ccc(-c2cc(C[C@H]3CCCC3=O)ccc2[C@@H](C)C(=O)OCCOC(=O)c2ccc(-c3c4nc(c(-c5ccccc5)c5ccc([nH]5)c(-c5ccccc5)c5nc(c(-c6ccccc6)c6ccc3[nH]6)C=C5)C=C4)cc2)cc1
REMARK SMILES IDX 25 1 24 2 22 3 23 4 20 5 21 6 19 7 7 8 8 9 9 10 18 11 17 12
REMARK SMILES IDX 6 13 3 14 4 15 79 16 5 17 78 18 2 19 1 20 10 21 11 22 12 23
REMARK SMILES IDX 15 24 13 25 14 26 16 27 26 28 27 29 28 30 29 31 30 32 31 33
REMARK SMILES IDX 77 34 32 35 76 36 33 37 34 38 35 39 70 40 36 41 75 42 69 43
REMARK SMILES IDX 71 44 37 45 74 46 68 47 67 48 38 50 60 51 45 52 59 53 46 54
REMARK SMILES IDX 49 55 58 56 72 57 47 58 48 59 57 61 73 62 50 63 39 64 40 65
REMARK SMILES IDX 44 66 41 67 43 68 42 69 61 70 62 71 66 72 63 73 65 74 64 75
REMARK SMILES IDX 51 76 52 77 56 78 53 79 55 80 54 81
REMARK H PARENT 71 49 49 60
REMARK Flexibility Score: inf
ROOT
ATOM      1  C   UNL A   1      38.295  21.149  25.531  1.00  0.00     0.274 C 
ENDROOT
BRANCH   1   2
ATOM      2  O   UNL A   1      36.878  20.965  25.341  1.00  0.00    -0.462 OA
BRANCH   2   3
ATOM      3  C   UNL A   1      36.114  22.082  25.253  1.00  0.00     0.313 C 
ATOM      4  O   UNL A   1      35.919  22.853  26.191  1.00  0.00    -0.252 OA
BRANCH   3   5
ATOM      5  C   UNL A   1      35.464  22.300  23.888  1.00  0.00     0.127 C 
ATOM      6  C   UNL A   1      36.484  22.953  22.954  1.00  0.00     0.025 C 
BRANCH   5   7
ATOM      7  C   UNL A   1      34.131  23.046  23.862  1.00  0.00    -0.026 A 
ATOM      8  C   UNL A   1      32.899  22.399  24.125  1.00  0.00    -0.014 A 
ATOM      9  C   UNL A   1      31.710  23.153  24.083  1.00  0.00     0.012 A 
ATOM     10  C   UNL A   1      31.694  24.487  23.668  1.00  0.00    -0.047 A 
ATOM     11  C   UNL A   1      34.107  24.410  23.506  1.00  0.00     0.005 A 
ATOM     12  C   UNL A   1      32.909  25.118  23.403  1.00  0.00     0.004 A 
BRANCH   8  13
ATOM     13  C   UNL A   1      32.744  20.948  24.302  1.00  0.00    -0.018 A 
ATOM     14  C   UNL A   1      32.635  18.147  24.663  1.00  0.00     0.118 A 
ATOM     15  C   UNL A   1      32.890  18.989  25.744  1.00  0.00     0.047 A 
ATOM     16  C   UNL A   1      32.464  18.704  23.397  1.00  0.00     0.047 A 
ATOM     17  C   UNL A   1      32.937  20.375  25.569  1.00  0.00     0.012 A 
ATOM     18  C   UNL A   1      32.526  20.094  23.217  1.00  0.00     0.012 A 
BRANCH  14  19
ATOM     19  O   UNL A   1      32.606  16.815  24.965  1.00  0.00    -0.497 OA
ATOM     20  C   UNL A   1      33.859  16.185  25.213  1.00  0.00     0.278 C 
ENDBRANCH  14  19
ENDBRANCH   8  13
BRANCH  10  21
ATOM     21  C   UNL A   1      30.386  25.194  23.420  1.00  0.00     0.047 C 
BRANCH  21  22
ATOM     22  C   UNL A   1      29.942  26.165  24.526  1.00  0.00     0.060 C 
ATOM     23  C   UNL A   1      30.263  25.768  25.973  1.00  0.00     0.012 C 
ATOM     24  C   UNL A   1      30.611  27.517  24.416  1.00  0.00     0.136 C 
ATOM     25  C   UNL A   1      31.527  26.531  26.359  1.00  0.00     0.009 C 
ATOM     26  C   UNL A   1      31.432  27.862  25.630  1.00  0.00     0.076 C 
ATOM     27  O   UNL A   1      30.478  28.266  23.454  1.00  0.00    -0.299 OA
ENDBRANCH  21  22
ENDBRANCH  10  21
ENDBRANCH   5   7
ENDBRANCH   3   5
ENDBRANCH   2   3
ENDBRANCH   1   2
BRANCH   1  28
ATOM     28  C   UNL A   1      39.031  19.824  25.360  1.00  0.00     0.275 C 
BRANCH  28  29
ATOM     29  O   UNL A   1      39.882  19.586  26.493  1.00  0.00    -0.458 OA
BRANCH  29  30
ATOM     30  C   UNL A   1      41.208  19.619  26.235  1.00  0.00     0.338 C 
ATOM     31  O   UNL A   1      41.902  18.757  25.733  1.00  0.00    -0.246 OA
BRANCH  30  32
ATOM     32  C   UNL A   1      41.741  20.919  26.658  1.00  0.00     0.060 A 
ATOM     33  C   UNL A   1      41.632  21.302  27.994  1.00  0.00     0.016 A 
ATOM     34  C   UNL A   1      42.227  21.803  25.697  1.00  0.00     0.016 A 
ATOM     35  C   UNL A   1      41.953  22.605  28.365  1.00  0.00     0.010 A 
ATOM     36  C   UNL A   1      42.607  23.089  26.085  1.00  0.00     0.010 A 
ATOM     37  C   UNL A   1      42.443  23.513  27.416  1.00  0.00    -0.014 A 
BRANCH  37  38
ATOM     38  C   UNL A   1      42.764  24.913  27.792  1.00  0.00     0.031 A 
ATOM     39  C   UNL A   1      44.183  25.311  28.094  1.00  0.00     0.074 A 
ATOM     40  C   UNL A   1      41.779  25.826  27.895  1.00  0.00     0.049 A 
ATOM     41  N   UNL A   1      44.636  26.424  28.613  1.00  0.00    -0.248 NA
ATOM     42  C   UNL A   1      45.231  24.332  27.764  1.00  0.00     0.031 C 
ATOM     43  C   UNL A   1      40.368  25.592  27.582  1.00  0.00     0.029 A 
ATOM     44  N   UNL A   1      41.817  27.132  28.313  1.00  0.00    -0.354 N 
ATOM     45  C   UNL A   1      46.011  26.260  28.719  1.00  0.00     0.074 A 
ATOM     46  C   UNL A   1      46.324  24.951  28.190  1.00  0.00     0.031 C 
ATOM     47  C   UNL A   1      39.675  26.715  27.821  1.00  0.00     0.029 A 
ATOM     48  C   UNL A   1      40.577  27.717  28.377  1.00  0.00     0.049 A 
ATOM     49  H   UNL A   1      42.651  27.603  28.544  1.00  0.00     0.167 HD
ATOM     50  C   UNL A   1      46.926  27.117  29.230  1.00  0.00     0.031 A 
ATOM     51  C   UNL A   1      40.190  28.903  28.882  1.00  0.00     0.031 A 
ATOM     52  C   UNL A   1      46.616  28.418  29.760  1.00  0.00     0.049 A 
ATOM     53  C   UNL A   1      41.210  29.807  29.506  1.00  0.00     0.074 A 
ATOM     54  C   UNL A   1      47.480  29.362  30.288  1.00  0.00     0.029 A 
ATOM     55  N   UNL A   1      45.342  28.955  29.834  1.00  0.00    -0.354 N 
ATOM     56  N   UNL A   1      42.502  29.628  29.629  1.00  0.00    -0.248 NA
ATOM     57  C   UNL A   1      40.716  31.067  30.079  1.00  0.00     0.031 C 
ATOM     58  C   UNL A   1      46.721  30.454  30.721  1.00  0.00     0.029 A 
ATOM     59  C   UNL A   1      45.391  30.208  30.421  1.00  0.00     0.049 A 
ATOM     60  H   UNL A   1      44.523  28.511  29.516  1.00  0.00     0.167 HD
ATOM     61  C   UNL A   1      42.978  30.755  30.286  1.00  0.00     0.074 A 
ATOM     62  C   UNL A   1      41.838  31.617  30.524  1.00  0.00     0.031 C 
ATOM     63  C   UNL A   1      44.247  31.046  30.660  1.00  0.00     0.031 A 
BRANCH  50  64
ATOM     64  C   UNL A   1      48.351  26.646  29.296  1.00  0.00    -0.014 A 
ATOM     65  C   UNL A   1      48.828  25.902  30.385  1.00  0.00     0.009 A 
ATOM     66  C   UNL A   1      49.219  26.928  28.228  1.00  0.00     0.009 A 
ATOM     67  C   UNL A   1      50.158  25.472  30.414  1.00  0.00     0.001 A 
ATOM     68  C   UNL A   1      50.540  26.480  28.252  1.00  0.00     0.001 A 
ATOM     69  C   UNL A   1      51.011  25.758  29.348  1.00  0.00     0.000 A 
ENDBRANCH  50  64
BRANCH  51  70
ATOM     70  C   UNL A   1      38.749  29.258  28.876  1.00  0.00    -0.014 A 
ATOM     71  C   UNL A   1      38.143  29.765  27.719  1.00  0.00     0.009 A 
ATOM     72  C   UNL A   1      37.965  29.047  30.022  1.00  0.00     0.009 A 
ATOM     73  C   UNL A   1      36.777  30.053  27.710  1.00  0.00     0.001 A 
ATOM     74  C   UNL A   1      36.595  29.313  30.002  1.00  0.00     0.001 A 
ATOM     75  C   UNL A   1      36.004  29.820  28.846  1.00  0.00     0.000 A 
ENDBRANCH  51  70
BRANCH  63  76
ATOM     76  C   UNL A   1      44.472  32.362  31.344  1.00  0.00    -0.014 A 
ATOM     77  C   UNL A   1      44.698  33.532  30.603  1.00  0.00     0.009 A 
ATOM     78  C   UNL A   1      44.416  32.437  32.743  1.00  0.00     0.009 A 
ATOM     79  C   UNL A   1      44.884  34.751  31.257  1.00  0.00     0.001 A 
ATOM     80  C   UNL A   1      44.584  33.661  33.392  1.00  0.00     0.001 A 
ATOM     81  C   UNL A   1      44.823  34.815  32.649  1.00  0.00     0.000 A 
ENDBRANCH  63  76
ENDBRANCH  37  38
ENDBRANCH  30  32
ENDBRANCH  29  30
ENDBRANCH  28  29
ENDBRANCH   1  28
TORSDOF 16
ENDMDL
MODEL 2
REMARK VINA RESULT:     -11.4      0.790      5.814
REMARK SMILES COc1ccc(-c2cc(C[C@H]3CCCC3=O)ccc2[C@@H](C)C(=O)OCCOC(=O)c2ccc(-c3c4nc(c(-c5ccccc5)c5ccc([nH]5)c(-c5ccccc5)c5nc(c(-c6ccccc6)c6ccc3[nH]6)C=C5)C=C4)cc2)cc1
REMARK SMILES IDX 25 1 24 2 22 3 23 4 20 5 21 6 19 7 7 8 8 9 9 10 18 11 17 12
REMARK SMILES IDX 6 13 3 14 4 15 79 16 5 17 78 18 2 19 1 20 10 21 11 22 12 23
REMARK SMILES IDX 15 24 13 25 14 26 16 27 26 28 27 29 28 30 29 31 30 32 31 33
REMARK SMILES IDX 77 34 32 35 76 36 33 37 34 38 35 39 70 40 36 41 75 42 69 43
REMARK SMILES IDX 71 44 37 45 74 46 68 47 67 48 38 50 60 51 45 52 59 53 46 54
REMARK SMILES IDX 49 55 58 56 72 57 47 58 48 59 57 61 73 62 50 63 39 64 40 65
REMARK SMILES IDX 44 66 41 67 43 68 42 69 61 70 62 71 66 72 63 73 65 74 64 75
REMARK SMILES IDX 51 76 52 77 56 78 53 79 55 80 54 81
REMARK H PARENT 71 49 49 60
REMARK Flexibility Score: inf
ROOT
ATOM      1  C   UNL A   1      37.250  20.193  24.989  1.00  0.00     0.274 C 
ENDROOT
BRANCH   1   2
ATOM      2  O   UNL A   1      37.297  21.531  25.519  1.00  0.00    -0.462 OA
BRANCH   2   3
ATOM      3  C   UNL A   1      36.151  22.255  25.481  1.00  0.00     0.313 C 
ATOM      4  O   UNL A   1      35.617  22.742  26.475  1.00  0.00    -0.252 OA
BRANCH   3   5
ATOM      5  C   UNL A   1      35.533  22.392  24.091  1.00  0.00     0.127 C 
ATOM      6  C   UNL A   1      36.590  22.946  23.133  1.00  0.00     0.025 C 
BRANCH   5   7
ATOM      7  C   UNL A   1      34.225  23.174  23.983  1.00  0.00    -0.026 A 
ATOM      8  C   UNL A   1      32.962  22.554  24.142  1.00  0.00    -0.014 A 
ATOM      9  C   UNL A   1      31.797  23.339  24.029  1.00  0.00     0.012 A 
ATOM     10  C   UNL A   1      31.845  24.682  23.643  1.00  0.00    -0.047 A 
ATOM     11  C   UNL A   1      34.261  24.545  23.655  1.00  0.00     0.005 A 
ATOM     12  C   UNL A   1      33.091  25.286  23.480  1.00  0.00     0.004 A 
BRANCH   8  13
ATOM     13  C   UNL A   1      32.758  21.105  24.276  1.00  0.00    -0.018 A 
ATOM     14  C   UNL A   1      32.557  18.299  24.551  1.00  0.00     0.118 A 
ATOM     15  C   UNL A   1      32.863  19.096  25.652  1.00  0.00     0.047 A 
ATOM     16  C   UNL A   1      32.380  18.903  23.307  1.00  0.00     0.047 A 
ATOM     17  C   UNL A   1      32.955  20.485  25.520  1.00  0.00     0.012 A 
ATOM     18  C   UNL A   1      32.489  20.294  23.170  1.00  0.00     0.012 A 
BRANCH  14  19
ATOM     19  O   UNL A   1      32.486  16.959  24.810  1.00  0.00    -0.497 OA
ATOM     20  C   UNL A   1      33.540  16.150  24.300  1.00  0.00     0.278 C 
ENDBRANCH  14  19
ENDBRANCH   8  13
BRANCH  10  21
ATOM     21  C   UNL A   1      30.576  25.427  23.315  1.00  0.00     0.047 C 
BRANCH  21  22
ATOM     22  C   UNL A   1      30.030  26.323  24.438  1.00  0.00     0.060 C 
ATOM     23  C   UNL A   1      30.280  25.863  25.881  1.00  0.00     0.012 C 
ATOM     24  C   UNL A   1      30.651  27.702  24.437  1.00  0.00     0.136 C 
ATOM     25  C   UNL A   1      31.487  26.649  26.382  1.00  0.00     0.009 C 
ATOM     26  C   UNL A   1      31.385  28.013  25.715  1.00  0.00     0.076 C 
ATOM     27  O   UNL A   1      30.547  28.495  23.507  1.00  0.00    -0.299 OA
ENDBRANCH  21  22
ENDBRANCH  10  21
ENDBRANCH   5   7
ENDBRANCH   3   5
ENDBRANCH   2   3
ENDBRANCH   1   2
BRANCH   1  28
ATOM     28  C   UNL A   1      38.650  19.588  24.943  1.00  0.00     0.275 C 
BRANCH  28  29
ATOM     29  O   UNL A   1      39.389  19.971  26.114  1.00  0.00    -0.458 OA
BRANCH  29  30
ATOM     30  C   UNL A   1      40.726  19.793  26.035  1.00  0.00     0.338 C 
ATOM     31  O   UNL A   1      41.336  18.829  25.614  1.00  0.00    -0.246 OA
BRANCH  30  32
ATOM     32  C   UNL A   1      41.396  20.993  26.548  1.00  0.00     0.060 A 
ATOM     33  C   UNL A   1      41.645  21.107  27.915  1.00  0.00     0.016 A 
ATOM     34  C   UNL A   1      41.651  22.055  25.683  1.00  0.00     0.016 A 
ATOM     35  C   UNL A   1      42.096  22.317  28.434  1.00  0.00     0.010 A 
ATOM     36  C   UNL A   1      42.164  23.246  26.200  1.00  0.00     0.010 A 
ATOM     37  C   UNL A   1      42.360  23.401  27.583  1.00  0.00    -0.014 A 
BRANCH  37  38
ATOM     38  C   UNL A   1      42.817  24.705  28.125  1.00  0.00     0.031 A 
ATOM     39  C   UNL A   1      41.817  25.774  28.473  1.00  0.00     0.074 A 
ATOM     40  C   UNL A   1      44.132  24.948  28.279  1.00  0.00     0.049 A 
ATOM     41  N   UNL A   1      42.023  27.029  28.779  1.00  0.00    -0.248 NA
ATOM     42  C   UNL A   1      40.399  25.379  28.481  1.00  0.00     0.031 C 
ATOM     43  C   UNL A   1      45.208  23.986  28.031  1.00  0.00     0.029 A 
ATOM     44  N   UNL A   1      44.787  26.091  28.663  1.00  0.00    -0.354 N 
ATOM     45  C   UNL A   1      40.764  27.586  28.967  1.00  0.00     0.074 A 
ATOM     46  C   UNL A   1      39.799  26.527  28.763  1.00  0.00     0.031 C 
ATOM     47  C   UNL A   1      46.388  24.579  28.267  1.00  0.00     0.029 A 
ATOM     48  C   UNL A   1      46.154  25.978  28.603  1.00  0.00     0.049 A 
ATOM     49  H   UNL A   1      44.323  26.910  28.951  1.00  0.00     0.167 HD
ATOM     50  C   UNL A   1      40.442  28.867  29.263  1.00  0.00     0.031 A 
ATOM     51  C   UNL A   1      47.119  26.907  28.740  1.00  0.00     0.031 A 
ATOM     52  C   UNL A   1      41.401  29.921  29.463  1.00  0.00     0.049 A 
ATOM     53  C   UNL A   1      46.738  28.334  28.999  1.00  0.00     0.074 A 
ATOM     54  C   UNL A   1      41.169  31.248  29.779  1.00  0.00     0.029 A 
ATOM     55  N   UNL A   1      42.773  29.767  29.360  1.00  0.00    -0.354 N 
ATOM     56  N   UNL A   1      45.544  28.853  29.143  1.00  0.00    -0.248 NA
ATOM     57  C   UNL A   1      47.836  29.305  29.094  1.00  0.00     0.031 C 
ATOM     58  C   UNL A   1      42.402  31.908  29.826  1.00  0.00     0.029 A 
ATOM     59  C   UNL A   1      43.402  30.981  29.583  1.00  0.00     0.049 A 
ATOM     60  H   UNL A   1      43.233  28.920  29.159  1.00  0.00     0.167 HD
ATOM     61  C   UNL A   1      45.746  30.210  29.353  1.00  0.00     0.074 A 
ATOM     62  C   UNL A   1      47.178  30.431  29.331  1.00  0.00     0.031 C 
ATOM     63  C   UNL A   1      44.825  31.185  29.546  1.00  0.00     0.031 A 
BRANCH  50  64
ATOM     64  C   UNL A   1      38.983  29.214  29.329  1.00  0.00    -0.014 A 
ATOM     65  C   UNL A   1      38.284  29.665  28.200  1.00  0.00     0.009 A 
ATOM     66  C   UNL A   1      38.291  29.053  30.541  1.00  0.00     0.009 A 
ATOM     67  C   UNL A   1      36.924  29.974  28.292  1.00  0.00     0.001 A 
ATOM     68  C   UNL A   1      36.929  29.343  30.623  1.00  0.00     0.001 A 
ATOM     69  C   UNL A   1      36.248  29.810  29.500  1.00  0.00     0.000 A 
ENDBRANCH  50  64
BRANCH  51  70
ATOM     70  C   UNL A   1      48.537  26.511  28.559  1.00  0.00    -0.014 A 
ATOM     71  C   UNL A   1      49.131  26.540  27.290  1.00  0.00     0.009 A 
ATOM     72  C   UNL A   1      49.316  26.145  29.669  1.00  0.00     0.009 A 
ATOM     73  C   UNL A   1      50.479  26.209  27.137  1.00  0.00     0.001 A 
ATOM     74  C   UNL A   1      50.668  25.838  29.516  1.00  0.00     0.001 A 
ATOM     75  C   UNL A   1      51.247  25.866  28.249  1.00  0.00     0.000 A 
ENDBRANCH  51  70
BRANCH  63  76
ATOM     76  C   UNL A   1      45.340  32.575  29.772  1.00  0.00    -0.014 A 
ATOM     77  C   UNL A   1      45.672  33.023  31.059  1.00  0.00     0.009 A 
ATOM     78  C   UNL A   1      45.533  33.431  28.677  1.00  0.00     0.009 A 
ATOM     79  C   UNL A   1      46.170  34.314  31.247  1.00  0.00     0.001 A 
ATOM     80  C   UNL A   1      46.049  34.714  28.867  1.00  0.00     0.001 A 
ATOM     81  C   UNL A   1      46.361  35.155  30.152  1.00  0.00     0.000 A 
ENDBRANCH  63  76
ENDBRANCH  37  38
ENDBRANCH  30  32
ENDBRANCH  29  30
ENDBRANCH  28  29
ENDBRANCH   1  28
TORSDOF 16
ENDMDL
MODEL 3
REMARK VINA RESULT:     -11.2      2.980      4.230
REMARK SMILES COc1ccc(-c2cc(C[C@H]3CCCC3=O)ccc2[C@@H](C)C(=O)OCCOC(=O)c2ccc(-c3c4nc(c(-c5ccccc5)c5ccc([nH]5)c(-c5ccccc5)c5nc(c(-c6ccccc6)c6ccc3[nH]6)C=C5)C=C4)cc2)cc1
REMARK SMILES IDX 25 1 24 2 22 3 23 4 20 5 21 6 19 7 7 8 8 9 9 10 18 11 17 12
REMARK SMILES IDX 6 13 3 14 4 15 79 16 5 17 78 18 2 19 1 20 10 21 11 22 12 23
REMARK SMILES IDX 15 24 13 25 14 26 16 27 26 28 27 29 28 30 29 31 30 32 31 33
REMARK SMILES IDX 77 34 32 35 76 36 33 37 34 38 35 39 70 40 36 41 75 42 69 43
REMARK SMILES IDX 71 44 37 45 74 46 68 47 67 48 38 50 60 51 45 52 59 53 46 54
REMARK SMILES IDX 49 55 58 56 72 57 47 58 48 59 57 61 73 62 50 63 39 64 40 65
REMARK SMILES IDX 44 66 41 67 43 68 42 69 61 70 62 71 66 72 63 73 65 74 64 75
REMARK SMILES IDX 51 76 52 77 56 78 53 79 55 80 54 81
REMARK H PARENT 71 49 49 60
REMARK Flexibility Score: inf
ROOT
ATOM      1  C   UNL A   1      38.273  21.118  25.321  1.00  0.00     0.274 C 
ENDROOT
BRANCH   1   2
ATOM      2  O   UNL A   1      37.519  22.341  25.433  1.00  0.00    -0.462 OA
BRANCH   2   3
ATOM      3  C   UNL A   1      36.168  22.235  25.480  1.00  0.00     0.313 C 
ATOM      4  O   UNL A   1      35.531  22.068  26.519  1.00  0.00    -0.252 OA
BRANCH   3   5
ATOM      5  C   UNL A   1      35.479  22.299  24.119  1.00  0.00     0.127 C 
ATOM      6  C   UNL A   1      36.470  22.843  23.088  1.00  0.00     0.025 C 
BRANCH   5   7
ATOM      7  C   UNL A   1      34.143  23.039  24.048  1.00  0.00    -0.026 A 
ATOM      8  C   UNL A   1      32.904  22.375  24.208  1.00  0.00    -0.014 A 
ATOM      9  C   UNL A   1      31.713  23.123  24.130  1.00  0.00     0.012 A 
ATOM     10  C   UNL A   1      31.711  24.475  23.776  1.00  0.00    -0.047 A 
ATOM     11  C   UNL A   1      34.130  24.418  23.752  1.00  0.00     0.005 A 
ATOM     12  C   UNL A   1      32.935  25.124  23.611  1.00  0.00     0.004 A 
BRANCH   8  13
ATOM     13  C   UNL A   1      32.750  20.916  24.310  1.00  0.00    -0.018 A 
ATOM     14  C   UNL A   1      32.644  18.100  24.526  1.00  0.00     0.118 A 
ATOM     15  C   UNL A   1      32.903  18.885  25.648  1.00  0.00     0.047 A 
ATOM     16  C   UNL A   1      32.467  18.722  23.291  1.00  0.00     0.047 A 
ATOM     17  C   UNL A   1      32.948  20.278  25.545  1.00  0.00     0.012 A 
ATOM     18  C   UNL A   1      32.528  20.119  23.183  1.00  0.00     0.012 A 
BRANCH  14  19
ATOM     19  O   UNL A   1      32.616  16.754  24.758  1.00  0.00    -0.497 OA
ATOM     20  C   UNL A   1      33.769  16.184  25.369  1.00  0.00     0.278 C 
ENDBRANCH  14  19
ENDBRANCH   8  13
BRANCH  10  21
ATOM     21  C   UNL A   1      30.414  25.185  23.482  1.00  0.00     0.047 C 
BRANCH  21  22
ATOM     22  C   UNL A   1      29.947  26.175  24.562  1.00  0.00     0.060 C 
ATOM     23  C   UNL A   1      30.259  25.815  26.021  1.00  0.00     0.012 C 
ATOM     24  C   UNL A   1      30.599  27.533  24.428  1.00  0.00     0.136 C 
ATOM     25  C   UNL A   1      31.509  26.602  26.402  1.00  0.00     0.009 C 
ATOM     26  C   UNL A   1      31.405  27.915  25.642  1.00  0.00     0.076 C 
ATOM     27  O   UNL A   1      30.467  28.258  23.449  1.00  0.00    -0.299 OA
ENDBRANCH  21  22
ENDBRANCH  10  21
ENDBRANCH   5   7
ENDBRANCH   3   5
ENDBRANCH   2   3
ENDBRANCH   1   2
BRANCH   1  28
ATOM     28  C   UNL A   1      39.565  21.214  26.126  1.00  0.00     0.275 C 
BRANCH  28  29
ATOM     29  O   UNL A   1      39.651  22.498  26.767  1.00  0.00    -0.458 OA
BRANCH  29  30
ATOM     30  C   UNL A   1      40.759  23.214  26.476  1.00  0.00     0.338 C 
ATOM     31  O   UNL A   1      41.701  22.897  25.775  1.00  0.00    -0.246 OA
BRANCH  30  32
ATOM     32  C   UNL A   1      40.675  24.513  27.151  1.00  0.00     0.060 A 
ATOM     33  C   UNL A   1      41.684  25.454  26.954  1.00  0.00     0.016 A 
ATOM     34  C   UNL A   1      39.661  24.735  28.080  1.00  0.00     0.016 A 
ATOM     35  C   UNL A   1      41.717  26.604  27.739  1.00  0.00     0.010 A 
ATOM     36  C   UNL A   1      39.662  25.919  28.820  1.00  0.00     0.010 A 
ATOM     37  C   UNL A   1      40.707  26.849  28.681  1.00  0.00    -0.014 A 
BRANCH  37  38
ATOM     38  C   UNL A   1      40.743  28.057  29.542  1.00  0.00     0.031 A 
ATOM     39  C   UNL A   1      41.777  28.185  30.627  1.00  0.00     0.074 A 
ATOM     40  C   UNL A   1      39.827  29.031  29.376  1.00  0.00     0.049 A 
ATOM     41  N   UNL A   1      41.857  29.065  31.592  1.00  0.00    -0.248 NA
ATOM     42  C   UNL A   1      42.868  27.197  30.624  1.00  0.00     0.031 C 
ATOM     43  C   UNL A   1      38.800  29.062  28.333  1.00  0.00     0.029 A 
ATOM     44  N   UNL A   1      39.603  30.174  30.101  1.00  0.00    -0.354 N 
ATOM     45  C   UNL A   1      42.973  28.709  32.339  1.00  0.00     0.074 A 
ATOM     46  C   UNL A   1      43.554  27.547  31.703  1.00  0.00     0.031 C 
ATOM     47  C   UNL A   1      38.055  30.167  28.486  1.00  0.00     0.029 A 
ATOM     48  C   UNL A   1      38.500  30.875  29.680  1.00  0.00     0.049 A 
ATOM     49  H   UNL A   1      40.175  30.463  30.848  1.00  0.00     0.167 HD
ATOM     50  C   UNL A   1      43.457  29.288  33.463  1.00  0.00     0.031 A 
ATOM     51  C   UNL A   1      37.872  31.935  30.224  1.00  0.00     0.031 A 
ATOM     52  C   UNL A   1      42.879  30.442  34.098  1.00  0.00     0.049 A 
ATOM     53  C   UNL A   1      38.384  32.517  31.507  1.00  0.00     0.074 A 
ATOM     54  C   UNL A   1      43.307  31.106  35.234  1.00  0.00     0.029 A 
ATOM     55  N   UNL A   1      41.743  31.098  33.654  1.00  0.00    -0.354 N 
ATOM     56  N   UNL A   1      39.421  32.152  32.220  1.00  0.00    -0.248 NA
ATOM     57  C   UNL A   1      37.628  33.643  32.071  1.00  0.00     0.031 C 
ATOM     58  C   UNL A   1      42.404  32.140  35.502  1.00  0.00     0.029 A 
ATOM     59  C   UNL A   1      41.440  32.146  34.507  1.00  0.00     0.049 A 
ATOM     60  H   UNL A   1      41.227  30.855  32.852  1.00  0.00     0.167 HD
ATOM     61  C   UNL A   1      39.447  33.008  33.312  1.00  0.00     0.074 A 
ATOM     62  C   UNL A   1      38.330  33.918  33.161  1.00  0.00     0.031 C 
ATOM     63  C   UNL A   1      40.320  33.034  34.348  1.00  0.00     0.031 A 
BRANCH  50  64
ATOM     64  C   UNL A   1      44.645  28.640  34.116  1.00  0.00    -0.014 A 
ATOM     65  C   UNL A   1      44.494  27.615  35.060  1.00  0.00     0.009 A 
ATOM     66  C   UNL A   1      45.938  29.047  33.749  1.00  0.00     0.009 A 
ATOM     67  C   UNL A   1      45.620  27.027  35.646  1.00  0.00     0.001 A 
ATOM     68  C   UNL A   1      47.059  28.444  34.321  1.00  0.00     0.001 A 
ATOM     69  C   UNL A   1      46.899  27.439  35.274  1.00  0.00     0.000 A 
ENDBRANCH  50  64
BRANCH  51  70
ATOM     70  C   UNL A   1      36.643  32.458  29.579  1.00  0.00    -0.014 A 
ATOM     71  C   UNL A   1      36.714  33.494  28.638  1.00  0.00     0.009 A 
ATOM     72  C   UNL A   1      35.394  31.887  29.872  1.00  0.00     0.009 A 
ATOM     73  C   UNL A   1      35.557  33.949  28.003  1.00  0.00     0.001 A 
ATOM     74  C   UNL A   1      34.242  32.326  29.218  1.00  0.00     0.001 A 
ATOM     75  C   UNL A   1      34.325  33.360  28.287  1.00  0.00     0.000 A 
ENDBRANCH  51  70
BRANCH  63  76
ATOM     76  C   UNL A   1      40.114  34.096  35.387  1.00  0.00    -0.014 A 
ATOM     77  C   UNL A   1      40.623  35.391  35.207  1.00  0.00     0.009 A 
ATOM     78  C   UNL A   1      39.367  33.807  36.538  1.00  0.00     0.009 A 
ATOM     79  C   UNL A   1      40.403  36.372  36.176  1.00  0.00     0.001 A 
ATOM     80  C   UNL A   1      39.133  34.795  37.495  1.00  0.00     0.001 A 
ATOM     81  C   UNL A   1      39.656  36.075  37.315  1.00  0.00     0.000 A 
ENDBRANCH  63  76
ENDBRANCH  37  38
ENDBRANCH  30  32
ENDBRANCH  29  30
ENDBRANCH  28  29
ENDBRANCH   1  28
TORSDOF 16
ENDMDL
