MODEL 1
REMARK VINA RESULT:     -10.4      0.000      0.000
REMARK SMILES Cc1oc(CNC(=O)c2ccnn2C)cc1C(=O)OCCOC(=O)c1ccc(-c2c3nc(c(-c4ccccc4)c4ccc([nH]4)c(-c4ccccc4)c4nc(c(-c5ccccc5)c5ccc2[nH]5)C=C4)C=C3)cc1
REMARK SMILES IDX 20 1 19 2 17 3 18 4 16 5 1 6 2 7 3 8 4 9 15 10 5 11 6 12
REMARK SMILES IDX 7 13 8 15 9 16 10 17 13 18 11 19 12 20 14 21 21 22 22 23
REMARK SMILES IDX 23 24 24 25 25 26 26 27 72 28 27 29 71 30 28 31 29 32 30 33
REMARK SMILES IDX 65 34 31 35 70 36 64 37 66 38 32 39 69 40 63 41 62 42 33 44
REMARK SMILES IDX 55 45 40 46 54 47 41 48 44 49 53 50 67 51 42 52 43 53 52 55
REMARK SMILES IDX 68 56 45 57 34 58 35 59 39 60 36 61 38 62 37 63 56 64 57 65
REMARK SMILES IDX 61 66 58 67 60 68 59 69 46 70 47 71 51 72 48 73 50 74 49 75
REMARK H PARENT 6 14 66 43 44 54
REMARK Flexibility Score: inf
ROOT
ATOM      1  C   UNL A   1      42.262  20.463  25.939  1.00  0.00     0.275 C 
ENDROOT
BRANCH   1   2
ATOM      2  O   UNL A   1      41.045  21.124  25.547  1.00  0.00    -0.458 OA
BRANCH   2   3
ATOM      3  C   UNL A   1      40.160  21.365  26.556  1.00  0.00     0.341 C 
ATOM      4  O   UNL A   1      40.414  21.236  27.745  1.00  0.00    -0.246 OA
BRANCH   3   5
ATOM      5  C   UNL A   1      38.897  21.923  26.105  1.00  0.00     0.101 A 
ATOM      6  C   UNL A   1      38.869  24.466  26.832  1.00  0.00     0.088 C 
ATOM      7  C   UNL A   1      38.368  23.191  26.276  1.00  0.00     0.115 A 
ATOM      8  O   UNL A   1      37.108  23.253  25.742  1.00  0.00    -0.464 OA
ATOM      9  C   UNL A   1      36.838  22.038  25.195  1.00  0.00     0.124 A 
ATOM     10  C   UNL A   1      37.925  21.213  25.340  1.00  0.00     0.063 A 
BRANCH   9  11
ATOM     11  C   UNL A   1      35.558  21.840  24.484  1.00  0.00     0.191 C 
BRANCH  11  12
ATOM     12  N   UNL A   1      34.444  21.696  25.389  1.00  0.00    -0.343 N 
ATOM     13  C   UNL A   1      33.456  22.611  25.640  1.00  0.00     0.269 C 
ATOM     14  H   UNL A   1      34.387  20.845  25.881  1.00  0.00     0.164 HD
ATOM     15  O   UNL A   1      32.591  22.346  26.470  1.00  0.00    -0.268 OA
BRANCH  13  16
ATOM     16  C   UNL A   1      33.525  23.874  24.955  1.00  0.00     0.125 A 
ATOM     17  C   UNL A   1      34.013  25.072  25.443  1.00  0.00     0.055 A 
ATOM     18  N   UNL A   1      33.104  24.155  23.679  1.00  0.00    -0.263 N 
ATOM     19  C   UNL A   1      33.964  25.959  24.357  1.00  0.00     0.136 A 
ATOM     20  N   UNL A   1      33.436  25.397  23.269  1.00  0.00    -0.181 NA
ATOM     21  C   UNL A   1      32.421  23.287  22.749  1.00  0.00     0.174 C 
ENDBRANCH  13  16
ENDBRANCH  11  12
ENDBRANCH   9  11
ENDBRANCH   3   5
ENDBRANCH   2   3
ENDBRANCH   1   2
BRANCH   1  22
ATOM     22  C   UNL A   1      43.485  21.262  25.486  1.00  0.00     0.275 C 
BRANCH  22  23
ATOM     23  O   UNL A   1      43.083  22.511  24.887  1.00  0.00    -0.458 OA
BRANCH  23  24
ATOM     24  C   UNL A   1      43.870  23.577  25.159  1.00  0.00     0.338 C 
ATOM     25  O   UNL A   1      44.958  23.845  24.676  1.00  0.00    -0.246 OA
BRANCH  24  26
ATOM     26  C   UNL A   1      43.199  24.453  26.131  1.00  0.00     0.060 A 
ATOM     27  C   UNL A   1      43.337  25.832  25.992  1.00  0.00     0.016 A 
ATOM     28  C   UNL A   1      42.558  23.923  27.249  1.00  0.00     0.016 A 
ATOM     29  C   UNL A   1      42.876  26.692  26.986  1.00  0.00     0.010 A 
ATOM     30  C   UNL A   1      42.043  24.791  28.223  1.00  0.00     0.010 A 
ATOM     31  C   UNL A   1      42.221  26.183  28.115  1.00  0.00    -0.014 A 
BRANCH  31  32
ATOM     32  C   UNL A   1      41.776  27.101  29.200  1.00  0.00     0.031 A 
ATOM     33  C   UNL A   1      42.561  27.200  30.482  1.00  0.00     0.074 A 
ATOM     34  C   UNL A   1      40.685  27.877  29.037  1.00  0.00     0.049 A 
ATOM     35  N   UNL A   1      42.269  27.845  31.584  1.00  0.00    -0.248 NA
ATOM     36  C   UNL A   1      43.841  26.475  30.532  1.00  0.00     0.031 C 
ATOM     37  C   UNL A   1      39.856  27.934  27.831  1.00  0.00     0.029 A 
ATOM     38  N   UNL A   1      40.092  28.775  29.890  1.00  0.00    -0.354 N 
ATOM     39  C   UNL A   1      43.301  27.565  32.472  1.00  0.00     0.074 A 
ATOM     40  C   UNL A   1      44.226  26.692  31.782  1.00  0.00     0.031 C 
ATOM     41  C   UNL A   1      38.882  28.840  28.012  1.00  0.00     0.029 A 
ATOM     42  C   UNL A   1      38.972  29.375  29.367  1.00  0.00     0.049 A 
ATOM     43  H   UNL A   1      40.436  28.970  30.792  1.00  0.00     0.167 HD
ATOM     44  C   UNL A   1      43.463  27.991  33.749  1.00  0.00     0.031 A 
ATOM     45  C   UNL A   1      38.094  30.233  29.921  1.00  0.00     0.031 A 
ATOM     46  C   UNL A   1      42.566  28.884  34.433  1.00  0.00     0.049 A 
ATOM     47  C   UNL A   1      38.270  30.655  31.352  1.00  0.00     0.074 A 
ATOM     48  C   UNL A   1      42.655  29.372  35.727  1.00  0.00     0.029 A 
ATOM     49  N   UNL A   1      41.422  29.432  33.878  1.00  0.00    -0.354 N 
ATOM     50  N   UNL A   1      39.225  30.342  32.193  1.00  0.00    -0.248 NA
ATOM     51  C   UNL A   1      37.235  31.537  31.913  1.00  0.00     0.031 C 
ATOM     52  C   UNL A   1      41.545  30.190  35.964  1.00  0.00     0.029 A 
ATOM     53  C   UNL A   1      40.788  30.243  34.805  1.00  0.00     0.049 A 
ATOM     54  H   UNL A   1      41.105  29.269  32.960  1.00  0.00     0.167 HD
ATOM     55  C   UNL A   1      38.912  30.995  33.378  1.00  0.00     0.074 A 
ATOM     56  C   UNL A   1      37.692  31.738  33.141  1.00  0.00     0.031 C 
ATOM     57  C   UNL A   1      39.574  30.975  34.559  1.00  0.00     0.031 A 
BRANCH  44  58
ATOM     58  C   UNL A   1      44.643  27.458  34.509  1.00  0.00    -0.014 A 
ATOM     59  C   UNL A   1      45.870  28.138  34.533  1.00  0.00     0.009 A 
ATOM     60  C   UNL A   1      44.510  26.267  35.243  1.00  0.00     0.009 A 
ATOM     61  C   UNL A   1      46.949  27.620  35.253  1.00  0.00     0.001 A 
ATOM     62  C   UNL A   1      45.583  25.765  35.981  1.00  0.00     0.001 A 
ATOM     63  C   UNL A   1      46.804  26.437  35.978  1.00  0.00     0.000 A 
ENDBRANCH  44  58
BRANCH  45  64
ATOM     64  C   UNL A   1      36.933  30.718  29.130  1.00  0.00    -0.014 A 
ATOM     65  C   UNL A   1      35.900  29.841  28.768  1.00  0.00     0.009 A 
ATOM     66  C   UNL A   1      36.857  32.061  28.729  1.00  0.00     0.009 A 
ATOM     67  C   UNL A   1      34.820  30.297  28.008  1.00  0.00     0.001 A 
ATOM     68  C   UNL A   1      35.764  32.519  27.993  1.00  0.00     0.001 A 
ATOM     69  C   UNL A   1      34.750  31.636  27.627  1.00  0.00     0.000 A 
ENDBRANCH  45  64
BRANCH  57  70
ATOM     70  C   UNL A   1      39.007  31.801  35.677  1.00  0.00    -0.014 A 
ATOM     71  C   UNL A   1      38.148  31.236  36.632  1.00  0.00     0.009 A 
ATOM     72  C   UNL A   1      39.361  33.154  35.793  1.00  0.00     0.009 A 
ATOM     73  C   UNL A   1      37.631  32.020  37.665  1.00  0.00     0.001 A 
ATOM     74  C   UNL A   1      38.861  33.929  36.839  1.00  0.00     0.001 A 
ATOM     75  C   UNL A   1      37.990  33.364  37.770  1.00  0.00     0.000 A 
ENDBRANCH  57  70
ENDBRANCH  31  32
ENDBRANCH  24  26
ENDBRANCH  23  24
ENDBRANCH  22  23
ENDBRANCH   1  22
TORSDOF 14
ENDMDL
MODEL 2
REMARK VINA RESULT:     -10.3      4.152      6.470
REMARK SMILES Cc1oc(CNC(=O)c2ccnn2C)cc1C(=O)OCCOC(=O)c1ccc(-c2c3nc(c(-c4ccccc4)c4ccc([nH]4)c(-c4ccccc4)c4nc(c(-c5ccccc5)c5ccc2[nH]5)C=C4)C=C3)cc1
REMARK SMILES IDX 20 1 19 2 17 3 18 4 16 5 1 6 2 7 3 8 4 9 15 10 5 11 6 12
REMARK SMILES IDX 7 13 8 15 9 16 10 17 13 18 11 19 12 20 14 21 21 22 22 23
REMARK SMILES IDX 23 24 24 25 25 26 26 27 72 28 27 29 71 30 28 31 29 32 30 33
REMARK SMILES IDX 65 34 31 35 70 36 64 37 66 38 32 39 69 40 63 41 62 42 33 44
REMARK SMILES IDX 55 45 40 46 54 47 41 48 44 49 53 50 67 51 42 52 43 53 52 55
REMARK SMILES IDX 68 56 45 57 34 58 35 59 39 60 36 61 38 62 37 63 56 64 57 65
REMARK SMILES IDX 61 66 58 67 60 68 59 69 46 70 47 71 51 72 48 73 50 74 49 75
REMARK H PARENT 6 14 66 43 44 54
REMARK Flexibility Score: inf
ROOT
ATOM      1  C   UNL A   1      41.478  19.985  26.714  1.00  0.00     0.275 C 
ENDROOT
BRANCH   1   2
ATOM      2  O   UNL A   1      42.004  19.714  25.402  1.00  0.00    -0.458 OA
BRANCH   2   3
ATOM      3  C   UNL A   1      43.192  19.045  25.376  1.00  0.00     0.341 C 
ATOM      4  O   UNL A   1      43.301  17.827  25.382  1.00  0.00    -0.246 OA
BRANCH   3   5
ATOM      5  C   UNL A   1      44.347  19.910  25.208  1.00  0.00     0.101 A 
ATOM      6  C   UNL A   1      46.496  18.429  25.636  1.00  0.00     0.088 C 
ATOM      7  C   UNL A   1      45.696  19.643  25.370  1.00  0.00     0.115 A 
ATOM      8  O   UNL A   1      46.430  20.782  25.175  1.00  0.00    -0.464 OA
ATOM      9  C   UNL A   1      45.559  21.776  24.850  1.00  0.00     0.124 A 
ATOM     10  C   UNL A   1      44.283  21.275  24.800  1.00  0.00     0.063 A 
BRANCH   9  11
ATOM     11  C   UNL A   1      46.091  23.115  24.519  1.00  0.00     0.191 C 
BRANCH  11  12
ATOM     12  N   UNL A   1      45.056  24.118  24.464  1.00  0.00    -0.343 N 
ATOM     13  C   UNL A   1      44.785  25.082  25.399  1.00  0.00     0.269 C 
ATOM     14  H   UNL A   1      44.480  24.110  23.664  1.00  0.00     0.164 HD
ATOM     15  O   UNL A   1      43.841  25.845  25.216  1.00  0.00    -0.268 OA
BRANCH  13  16
ATOM     16  C   UNL A   1      45.592  25.105  26.589  1.00  0.00     0.125 A 
ATOM     17  C   UNL A   1      46.729  25.856  26.822  1.00  0.00     0.055 A 
ATOM     18  N   UNL A   1      45.409  24.373  27.736  1.00  0.00    -0.263 N 
ATOM     19  C   UNL A   1      47.068  25.606  28.160  1.00  0.00     0.136 A 
ATOM     20  N   UNL A   1      46.249  24.723  28.732  1.00  0.00    -0.181 NA
ATOM     21  C   UNL A   1      44.424  23.350  27.999  1.00  0.00     0.174 C 
ENDBRANCH  13  16
ENDBRANCH  11  12
ENDBRANCH   9  11
ENDBRANCH   3   5
ENDBRANCH   2   3
ENDBRANCH   1   2
BRANCH   1  22
ATOM     22  C   UNL A   1      41.254  21.485  26.911  1.00  0.00     0.275 C 
BRANCH  22  23
ATOM     23  O   UNL A   1      39.870  21.758  27.213  1.00  0.00    -0.458 OA
BRANCH  23  24
ATOM     24  C   UNL A   1      39.245  22.626  26.385  1.00  0.00     0.338 C 
ATOM     25  O   UNL A   1      38.596  22.369  25.386  1.00  0.00    -0.246 OA
BRANCH  24  26
ATOM     26  C   UNL A   1      39.410  23.998  26.889  1.00  0.00     0.060 A 
ATOM     27  C   UNL A   1      40.056  24.932  26.082  1.00  0.00     0.016 A 
ATOM     28  C   UNL A   1      39.058  24.327  28.197  1.00  0.00     0.016 A 
ATOM     29  C   UNL A   1      40.397  26.185  26.585  1.00  0.00     0.010 A 
ATOM     30  C   UNL A   1      39.351  25.609  28.686  1.00  0.00     0.010 A 
ATOM     31  C   UNL A   1      40.048  26.542  27.894  1.00  0.00    -0.014 A 
BRANCH  31  32
ATOM     32  C   UNL A   1      40.459  27.863  28.445  1.00  0.00     0.031 A 
ATOM     33  C   UNL A   1      41.902  28.127  28.788  1.00  0.00     0.074 A 
ATOM     34  C   UNL A   1      39.553  28.847  28.614  1.00  0.00     0.049 A 
ATOM     35  N   UNL A   1      42.434  29.162  29.388  1.00  0.00    -0.248 NA
ATOM     36  C   UNL A   1      42.873  27.089  28.409  1.00  0.00     0.031 C 
ATOM     37  C   UNL A   1      38.131  28.760  28.276  1.00  0.00     0.029 A 
ATOM     38  N   UNL A   1      39.699  30.120  29.109  1.00  0.00    -0.354 N 
ATOM     39  C   UNL A   1      43.790  28.880  29.503  1.00  0.00     0.074 A 
ATOM     40  C   UNL A   1      44.000  27.576  28.911  1.00  0.00     0.031 C 
ATOM     41  C   UNL A   1      37.545  29.938  28.543  1.00  0.00     0.029 A 
ATOM     42  C   UNL A   1      38.528  30.838  29.138  1.00  0.00     0.049 A 
ATOM     43  H   UNL A   1      40.562  30.484  29.413  1.00  0.00     0.167 HD
ATOM     44  C   UNL A   1      44.772  29.633  30.054  1.00  0.00     0.031 A 
ATOM     45  C   UNL A   1      38.261  32.067  29.619  1.00  0.00     0.031 A 
ATOM     46  C   UNL A   1      44.580  30.944  30.617  1.00  0.00     0.049 A 
ATOM     47  C   UNL A   1      39.357  32.864  30.267  1.00  0.00     0.074 A 
ATOM     48  C   UNL A   1      45.520  31.782  31.193  1.00  0.00     0.029 A 
ATOM     49  N   UNL A   1      43.368  31.612  30.664  1.00  0.00    -0.354 N 
ATOM     50  N   UNL A   1      40.624  32.561  30.411  1.00  0.00    -0.248 NA
ATOM     51  C   UNL A   1      38.979  34.168  30.834  1.00  0.00     0.031 C 
ATOM     52  C   UNL A   1      44.869  32.944  31.620  1.00  0.00     0.029 A 
ATOM     53  C   UNL A   1      43.532  32.846  31.271  1.00  0.00     0.049 A 
ATOM     54  H   UNL A   1      42.516  31.262  30.317  1.00  0.00     0.167 HD
ATOM     55  C   UNL A   1      41.196  33.639  31.074  1.00  0.00     0.074 A 
ATOM     56  C   UNL A   1      40.144  34.612  31.285  1.00  0.00     0.031 C 
ATOM     57  C   UNL A   1      42.478  33.804  31.478  1.00  0.00     0.031 A 
BRANCH  44  58
ATOM     58  C   UNL A   1      46.149  29.035  30.115  1.00  0.00    -0.014 A 
ATOM     59  C   UNL A   1      47.116  29.318  29.139  1.00  0.00     0.009 A 
ATOM     60  C   UNL A   1      46.491  28.199  31.191  1.00  0.00     0.009 A 
ATOM     61  C   UNL A   1      48.389  28.751  29.224  1.00  0.00     0.001 A 
ATOM     62  C   UNL A   1      47.772  27.653  31.286  1.00  0.00     0.001 A 
ATOM     63  C   UNL A   1      48.717  27.923  30.298  1.00  0.00     0.000 A 
ENDBRANCH  44  58
BRANCH  45  64
ATOM     64  C   UNL A   1      36.878  32.605  29.550  1.00  0.00    -0.014 A 
ATOM     65  C   UNL A   1      36.431  33.279  28.403  1.00  0.00     0.009 A 
ATOM     66  C   UNL A   1      36.000  32.452  30.635  1.00  0.00     0.009 A 
ATOM     67  C   UNL A   1      35.136  33.801  28.351  1.00  0.00     0.001 A 
ATOM     68  C   UNL A   1      34.698  32.952  30.568  1.00  0.00     0.001 A 
ATOM     69  C   UNL A   1      34.270  33.631  29.430  1.00  0.00     0.000 A 
ENDBRANCH  45  64
BRANCH  57  70
ATOM     70  C   UNL A   1      42.820  35.094  32.165  1.00  0.00    -0.014 A 
ATOM     71  C   UNL A   1      43.461  36.135  31.475  1.00  0.00     0.009 A 
ATOM     72  C   UNL A   1      42.470  35.281  33.510  1.00  0.00     0.009 A 
ATOM     73  C   UNL A   1      43.770  37.329  32.130  1.00  0.00     0.001 A 
ATOM     74  C   UNL A   1      42.761  36.484  34.157  1.00  0.00     0.001 A 
ATOM     75  C   UNL A   1      43.417  37.503  33.469  1.00  0.00     0.000 A 
ENDBRANCH  57  70
ENDBRANCH  31  32
ENDBRANCH  24  26
ENDBRANCH  23  24
ENDBRANCH  22  23
ENDBRANCH   1  22
TORSDOF 14
ENDMDL
MODEL 3
REMARK VINA RESULT:     -10.3      4.073      9.232
REMARK SMILES Cc1oc(CNC(=O)c2ccnn2C)cc1C(=O)OCCOC(=O)c1ccc(-c2c3nc(c(-c4ccccc4)c4ccc([nH]4)c(-c4ccccc4)c4nc(c(-c5ccccc5)c5ccc2[nH]5)C=C4)C=C3)cc1
REMARK SMILES IDX 20 1 19 2 17 3 18 4 16 5 1 6 2 7 3 8 4 9 15 10 5 11 6 12
REMARK SMILES IDX 7 13 8 15 9 16 10 17 13 18 11 19 12 20 14 21 21 22 22 23
REMARK SMILES IDX 23 24 24 25 25 26 26 27 72 28 27 29 71 30 28 31 29 32 30 33
REMARK SMILES IDX 65 34 31 35 70 36 64 37 66 38 32 39 69 40 63 41 62 42 33 44
REMARK SMILES IDX 55 45 40 46 54 47 41 48 44 49 53 50 67 51 42 52 43 53 52 55
REMARK SMILES IDX 68 56 45 57 34 58 35 59 39 60 36 61 38 62 37 63 56 64 57 65
REMARK SMILES IDX 61 66 58 67 60 68 59 69 46 70 47 71 51 72 48 73 50 74 49 75
REMARK H PARENT 6 14 66 43 44 54
REMARK Flexibility Score: inf
ROOT
ATOM      1  C   UNL A   1      34.017  34.939  29.001  1.00  0.00     0.275 C 
ENDROOT
BRANCH   1   2
ATOM      2  O   UNL A   1      33.891  33.506  28.938  1.00  0.00    -0.458 OA
BRANCH   2   3
ATOM      3  C   UNL A   1      34.701  32.889  28.032  1.00  0.00     0.341 C 
ATOM      4  O   UNL A   1      35.760  33.345  27.626  1.00  0.00    -0.246 OA
BRANCH   3   5
ATOM      5  C   UNL A   1      34.261  31.552  27.670  1.00  0.00     0.101 A 
ATOM      6  C   UNL A   1      36.406  30.003  27.672  1.00  0.00     0.088 C 
ATOM      7  C   UNL A   1      34.992  30.391  27.480  1.00  0.00     0.115 A 
ATOM      8  O   UNL A   1      34.168  29.376  27.075  1.00  0.00    -0.464 OA
ATOM      9  C   UNL A   1      32.901  29.870  27.039  1.00  0.00     0.124 A 
ATOM     10  C   UNL A   1      32.903  31.178  27.452  1.00  0.00     0.063 A 
BRANCH   9  11
ATOM     11  C   UNL A   1      31.787  28.962  26.693  1.00  0.00     0.191 C 
BRANCH  11  12
ATOM     12  N   UNL A   1      32.241  27.627  26.387  1.00  0.00    -0.343 N 
ATOM     13  C   UNL A   1      32.095  26.953  25.203  1.00  0.00     0.269 C 
ATOM     14  H   UNL A   1      32.708  27.148  27.110  1.00  0.00     0.164 HD
ATOM     15  O   UNL A   1      32.512  25.802  25.115  1.00  0.00    -0.268 OA
BRANCH  13  16
ATOM     16  C   UNL A   1      31.396  27.618  24.136  1.00  0.00     0.125 A 
ATOM     17  C   UNL A   1      30.067  27.478  23.784  1.00  0.00     0.055 A 
ATOM     18  N   UNL A   1      31.910  28.519  23.237  1.00  0.00    -0.263 N 
ATOM     19  C   UNL A   1      29.855  28.419  22.765  1.00  0.00     0.136 A 
ATOM     20  N   UNL A   1      30.971  29.078  22.446  1.00  0.00    -0.181 NA
ATOM     21  C   UNL A   1      33.279  28.953  23.085  1.00  0.00     0.174 C 
ENDBRANCH  13  16
ENDBRANCH  11  12
ENDBRANCH   9  11
ENDBRANCH   3   5
ENDBRANCH   2   3
ENDBRANCH   1   2
BRANCH   1  22
ATOM     22  C   UNL A   1      32.751  35.571  29.581  1.00  0.00     0.275 C 
BRANCH  22  23
ATOM     23  O   UNL A   1      33.068  36.393  30.722  1.00  0.00    -0.458 OA
BRANCH  23  24
ATOM     24  C   UNL A   1      32.727  35.886  31.929  1.00  0.00     0.338 C 
ATOM     25  O   UNL A   1      31.655  35.978  32.502  1.00  0.00    -0.246 OA
BRANCH  24  26
ATOM     26  C   UNL A   1      33.857  35.123  32.484  1.00  0.00     0.060 A 
ATOM     27  C   UNL A   1      35.123  35.702  32.468  1.00  0.00     0.016 A 
ATOM     28  C   UNL A   1      33.697  33.799  32.887  1.00  0.00     0.016 A 
ATOM     29  C   UNL A   1      36.247  34.953  32.810  1.00  0.00     0.010 A 
ATOM     30  C   UNL A   1      34.820  33.061  33.286  1.00  0.00     0.010 A 
ATOM     31  C   UNL A   1      36.111  33.622  33.226  1.00  0.00    -0.014 A 
BRANCH  31  32
ATOM     32  C   UNL A   1      37.318  32.809  33.542  1.00  0.00     0.031 A 
ATOM     33  C   UNL A   1      38.037  32.995  34.853  1.00  0.00     0.074 A 
ATOM     34  C   UNL A   1      37.764  31.878  32.675  1.00  0.00     0.049 A 
ATOM     35  N   UNL A   1      39.168  32.474  35.258  1.00  0.00    -0.248 NA
ATOM     36  C   UNL A   1      37.401  33.887  35.836  1.00  0.00     0.031 C 
ATOM     37  C   UNL A   1      37.141  31.544  31.393  1.00  0.00     0.029 A 
ATOM     38  N   UNL A   1      38.845  31.033  32.749  1.00  0.00    -0.354 N 
ATOM     39  C   UNL A   1      39.404  33.010  36.518  1.00  0.00     0.074 A 
ATOM     40  C   UNL A   1      38.298  33.898  36.811  1.00  0.00     0.031 C 
ATOM     41  C   UNL A   1      37.833  30.547  30.817  1.00  0.00     0.029 A 
ATOM     42  C   UNL A   1      38.985  30.221  31.650  1.00  0.00     0.049 A 
ATOM     43  H   UNL A   1      39.461  31.013  33.517  1.00  0.00     0.167 HD
ATOM     44  C   UNL A   1      40.446  32.790  37.355  1.00  0.00     0.031 A 
ATOM     45  C   UNL A   1      39.947  29.336  31.328  1.00  0.00     0.031 A 
ATOM     46  C   UNL A   1      41.533  31.886  37.087  1.00  0.00     0.049 A 
ATOM     47  C   UNL A   1      41.117  29.142  32.251  1.00  0.00     0.074 A 
ATOM     48  C   UNL A   1      42.631  31.596  37.882  1.00  0.00     0.029 A 
ATOM     49  N   UNL A   1      41.656  31.117  35.942  1.00  0.00    -0.354 N 
ATOM     50  N   UNL A   1      41.349  29.694  33.416  1.00  0.00    -0.248 NA
ATOM     51  C   UNL A   1      42.166  28.213  31.803  1.00  0.00     0.031 C 
ATOM     52  C   UNL A   1      43.435  30.676  37.200  1.00  0.00     0.029 A 
ATOM     53  C   UNL A   1      42.816  30.362  36.001  1.00  0.00     0.049 A 
ATOM     54  H   UNL A   1      41.014  31.107  35.196  1.00  0.00     0.167 HD
ATOM     55  C   UNL A   1      42.563  29.173  33.846  1.00  0.00     0.074 A 
ATOM     56  C   UNL A   1      43.008  28.246  32.826  1.00  0.00     0.031 C 
ATOM     57  C   UNL A   1      43.249  29.445  34.981  1.00  0.00     0.031 A 
BRANCH  44  58
ATOM     58  C   UNL A   1      40.484  33.578  38.634  1.00  0.00    -0.014 A 
ATOM     59  C   UNL A   1      41.130  34.820  38.712  1.00  0.00     0.009 A 
ATOM     60  C   UNL A   1      39.829  33.078  39.771  1.00  0.00     0.009 A 
ATOM     61  C   UNL A   1      41.146  35.532  39.913  1.00  0.00     0.001 A 
ATOM     62  C   UNL A   1      39.825  33.804  40.964  1.00  0.00     0.001 A 
ATOM     63  C   UNL A   1      40.490  35.026  41.036  1.00  0.00     0.000 A 
ENDBRANCH  44  58
BRANCH  45  64
ATOM     64  C   UNL A   1      39.872  28.594  30.043  1.00  0.00    -0.014 A 
ATOM     65  C   UNL A   1      39.329  27.302  29.995  1.00  0.00     0.009 A 
ATOM     66  C   UNL A   1      40.349  29.175  28.857  1.00  0.00     0.009 A 
ATOM     67  C   UNL A   1      39.278  26.601  28.788  1.00  0.00     0.001 A 
ATOM     68  C   UNL A   1      40.272  28.483  27.648  1.00  0.00     0.001 A 
ATOM     69  C   UNL A   1      39.743  27.194  27.616  1.00  0.00     0.000 A 
ENDBRANCH  45  64
BRANCH  57  70
ATOM     70  C   UNL A   1      44.542  28.711  35.192  1.00  0.00    -0.014 A 
ATOM     71  C   UNL A   1      45.762  29.254  34.762  1.00  0.00     0.009 A 
ATOM     72  C   UNL A   1      44.540  27.475  35.856  1.00  0.00     0.009 A 
ATOM     73  C   UNL A   1      46.955  28.557  34.968  1.00  0.00     0.001 A 
ATOM     74  C   UNL A   1      45.736  26.791  36.080  1.00  0.00     0.001 A 
ATOM     75  C   UNL A   1      46.940  27.328  35.630  1.00  0.00     0.000 A 
ENDBRANCH  57  70
ENDBRANCH  31  32
ENDBRANCH  24  26
ENDBRANCH  23  24
ENDBRANCH  22  23
ENDBRANCH   1  22
TORSDOF 14
ENDMDL
