MODEL 1
REMARK VINA RESULT:     -10.1      0.000      0.000
REMARK SMILES Cc1cc(C(=O)OCCOC(=O)c2ccc(-c3c4nc(c(-c5ccccc5)c5ccc([nH]5)c(-c5ccccc5)c5nc(c(-c6ccccc6)c6ccc3[nH]6)C=C5)C=C4)cc2)nc(N2CCN(c3ccccc3Cl)CC2)n1
REMARK SMILES IDX 8 1 7 2 5 3 6 4 4 5 1 6 2 7 3 8 76 9 62 10 61 11 63 12 64 13
REMARK SMILES IDX 75 14 65 15 74 16 66 17 67 18 68 19 72 20 69 21 71 22 73 23
REMARK SMILES IDX 70 24 9 25 10 26 11 27 12 28 13 29 14 30 60 31 15 32 59 33
REMARK SMILES IDX 16 34 17 35 18 36 53 37 19 38 58 39 52 40 54 41 20 42 57 43
REMARK SMILES IDX 51 44 50 45 21 47 43 48 28 49 42 50 29 51 32 52 41 53 55 54
REMARK SMILES IDX 30 55 31 56 40 58 56 59 33 60 22 61 23 62 27 63 24 64 26 65
REMARK SMILES IDX 25 66 44 67 45 68 49 69 46 70 48 71 47 72 34 73 35 74 39 75
REMARK SMILES IDX 36 76 38 77 37 78
REMARK H PARENT 54 46 32 57
REMARK Flexibility Score: inf
ROOT
ATOM      1  C   UNL A   1      33.734  34.050  27.922  1.00  0.00     0.275 C 
ENDROOT
BRANCH   1   2
ATOM      2  O   UNL A   1      33.007  34.245  29.154  1.00  0.00    -0.457 OA
BRANCH   2   3
ATOM      3  C   UNL A   1      32.931  35.537  29.578  1.00  0.00     0.357 C 
ATOM      4  O   UNL A   1      32.352  36.444  29.012  1.00  0.00    -0.244 OA
BRANCH   3   5
ATOM      5  C   UNL A   1      33.592  35.683  30.908  1.00  0.00     0.154 A 
ATOM      6  C   UNL A   1      33.728  37.797  33.961  1.00  0.00     0.067 C 
ATOM      7  C   UNL A   1      33.943  36.707  32.954  1.00  0.00     0.044 A 
ATOM      8  C   UNL A   1      33.334  36.757  31.721  1.00  0.00     0.059 A 
ATOM      9  N   UNL A   1      34.736  35.679  33.335  1.00  0.00    -0.218 NA
ATOM     10  C   UNL A   1      34.965  34.694  32.457  1.00  0.00     0.226 A 
ATOM     11  N   UNL A   1      34.403  34.659  31.249  1.00  0.00    -0.206 NA
BRANCH  10  12
ATOM     12  N   UNL A   1      35.845  33.675  32.758  1.00  0.00    -0.337 N 
ATOM     13  C   UNL A   1      36.496  33.710  34.073  1.00  0.00     0.141 C 
ATOM     14  C   UNL A   1      36.755  33.362  31.646  1.00  0.00     0.141 C 
ATOM     15  C   UNL A   1      37.228  32.367  34.342  1.00  0.00     0.138 C 
ATOM     16  C   UNL A   1      37.503  32.036  31.906  1.00  0.00     0.138 C 
ATOM     17  N   UNL A   1      38.150  32.052  33.233  1.00  0.00    -0.367 N 
BRANCH  17  18
ATOM     18  C   UNL A   1      39.158  31.098  33.399  1.00  0.00     0.056 A 
ATOM     19  C   UNL A   1      38.936  29.744  33.101  1.00  0.00     0.027 A 
ATOM     20  C   UNL A   1      40.454  31.459  33.834  1.00  0.00     0.064 A 
ATOM     21  C   UNL A   1      39.956  28.792  33.227  1.00  0.00     0.002 A 
ATOM     22  C   UNL A   1      41.472  30.506  33.965  1.00  0.00     0.023 A 
ATOM     23  Cl  UNL A   1      40.844  33.093  34.271  1.00  0.00    -0.082 Cl
ATOM     24  C   UNL A   1      41.222  29.173  33.660  1.00  0.00     0.002 A 
ENDBRANCH  17  18
ENDBRANCH  10  12
ENDBRANCH   3   5
ENDBRANCH   2   3
ENDBRANCH   1   2
BRANCH   1  25
ATOM     25  C   UNL A   1      35.023  33.266  28.168  1.00  0.00     0.275 C 
BRANCH  25  26
ATOM     26  O   UNL A   1      34.744  32.084  28.942  1.00  0.00    -0.458 OA
BRANCH  26  27
ATOM     27  C   UNL A   1      34.619  30.936  28.240  1.00  0.00     0.338 C 
ATOM     28  O   UNL A   1      33.646  30.547  27.612  1.00  0.00    -0.246 OA
BRANCH  27  29
ATOM     29  C   UNL A   1      35.877  30.179  28.300  1.00  0.00     0.060 A 
ATOM     30  C   UNL A   1      36.246  29.583  29.499  1.00  0.00     0.016 A 
ATOM     31  C   UNL A   1      36.766  30.186  27.225  1.00  0.00     0.016 A 
ATOM     32  C   UNL A   1      37.538  29.092  29.667  1.00  0.00     0.010 A 
ATOM     33  C   UNL A   1      38.034  29.605  27.370  1.00  0.00     0.010 A 
ATOM     34  C   UNL A   1      38.460  29.097  28.612  1.00  0.00    -0.014 A 
BRANCH  34  35
ATOM     35  C   UNL A   1      39.868  28.644  28.834  1.00  0.00     0.031 A 
ATOM     36  C   UNL A   1      40.879  29.562  29.483  1.00  0.00     0.074 A 
ATOM     37  C   UNL A   1      40.251  27.389  28.517  1.00  0.00     0.049 A 
ATOM     38  N   UNL A   1      42.174  29.405  29.617  1.00  0.00    -0.248 NA
ATOM     39  C   UNL A   1      40.371  30.823  30.048  1.00  0.00     0.031 C 
ATOM     40  C   UNL A   1      39.390  26.351  27.950  1.00  0.00     0.029 A 
ATOM     41  N   UNL A   1      41.471  26.766  28.650  1.00  0.00    -0.354 N 
ATOM     42  C   UNL A   1      42.639  30.568  30.222  1.00  0.00     0.074 A 
ATOM     43  C   UNL A   1      41.490  31.421  30.432  1.00  0.00     0.031 C 
ATOM     44  C   UNL A   1      40.086  25.210  27.839  1.00  0.00     0.029 A 
ATOM     45  C   UNL A   1      41.469  25.458  28.226  1.00  0.00     0.049 A 
ATOM     46  H   UNL A   1      42.268  27.213  29.014  1.00  0.00     0.167 HD
ATOM     47  C   UNL A   1      43.907  30.903  30.566  1.00  0.00     0.031 A 
ATOM     48  C   UNL A   1      42.469  24.565  28.109  1.00  0.00     0.031 A 
ATOM     49  C   UNL A   1      45.051  30.042  30.416  1.00  0.00     0.049 A 
ATOM     50  C   UNL A   1      43.873  24.973  28.449  1.00  0.00     0.074 A 
ATOM     51  C   UNL A   1      46.375  30.305  30.728  1.00  0.00     0.029 A 
ATOM     52  N   UNL A   1      45.005  28.745  29.931  1.00  0.00    -0.354 N 
ATOM     53  N   UNL A   1      44.307  26.105  28.944  1.00  0.00    -0.248 NA
ATOM     54  C   UNL A   1      44.930  23.984  28.187  1.00  0.00     0.031 C 
ATOM     55  C   UNL A   1      47.136  29.180  30.395  1.00  0.00     0.029 A 
ATOM     56  C   UNL A   1      46.280  28.203  29.920  1.00  0.00     0.049 A 
ATOM     57  H   UNL A   1      44.189  28.279  29.640  1.00  0.00     0.167 HD
ATOM     58  C   UNL A   1      45.684  25.965  29.054  1.00  0.00     0.074 A 
ATOM     59  C   UNL A   1      46.010  24.628  28.606  1.00  0.00     0.031 C 
ATOM     60  C   UNL A   1      46.597  26.872  29.476  1.00  0.00     0.031 A 
BRANCH  47  61
ATOM     61  C   UNL A   1      44.142  32.288  31.100  1.00  0.00    -0.014 A 
ATOM     62  C   UNL A   1      44.132  32.559  32.476  1.00  0.00     0.009 A 
ATOM     63  C   UNL A   1      44.438  33.328  30.203  1.00  0.00     0.009 A 
ATOM     64  C   UNL A   1      44.390  33.852  32.940  1.00  0.00     0.001 A 
ATOM     65  C   UNL A   1      44.720  34.612  30.671  1.00  0.00     0.001 A 
ATOM     66  C   UNL A   1      44.690  34.874  32.039  1.00  0.00     0.000 A 
ENDBRANCH  47  61
BRANCH  48  67
ATOM     67  C   UNL A   1      42.192  23.207  27.571  1.00  0.00    -0.014 A 
ATOM     68  C   UNL A   1      42.357  22.930  26.205  1.00  0.00     0.009 A 
ATOM     69  C   UNL A   1      41.748  22.182  28.423  1.00  0.00     0.009 A 
ATOM     70  C   UNL A   1      42.068  21.659  25.703  1.00  0.00     0.001 A 
ATOM     71  C   UNL A   1      41.493  20.904  27.924  1.00  0.00     0.001 A 
ATOM     72  C   UNL A   1      41.644  20.646  26.563  1.00  0.00     0.000 A 
ENDBRANCH  48  67
BRANCH  60  73
ATOM     73  C   UNL A   1      48.032  26.436  29.503  1.00  0.00    -0.014 A 
ATOM     74  C   UNL A   1      48.595  25.862  30.653  1.00  0.00     0.009 A 
ATOM     75  C   UNL A   1      48.825  26.578  28.354  1.00  0.00     0.009 A 
ATOM     76  C   UNL A   1      49.935  25.468  30.662  1.00  0.00     0.001 A 
ATOM     77  C   UNL A   1      50.157  26.161  28.357  1.00  0.00     0.001 A 
ATOM     78  C   UNL A   1      50.713  25.615  29.514  1.00  0.00     0.000 A 
ENDBRANCH  60  73
ENDBRANCH  34  35
ENDBRANCH  27  29
ENDBRANCH  26  27
ENDBRANCH  25  26
ENDBRANCH   1  25
TORSDOF 13
ENDMDL
MODEL 2
REMARK VINA RESULT:      -9.9      0.565      5.929
REMARK SMILES Cc1cc(C(=O)OCCOC(=O)c2ccc(-c3c4nc(c(-c5ccccc5)c5ccc([nH]5)c(-c5ccccc5)c5nc(c(-c6ccccc6)c6ccc3[nH]6)C=C5)C=C4)cc2)nc(N2CCN(c3ccccc3Cl)CC2)n1
REMARK SMILES IDX 8 1 7 2 5 3 6 4 4 5 1 6 2 7 3 8 76 9 62 10 61 11 63 12 64 13
REMARK SMILES IDX 75 14 65 15 74 16 66 17 67 18 68 19 72 20 69 21 71 22 73 23
REMARK SMILES IDX 70 24 9 25 10 26 11 27 12 28 13 29 14 30 60 31 15 32 59 33
REMARK SMILES IDX 16 34 17 35 18 36 53 37 19 38 58 39 52 40 54 41 20 42 57 43
REMARK SMILES IDX 51 44 50 45 21 47 43 48 28 49 42 50 29 51 32 52 41 53 55 54
REMARK SMILES IDX 30 55 31 56 40 58 56 59 33 60 22 61 23 62 27 63 24 64 26 65
REMARK SMILES IDX 25 66 44 67 45 68 49 69 46 70 48 71 47 72 34 73 35 74 39 75
REMARK SMILES IDX 36 76 38 77 37 78
REMARK H PARENT 54 46 32 57
REMARK Flexibility Score: inf
ROOT
ATOM      1  C   UNL A   1      33.832  34.087  27.866  1.00  0.00     0.275 C 
ENDROOT
BRANCH   1   2
ATOM      2  O   UNL A   1      33.116  34.214  29.113  1.00  0.00    -0.457 OA
BRANCH   2   3
ATOM      3  C   UNL A   1      32.974  35.491  29.565  1.00  0.00     0.357 C 
ATOM      4  O   UNL A   1      32.347  36.379  29.021  1.00  0.00    -0.244 OA
BRANCH   3   5
ATOM      5  C   UNL A   1      33.630  35.641  30.898  1.00  0.00     0.154 A 
ATOM      6  C   UNL A   1      33.756  37.766  33.944  1.00  0.00     0.067 C 
ATOM      7  C   UNL A   1      33.973  36.673  32.942  1.00  0.00     0.044 A 
ATOM      8  C   UNL A   1      33.369  36.719  31.706  1.00  0.00     0.059 A 
ATOM      9  N   UNL A   1      34.764  35.645  33.330  1.00  0.00    -0.218 NA
ATOM     10  C   UNL A   1      34.995  34.656  32.456  1.00  0.00     0.226 A 
ATOM     11  N   UNL A   1      34.438  34.618  31.247  1.00  0.00    -0.206 NA
BRANCH  10  12
ATOM     12  N   UNL A   1      35.874  33.638  32.764  1.00  0.00    -0.337 N 
ATOM     13  C   UNL A   1      36.579  33.719  34.049  1.00  0.00     0.141 C 
ATOM     14  C   UNL A   1      36.732  33.264  31.630  1.00  0.00     0.141 C 
ATOM     15  C   UNL A   1      37.303  32.378  34.345  1.00  0.00     0.138 C 
ATOM     16  C   UNL A   1      37.471  31.940  31.917  1.00  0.00     0.138 C 
ATOM     17  N   UNL A   1      38.174  32.001  33.214  1.00  0.00    -0.367 N 
BRANCH  17  18
ATOM     18  C   UNL A   1      39.175  31.040  33.380  1.00  0.00     0.056 A 
ATOM     19  C   UNL A   1      38.987  29.713  32.961  1.00  0.00     0.027 A 
ATOM     20  C   UNL A   1      40.432  31.369  33.936  1.00  0.00     0.064 A 
ATOM     21  C   UNL A   1      40.002  28.757  33.088  1.00  0.00     0.002 A 
ATOM     22  C   UNL A   1      41.446  30.412  34.068  1.00  0.00     0.023 A 
ATOM     23  Cl  UNL A   1      40.775  32.965  34.526  1.00  0.00    -0.082 Cl
ATOM     24  C   UNL A   1      41.230  29.106  33.642  1.00  0.00     0.002 A 
ENDBRANCH  17  18
ENDBRANCH  10  12
ENDBRANCH   3   5
ENDBRANCH   2   3
ENDBRANCH   1   2
BRANCH   1  25
ATOM     25  C   UNL A   1      35.051  33.180  28.029  1.00  0.00     0.275 C 
BRANCH  25  26
ATOM     26  O   UNL A   1      34.730  32.066  28.884  1.00  0.00    -0.458 OA
BRANCH  26  27
ATOM     27  C   UNL A   1      34.632  30.864  28.274  1.00  0.00     0.338 C 
ATOM     28  O   UNL A   1      33.656  30.389  27.713  1.00  0.00    -0.246 OA
BRANCH  27  29
ATOM     29  C   UNL A   1      35.922  30.165  28.344  1.00  0.00     0.060 A 
ATOM     30  C   UNL A   1      36.268  29.509  29.518  1.00  0.00     0.016 A 
ATOM     31  C   UNL A   1      36.855  30.286  27.314  1.00  0.00     0.016 A 
ATOM     32  C   UNL A   1      37.574  29.069  29.714  1.00  0.00     0.010 A 
ATOM     33  C   UNL A   1      38.144  29.757  27.481  1.00  0.00     0.010 A 
ATOM     34  C   UNL A   1      38.540  29.189  28.706  1.00  0.00    -0.014 A 
BRANCH  34  35
ATOM     35  C   UNL A   1      39.958  28.789  28.964  1.00  0.00     0.031 A 
ATOM     36  C   UNL A   1      40.471  27.439  28.515  1.00  0.00     0.074 A 
ATOM     37  C   UNL A   1      40.826  29.643  29.547  1.00  0.00     0.049 A 
ATOM     38  N   UNL A   1      41.614  26.856  28.784  1.00  0.00    -0.248 NA
ATOM     39  C   UNL A   1      39.581  26.636  27.660  1.00  0.00     0.031 C 
ATOM     40  C   UNL A   1      40.520  31.008  29.977  1.00  0.00     0.029 A 
ATOM     41  N   UNL A   1      42.157  29.492  29.859  1.00  0.00    -0.354 N 
ATOM     42  C   UNL A   1      41.554  25.602  28.186  1.00  0.00     0.074 A 
ATOM     43  C   UNL A   1      40.264  25.506  27.538  1.00  0.00     0.031 C 
ATOM     44  C   UNL A   1      41.638  31.587  30.440  1.00  0.00     0.029 A 
ATOM     45  C   UNL A   1      42.716  30.605  30.440  1.00  0.00     0.049 A 
ATOM     46  H   UNL A   1      42.661  28.665  29.683  1.00  0.00     0.167 HD
ATOM     47  C   UNL A   1      42.482  24.613  28.181  1.00  0.00     0.031 A 
ATOM     48  C   UNL A   1      43.939  30.811  30.962  1.00  0.00     0.031 A 
ATOM     49  C   UNL A   1      43.790  24.715  28.772  1.00  0.00     0.049 A 
ATOM     50  C   UNL A   1      44.934  29.687  30.989  1.00  0.00     0.074 A 
ATOM     51  C   UNL A   1      44.790  23.757  28.822  1.00  0.00     0.029 A 
ATOM     52  N   UNL A   1      44.290  25.846  29.395  1.00  0.00    -0.354 N 
ATOM     53  N   UNL A   1      44.831  28.481  30.490  1.00  0.00    -0.248 NA
ATOM     54  C   UNL A   1      46.207  29.949  31.679  1.00  0.00     0.031 C 
ATOM     55  C   UNL A   1      45.880  24.297  29.512  1.00  0.00     0.029 A 
ATOM     56  C   UNL A   1      45.576  25.604  29.849  1.00  0.00     0.049 A 
ATOM     57  H   UNL A   1      43.804  26.696  29.499  1.00  0.00     0.167 HD
ATOM     58  C   UNL A   1      46.021  27.840  30.804  1.00  0.00     0.074 A 
ATOM     59  C   UNL A   1      46.846  28.800  31.506  1.00  0.00     0.031 C 
ATOM     60  C   UNL A   1      46.391  26.564  30.543  1.00  0.00     0.031 A 
BRANCH  47  61
ATOM     61  C   UNL A   1      42.100  23.302  27.553  1.00  0.00    -0.014 A 
ATOM     62  C   UNL A   1      42.474  22.977  26.241  1.00  0.00     0.009 A 
ATOM     63  C   UNL A   1      41.401  22.353  28.317  1.00  0.00     0.009 A 
ATOM     64  C   UNL A   1      42.133  21.734  25.701  1.00  0.00     0.001 A 
ATOM     65  C   UNL A   1      41.085  21.103  27.783  1.00  0.00     0.001 A 
ATOM     66  C   UNL A   1      41.446  20.797  26.473  1.00  0.00     0.000 A 
ENDBRANCH  47  61
BRANCH  48  67
ATOM     67  C   UNL A   1      44.273  32.123  31.577  1.00  0.00    -0.014 A 
ATOM     68  C   UNL A   1      44.054  32.348  32.945  1.00  0.00     0.009 A 
ATOM     69  C   UNL A   1      44.800  33.162  30.794  1.00  0.00     0.009 A 
ATOM     70  C   UNL A   1      44.344  33.592  33.510  1.00  0.00     0.001 A 
ATOM     71  C   UNL A   1      45.120  34.393  31.368  1.00  0.00     0.001 A 
ATOM     72  C   UNL A   1      44.883  34.610  32.724  1.00  0.00     0.000 A 
ENDBRANCH  48  67
BRANCH  60  73
ATOM     73  C   UNL A   1      47.759  26.142  30.993  1.00  0.00    -0.014 A 
ATOM     74  C   UNL A   1      48.857  26.193  30.120  1.00  0.00     0.009 A 
ATOM     75  C   UNL A   1      47.958  25.715  32.314  1.00  0.00     0.009 A 
ATOM     76  C   UNL A   1      50.122  25.790  30.553  1.00  0.00     0.001 A 
ATOM     77  C   UNL A   1      49.228  25.337  32.752  1.00  0.00     0.001 A 
ATOM     78  C   UNL A   1      50.307  25.366  31.869  1.00  0.00     0.000 A 
ENDBRANCH  60  73
ENDBRANCH  34  35
ENDBRANCH  27  29
ENDBRANCH  26  27
ENDBRANCH  25  26
ENDBRANCH   1  25
TORSDOF 13
ENDMDL
MODEL 3
REMARK VINA RESULT:      -9.8      5.529     10.832
REMARK SMILES Cc1cc(C(=O)OCCOC(=O)c2ccc(-c3c4nc(c(-c5ccccc5)c5ccc([nH]5)c(-c5ccccc5)c5nc(c(-c6ccccc6)c6ccc3[nH]6)C=C5)C=C4)cc2)nc(N2CCN(c3ccccc3Cl)CC2)n1
REMARK SMILES IDX 8 1 7 2 5 3 6 4 4 5 1 6 2 7 3 8 76 9 62 10 61 11 63 12 64 13
REMARK SMILES IDX 75 14 65 15 74 16 66 17 67 18 68 19 72 20 69 21 71 22 73 23
REMARK SMILES IDX 70 24 9 25 10 26 11 27 12 28 13 29 14 30 60 31 15 32 59 33
REMARK SMILES IDX 16 34 17 35 18 36 53 37 19 38 58 39 52 40 54 41 20 42 57 43
REMARK SMILES IDX 51 44 50 45 21 47 43 48 28 49 42 50 29 51 32 52 41 53 55 54
REMARK SMILES IDX 30 55 31 56 40 58 56 59 33 60 22 61 23 62 27 63 24 64 26 65
REMARK SMILES IDX 25 66 44 67 45 68 49 69 46 70 48 71 47 72 34 73 35 74 39 75
REMARK SMILES IDX 36 76 38 77 37 78
REMARK H PARENT 54 46 32 57
REMARK Flexibility Score: inf
ROOT
ATOM      1  C   UNL A   1      38.391  21.519  25.406  1.00  0.00     0.275 C 
ENDROOT
BRANCH   1   2
ATOM      2  O   UNL A   1      36.981  21.429  25.702  1.00  0.00    -0.457 OA
BRANCH   2   3
ATOM      3  C   UNL A   1      36.316  22.617  25.697  1.00  0.00     0.357 C 
ATOM      4  O   UNL A   1      36.744  23.680  26.103  1.00  0.00    -0.244 OA
BRANCH   3   5
ATOM      5  C   UNL A   1      34.990  22.461  25.030  1.00  0.00     0.154 A 
ATOM      6  C   UNL A   1      32.530  19.951  23.821  1.00  0.00     0.067 C 
ATOM      7  C   UNL A   1      33.218  21.232  24.188  1.00  0.00     0.044 A 
ATOM      8  C   UNL A   1      34.490  21.224  24.712  1.00  0.00     0.059 A 
ATOM      9  N   UNL A   1      32.513  22.372  24.001  1.00  0.00    -0.218 NA
ATOM     10  C   UNL A   1      33.099  23.538  24.302  1.00  0.00     0.226 A 
ATOM     11  N   UNL A   1      34.322  23.616  24.826  1.00  0.00    -0.206 NA
BRANCH  10  12
ATOM     12  N   UNL A   1      32.464  24.733  24.035  1.00  0.00    -0.337 N 
ATOM     13  C   UNL A   1      31.658  25.325  25.110  1.00  0.00     0.141 C 
ATOM     14  C   UNL A   1      31.812  24.749  22.717  1.00  0.00     0.141 C 
ATOM     15  C   UNL A   1      31.248  26.774  24.732  1.00  0.00     0.138 C 
ATOM     16  C   UNL A   1      31.384  26.182  22.335  1.00  0.00     0.138 C 
ATOM     17  N   UNL A   1      30.584  26.796  23.414  1.00  0.00    -0.367 N 
BRANCH  17  18
ATOM     18  C   UNL A   1      29.828  27.903  23.019  1.00  0.00     0.056 A 
ATOM     19  C   UNL A   1      30.420  28.992  22.359  1.00  0.00     0.027 A 
ATOM     20  C   UNL A   1      28.431  27.957  23.228  1.00  0.00     0.064 A 
ATOM     21  C   UNL A   1      29.658  30.085  21.926  1.00  0.00     0.002 A 
ATOM     22  C   UNL A   1      27.670  29.052  22.799  1.00  0.00     0.023 A 
ATOM     23  Cl  UNL A   1      27.588  26.691  24.066  1.00  0.00    -0.082 Cl
ATOM     24  C   UNL A   1      28.285  30.115  22.147  1.00  0.00     0.002 A 
ENDBRANCH  17  18
ENDBRANCH  10  12
ENDBRANCH   3   5
ENDBRANCH   2   3
ENDBRANCH   1   2
BRANCH   1  25
ATOM     25  C   UNL A   1      39.017  20.128  25.309  1.00  0.00     0.275 C 
BRANCH  25  26
ATOM     26  O   UNL A   1      39.962  19.934  26.378  1.00  0.00    -0.458 OA
BRANCH  26  27
ATOM     27  C   UNL A   1      41.265  19.926  26.020  1.00  0.00     0.338 C 
ATOM     28  O   UNL A   1      41.853  19.083  25.360  1.00  0.00    -0.246 OA
BRANCH  27  29
ATOM     29  C   UNL A   1      41.925  21.139  26.523  1.00  0.00     0.060 A 
ATOM     30  C   UNL A   1      42.101  21.288  27.892  1.00  0.00     0.016 A 
ATOM     31  C   UNL A   1      42.228  22.194  25.664  1.00  0.00     0.016 A 
ATOM     32  C   UNL A   1      42.474  22.522  28.418  1.00  0.00     0.010 A 
ATOM     33  C   UNL A   1      42.693  23.407  26.192  1.00  0.00     0.010 A 
ATOM     34  C   UNL A   1      42.771  23.608  27.583  1.00  0.00    -0.014 A 
BRANCH  34  35
ATOM     35  C   UNL A   1      43.087  24.948  28.167  1.00  0.00     0.031 A 
ATOM     36  C   UNL A   1      41.982  25.936  28.469  1.00  0.00     0.074 A 
ATOM     37  C   UNL A   1      44.353  25.282  28.494  1.00  0.00     0.049 A 
ATOM     38  N   UNL A   1      42.072  27.194  28.828  1.00  0.00    -0.248 NA
ATOM     39  C   UNL A   1      40.598  25.451  28.343  1.00  0.00     0.031 C 
ATOM     40  C   UNL A   1      45.529  24.425  28.339  1.00  0.00     0.029 A 
ATOM     41  N   UNL A   1      44.860  26.435  29.049  1.00  0.00    -0.354 N 
ATOM     42  C   UNL A   1      40.764  27.662  28.909  1.00  0.00     0.074 A 
ATOM     43  C   UNL A   1      39.899  26.555  28.565  1.00  0.00     0.031 C 
ATOM     44  C   UNL A   1      46.604  25.053  28.838  1.00  0.00     0.029 A 
ATOM     45  C   UNL A   1      46.218  26.396  29.254  1.00  0.00     0.049 A 
ATOM     46  H   UNL A   1      44.302  27.212  29.279  1.00  0.00     0.167 HD
ATOM     47  C   UNL A   1      40.321  28.902  29.233  1.00  0.00     0.031 A 
ATOM     48  C   UNL A   1      47.076  27.342  29.678  1.00  0.00     0.031 A 
ATOM     49  C   UNL A   1      41.166  29.996  29.632  1.00  0.00     0.049 A 
ATOM     50  C   UNL A   1      46.570  28.722  29.984  1.00  0.00     0.074 A 
ATOM     51  C   UNL A   1      40.800  31.290  29.967  1.00  0.00     0.029 A 
ATOM     52  N   UNL A   1      42.541  29.921  29.773  1.00  0.00    -0.354 N 
ATOM     53  N   UNL A   1      45.339  29.169  29.977  1.00  0.00    -0.248 NA
ATOM     54  C   UNL A   1      47.579  29.735  30.330  1.00  0.00     0.031 C 
ATOM     55  C   UNL A   1      41.960  32.009  30.271  1.00  0.00     0.029 A 
ATOM     56  C   UNL A   1      43.041  31.151  30.171  1.00  0.00     0.049 A 
ATOM     57  H   UNL A   1      43.083  29.115  29.614  1.00  0.00     0.167 HD
ATOM     58  C   UNL A   1      45.425  30.512  30.318  1.00  0.00     0.074 A 
ATOM     59  C   UNL A   1      46.823  30.799  30.557  1.00  0.00     0.031 C 
ATOM     60  C   UNL A   1      44.431  31.428  30.410  1.00  0.00     0.031 A 
BRANCH  47  61
ATOM     61  C   UNL A   1      38.845  29.164  29.123  1.00  0.00    -0.014 A 
ATOM     62  C   UNL A   1      37.990  29.040  30.227  1.00  0.00     0.009 A 
ATOM     63  C   UNL A   1      38.315  29.603  27.897  1.00  0.00     0.009 A 
ATOM     64  C   UNL A   1      36.628  29.327  30.098  1.00  0.00     0.001 A 
ATOM     65  C   UNL A   1      36.960  29.912  27.778  1.00  0.00     0.001 A 
ATOM     66  C   UNL A   1      36.116  29.769  28.877  1.00  0.00     0.000 A 
ENDBRANCH  47  61
BRANCH  48  67
ATOM     67  C   UNL A   1      48.530  27.040  29.768  1.00  0.00    -0.014 A 
ATOM     68  C   UNL A   1      49.086  26.545  30.957  1.00  0.00     0.009 A 
ATOM     69  C   UNL A   1      49.370  27.259  28.665  1.00  0.00     0.009 A 
ATOM     70  C   UNL A   1      50.457  26.290  31.042  1.00  0.00     0.001 A 
ATOM     71  C   UNL A   1      50.734  26.971  28.742  1.00  0.00     0.001 A 
ATOM     72  C   UNL A   1      51.277  26.496  29.933  1.00  0.00     0.000 A 
ENDBRANCH  48  67
BRANCH  60  73
ATOM     73  C   UNL A   1      44.820  32.820  30.816  1.00  0.00    -0.014 A 
ATOM     74  C   UNL A   1      44.892  33.187  32.169  1.00  0.00     0.009 A 
ATOM     75  C   UNL A   1      45.142  33.768  29.835  1.00  0.00     0.009 A 
ATOM     76  C   UNL A   1      45.249  34.488  32.529  1.00  0.00     0.001 A 
ATOM     77  C   UNL A   1      45.522  35.061  30.197  1.00  0.00     0.001 A 
ATOM     78  C   UNL A   1      45.566  35.422  31.543  1.00  0.00     0.000 A 
ENDBRANCH  60  73
ENDBRANCH  34  35
ENDBRANCH  27  29
ENDBRANCH  26  27
ENDBRANCH  25  26
ENDBRANCH   1  25
TORSDOF 13
ENDMDL
