MODEL 1
REMARK VINA RESULT:     -11.0      0.000      0.000
REMARK SMILES COc1ccc(C(=O)Nc2cc(C(=O)OCCOC(=O)c3ccc(-c4c5nc(c(-c6ccccc6)c6ccc([nH]6)c(-c6ccccc6)c6nc(c(-c7ccccc7)c7ccc4[nH]7)C=C6)C=C5)cc3)c(Cl)cc2Cl)cc1Cl
REMARK SMILES IDX 16 1 15 2 13 3 14 4 12 5 10 6 11 7 72 8 71 9 73 10 69 11
REMARK SMILES IDX 70 12 9 13 7 14 8 15 6 17 3 18 4 19 75 20 5 21 74 22 76 23
REMARK SMILES IDX 2 24 1 25 17 26 18 27 19 28 20 29 21 30 22 31 68 32 23 33
REMARK SMILES IDX 67 34 24 35 25 36 26 37 61 38 27 39 66 40 60 41 62 42 28 43
REMARK SMILES IDX 65 44 59 45 58 46 29 48 51 49 36 50 50 51 37 52 40 53 49 54
REMARK SMILES IDX 63 55 38 56 39 57 48 59 64 60 41 61 30 62 31 63 35 64 32 65
REMARK SMILES IDX 34 66 33 67 52 68 53 69 57 70 54 71 56 72 55 73 42 74 43 75
REMARK SMILES IDX 47 76 44 77 46 78 45 79
REMARK H PARENT 9 16 62 47 40 58
REMARK Flexibility Score: inf
ROOT
ATOM      1  C   UNL A   1      38.770  21.486  25.784  1.00  0.00     0.275 C 
ENDROOT
BRANCH   1   2
ATOM      2  O   UNL A   1      37.328  21.490  25.696  1.00  0.00    -0.458 OA
BRANCH   2   3
ATOM      3  C   UNL A   1      36.716  22.681  25.882  1.00  0.00     0.339 C 
ATOM      4  O   UNL A   1      37.157  23.639  26.499  1.00  0.00    -0.246 OA
BRANCH   3   5
ATOM      5  C   UNL A   1      35.447  22.765  25.126  1.00  0.00     0.080 A 
ATOM      6  C   UNL A   1      33.013  22.614  25.245  1.00  0.00     0.061 A 
ATOM      7  C   UNL A   1      34.262  22.608  25.863  1.00  0.00     0.045 A 
ATOM      8  C   UNL A   1      32.948  22.665  23.851  1.00  0.00     0.066 A 
ATOM      9  C   UNL A   1      34.117  22.840  23.105  1.00  0.00     0.044 A 
ATOM     10  Cl  UNL A   1      31.432  22.624  23.029  1.00  0.00    -0.082 Cl
ATOM     11  C   UNL A   1      35.368  22.902  23.739  1.00  0.00     0.057 A 
ATOM     12  Cl  UNL A   1      36.758  23.083  22.733  1.00  0.00    -0.083 Cl
BRANCH   6  13
ATOM     13  N   UNL A   1      31.841  22.577  26.020  1.00  0.00    -0.321 N 
ATOM     14  C   UNL A   1      31.169  23.603  26.654  1.00  0.00     0.255 C 
ATOM     15  O   UNL A   1      30.409  23.329  27.583  1.00  0.00    -0.269 OA
ATOM     16  H   UNL A   1      31.439  21.683  26.129  1.00  0.00     0.170 HD
BRANCH  14  17
ATOM     17  C   UNL A   1      31.211  25.018  26.147  1.00  0.00     0.041 A 
ATOM     18  C   UNL A   1      31.277  27.618  25.015  1.00  0.00     0.137 A 
ATOM     19  C   UNL A   1      30.346  26.670  24.587  1.00  0.00     0.049 A 
ATOM     20  C   UNL A   1      32.241  27.230  25.944  1.00  0.00     0.083 A 
ATOM     21  C   UNL A   1      30.293  25.393  25.161  1.00  0.00     0.018 A 
ATOM     22  C   UNL A   1      32.215  25.935  26.484  1.00  0.00     0.038 A 
ATOM     23  Cl  UNL A   1      33.568  28.234  26.410  1.00  0.00    -0.080 Cl
BRANCH  18  24
ATOM     24  O   UNL A   1      31.198  28.823  24.371  1.00  0.00    -0.495 OA
ATOM     25  C   UNL A   1      31.918  28.899  23.143  1.00  0.00     0.278 C 
ENDBRANCH  18  24
ENDBRANCH  14  17
ENDBRANCH   6  13
ENDBRANCH   3   5
ENDBRANCH   2   3
ENDBRANCH   1   2
BRANCH   1  26
ATOM     26  C   UNL A   1      39.361  20.102  25.496  1.00  0.00     0.275 C 
BRANCH  26  27
ATOM     27  O   UNL A   1      40.350  19.719  26.474  1.00  0.00    -0.458 OA
BRANCH  27  28
ATOM     28  C   UNL A   1      41.624  19.847  26.047  1.00  0.00     0.338 C 
ATOM     29  O   UNL A   1      42.230  19.089  25.309  1.00  0.00    -0.246 OA
BRANCH  28  30
ATOM     30  C   UNL A   1      42.211  21.120  26.481  1.00  0.00     0.060 A 
ATOM     31  C   UNL A   1      42.158  21.397  27.841  1.00  0.00     0.016 A 
ATOM     32  C   UNL A   1      42.601  22.108  25.581  1.00  0.00     0.016 A 
ATOM     33  C   UNL A   1      42.348  22.692  28.303  1.00  0.00     0.010 A 
ATOM     34  C   UNL A   1      42.920  23.387  26.065  1.00  0.00     0.010 A 
ATOM     35  C   UNL A   1      42.747  23.709  27.425  1.00  0.00    -0.014 A 
BRANCH  35  36
ATOM     36  C   UNL A   1      42.986  25.083  27.961  1.00  0.00     0.031 A 
ATOM     37  C   UNL A   1      44.373  25.569  28.301  1.00  0.00     0.074 A 
ATOM     38  C   UNL A   1      41.949  25.939  28.075  1.00  0.00     0.049 A 
ATOM     39  N   UNL A   1      44.767  26.762  28.678  1.00  0.00    -0.248 NA
ATOM     40  C   UNL A   1      45.470  24.602  28.174  1.00  0.00     0.031 C 
ATOM     41  C   UNL A   1      40.556  25.637  27.736  1.00  0.00     0.029 A 
ATOM     42  N   UNL A   1      41.911  27.243  28.499  1.00  0.00    -0.354 N 
ATOM     43  C   UNL A   1      46.152  26.696  28.776  1.00  0.00     0.074 A 
ATOM     44  C   UNL A   1      46.534  25.342  28.450  1.00  0.00     0.031 C 
ATOM     45  C   UNL A   1      39.809  26.731  27.931  1.00  0.00     0.029 A 
ATOM     46  C   UNL A   1      40.648  27.782  28.493  1.00  0.00     0.049 A 
ATOM     47  H   UNL A   1      42.711  27.744  28.779  1.00  0.00     0.167 HD
ATOM     48  C   UNL A   1      47.033  27.664  29.125  1.00  0.00     0.031 A 
ATOM     49  C   UNL A   1      40.197  28.969  28.937  1.00  0.00     0.031 A 
ATOM     50  C   UNL A   1      46.659  28.972  29.587  1.00  0.00     0.049 A 
ATOM     51  C   UNL A   1      41.165  29.941  29.542  1.00  0.00     0.074 A 
ATOM     52  C   UNL A   1      47.473  29.995  30.042  1.00  0.00     0.029 A 
ATOM     53  N   UNL A   1      45.352  29.419  29.698  1.00  0.00    -0.354 N 
ATOM     54  N   UNL A   1      42.471  29.866  29.613  1.00  0.00    -0.248 NA
ATOM     55  C   UNL A   1      40.593  31.151  30.149  1.00  0.00     0.031 C 
ATOM     56  C   UNL A   1      46.652  31.029  30.508  1.00  0.00     0.029 A 
ATOM     57  C   UNL A   1      45.333  30.676  30.277  1.00  0.00     0.049 A 
ATOM     58  H   UNL A   1      44.556  28.918  29.407  1.00  0.00     0.167 HD
ATOM     59  C   UNL A   1      42.880  31.025  30.258  1.00  0.00     0.074 A 
ATOM     60  C   UNL A   1      41.685  31.790  30.547  1.00  0.00     0.031 C 
ATOM     61  C   UNL A   1      44.137  31.419  30.578  1.00  0.00     0.031 A 
BRANCH  48  62
ATOM     62  C   UNL A   1      48.493  27.308  29.096  1.00  0.00    -0.014 A 
ATOM     63  C   UNL A   1      49.121  26.738  30.214  1.00  0.00     0.009 A 
ATOM     64  C   UNL A   1      49.244  27.524  27.931  1.00  0.00     0.009 A 
ATOM     65  C   UNL A   1      50.478  26.410  30.171  1.00  0.00     0.001 A 
ATOM     66  C   UNL A   1      50.596  27.181  27.885  1.00  0.00     0.001 A 
ATOM     67  C   UNL A   1      51.213  26.630  29.007  1.00  0.00     0.000 A 
ENDBRANCH  48  62
BRANCH  49  68
ATOM     68  C   UNL A   1      38.739  29.259  28.900  1.00  0.00    -0.014 A 
ATOM     69  C   UNL A   1      37.934  29.058  30.029  1.00  0.00     0.009 A 
ATOM     70  C   UNL A   1      38.152  29.762  27.726  1.00  0.00     0.009 A 
ATOM     71  C   UNL A   1      36.569  29.354  29.983  1.00  0.00     0.001 A 
ATOM     72  C   UNL A   1      36.796  30.085  27.691  1.00  0.00     0.001 A 
ATOM     73  C   UNL A   1      36.004  29.875  28.818  1.00  0.00     0.000 A 
ENDBRANCH  49  68
BRANCH  61  74
ATOM     74  C   UNL A   1      44.284  32.745  31.264  1.00  0.00    -0.014 A 
ATOM     75  C   UNL A   1      44.284  33.943  30.534  1.00  0.00     0.009 A 
ATOM     76  C   UNL A   1      44.387  32.795  32.662  1.00  0.00     0.009 A 
ATOM     77  C   UNL A   1      44.413  35.167  31.193  1.00  0.00     0.001 A 
ATOM     78  C   UNL A   1      44.489  34.021  33.319  1.00  0.00     0.001 A 
ATOM     79  C   UNL A   1      44.510  35.205  32.584  1.00  0.00     0.000 A 
ENDBRANCH  61  74
ENDBRANCH  35  36
ENDBRANCH  28  30
ENDBRANCH  27  28
ENDBRANCH  26  27
ENDBRANCH   1  26
TORSDOF 14
ENDMDL
MODEL 2
REMARK VINA RESULT:     -10.9      3.278      8.834
REMARK SMILES COc1ccc(C(=O)Nc2cc(C(=O)OCCOC(=O)c3ccc(-c4c5nc(c(-c6ccccc6)c6ccc([nH]6)c(-c6ccccc6)c6nc(c(-c7ccccc7)c7ccc4[nH]7)C=C6)C=C5)cc3)c(Cl)cc2Cl)cc1Cl
REMARK SMILES IDX 16 1 15 2 13 3 14 4 12 5 10 6 11 7 72 8 71 9 73 10 69 11
REMARK SMILES IDX 70 12 9 13 7 14 8 15 6 17 3 18 4 19 75 20 5 21 74 22 76 23
REMARK SMILES IDX 2 24 1 25 17 26 18 27 19 28 20 29 21 30 22 31 68 32 23 33
REMARK SMILES IDX 67 34 24 35 25 36 26 37 61 38 27 39 66 40 60 41 62 42 28 43
REMARK SMILES IDX 65 44 59 45 58 46 29 48 51 49 36 50 50 51 37 52 40 53 49 54
REMARK SMILES IDX 63 55 38 56 39 57 48 59 64 60 41 61 30 62 31 63 35 64 32 65
REMARK SMILES IDX 34 66 33 67 52 68 53 69 57 70 54 71 56 72 55 73 42 74 43 75
REMARK SMILES IDX 47 76 44 77 46 78 45 79
REMARK H PARENT 9 16 62 47 40 58
REMARK Flexibility Score: inf
ROOT
ATOM      1  C   UNL A   1      31.770  31.504  26.898  1.00  0.00     0.275 C 
ENDROOT
BRANCH   1   2
ATOM      2  O   UNL A   1      32.104  30.762  25.705  1.00  0.00    -0.458 OA
BRANCH   2   3
ATOM      3  C   UNL A   1      32.951  29.720  25.860  1.00  0.00     0.339 C 
ATOM      4  O   UNL A   1      34.075  29.759  26.336  1.00  0.00    -0.246 OA
BRANCH   3   5
ATOM      5  C   UNL A   1      32.310  28.438  25.491  1.00  0.00     0.080 A 
ATOM      6  C   UNL A   1      31.828  26.869  23.682  1.00  0.00     0.061 A 
ATOM      7  C   UNL A   1      32.437  28.031  24.153  1.00  0.00     0.045 A 
ATOM      8  C   UNL A   1      30.981  26.158  24.534  1.00  0.00     0.066 A 
ATOM      9  C   UNL A   1      30.859  26.539  25.874  1.00  0.00     0.044 A 
ATOM     10  Cl  UNL A   1      30.159  24.741  23.993  1.00  0.00    -0.082 Cl
ATOM     11  C   UNL A   1      31.530  27.672  26.360  1.00  0.00     0.057 A 
ATOM     12  Cl  UNL A   1      31.289  28.087  28.016  1.00  0.00    -0.083 Cl
BRANCH   6  13
ATOM     13  N   UNL A   1      32.073  26.424  22.372  1.00  0.00    -0.321 N 
ATOM     14  C   UNL A   1      33.024  25.539  21.904  1.00  0.00     0.255 C 
ATOM     15  O   UNL A   1      33.330  25.575  20.712  1.00  0.00    -0.269 OA
ATOM     16  H   UNL A   1      31.476  26.800  21.684  1.00  0.00     0.170 HD
BRANCH  14  17
ATOM     17  C   UNL A   1      33.579  24.435  22.760  1.00  0.00     0.041 A 
ATOM     18  C   UNL A   1      34.447  22.314  24.430  1.00  0.00     0.137 A 
ATOM     19  C   UNL A   1      33.362  22.152  23.568  1.00  0.00     0.049 A 
ATOM     20  C   UNL A   1      35.038  23.573  24.527  1.00  0.00     0.083 A 
ATOM     21  C   UNL A   1      32.945  23.189  22.723  1.00  0.00     0.018 A 
ATOM     22  C   UNL A   1      34.588  24.624  23.713  1.00  0.00     0.038 A 
ATOM     23  Cl  UNL A   1      36.252  23.964  25.693  1.00  0.00    -0.080 Cl
BRANCH  18  24
ATOM     24  O   UNL A   1      34.745  21.209  25.182  1.00  0.00    -0.495 OA
ATOM     25  C   UNL A   1      34.135  19.998  24.741  1.00  0.00     0.278 C 
ENDBRANCH  18  24
ENDBRANCH  14  17
ENDBRANCH   6  13
ENDBRANCH   3   5
ENDBRANCH   2   3
ENDBRANCH   1   2
BRANCH   1  26
ATOM     26  C   UNL A   1      32.129  32.988  26.775  1.00  0.00     0.275 C 
BRANCH  26  27
ATOM     27  O   UNL A   1      31.922  33.702  28.011  1.00  0.00    -0.458 OA
BRANCH  27  28
ATOM     28  C   UNL A   1      32.957  34.490  28.371  1.00  0.00     0.338 C 
ATOM     29  O   UNL A   1      32.921  35.685  28.612  1.00  0.00    -0.246 OA
BRANCH  28  30
ATOM     30  C   UNL A   1      34.182  33.707  28.575  1.00  0.00     0.060 A 
ATOM     31  C   UNL A   1      34.165  32.788  29.617  1.00  0.00     0.016 A 
ATOM     32  C   UNL A   1      35.376  34.005  27.925  1.00  0.00     0.016 A 
ATOM     33  C   UNL A   1      35.352  32.271  30.117  1.00  0.00     0.010 A 
ATOM     34  C   UNL A   1      36.559  33.381  28.348  1.00  0.00     0.010 A 
ATOM     35  C   UNL A   1      36.572  32.547  29.482  1.00  0.00    -0.014 A 
BRANCH  35  36
ATOM     36  C   UNL A   1      37.826  31.939  30.018  1.00  0.00     0.031 A 
ATOM     37  C   UNL A   1      38.614  32.596  31.124  1.00  0.00     0.074 A 
ATOM     38  C   UNL A   1      38.228  30.736  29.558  1.00  0.00     0.049 A 
ATOM     39  N   UNL A   1      39.665  32.154  31.773  1.00  0.00    -0.248 NA
ATOM     40  C   UNL A   1      38.150  33.909  31.587  1.00  0.00     0.031 C 
ATOM     41  C   UNL A   1      37.544  29.948  28.530  1.00  0.00     0.029 A 
ATOM     42  N   UNL A   1      39.306  29.961  29.907  1.00  0.00    -0.354 N 
ATOM     43  C   UNL A   1      39.944  33.106  32.748  1.00  0.00     0.074 A 
ATOM     44  C   UNL A   1      38.975  34.166  32.591  1.00  0.00     0.031 C 
ATOM     45  C   UNL A   1      38.197  28.791  28.357  1.00  0.00     0.029 A 
ATOM     46  C   UNL A   1      39.392  28.792  29.192  1.00  0.00     0.049 A 
ATOM     47  H   UNL A   1      39.953  30.218  30.602  1.00  0.00     0.167 HD
ATOM     48  C   UNL A   1      40.927  33.115  33.680  1.00  0.00     0.031 A 
ATOM     49  C   UNL A   1      40.348  27.846  29.165  1.00  0.00     0.031 A 
ATOM     50  C   UNL A   1      41.979  32.140  33.756  1.00  0.00     0.049 A 
ATOM     51  C   UNL A   1      41.553  27.999  30.043  1.00  0.00     0.074 A 
ATOM     52  C   UNL A   1      43.068  32.107  34.611  1.00  0.00     0.029 A 
ATOM     53  N   UNL A   1      42.099  31.049  32.912  1.00  0.00    -0.354 N 
ATOM     54  N   UNL A   1      41.792  28.897  30.966  1.00  0.00    -0.248 NA
ATOM     55  C   UNL A   1      42.632  27.019  29.857  1.00  0.00     0.031 C 
ATOM     56  C   UNL A   1      43.890  31.042  34.227  1.00  0.00     0.029 A 
ATOM     57  C   UNL A   1      43.278  30.374  33.179  1.00  0.00     0.049 A 
ATOM     58  H   UNL A   1      41.444  30.791  32.224  1.00  0.00     0.167 HD
ATOM     59  C   UNL A   1      43.041  28.583  31.484  1.00  0.00     0.074 A 
ATOM     60  C   UNL A   1      43.504  27.405  30.779  1.00  0.00     0.031 C 
ATOM     61  C   UNL A   1      43.738  29.215  32.459  1.00  0.00     0.031 A 
BRANCH  48  62
ATOM     62  C   UNL A   1      40.951  34.269  34.642  1.00  0.00    -0.014 A 
ATOM     63  C   UNL A   1      40.298  34.190  35.882  1.00  0.00     0.009 A 
ATOM     64  C   UNL A   1      41.652  35.440  34.316  1.00  0.00     0.009 A 
ATOM     65  C   UNL A   1      40.331  35.270  36.767  1.00  0.00     0.001 A 
ATOM     66  C   UNL A   1      41.696  36.511  35.209  1.00  0.00     0.001 A 
ATOM     67  C   UNL A   1      41.030  36.428  36.431  1.00  0.00     0.000 A 
ENDBRANCH  48  62
BRANCH  49  68
ATOM     68  C   UNL A   1      40.233  26.716  28.206  1.00  0.00    -0.014 A 
ATOM     69  C   UNL A   1      40.817  26.786  26.935  1.00  0.00     0.009 A 
ATOM     70  C   UNL A   1      39.549  25.546  28.578  1.00  0.00     0.009 A 
ATOM     71  C   UNL A   1      40.716  25.707  26.053  1.00  0.00     0.001 A 
ATOM     72  C   UNL A   1      39.475  24.458  27.707  1.00  0.00     0.001 A 
ATOM     73  C   UNL A   1      40.054  24.542  26.443  1.00  0.00     0.000 A 
ENDBRANCH  49  68
BRANCH  61  74
ATOM     74  C   UNL A   1      45.070  28.636  32.833  1.00  0.00    -0.014 A 
ATOM     75  C   UNL A   1      46.236  28.995  32.142  1.00  0.00     0.009 A 
ATOM     76  C   UNL A   1      45.161  27.747  33.915  1.00  0.00     0.009 A 
ATOM     77  C   UNL A   1      47.468  28.451  32.512  1.00  0.00     0.001 A 
ATOM     78  C   UNL A   1      46.396  27.226  34.299  1.00  0.00     0.001 A 
ATOM     79  C   UNL A   1      47.547  27.572  33.592  1.00  0.00     0.000 A 
ENDBRANCH  61  74
ENDBRANCH  35  36
ENDBRANCH  28  30
ENDBRANCH  27  28
ENDBRANCH  26  27
ENDBRANCH   1  26
TORSDOF 14
ENDMDL
MODEL 3
REMARK VINA RESULT:     -10.9      3.244      8.731
REMARK SMILES COc1ccc(C(=O)Nc2cc(C(=O)OCCOC(=O)c3ccc(-c4c5nc(c(-c6ccccc6)c6ccc([nH]6)c(-c6ccccc6)c6nc(c(-c7ccccc7)c7ccc4[nH]7)C=C6)C=C5)cc3)c(Cl)cc2Cl)cc1Cl
REMARK SMILES IDX 16 1 15 2 13 3 14 4 12 5 10 6 11 7 72 8 71 9 73 10 69 11
REMARK SMILES IDX 70 12 9 13 7 14 8 15 6 17 3 18 4 19 75 20 5 21 74 22 76 23
REMARK SMILES IDX 2 24 1 25 17 26 18 27 19 28 20 29 21 30 22 31 68 32 23 33
REMARK SMILES IDX 67 34 24 35 25 36 26 37 61 38 27 39 66 40 60 41 62 42 28 43
REMARK SMILES IDX 65 44 59 45 58 46 29 48 51 49 36 50 50 51 37 52 40 53 49 54
REMARK SMILES IDX 63 55 38 56 39 57 48 59 64 60 41 61 30 62 31 63 35 64 32 65
REMARK SMILES IDX 34 66 33 67 52 68 53 69 57 70 54 71 56 72 55 73 42 74 43 75
REMARK SMILES IDX 47 76 44 77 46 78 45 79
REMARK H PARENT 9 16 62 47 40 58
REMARK Flexibility Score: inf
ROOT
ATOM      1  C   UNL A   1      32.925  31.136  27.379  1.00  0.00     0.275 C 
ENDROOT
BRANCH   1   2
ATOM      2  O   UNL A   1      32.886  30.478  26.094  1.00  0.00    -0.458 OA
BRANCH   2   3
ATOM      3  C   UNL A   1      33.522  29.287  26.007  1.00  0.00     0.339 C 
ATOM      4  O   UNL A   1      34.667  29.045  26.359  1.00  0.00    -0.246 OA
BRANCH   3   5
ATOM      5  C   UNL A   1      32.616  28.220  25.530  1.00  0.00     0.080 A 
ATOM      6  C   UNL A   1      31.871  26.914  23.606  1.00  0.00     0.061 A 
ATOM      7  C   UNL A   1      32.713  27.867  24.175  1.00  0.00     0.045 A 
ATOM      8  C   UNL A   1      30.836  26.381  24.377  1.00  0.00     0.066 A 
ATOM      9  C   UNL A   1      30.737  26.707  25.733  1.00  0.00     0.044 A 
ATOM     10  Cl  UNL A   1      29.730  25.235  23.713  1.00  0.00    -0.082 Cl
ATOM     11  C   UNL A   1      31.632  27.617  26.317  1.00  0.00     0.057 A 
ATOM     12  Cl  UNL A   1      31.410  27.987  27.987  1.00  0.00    -0.083 Cl
BRANCH   6  13
ATOM     13  N   UNL A   1      32.072  26.495  22.280  1.00  0.00    -0.321 N 
ATOM     14  C   UNL A   1      32.957  25.565  21.772  1.00  0.00     0.255 C 
ATOM     15  O   UNL A   1      33.252  25.618  20.578  1.00  0.00    -0.269 OA
ATOM     16  H   UNL A   1      31.493  26.930  21.611  1.00  0.00     0.170 HD
BRANCH  14  17
ATOM     17  C   UNL A   1      33.447  24.400  22.587  1.00  0.00     0.041 A 
ATOM     18  C   UNL A   1      34.193  22.182  24.189  1.00  0.00     0.137 A 
ATOM     19  C   UNL A   1      33.046  22.143  23.396  1.00  0.00     0.049 A 
ATOM     20  C   UNL A   1      34.916  23.372  24.255  1.00  0.00     0.083 A 
ATOM     21  C   UNL A   1      32.686  23.226  22.584  1.00  0.00     0.018 A 
ATOM     22  C   UNL A   1      34.528  24.473  23.475  1.00  0.00     0.038 A 
ATOM     23  Cl  UNL A   1      36.235  23.623  25.343  1.00  0.00    -0.080 Cl
BRANCH  18  24
ATOM     24  O   UNL A   1      34.421  21.045  24.916  1.00  0.00    -0.495 OA
ATOM     25  C   UNL A   1      33.467  20.003  24.720  1.00  0.00     0.278 C 
ENDBRANCH  18  24
ENDBRANCH  14  17
ENDBRANCH   6  13
ENDBRANCH   3   5
ENDBRANCH   2   3
ENDBRANCH   1   2
BRANCH   1  26
ATOM     26  C   UNL A   1      32.249  32.510  27.344  1.00  0.00     0.275 C 
BRANCH  26  27
ATOM     27  O   UNL A   1      33.209  33.587  27.332  1.00  0.00    -0.458 OA
BRANCH  27  28
ATOM     28  C   UNL A   1      33.322  34.236  28.510  1.00  0.00     0.338 C 
ATOM     29  O   UNL A   1      32.503  34.983  29.018  1.00  0.00    -0.246 OA
BRANCH  28  30
ATOM     30  C   UNL A   1      34.544  33.845  29.223  1.00  0.00     0.060 A 
ATOM     31  C   UNL A   1      35.750  34.181  28.622  1.00  0.00     0.016 A 
ATOM     32  C   UNL A   1      34.525  32.992  30.323  1.00  0.00     0.016 A 
ATOM     33  C   UNL A   1      36.927  33.559  29.012  1.00  0.00     0.010 A 
ATOM     34  C   UNL A   1      35.736  32.464  30.800  1.00  0.00     0.010 A 
ATOM     35  C   UNL A   1      36.946  32.699  30.119  1.00  0.00    -0.014 A 
BRANCH  35  36
ATOM     36  C   UNL A   1      38.238  32.081  30.541  1.00  0.00     0.031 A 
ATOM     37  C   UNL A   1      38.690  30.747  30.000  1.00  0.00     0.074 A 
ATOM     38  C   UNL A   1      39.059  32.761  31.367  1.00  0.00     0.049 A 
ATOM     39  N   UNL A   1      39.827  30.118  30.183  1.00  0.00    -0.248 NA
ATOM     40  C   UNL A   1      37.762  30.034  29.114  1.00  0.00     0.031 C 
ATOM     41  C   UNL A   1      38.789  34.086  31.932  1.00  0.00     0.029 A 
ATOM     42  N   UNL A   1      40.295  32.435  31.866  1.00  0.00    -0.354 N 
ATOM     43  C   UNL A   1      39.765  28.975  29.394  1.00  0.00     0.074 A 
ATOM     44  C   UNL A   1      38.470  28.975  28.753  1.00  0.00     0.031 C 
ATOM     45  C   UNL A   1      39.839  34.472  32.669  1.00  0.00     0.029 A 
ATOM     46  C   UNL A   1      40.815  33.390  32.704  1.00  0.00     0.049 A 
ATOM     47  H   UNL A   1      40.763  31.598  31.644  1.00  0.00     0.167 HD
ATOM     48  C   UNL A   1      40.688  27.997  29.228  1.00  0.00     0.031 A 
ATOM     49  C   UNL A   1      41.927  33.384  33.461  1.00  0.00     0.031 A 
ATOM     50  C   UNL A   1      41.918  27.912  29.965  1.00  0.00     0.049 A 
ATOM     51  C   UNL A   1      42.820  32.181  33.440  1.00  0.00     0.074 A 
ATOM     52  C   UNL A   1      42.881  26.917  29.929  1.00  0.00     0.029 A 
ATOM     53  N   UNL A   1      42.331  28.836  30.910  1.00  0.00    -0.354 N 
ATOM     54  N   UNL A   1      42.752  31.117  32.678  1.00  0.00    -0.248 NA
ATOM     55  C   UNL A   1      43.932  32.168  34.401  1.00  0.00     0.031 C 
ATOM     56  C   UNL A   1      43.834  27.199  30.914  1.00  0.00     0.029 A 
ATOM     57  C   UNL A   1      43.500  28.403  31.513  1.00  0.00     0.049 A 
ATOM     58  H   UNL A   1      41.864  29.676  31.121  1.00  0.00     0.167 HD
ATOM     59  C   UNL A   1      43.820  30.314  33.056  1.00  0.00     0.074 A 
ATOM     60  C   UNL A   1      44.525  31.019  34.106  1.00  0.00     0.031 C 
ATOM     61  C   UNL A   1      44.182  29.102  32.570  1.00  0.00     0.031 A 
BRANCH  48  62
ATOM     62  C   UNL A   1      40.356  26.895  28.261  1.00  0.00    -0.014 A 
ATOM     63  C   UNL A   1      40.834  26.922  26.942  1.00  0.00     0.009 A 
ATOM     64  C   UNL A   1      39.575  25.807  28.680  1.00  0.00     0.009 A 
ATOM     65  C   UNL A   1      40.518  25.889  26.055  1.00  0.00     0.001 A 
ATOM     66  C   UNL A   1      39.275  24.769  27.797  1.00  0.00     0.001 A 
ATOM     67  C   UNL A   1      39.741  24.814  26.484  1.00  0.00     0.000 A 
ENDBRANCH  48  62
BRANCH  49  68
ATOM     68  C   UNL A   1      42.202  34.530  34.367  1.00  0.00    -0.014 A 
ATOM     69  C   UNL A   1      41.755  34.524  35.695  1.00  0.00     0.009 A 
ATOM     70  C   UNL A   1      42.939  35.633  33.902  1.00  0.00     0.009 A 
ATOM     71  C   UNL A   1      42.039  35.602  36.538  1.00  0.00     0.001 A 
ATOM     72  C   UNL A   1      43.247  36.693  34.754  1.00  0.00     0.001 A 
ATOM     73  C   UNL A   1      42.791  36.679  36.071  1.00  0.00     0.000 A 
ENDBRANCH  49  68
BRANCH  61  74
ATOM     74  C   UNL A   1      45.406  28.467  33.160  1.00  0.00    -0.014 A 
ATOM     75  C   UNL A   1      45.313  27.583  34.244  1.00  0.00     0.009 A 
ATOM     76  C   UNL A   1      46.664  28.731  32.598  1.00  0.00     0.009 A 
ATOM     77  C   UNL A   1      46.464  26.995  34.773  1.00  0.00     0.001 A 
ATOM     78  C   UNL A   1      47.809  28.122  33.111  1.00  0.00     0.001 A 
ATOM     79  C   UNL A   1      47.709  27.261  34.203  1.00  0.00     0.000 A 
ENDBRANCH  61  74
ENDBRANCH  35  36
ENDBRANCH  28  30
ENDBRANCH  27  28
ENDBRANCH  26  27
ENDBRANCH   1  26
TORSDOF 14
ENDMDL
