MODEL 1
REMARK VINA RESULT:     -10.8      0.000      0.000
REMARK SMILES CC1=C(CC(=O)OCCOC(=O)c2ccc(-c3c4nc(c(-c5ccccc5)c5ccc([nH]5)c(-c5ccccc5)c5nc(c(-c6ccccc6)c6ccc3[nH]6)C=C5)C=C4)cc2)c2cc(F)ccc2/C1=C\c1cccc(OCc2ccccc2)c1
REMARK SMILES IDX 7 1 5 2 6 3 4 4 3 5 1 6 2 7 68 8 61 9 67 10 69 11 62 12
REMARK SMILES IDX 66 13 63 14 65 15 64 16 70 17 71 18 83 19 72 20 74 21 73 22
REMARK SMILES IDX 75 23 76 24 77 25 78 26 82 27 79 28 81 29 80 30 8 31 9 32
REMARK SMILES IDX 10 33 11 34 12 35 13 36 14 37 60 38 15 39 59 40 16 41 17 42
REMARK SMILES IDX 18 43 53 44 19 45 58 46 52 47 54 48 20 49 57 50 51 51 50 52
REMARK SMILES IDX 21 54 43 55 28 56 42 57 29 58 32 59 41 60 55 61 30 62 31 63
REMARK SMILES IDX 40 65 56 66 33 67 22 68 23 69 27 70 24 71 26 72 25 73 44 74
REMARK SMILES IDX 45 75 49 76 46 77 48 78 47 79 34 80 35 81 39 82 36 83 38 84
REMARK SMILES IDX 37 85
REMARK H PARENT 54 53 32 64
REMARK Flexibility Score: inf
ROOT
ATOM      1  O   UNL A   1      43.671  20.638  25.827  1.00  0.00    -0.462 OA
ENDROOT
BRANCH   1   2
ATOM      2  C   UNL A   1      42.485  20.036  26.100  1.00  0.00     0.310 C 
ATOM      3  O   UNL A   1      41.944  19.205  25.373  1.00  0.00    -0.252 OA
BRANCH   2   4
ATOM      4  C   UNL A   1      41.846  20.462  27.416  1.00  0.00     0.159 C 
BRANCH   4   5
ATOM      5  C   UNL A   1      41.386  21.878  27.515  1.00  0.00    -0.025 C 
ATOM      6  C   UNL A   1      43.345  22.905  28.772  1.00  0.00     0.045 C 
ATOM      7  C   UNL A   1      42.007  22.923  28.109  1.00  0.00    -0.039 C 
ATOM      8  C   UNL A   1      41.179  24.130  27.963  1.00  0.00    -0.014 C 
ATOM      9  C   UNL A   1      40.149  22.384  26.895  1.00  0.00    -0.011 A 
ATOM     10  C   UNL A   1      39.987  23.748  27.184  1.00  0.00    -0.010 A 
ATOM     11  C   UNL A   1      41.509  25.342  28.442  1.00  0.00     0.017 C 
ATOM     12  C   UNL A   1      39.228  21.729  26.091  1.00  0.00     0.048 A 
ATOM     13  C   UNL A   1      38.873  24.443  26.721  1.00  0.00     0.012 A 
ATOM     14  C   UNL A   1      38.116  22.430  25.632  1.00  0.00     0.123 A 
ATOM     15  C   UNL A   1      37.925  23.771  25.948  1.00  0.00     0.040 A 
ATOM     16  F   UNL A   1      37.222  21.805  24.853  1.00  0.00    -0.207 F 
BRANCH  11  17
ATOM     17  C   UNL A   1      40.732  26.560  28.229  1.00  0.00    -0.021 A 
ATOM     18  C   UNL A   1      40.889  27.307  27.059  1.00  0.00     0.008 A 
ATOM     19  C   UNL A   1      39.883  27.015  29.248  1.00  0.00     0.054 A 
ATOM     20  C   UNL A   1      40.232  28.528  26.924  1.00  0.00     0.004 A 
ATOM     21  C   UNL A   1      39.194  28.217  29.097  1.00  0.00     0.120 A 
ATOM     22  C   UNL A   1      39.395  28.983  27.945  1.00  0.00     0.046 A 
BRANCH  21  23
ATOM     23  O   UNL A   1      38.274  28.730  29.971  1.00  0.00    -0.489 OA
BRANCH  23  24
ATOM     24  C   UNL A   1      38.742  29.510  31.079  1.00  0.00     0.265 C 
BRANCH  24  25
ATOM     25  C   UNL A   1      38.532  31.009  30.970  1.00  0.00    -0.011 A 
ATOM     26  C   UNL A   1      39.287  31.814  30.104  1.00  0.00     0.007 A 
ATOM     27  C   UNL A   1      37.549  31.621  31.764  1.00  0.00     0.007 A 
ATOM     28  C   UNL A   1      39.024  33.179  29.983  1.00  0.00     0.000 A 
ATOM     29  C   UNL A   1      37.301  32.992  31.658  1.00  0.00     0.000 A 
ATOM     30  C   UNL A   1      38.029  33.767  30.758  1.00  0.00     0.000 A 
ENDBRANCH  24  25
ENDBRANCH  23  24
ENDBRANCH  21  23
ENDBRANCH  11  17
ENDBRANCH   4   5
ENDBRANCH   2   4
ENDBRANCH   1   2
BRANCH   1  31
ATOM     31  C   UNL A   1      44.591  19.884  25.011  1.00  0.00     0.274 C 
BRANCH  31  32
ATOM     32  C   UNL A   1      45.945  20.584  24.933  1.00  0.00     0.275 C 
BRANCH  32  33
ATOM     33  O   UNL A   1      45.930  21.746  25.778  1.00  0.00    -0.458 OA
BRANCH  33  34
ATOM     34  C   UNL A   1      46.043  22.932  25.142  1.00  0.00     0.338 C 
ATOM     35  O   UNL A   1      46.394  23.133  23.993  1.00  0.00    -0.246 OA
BRANCH  34  36
ATOM     36  C   UNL A   1      45.684  24.013  26.073  1.00  0.00     0.060 A 
ATOM     37  C   UNL A   1      46.577  24.355  27.085  1.00  0.00     0.016 A 
ATOM     38  C   UNL A   1      44.513  24.754  25.887  1.00  0.00     0.016 A 
ATOM     39  C   UNL A   1      46.269  25.414  27.939  1.00  0.00     0.010 A 
ATOM     40  C   UNL A   1      44.264  25.879  26.668  1.00  0.00     0.010 A 
ATOM     41  C   UNL A   1      45.116  26.193  27.731  1.00  0.00    -0.014 A 
BRANCH  41  42
ATOM     42  C   UNL A   1      44.798  27.312  28.651  1.00  0.00     0.031 A 
ATOM     43  C   UNL A   1      44.796  28.731  28.154  1.00  0.00     0.074 A 
ATOM     44  C   UNL A   1      44.492  27.049  29.936  1.00  0.00     0.049 A 
ATOM     45  N   UNL A   1      44.381  29.813  28.765  1.00  0.00    -0.248 NA
ATOM     46  C   UNL A   1      45.345  28.978  26.811  1.00  0.00     0.031 C 
ATOM     47  C   UNL A   1      44.533  25.725  30.559  1.00  0.00     0.029 A 
ATOM     48  N   UNL A   1      44.057  27.879  30.939  1.00  0.00    -0.354 N 
ATOM     49  C   UNL A   1      44.615  30.858  27.880  1.00  0.00     0.074 A 
ATOM     50  C   UNL A   1      45.271  30.298  26.722  1.00  0.00     0.031 C 
ATOM     51  C   UNL A   1      44.079  25.822  31.818  1.00  0.00     0.029 A 
ATOM     52  C   UNL A   1      43.734  27.214  32.096  1.00  0.00     0.049 A 
ATOM     53  H   UNL A   1      43.986  28.856  30.839  1.00  0.00     0.167 HD
ATOM     54  C   UNL A   1      44.280  32.163  28.006  1.00  0.00     0.031 A 
ATOM     55  C   UNL A   1      43.187  27.664  33.242  1.00  0.00     0.031 A 
ATOM     56  C   UNL A   1      43.617  32.715  29.154  1.00  0.00     0.049 A 
ATOM     57  C   UNL A   1      42.806  29.112  33.358  1.00  0.00     0.074 A 
ATOM     58  C   UNL A   1      43.157  34.006  29.340  1.00  0.00     0.029 A 
ATOM     59  N   UNL A   1      43.326  32.011  30.311  1.00  0.00    -0.354 N 
ATOM     60  N   UNL A   1      42.923  30.067  32.467  1.00  0.00    -0.248 NA
ATOM     61  C   UNL A   1      42.201  29.543  34.627  1.00  0.00     0.031 C 
ATOM     62  C   UNL A   1      42.642  34.099  30.635  1.00  0.00     0.029 A 
ATOM     63  C   UNL A   1      42.726  32.851  31.232  1.00  0.00     0.049 A 
ATOM     64  H   UNL A   1      43.519  31.057  30.456  1.00  0.00     0.167 HD
ATOM     65  C   UNL A   1      42.394  31.207  33.059  1.00  0.00     0.074 A 
ATOM     66  C   UNL A   1      41.942  30.821  34.381  1.00  0.00     0.031 C 
ATOM     67  C   UNL A   1      42.293  32.458  32.549  1.00  0.00     0.031 A 
BRANCH  54  68
ATOM     68  C   UNL A   1      44.615  33.083  26.865  1.00  0.00    -0.014 A 
ATOM     69  C   UNL A   1      43.751  33.177  25.764  1.00  0.00     0.009 A 
ATOM     70  C   UNL A   1      45.816  33.812  26.852  1.00  0.00     0.009 A 
ATOM     71  C   UNL A   1      44.081  33.981  24.671  1.00  0.00     0.001 A 
ATOM     72  C   UNL A   1      46.129  34.638  25.771  1.00  0.00     0.001 A 
ATOM     73  C   UNL A   1      45.266  34.717  24.679  1.00  0.00     0.000 A 
ENDBRANCH  54  68
BRANCH  55  74
ATOM     74  C   UNL A   1      42.907  26.698  34.334  1.00  0.00    -0.014 A 
ATOM     75  C   UNL A   1      43.959  26.063  35.015  1.00  0.00     0.009 A 
ATOM     76  C   UNL A   1      41.586  26.342  34.645  1.00  0.00     0.009 A 
ATOM     77  C   UNL A   1      43.694  25.076  35.965  1.00  0.00     0.001 A 
ATOM     78  C   UNL A   1      41.324  25.370  35.613  1.00  0.00     0.001 A 
ATOM     79  C   UNL A   1      42.377  24.730  36.265  1.00  0.00     0.000 A 
ENDBRANCH  55  74
BRANCH  67  80
ATOM     80  C   UNL A   1      41.678  33.523  33.412  1.00  0.00    -0.014 A 
ATOM     81  C   UNL A   1      42.483  34.244  34.310  1.00  0.00     0.009 A 
ATOM     82  C   UNL A   1      40.291  33.725  33.427  1.00  0.00     0.009 A 
ATOM     83  C   UNL A   1      41.908  35.133  35.219  1.00  0.00     0.001 A 
ATOM     84  C   UNL A   1      39.721  34.635  34.320  1.00  0.00     0.001 A 
ATOM     85  C   UNL A   1      40.528  35.329  35.222  1.00  0.00     0.000 A 
ENDBRANCH  67  80
ENDBRANCH  41  42
ENDBRANCH  34  36
ENDBRANCH  33  34
ENDBRANCH  32  33
ENDBRANCH  31  32
ENDBRANCH   1  31
TORSDOF 16
ENDMDL
MODEL 2
REMARK VINA RESULT:     -10.7      2.952     10.954
REMARK SMILES CC1=C(CC(=O)OCCOC(=O)c2ccc(-c3c4nc(c(-c5ccccc5)c5ccc([nH]5)c(-c5ccccc5)c5nc(c(-c6ccccc6)c6ccc3[nH]6)C=C5)C=C4)cc2)c2cc(F)ccc2/C1=C\c1cccc(OCc2ccccc2)c1
REMARK SMILES IDX 7 1 5 2 6 3 4 4 3 5 1 6 2 7 68 8 61 9 67 10 69 11 62 12
REMARK SMILES IDX 66 13 63 14 65 15 64 16 70 17 71 18 83 19 72 20 74 21 73 22
REMARK SMILES IDX 75 23 76 24 77 25 78 26 82 27 79 28 81 29 80 30 8 31 9 32
REMARK SMILES IDX 10 33 11 34 12 35 13 36 14 37 60 38 15 39 59 40 16 41 17 42
REMARK SMILES IDX 18 43 53 44 19 45 58 46 52 47 54 48 20 49 57 50 51 51 50 52
REMARK SMILES IDX 21 54 43 55 28 56 42 57 29 58 32 59 41 60 55 61 30 62 31 63
REMARK SMILES IDX 40 65 56 66 33 67 22 68 23 69 27 70 24 71 26 72 25 73 44 74
REMARK SMILES IDX 45 75 49 76 46 77 48 78 47 79 34 80 35 81 39 82 36 83 38 84
REMARK SMILES IDX 37 85
REMARK H PARENT 54 53 32 64
REMARK Flexibility Score: inf
ROOT
ATOM      1  O   UNL A   1      34.335  34.885  30.673  1.00  0.00    -0.462 OA
ENDROOT
BRANCH   1   2
ATOM      2  C   UNL A   1      33.816  34.797  29.421  1.00  0.00     0.310 C 
ATOM      3  O   UNL A   1      32.624  34.933  29.151  1.00  0.00    -0.252 OA
BRANCH   2   4
ATOM      4  C   UNL A   1      34.841  34.517  28.329  1.00  0.00     0.159 C 
BRANCH   4   5
ATOM      5  C   UNL A   1      35.630  33.257  28.451  1.00  0.00    -0.025 C 
ATOM      6  C   UNL A   1      37.777  34.162  29.472  1.00  0.00     0.045 C 
ATOM      7  C   UNL A   1      36.890  33.097  28.917  1.00  0.00    -0.039 C 
ATOM      8  C   UNL A   1      37.260  31.675  28.847  1.00  0.00    -0.014 C 
ATOM      9  C   UNL A   1      35.101  31.923  28.118  1.00  0.00    -0.011 A 
ATOM     10  C   UNL A   1      36.090  30.947  28.321  1.00  0.00    -0.010 A 
ATOM     11  C   UNL A   1      38.447  31.177  29.234  1.00  0.00     0.017 C 
ATOM     12  C   UNL A   1      33.832  31.550  27.703  1.00  0.00     0.048 A 
ATOM     13  C   UNL A   1      35.829  29.607  28.052  1.00  0.00     0.012 A 
ATOM     14  C   UNL A   1      33.577  30.208  27.434  1.00  0.00     0.123 A 
ATOM     15  C   UNL A   1      34.563  29.239  27.593  1.00  0.00     0.040 A 
ATOM     16  F   UNL A   1      32.352  29.840  27.036  1.00  0.00    -0.207 F 
BRANCH  11  17
ATOM     17  C   UNL A   1      38.790  29.757  29.243  1.00  0.00    -0.021 A 
ATOM     18  C   UNL A   1      38.524  28.970  30.367  1.00  0.00     0.008 A 
ATOM     19  C   UNL A   1      39.461  29.209  28.141  1.00  0.00     0.054 A 
ATOM     20  C   UNL A   1      38.965  27.649  30.407  1.00  0.00     0.004 A 
ATOM     21  C   UNL A   1      39.869  27.876  28.165  1.00  0.00     0.120 A 
ATOM     22  C   UNL A   1      39.643  27.110  29.312  1.00  0.00     0.046 A 
BRANCH  21  23
ATOM     23  O   UNL A   1      40.452  27.197  27.130  1.00  0.00    -0.489 OA
BRANCH  23  24
ATOM     24  C   UNL A   1      41.864  26.948  27.184  1.00  0.00     0.265 C 
BRANCH  24  25
ATOM     25  C   UNL A   1      42.276  25.593  27.729  1.00  0.00    -0.011 A 
ATOM     26  C   UNL A   1      42.943  25.446  28.955  1.00  0.00     0.007 A 
ATOM     27  C   UNL A   1      41.986  24.439  26.984  1.00  0.00     0.007 A 
ATOM     28  C   UNL A   1      43.251  24.181  29.455  1.00  0.00     0.000 A 
ATOM     29  C   UNL A   1      42.314  23.173  27.476  1.00  0.00     0.000 A 
ATOM     30  C   UNL A   1      42.935  23.044  28.717  1.00  0.00     0.000 A 
ENDBRANCH  24  25
ENDBRANCH  23  24
ENDBRANCH  21  23
ENDBRANCH  11  17
ENDBRANCH   4   5
ENDBRANCH   2   4
ENDBRANCH   1   2
BRANCH   1  31
ATOM     31  C   UNL A   1      33.510  35.547  31.655  1.00  0.00     0.274 C 
BRANCH  31  32
ATOM     32  C   UNL A   1      34.369  36.175  32.749  1.00  0.00     0.275 C 
BRANCH  32  33
ATOM     33  O   UNL A   1      35.665  35.555  32.751  1.00  0.00    -0.458 OA
BRANCH  33  34
ATOM     34  C   UNL A   1      35.874  34.643  33.726  1.00  0.00     0.338 C 
ATOM     35  O   UNL A   1      35.195  34.439  34.716  1.00  0.00    -0.246 OA
BRANCH  34  36
ATOM     36  C   UNL A   1      37.106  33.896  33.428  1.00  0.00     0.060 A 
ATOM     37  C   UNL A   1      37.013  32.690  32.739  1.00  0.00     0.016 A 
ATOM     38  C   UNL A   1      38.358  34.434  33.740  1.00  0.00     0.016 A 
ATOM     39  C   UNL A   1      38.180  32.002  32.405  1.00  0.00     0.010 A 
ATOM     40  C   UNL A   1      39.520  33.804  33.307  1.00  0.00     0.010 A 
ATOM     41  C   UNL A   1      39.444  32.558  32.675  1.00  0.00    -0.014 A 
BRANCH  41  42
ATOM     42  C   UNL A   1      40.676  31.813  32.320  1.00  0.00     0.031 A 
ATOM     43  C   UNL A   1      41.070  30.581  33.087  1.00  0.00     0.074 A 
ATOM     44  C   UNL A   1      41.436  32.236  31.292  1.00  0.00     0.049 A 
ATOM     45  N   UNL A   1      42.012  29.712  32.814  1.00  0.00    -0.248 NA
ATOM     46  C   UNL A   1      40.331  30.291  34.326  1.00  0.00     0.031 C 
ATOM     47  C   UNL A   1      41.204  33.458  30.519  1.00  0.00     0.029 A 
ATOM     48  N   UNL A   1      42.537  31.670  30.701  1.00  0.00    -0.354 N 
ATOM     49  C   UNL A   1      41.971  28.779  33.842  1.00  0.00     0.074 A 
ATOM     50  C   UNL A   1      40.966  29.219  34.779  1.00  0.00     0.031 C 
ATOM     51  C   UNL A   1      42.095  33.516  29.518  1.00  0.00     0.029 A 
ATOM     52  C   UNL A   1      42.971  32.349  29.589  1.00  0.00     0.049 A 
ATOM     53  H   UNL A   1      42.975  30.857  31.043  1.00  0.00     0.167 HD
ATOM     54  C   UNL A   1      42.684  27.636  33.975  1.00  0.00     0.031 A 
ATOM     55  C   UNL A   1      43.941  32.050  28.703  1.00  0.00     0.031 A 
ATOM     56  C   UNL A   1      43.676  27.193  33.034  1.00  0.00     0.049 A 
ATOM     57  C   UNL A   1      44.710  30.769  28.855  1.00  0.00     0.074 A 
ATOM     58  C   UNL A   1      44.389  26.009  33.033  1.00  0.00     0.029 A 
ATOM     59  N   UNL A   1      44.098  27.921  31.933  1.00  0.00    -0.354 N 
ATOM     60  N   UNL A   1      44.580  29.835  29.766  1.00  0.00    -0.248 NA
ATOM     61  C   UNL A   1      45.746  30.490  27.851  1.00  0.00     0.031 C 
ATOM     62  C   UNL A   1      45.288  26.046  31.965  1.00  0.00     0.029 A 
ATOM     63  C   UNL A   1      45.090  27.226  31.266  1.00  0.00     0.049 A 
ATOM     64  H   UNL A   1      43.745  28.801  31.667  1.00  0.00     0.167 HD
ATOM     65  C   UNL A   1      45.504  28.851  29.438  1.00  0.00     0.074 A 
ATOM     66  C   UNL A   1      46.179  29.295  28.235  1.00  0.00     0.031 C 
ATOM     67  C   UNL A   1      45.764  27.685  30.078  1.00  0.00     0.031 A 
BRANCH  54  68
ATOM     68  C   UNL A   1      42.407  26.775  35.175  1.00  0.00    -0.014 A 
ATOM     69  C   UNL A   1      41.392  25.808  35.125  1.00  0.00     0.009 A 
ATOM     70  C   UNL A   1      43.109  26.962  36.378  1.00  0.00     0.009 A 
ATOM     71  C   UNL A   1      41.085  25.045  36.253  1.00  0.00     0.001 A 
ATOM     72  C   UNL A   1      42.819  26.177  37.495  1.00  0.00     0.001 A 
ATOM     73  C   UNL A   1      41.804  25.224  37.435  1.00  0.00     0.000 A 
ENDBRANCH  54  68
BRANCH  55  74
ATOM     74  C   UNL A   1      44.171  32.962  27.554  1.00  0.00    -0.014 A 
ATOM     75  C   UNL A   1      43.846  32.563  26.248  1.00  0.00     0.009 A 
ATOM     76  C   UNL A   1      44.795  34.204  27.749  1.00  0.00     0.009 A 
ATOM     77  C   UNL A   1      44.163  33.377  25.159  1.00  0.00     0.001 A 
ATOM     78  C   UNL A   1      45.090  35.027  26.659  1.00  0.00     0.001 A 
ATOM     79  C   UNL A   1      44.784  34.608  25.364  1.00  0.00     0.000 A 
ENDBRANCH  55  74
BRANCH  67  80
ATOM     80  C   UNL A   1      46.831  26.794  29.510  1.00  0.00    -0.014 A 
ATOM     81  C   UNL A   1      48.170  26.975  29.894  1.00  0.00     0.009 A 
ATOM     82  C   UNL A   1      46.532  25.863  28.505  1.00  0.00     0.009 A 
ATOM     83  C   UNL A   1      49.190  26.255  29.271  1.00  0.00     0.001 A 
ATOM     84  C   UNL A   1      47.551  25.125  27.901  1.00  0.00     0.001 A 
ATOM     85  C   UNL A   1      48.880  25.329  28.276  1.00  0.00     0.000 A 
ENDBRANCH  67  80
ENDBRANCH  41  42
ENDBRANCH  34  36
ENDBRANCH  33  34
ENDBRANCH  32  33
ENDBRANCH  31  32
ENDBRANCH   1  31
TORSDOF 16
ENDMDL
MODEL 3
REMARK VINA RESULT:     -10.0      1.354      1.952
REMARK SMILES CC1=C(CC(=O)OCCOC(=O)c2ccc(-c3c4nc(c(-c5ccccc5)c5ccc([nH]5)c(-c5ccccc5)c5nc(c(-c6ccccc6)c6ccc3[nH]6)C=C5)C=C4)cc2)c2cc(F)ccc2/C1=C\c1cccc(OCc2ccccc2)c1
REMARK SMILES IDX 7 1 5 2 6 3 4 4 3 5 1 6 2 7 68 8 61 9 67 10 69 11 62 12
REMARK SMILES IDX 66 13 63 14 65 15 64 16 70 17 71 18 83 19 72 20 74 21 73 22
REMARK SMILES IDX 75 23 76 24 77 25 78 26 82 27 79 28 81 29 80 30 8 31 9 32
REMARK SMILES IDX 10 33 11 34 12 35 13 36 14 37 60 38 15 39 59 40 16 41 17 42
REMARK SMILES IDX 18 43 53 44 19 45 58 46 52 47 54 48 20 49 57 50 51 51 50 52
REMARK SMILES IDX 21 54 43 55 28 56 42 57 29 58 32 59 41 60 55 61 30 62 31 63
REMARK SMILES IDX 40 65 56 66 33 67 22 68 23 69 27 70 24 71 26 72 25 73 44 74
REMARK SMILES IDX 45 75 49 76 46 77 48 78 47 79 34 80 35 81 39 82 36 83 38 84
REMARK SMILES IDX 37 85
REMARK H PARENT 54 53 32 64
REMARK Flexibility Score: inf
ROOT
ATOM      1  O   UNL A   1      43.888  22.283  25.829  1.00  0.00    -0.462 OA
ENDROOT
BRANCH   1   2
ATOM      2  C   UNL A   1      43.144  21.194  26.155  1.00  0.00     0.310 C 
ATOM      3  O   UNL A   1      43.107  20.156  25.498  1.00  0.00    -0.252 OA
BRANCH   2   4
ATOM      4  C   UNL A   1      42.335  21.341  27.438  1.00  0.00     0.159 C 
BRANCH   4   5
ATOM      5  C   UNL A   1      41.647  22.646  27.656  1.00  0.00    -0.025 C 
ATOM      6  C   UNL A   1      43.454  23.906  28.929  1.00  0.00     0.045 C 
ATOM      7  C   UNL A   1      42.106  23.739  28.308  1.00  0.00    -0.039 C 
ATOM      8  C   UNL A   1      41.081  24.793  28.278  1.00  0.00    -0.014 C 
ATOM      9  C   UNL A   1      40.317  22.973  27.112  1.00  0.00    -0.011 A 
ATOM     10  C   UNL A   1      39.939  24.266  27.507  1.00  0.00    -0.010 A 
ATOM     11  C   UNL A   1      41.220  26.008  28.836  1.00  0.00     0.017 C 
ATOM     12  C   UNL A   1      39.488  22.227  26.289  1.00  0.00     0.048 A 
ATOM     13  C   UNL A   1      38.706  24.790  27.130  1.00  0.00     0.012 A 
ATOM     14  C   UNL A   1      38.255  22.756  25.916  1.00  0.00     0.123 A 
ATOM     15  C   UNL A   1      37.853  24.020  26.337  1.00  0.00     0.040 A 
ATOM     16  F   UNL A   1      37.449  22.042  25.119  1.00  0.00    -0.207 F 
BRANCH  11  17
ATOM     17  C   UNL A   1      40.240  27.086  28.738  1.00  0.00    -0.021 A 
ATOM     18  C   UNL A   1      40.228  27.936  27.628  1.00  0.00     0.008 A 
ATOM     19  C   UNL A   1      39.360  27.308  29.807  1.00  0.00     0.054 A 
ATOM     20  C   UNL A   1      39.367  29.031  27.606  1.00  0.00     0.004 A 
ATOM     21  C   UNL A   1      38.471  28.382  29.767  1.00  0.00     0.120 A 
ATOM     22  C   UNL A   1      38.500  29.256  28.677  1.00  0.00     0.046 A 
BRANCH  21  23
ATOM     23  O   UNL A   1      37.508  28.660  30.697  1.00  0.00    -0.489 OA
BRANCH  23  24
ATOM     24  C   UNL A   1      37.901  29.286  31.926  1.00  0.00     0.265 C 
BRANCH  24  25
ATOM     25  C   UNL A   1      37.634  30.777  32.025  1.00  0.00    -0.011 A 
ATOM     26  C   UNL A   1      38.412  31.727  31.346  1.00  0.00     0.007 A 
ATOM     27  C   UNL A   1      36.575  31.230  32.826  1.00  0.00     0.007 A 
ATOM     28  C   UNL A   1      38.099  33.085  31.409  1.00  0.00     0.000 A 
ATOM     29  C   UNL A   1      36.275  32.592  32.907  1.00  0.00     0.000 A 
ATOM     30  C   UNL A   1      37.029  33.517  32.188  1.00  0.00     0.000 A 
ENDBRANCH  24  25
ENDBRANCH  23  24
ENDBRANCH  21  23
ENDBRANCH  11  17
ENDBRANCH   4   5
ENDBRANCH   2   4
ENDBRANCH   1   2
BRANCH   1  31
ATOM     31  C   UNL A   1      45.237  22.019  25.389  1.00  0.00     0.274 C 
BRANCH  31  32
ATOM     32  C   UNL A   1      45.680  23.050  24.355  1.00  0.00     0.275 C 
BRANCH  32  33
ATOM     33  O   UNL A   1      45.105  24.327  24.678  1.00  0.00    -0.458 OA
BRANCH  33  34
ATOM     34  C   UNL A   1      45.987  25.325  24.903  1.00  0.00     0.338 C 
ATOM     35  O   UNL A   1      47.014  25.564  24.294  1.00  0.00    -0.246 OA
BRANCH  34  36
ATOM     36  C   UNL A   1      45.530  26.120  26.053  1.00  0.00     0.060 A 
ATOM     37  C   UNL A   1      46.478  26.699  26.892  1.00  0.00     0.016 A 
ATOM     38  C   UNL A   1      44.169  26.375  26.246  1.00  0.00     0.016 A 
ATOM     39  C   UNL A   1      46.054  27.499  27.953  1.00  0.00     0.010 A 
ATOM     40  C   UNL A   1      43.755  27.264  27.235  1.00  0.00     0.010 A 
ATOM     41  C   UNL A   1      44.690  27.798  28.127  1.00  0.00    -0.014 A 
BRANCH  41  42
ATOM     42  C   UNL A   1      44.253  28.645  29.264  1.00  0.00     0.031 A 
ATOM     43  C   UNL A   1      43.982  30.111  29.063  1.00  0.00     0.074 A 
ATOM     44  C   UNL A   1      44.082  28.090  30.479  1.00  0.00     0.049 A 
ATOM     45  N   UNL A   1      43.435  30.963  29.893  1.00  0.00    -0.248 NA
ATOM     46  C   UNL A   1      44.391  30.705  27.780  1.00  0.00     0.031 C 
ATOM     47  C   UNL A   1      44.385  26.699  30.820  1.00  0.00     0.029 A 
ATOM     48  N   UNL A   1      43.584  28.620  31.642  1.00  0.00    -0.354 N 
ATOM     49  C   UNL A   1      43.432  32.184  29.230  1.00  0.00     0.074 A 
ATOM     50  C   UNL A   1      44.092  31.983  27.963  1.00  0.00     0.031 C 
ATOM     51  C   UNL A   1      44.007  26.469  32.087  1.00  0.00     0.029 A 
ATOM     52  C   UNL A   1      43.455  27.698  32.651  1.00  0.00     0.049 A 
ATOM     53  H   UNL A   1      43.345  29.570  31.744  1.00  0.00     0.167 HD
ATOM     54  C   UNL A   1      42.895  33.360  29.627  1.00  0.00     0.031 A 
ATOM     55  C   UNL A   1      42.919  27.816  33.882  1.00  0.00     0.031 A 
ATOM     56  C   UNL A   1      42.227  33.556  30.884  1.00  0.00     0.049 A 
ATOM     57  C   UNL A   1      42.311  29.124  34.300  1.00  0.00     0.074 A 
ATOM     58  C   UNL A   1      41.573  34.685  31.342  1.00  0.00     0.029 A 
ATOM     59  N   UNL A   1      42.137  32.601  31.885  1.00  0.00    -0.354 N 
ATOM     60  N   UNL A   1      42.208  30.238  33.617  1.00  0.00    -0.248 NA
ATOM     61  C   UNL A   1      41.730  29.188  35.649  1.00  0.00     0.031 C 
ATOM     62  C   UNL A   1      41.138  34.434  32.646  1.00  0.00     0.029 A 
ATOM     63  C   UNL A   1      41.468  33.129  32.975  1.00  0.00     0.049 A 
ATOM     64  H   UNL A   1      42.495  31.686  31.828  1.00  0.00     0.167 HD
ATOM     65  C   UNL A   1      41.538  31.131  34.444  1.00  0.00     0.074 A 
ATOM     66  C   UNL A   1      41.246  30.424  35.674  1.00  0.00     0.031 C 
ATOM     67  C   UNL A   1      41.196  32.420  34.200  1.00  0.00     0.031 A 
BRANCH  54  68
ATOM     68  C   UNL A   1      42.994  34.528  28.685  1.00  0.00    -0.014 A 
ATOM     69  C   UNL A   1      44.252  35.047  28.343  1.00  0.00     0.009 A 
ATOM     70  C   UNL A   1      41.841  35.153  28.184  1.00  0.00     0.009 A 
ATOM     71  C   UNL A   1      44.354  36.169  27.518  1.00  0.00     0.001 A 
ATOM     72  C   UNL A   1      41.948  36.257  27.335  1.00  0.00     0.001 A 
ATOM     73  C   UNL A   1      43.203  36.768  27.009  1.00  0.00     0.000 A 
ENDBRANCH  54  68
BRANCH  55  74
ATOM     74  C   UNL A   1      42.878  26.623  34.765  1.00  0.00    -0.014 A 
ATOM     75  C   UNL A   1      44.009  26.240  35.505  1.00  0.00     0.009 A 
ATOM     76  C   UNL A   1      41.733  25.812  34.809  1.00  0.00     0.009 A 
ATOM     77  C   UNL A   1      44.003  25.059  36.249  1.00  0.00     0.001 A 
ATOM     78  C   UNL A   1      41.722  24.643  35.574  1.00  0.00     0.001 A 
ATOM     79  C   UNL A   1      42.860  24.262  36.284  1.00  0.00     0.000 A 
ENDBRANCH  55  74
BRANCH  67  80
ATOM     80  C   UNL A   1      40.473  33.172  35.279  1.00  0.00    -0.014 A 
ATOM     81  C   UNL A   1      39.069  33.181  35.303  1.00  0.00     0.009 A 
ATOM     82  C   UNL A   1      41.175  33.971  36.193  1.00  0.00     0.009 A 
ATOM     83  C   UNL A   1      38.381  33.990  36.209  1.00  0.00     0.001 A 
ATOM     84  C   UNL A   1      40.484  34.759  37.116  1.00  0.00     0.001 A 
ATOM     85  C   UNL A   1      39.089  34.776  37.116  1.00  0.00     0.000 A 
ENDBRANCH  67  80
ENDBRANCH  41  42
ENDBRANCH  34  36
ENDBRANCH  33  34
ENDBRANCH  32  33
ENDBRANCH  31  32
ENDBRANCH   1  31
TORSDOF 16
ENDMDL
