MODEL 1
REMARK VINA RESULT:     -11.0      0.000      0.000
REMARK SMILES CC1=C(C)C[C@@H](C(=O)OCCOC(=O)c2ccc(-c3c4nc(c(-c5ccccc5)c5ccc([nH]5)c(-c5ccccc5)c5nc(c(-c6ccccc6)c6ccc3[nH]6)C=C5)C=C4)cc2)[C@@H](C(=O)NCC[NH+]2CCOCC2)C1
REMARK SMILES IDX 10 1 9 2 7 3 8 4 6 5 1 6 2 7 3 8 75 9 4 10 5 11 63 12 64 13
REMARK SMILES IDX 65 14 66 15 67 17 68 18 69 19 70 20 74 21 71 23 73 24 72 25
REMARK SMILES IDX 11 26 12 27 13 28 14 29 15 30 16 31 62 32 17 33 61 34 18 35
REMARK SMILES IDX 19 36 20 37 55 38 21 39 60 40 54 41 56 42 22 43 59 44 53 45
REMARK SMILES IDX 52 46 23 48 45 49 30 50 44 51 31 52 34 53 43 54 57 55 32 56
REMARK SMILES IDX 33 57 42 59 58 60 35 61 24 62 25 63 29 64 26 65 28 66 27 67
REMARK SMILES IDX 46 68 47 69 51 70 48 71 50 72 49 73 36 74 37 75 41 76 38 77
REMARK SMILES IDX 40 78 39 79
REMARK H PARENT 66 16 69 22 56 47 34 58
REMARK Flexibility Score: inf
ROOT
ATOM      1  C   UNL A   1      38.616  21.538  25.687  1.00  0.00     0.274 C 
ENDROOT
BRANCH   1   2
ATOM      2  O   UNL A   1      37.220  21.681  25.359  1.00  0.00    -0.462 OA
BRANCH   2   3
ATOM      3  C   UNL A   1      36.650  22.874  25.589  1.00  0.00     0.310 C 
ATOM      4  O   UNL A   1      37.166  23.754  26.278  1.00  0.00    -0.252 OA
BRANCH   3   5
ATOM      5  C   UNL A   1      35.287  23.090  24.947  1.00  0.00     0.116 C 
ATOM      6  C   UNL A   1      31.435  24.767  26.274  1.00  0.00     0.039 C 
ATOM      7  C   UNL A   1      32.722  24.358  25.617  1.00  0.00    -0.074 C 
ATOM      8  C   UNL A   1      33.809  25.142  25.488  1.00  0.00    -0.073 C 
ATOM      9  C   UNL A   1      32.736  22.962  25.040  1.00  0.00     0.045 C 
ATOM     10  C   UNL A   1      33.904  26.595  25.870  1.00  0.00     0.039 C 
ATOM     11  C   UNL A   1      35.057  24.608  24.844  1.00  0.00     0.046 C 
ATOM     12  C   UNL A   1      34.057  22.205  25.272  1.00  0.00     0.097 C 
BRANCH  12  13
ATOM     13  C   UNL A   1      33.931  21.501  26.623  1.00  0.00     0.224 C 
ATOM     14  O   UNL A   1      34.157  22.050  27.701  1.00  0.00    -0.275 OA
ATOM     15  N   UNL A   1      33.398  20.235  26.664  1.00  0.00    -0.350 N 
ATOM     16  H   UNL A   1      33.404  19.817  27.556  1.00  0.00     0.163 HD
BRANCH  15  17
ATOM     17  C   UNL A   1      32.824  19.403  25.606  1.00  0.00     0.177 C 
BRANCH  17  18
ATOM     18  C   UNL A   1      32.546  17.935  26.001  1.00  0.00     0.283 C 
BRANCH  18  19
ATOM     19  N   UNL A   1      32.224  16.991  24.907  1.00  0.00    -0.330 N 
ATOM     20  C   UNL A   1      32.603  15.589  25.173  1.00  0.00     0.291 C 
ATOM     21  C   UNL A   1      32.915  17.396  23.654  1.00  0.00     0.291 C 
ATOM     22  H   UNL A   1      31.208  17.035  24.826  1.00  0.00     0.348 HD
ATOM     23  C   UNL A   1      34.119  15.355  25.197  1.00  0.00     0.221 C 
ATOM     24  C   UNL A   1      34.433  17.123  23.659  1.00  0.00     0.221 C 
ATOM     25  O   UNL A   1      34.728  15.752  23.961  1.00  0.00    -0.370 OA
ENDBRANCH  18  19
ENDBRANCH  17  18
ENDBRANCH  15  17
ENDBRANCH  12  13
ENDBRANCH   3   5
ENDBRANCH   2   3
ENDBRANCH   1   2
BRANCH   1  26
ATOM     26  C   UNL A   1      39.136  20.161  25.261  1.00  0.00     0.275 C 
BRANCH  26  27
ATOM     27  O   UNL A   1      40.046  19.596  26.226  1.00  0.00    -0.458 OA
BRANCH  27  28
ATOM     28  C   UNL A   1      41.358  19.805  25.976  1.00  0.00     0.338 C 
ATOM     29  O   UNL A   1      42.112  19.110  25.316  1.00  0.00    -0.246 OA
BRANCH  28  30
ATOM     30  C   UNL A   1      41.786  21.110  26.489  1.00  0.00     0.060 A 
ATOM     31  C   UNL A   1      41.584  21.360  27.850  1.00  0.00     0.016 A 
ATOM     32  C   UNL A   1      42.284  22.102  25.646  1.00  0.00     0.016 A 
ATOM     33  C   UNL A   1      41.875  22.606  28.381  1.00  0.00     0.010 A 
ATOM     34  C   UNL A   1      42.584  23.356  26.183  1.00  0.00     0.010 A 
ATOM     35  C   UNL A   1      42.376  23.611  27.550  1.00  0.00    -0.014 A 
BRANCH  35  36
ATOM     36  C   UNL A   1      42.671  24.935  28.131  1.00  0.00     0.031 A 
ATOM     37  C   UNL A   1      44.072  25.286  28.527  1.00  0.00     0.074 A 
ATOM     38  C   UNL A   1      41.676  25.833  28.247  1.00  0.00     0.049 A 
ATOM     39  N   UNL A   1      44.516  26.370  29.105  1.00  0.00    -0.248 NA
ATOM     40  C   UNL A   1      45.111  24.288  28.226  1.00  0.00     0.031 C 
ATOM     41  C   UNL A   1      40.292  25.619  27.821  1.00  0.00     0.029 A 
ATOM     42  N   UNL A   1      41.682  27.108  28.748  1.00  0.00    -0.354 N 
ATOM     43  C   UNL A   1      45.883  26.182  29.255  1.00  0.00     0.074 A 
ATOM     44  C   UNL A   1      46.195  24.876  28.714  1.00  0.00     0.031 C 
ATOM     45  C   UNL A   1      39.584  26.733  28.068  1.00  0.00     0.029 A 
ATOM     46  C   UNL A   1      40.450  27.711  28.715  1.00  0.00     0.049 A 
ATOM     47  H   UNL A   1      42.491  27.548  29.096  1.00  0.00     0.167 HD
ATOM     48  C   UNL A   1      46.792  27.024  29.800  1.00  0.00     0.031 A 
ATOM     49  C   UNL A   1      40.059  28.910  29.183  1.00  0.00     0.031 A 
ATOM     50  C   UNL A   1      46.467  28.314  30.348  1.00  0.00     0.049 A 
ATOM     51  C   UNL A   1      41.071  29.791  29.856  1.00  0.00     0.074 A 
ATOM     52  C   UNL A   1      47.307  29.232  30.954  1.00  0.00     0.029 A 
ATOM     53  N   UNL A   1      45.196  28.869  30.351  1.00  0.00    -0.354 N 
ATOM     54  N   UNL A   1      42.354  29.584  30.035  1.00  0.00    -0.248 NA
ATOM     55  C   UNL A   1      40.581  31.066  30.396  1.00  0.00     0.031 C 
ATOM     56  C   UNL A   1      46.535  30.328  31.358  1.00  0.00     0.029 A 
ATOM     57  C   UNL A   1      45.224  30.111  30.962  1.00  0.00     0.049 A 
ATOM     58  H   UNL A   1      44.392  28.443  29.975  1.00  0.00     0.167 HD
ATOM     59  C   UNL A   1      42.827  30.705  30.701  1.00  0.00     0.074 A 
ATOM     60  C   UNL A   1      41.697  31.597  30.875  1.00  0.00     0.031 C 
ATOM     61  C   UNL A   1      44.084  30.974  31.132  1.00  0.00     0.031 A 
BRANCH  48  62
ATOM     62  C   UNL A   1      48.214  26.548  29.871  1.00  0.00    -0.014 A 
ATOM     63  C   UNL A   1      49.131  26.840  28.849  1.00  0.00     0.009 A 
ATOM     64  C   UNL A   1      48.646  25.812  30.984  1.00  0.00     0.009 A 
ATOM     65  C   UNL A   1      50.448  26.379  28.931  1.00  0.00     0.001 A 
ATOM     66  C   UNL A   1      49.966  25.371  31.073  1.00  0.00     0.001 A 
ATOM     67  C   UNL A   1      50.865  25.648  30.044  1.00  0.00     0.000 A 
ENDBRANCH  48  62
BRANCH  49  68
ATOM     68  C   UNL A   1      38.639  29.322  29.058  1.00  0.00    -0.014 A 
ATOM     69  C   UNL A   1      38.156  29.870  27.862  1.00  0.00     0.009 A 
ATOM     70  C   UNL A   1      37.752  29.146  30.133  1.00  0.00     0.009 A 
ATOM     71  C   UNL A   1      36.815  30.243  27.747  1.00  0.00     0.001 A 
ATOM     72  C   UNL A   1      36.407  29.497  30.007  1.00  0.00     0.001 A 
ATOM     73  C   UNL A   1      35.941  30.050  28.816  1.00  0.00     0.000 A 
ENDBRANCH  49  68
BRANCH  61  74
ATOM     74  C   UNL A   1      44.298  32.293  31.811  1.00  0.00    -0.014 A 
ATOM     75  C   UNL A   1      44.156  32.421  33.201  1.00  0.00     0.009 A 
ATOM     76  C   UNL A   1      44.676  33.411  31.056  1.00  0.00     0.009 A 
ATOM     77  C   UNL A   1      44.361  33.656  33.819  1.00  0.00     0.001 A 
ATOM     78  C   UNL A   1      44.902  34.640  31.677  1.00  0.00     0.001 A 
ATOM     79  C   UNL A   1      44.737  34.763  33.056  1.00  0.00     0.000 A 
ENDBRANCH  61  74
ENDBRANCH  35  36
ENDBRANCH  28  30
ENDBRANCH  27  28
ENDBRANCH  26  27
ENDBRANCH   1  26
TORSDOF 15
ENDMDL
MODEL 2
REMARK VINA RESULT:     -11.0      3.460      5.601
REMARK SMILES CC1=C(C)C[C@@H](C(=O)OCCOC(=O)c2ccc(-c3c4nc(c(-c5ccccc5)c5ccc([nH]5)c(-c5ccccc5)c5nc(c(-c6ccccc6)c6ccc3[nH]6)C=C5)C=C4)cc2)[C@@H](C(=O)NCC[NH+]2CCOCC2)C1
REMARK SMILES IDX 10 1 9 2 7 3 8 4 6 5 1 6 2 7 3 8 75 9 4 10 5 11 63 12 64 13
REMARK SMILES IDX 65 14 66 15 67 17 68 18 69 19 70 20 74 21 71 23 73 24 72 25
REMARK SMILES IDX 11 26 12 27 13 28 14 29 15 30 16 31 62 32 17 33 61 34 18 35
REMARK SMILES IDX 19 36 20 37 55 38 21 39 60 40 54 41 56 42 22 43 59 44 53 45
REMARK SMILES IDX 52 46 23 48 45 49 30 50 44 51 31 52 34 53 43 54 57 55 32 56
REMARK SMILES IDX 33 57 42 59 58 60 35 61 24 62 25 63 29 64 26 65 28 66 27 67
REMARK SMILES IDX 46 68 47 69 51 70 48 71 50 72 49 73 36 74 37 75 41 76 38 77
REMARK SMILES IDX 40 78 39 79
REMARK H PARENT 66 16 69 22 56 47 34 58
REMARK Flexibility Score: inf
ROOT
ATOM      1  C   UNL A   1      36.215  20.980  25.280  1.00  0.00     0.274 C 
ENDROOT
BRANCH   1   2
ATOM      2  O   UNL A   1      35.667  22.094  24.549  1.00  0.00    -0.462 OA
BRANCH   2   3
ATOM      3  C   UNL A   1      35.211  23.136  25.261  1.00  0.00     0.310 C 
ATOM      4  O   UNL A   1      35.717  23.512  26.319  1.00  0.00    -0.252 OA
BRANCH   3   5
ATOM      5  C   UNL A   1      33.992  23.845  24.688  1.00  0.00     0.116 C 
ATOM      6  C   UNL A   1      30.870  26.500  26.306  1.00  0.00     0.039 C 
ATOM      7  C   UNL A   1      31.963  25.779  25.569  1.00  0.00    -0.074 C 
ATOM      8  C   UNL A   1      33.244  26.186  25.493  1.00  0.00    -0.073 C 
ATOM      9  C   UNL A   1      31.533  24.525  24.844  1.00  0.00     0.045 C 
ATOM     10  C   UNL A   1      33.796  27.480  26.027  1.00  0.00     0.039 C 
ATOM     11  C   UNL A   1      34.260  25.358  24.758  1.00  0.00     0.046 C 
ATOM     12  C   UNL A   1      32.542  23.367  24.953  1.00  0.00     0.097 C 
BRANCH  12  13
ATOM     13  C   UNL A   1      32.189  22.592  26.223  1.00  0.00     0.224 C 
ATOM     14  O   UNL A   1      31.711  23.115  27.229  1.00  0.00    -0.275 OA
ATOM     15  N   UNL A   1      32.268  21.220  26.207  1.00  0.00    -0.350 N 
ATOM     16  H   UNL A   1      32.088  20.790  27.074  1.00  0.00     0.163 HD
BRANCH  15  17
ATOM     17  C   UNL A   1      32.572  20.291  25.117  1.00  0.00     0.177 C 
BRANCH  17  18
ATOM     18  C   UNL A   1      32.902  18.848  25.557  1.00  0.00     0.283 C 
BRANCH  18  19
ATOM     19  N   UNL A   1      32.215  17.750  24.840  1.00  0.00    -0.330 N 
ATOM     20  C   UNL A   1      32.472  16.403  25.387  1.00  0.00     0.291 C 
ATOM     21  C   UNL A   1      32.631  17.725  23.413  1.00  0.00     0.291 C 
ATOM     22  H   UNL A   1      31.222  17.954  24.955  1.00  0.00     0.348 HD
ATOM     23  C   UNL A   1      33.910  15.914  25.167  1.00  0.00     0.221 C 
ATOM     24  C   UNL A   1      34.061  17.194  23.186  1.00  0.00     0.221 C 
ATOM     25  O   UNL A   1      34.250  15.900  23.774  1.00  0.00    -0.370 OA
ENDBRANCH  18  19
ENDBRANCH  17  18
ENDBRANCH  15  17
ENDBRANCH  12  13
ENDBRANCH   3   5
ENDBRANCH   2   3
ENDBRANCH   1   2
BRANCH   1  26
ATOM     26  C   UNL A   1      37.618  20.633  24.772  1.00  0.00     0.275 C 
BRANCH  26  27
ATOM     27  O   UNL A   1      38.656  21.242  25.568  1.00  0.00    -0.458 OA
BRANCH  27  28
ATOM     28  C   UNL A   1      39.717  20.451  25.838  1.00  0.00     0.338 C 
ATOM     29  O   UNL A   1      39.855  19.270  25.570  1.00  0.00    -0.246 OA
BRANCH  28  30
ATOM     30  C   UNL A   1      40.824  21.234  26.397  1.00  0.00     0.060 A 
ATOM     31  C   UNL A   1      40.518  22.500  26.907  1.00  0.00     0.016 A 
ATOM     32  C   UNL A   1      42.143  20.786  26.338  1.00  0.00     0.016 A 
ATOM     33  C   UNL A   1      41.530  23.332  27.360  1.00  0.00     0.010 A 
ATOM     34  C   UNL A   1      43.161  21.621  26.802  1.00  0.00     0.010 A 
ATOM     35  C   UNL A   1      42.857  22.897  27.310  1.00  0.00    -0.014 A 
BRANCH  35  36
ATOM     36  C   UNL A   1      43.922  23.801  27.788  1.00  0.00     0.031 A 
ATOM     37  C   UNL A   1      44.175  23.950  29.255  1.00  0.00     0.074 A 
ATOM     38  C   UNL A   1      44.689  24.440  26.887  1.00  0.00     0.049 A 
ATOM     39  N   UNL A   1      45.020  24.736  29.868  1.00  0.00    -0.248 NA
ATOM     40  C   UNL A   1      43.377  23.099  30.153  1.00  0.00     0.031 C 
ATOM     41  C   UNL A   1      44.574  24.304  25.433  1.00  0.00     0.029 A 
ATOM     42  N   UNL A   1      45.722  25.321  27.062  1.00  0.00    -0.354 N 
ATOM     43  C   UNL A   1      44.847  24.490  31.223  1.00  0.00     0.074 A 
ATOM     44  C   UNL A   1      43.811  23.487  31.344  1.00  0.00     0.031 C 
ATOM     45  C   UNL A   1      45.512  25.066  24.849  1.00  0.00     0.029 A 
ATOM     46  C   UNL A   1      46.252  25.781  25.884  1.00  0.00     0.049 A 
ATOM     47  H   UNL A   1      46.052  25.596  27.948  1.00  0.00     0.167 HD
ATOM     48  C   UNL A   1      45.494  25.056  32.269  1.00  0.00     0.031 A 
ATOM     49  C   UNL A   1      47.209  26.700  25.664  1.00  0.00     0.031 A 
ATOM     50  C   UNL A   1      46.513  26.063  32.136  1.00  0.00     0.049 A 
ATOM     51  C   UNL A   1      47.854  27.371  26.841  1.00  0.00     0.074 A 
ATOM     52  C   UNL A   1      47.208  26.726  33.132  1.00  0.00     0.029 A 
ATOM     53  N   UNL A   1      46.985  26.549  30.925  1.00  0.00    -0.354 N 
ATOM     54  N   UNL A   1      47.650  27.165  28.120  1.00  0.00    -0.248 NA
ATOM     55  C   UNL A   1      48.855  28.405  26.545  1.00  0.00     0.031 C 
ATOM     56  C   UNL A   1      48.075  27.641  32.523  1.00  0.00     0.029 A 
ATOM     57  C   UNL A   1      47.951  27.515  31.148  1.00  0.00     0.049 A 
ATOM     58  H   UNL A   1      46.677  26.252  30.039  1.00  0.00     0.167 HD
ATOM     59  C   UNL A   1      48.502  28.036  28.783  1.00  0.00     0.074 A 
ATOM     60  C   UNL A   1      49.239  28.758  27.764  1.00  0.00     0.031 C 
ATOM     61  C   UNL A   1      48.661  28.224  30.116  1.00  0.00     0.031 A 
BRANCH  48  62
ATOM     62  C   UNL A   1      45.079  24.628  33.646  1.00  0.00    -0.014 A 
ATOM     63  C   UNL A   1      44.011  25.251  34.311  1.00  0.00     0.009 A 
ATOM     64  C   UNL A   1      45.756  23.576  34.281  1.00  0.00     0.009 A 
ATOM     65  C   UNL A   1      43.648  24.843  35.598  1.00  0.00     0.001 A 
ATOM     66  C   UNL A   1      45.378  23.156  35.556  1.00  0.00     0.001 A 
ATOM     67  C   UNL A   1      44.329  23.795  36.217  1.00  0.00     0.000 A 
ENDBRANCH  48  62
BRANCH  49  68
ATOM     68  C   UNL A   1      47.583  27.056  24.272  1.00  0.00    -0.014 A 
ATOM     69  C   UNL A   1      46.896  28.066  23.585  1.00  0.00     0.009 A 
ATOM     70  C   UNL A   1      48.647  26.401  23.633  1.00  0.00     0.009 A 
ATOM     71  C   UNL A   1      47.262  28.406  22.280  1.00  0.00     0.001 A 
ATOM     72  C   UNL A   1      49.027  26.759  22.339  1.00  0.00     0.001 A 
ATOM     73  C   UNL A   1      48.329  27.757  21.662  1.00  0.00     0.000 A 
ENDBRANCH  49  68
BRANCH  61  74
ATOM     74  C   UNL A   1      49.685  29.235  30.539  1.00  0.00    -0.014 A 
ATOM     75  C   UNL A   1      49.331  30.576  30.752  1.00  0.00     0.009 A 
ATOM     76  C   UNL A   1      51.011  28.834  30.755  1.00  0.00     0.009 A 
ATOM     77  C   UNL A   1      50.296  31.504  31.147  1.00  0.00     0.001 A 
ATOM     78  C   UNL A   1      51.970  29.758  31.172  1.00  0.00     0.001 A 
ATOM     79  C   UNL A   1      51.613  31.093  31.360  1.00  0.00     0.000 A 
ENDBRANCH  61  74
ENDBRANCH  35  36
ENDBRANCH  28  30
ENDBRANCH  27  28
ENDBRANCH  26  27
ENDBRANCH   1  26
TORSDOF 15
ENDMDL
MODEL 3
REMARK VINA RESULT:     -10.9      1.985      3.178
REMARK SMILES CC1=C(C)C[C@@H](C(=O)OCCOC(=O)c2ccc(-c3c4nc(c(-c5ccccc5)c5ccc([nH]5)c(-c5ccccc5)c5nc(c(-c6ccccc6)c6ccc3[nH]6)C=C5)C=C4)cc2)[C@@H](C(=O)NCC[NH+]2CCOCC2)C1
REMARK SMILES IDX 10 1 9 2 7 3 8 4 6 5 1 6 2 7 3 8 75 9 4 10 5 11 63 12 64 13
REMARK SMILES IDX 65 14 66 15 67 17 68 18 69 19 70 20 74 21 71 23 73 24 72 25
REMARK SMILES IDX 11 26 12 27 13 28 14 29 15 30 16 31 62 32 17 33 61 34 18 35
REMARK SMILES IDX 19 36 20 37 55 38 21 39 60 40 54 41 56 42 22 43 59 44 53 45
REMARK SMILES IDX 52 46 23 48 45 49 30 50 44 51 31 52 34 53 43 54 57 55 32 56
REMARK SMILES IDX 33 57 42 59 58 60 35 61 24 62 25 63 29 64 26 65 28 66 27 67
REMARK SMILES IDX 46 68 47 69 51 70 48 71 50 72 49 73 36 74 37 75 41 76 38 77
REMARK SMILES IDX 40 78 39 79
REMARK H PARENT 66 16 69 22 56 47 34 58
REMARK Flexibility Score: inf
ROOT
ATOM      1  C   UNL A   1      36.158  21.374  24.913  1.00  0.00     0.274 C 
ENDROOT
BRANCH   1   2
ATOM      2  O   UNL A   1      35.528  21.528  26.199  1.00  0.00    -0.462 OA
BRANCH   2   3
ATOM      3  C   UNL A   1      34.726  22.590  26.371  1.00  0.00     0.310 C 
ATOM      4  O   UNL A   1      34.272  22.932  27.463  1.00  0.00    -0.252 OA
BRANCH   3   5
ATOM      5  C   UNL A   1      34.382  23.370  25.109  1.00  0.00     0.116 C 
ATOM      6  C   UNL A   1      31.431  26.465  24.051  1.00  0.00     0.039 C 
ATOM      7  C   UNL A   1      32.613  25.574  24.305  1.00  0.00    -0.074 C 
ATOM      8  C   UNL A   1      33.610  25.837  25.170  1.00  0.00    -0.073 C 
ATOM      9  C   UNL A   1      32.659  24.312  23.474  1.00  0.00     0.045 C 
ATOM     10  C   UNL A   1      33.790  27.108  25.954  1.00  0.00     0.039 C 
ATOM     11  C   UNL A   1      34.723  24.847  25.368  1.00  0.00     0.046 C 
ATOM     12  C   UNL A   1      33.124  23.069  24.254  1.00  0.00     0.097 C 
BRANCH  12  13
ATOM     13  C   UNL A   1      31.876  22.449  24.883  1.00  0.00     0.224 C 
ATOM     14  O   UNL A   1      30.881  23.098  25.201  1.00  0.00    -0.275 OA
ATOM     15  N   UNL A   1      31.787  21.081  24.970  1.00  0.00    -0.350 N 
ATOM     16  H   UNL A   1      30.988  20.752  25.441  1.00  0.00     0.163 HD
BRANCH  15  17
ATOM     17  C   UNL A   1      32.680  20.030  24.479  1.00  0.00     0.177 C 
BRANCH  17  18
ATOM     18  C   UNL A   1      32.742  18.758  25.354  1.00  0.00     0.283 C 
BRANCH  18  19
ATOM     19  N   UNL A   1      32.213  17.508  24.764  1.00  0.00    -0.330 N 
ATOM     20  C   UNL A   1      32.603  16.277  25.482  1.00  0.00     0.291 C 
ATOM     21  C   UNL A   1      32.683  17.358  23.362  1.00  0.00     0.291 C 
ATOM     22  H   UNL A   1      31.200  17.604  24.829  1.00  0.00     0.348 HD
ATOM     23  C   UNL A   1      34.095  15.940  25.359  1.00  0.00     0.221 C 
ATOM     24  C   UNL A   1      34.173  16.977  23.237  1.00  0.00     0.221 C 
ATOM     25  O   UNL A   1      34.487  15.796  23.987  1.00  0.00    -0.370 OA
ENDBRANCH  18  19
ENDBRANCH  17  18
ENDBRANCH  15  17
ENDBRANCH  12  13
ENDBRANCH   3   5
ENDBRANCH   2   3
ENDBRANCH   1   2
BRANCH   1  26
ATOM     26  C   UNL A   1      37.679  21.520  25.031  1.00  0.00     0.275 C 
BRANCH  26  27
ATOM     27  O   UNL A   1      38.065  22.783  25.613  1.00  0.00    -0.458 OA
BRANCH  27  28
ATOM     28  C   UNL A   1      39.225  22.769  26.306  1.00  0.00     0.338 C 
ATOM     29  O   UNL A   1      40.051  21.874  26.362  1.00  0.00    -0.246 OA
BRANCH  28  30
ATOM     30  C   UNL A   1      39.486  24.078  26.914  1.00  0.00     0.060 A 
ATOM     31  C   UNL A   1      40.137  25.031  26.124  1.00  0.00     0.016 A 
ATOM     32  C   UNL A   1      39.192  24.337  28.251  1.00  0.00     0.016 A 
ATOM     33  C   UNL A   1      40.503  26.253  26.666  1.00  0.00     0.010 A 
ATOM     34  C   UNL A   1      39.553  25.572  28.795  1.00  0.00     0.010 A 
ATOM     35  C   UNL A   1      40.213  26.530  28.004  1.00  0.00    -0.014 A 
BRANCH  35  36
ATOM     36  C   UNL A   1      40.618  27.833  28.567  1.00  0.00     0.031 A 
ATOM     37  C   UNL A   1      42.049  28.079  28.932  1.00  0.00     0.074 A 
ATOM     38  C   UNL A   1      39.697  28.805  28.692  1.00  0.00     0.049 A 
ATOM     39  N   UNL A   1      42.586  29.131  29.491  1.00  0.00    -0.248 NA
ATOM     40  C   UNL A   1      43.003  27.003  28.622  1.00  0.00     0.031 C 
ATOM     41  C   UNL A   1      38.292  28.693  28.294  1.00  0.00     0.029 A 
ATOM     42  N   UNL A   1      39.809  30.080  29.179  1.00  0.00    -0.354 N 
ATOM     43  C   UNL A   1      43.937  28.841  29.618  1.00  0.00     0.074 A 
ATOM     44  C   UNL A   1      44.138  27.510  29.084  1.00  0.00     0.031 C 
ATOM     45  C   UNL A   1      37.676  29.860  28.542  1.00  0.00     0.029 A 
ATOM     46  C   UNL A   1      38.627  30.775  29.163  1.00  0.00     0.049 A 
ATOM     47  H   UNL A   1      40.656  30.460  29.508  1.00  0.00     0.167 HD
ATOM     48  C   UNL A   1      44.917  29.616  30.138  1.00  0.00     0.031 A 
ATOM     49  C   UNL A   1      38.337  32.004  29.626  1.00  0.00     0.031 A 
ATOM     50  C   UNL A   1      44.703  30.932  30.678  1.00  0.00     0.049 A 
ATOM     51  C   UNL A   1      39.425  32.811  30.270  1.00  0.00     0.074 A 
ATOM     52  C   UNL A   1      45.621  31.788  31.259  1.00  0.00     0.029 A 
ATOM     53  N   UNL A   1      43.477  31.582  30.699  1.00  0.00    -0.354 N 
ATOM     54  N   UNL A   1      40.692  32.509  30.428  1.00  0.00    -0.248 NA
ATOM     55  C   UNL A   1      39.044  34.124  30.807  1.00  0.00     0.031 C 
ATOM     56  C   UNL A   1      44.943  32.943  31.666  1.00  0.00     0.029 A 
ATOM     57  C   UNL A   1      43.611  32.824  31.296  1.00  0.00     0.049 A 
ATOM     58  H   UNL A   1      42.636  31.215  30.342  1.00  0.00     0.167 HD
ATOM     59  C   UNL A   1      41.262  33.596  31.073  1.00  0.00     0.074 A 
ATOM     60  C   UNL A   1      40.207  34.573  31.260  1.00  0.00     0.031 C 
ATOM     61  C   UNL A   1      42.544  33.772  31.478  1.00  0.00     0.031 A 
BRANCH  48  62
ATOM     62  C   UNL A   1      46.300  29.034  30.187  1.00  0.00    -0.014 A 
ATOM     63  C   UNL A   1      47.209  29.227  29.134  1.00  0.00     0.009 A 
ATOM     64  C   UNL A   1      46.704  28.297  31.309  1.00  0.00     0.009 A 
ATOM     65  C   UNL A   1      48.488  28.668  29.197  1.00  0.00     0.001 A 
ATOM     66  C   UNL A   1      47.989  27.757  31.379  1.00  0.00     0.001 A 
ATOM     67  C   UNL A   1      48.878  27.937  30.319  1.00  0.00     0.000 A 
ENDBRANCH  48  62
BRANCH  49  68
ATOM     68  C   UNL A   1      36.950  32.522  29.523  1.00  0.00    -0.014 A 
ATOM     69  C   UNL A   1      36.043  32.351  30.578  1.00  0.00     0.009 A 
ATOM     70  C   UNL A   1      36.534  33.212  28.373  1.00  0.00     0.009 A 
ATOM     71  C   UNL A   1      34.743  32.854  30.481  1.00  0.00     0.001 A 
ATOM     72  C   UNL A   1      35.242  33.735  28.288  1.00  0.00     0.001 A 
ATOM     73  C   UNL A   1      34.347  33.550  29.339  1.00  0.00     0.000 A 
ENDBRANCH  49  68
BRANCH  61  74
ATOM     74  C   UNL A   1      42.871  35.077  32.140  1.00  0.00    -0.014 A 
ATOM     75  C   UNL A   1      43.462  36.125  31.419  1.00  0.00     0.009 A 
ATOM     76  C   UNL A   1      42.556  35.268  33.493  1.00  0.00     0.009 A 
ATOM     77  C   UNL A   1      43.758  37.334  32.051  1.00  0.00     0.001 A 
ATOM     78  C   UNL A   1      42.833  36.486  34.117  1.00  0.00     0.001 A 
ATOM     79  C   UNL A   1      43.440  37.514  33.398  1.00  0.00     0.000 A 
ENDBRANCH  61  74
ENDBRANCH  35  36
ENDBRANCH  28  30
ENDBRANCH  27  28
ENDBRANCH  26  27
ENDBRANCH   1  26
TORSDOF 15
ENDMDL
